MODEL 1
REMARK VINA RESULT: -9.006628759      0.000      0.000
REMARK  15 active torsions:
REMARK  status: ('A' for Active; 'I' for Inactive)
REMARK    1  A    between atoms: C2_2  and  C3_3 
REMARK    2  A    between atoms: C3_3  and  N1_4 
REMARK       I    between atoms: N2_7  and  C6_8 
REMARK    3  A    between atoms: C6_8  and  C7_10 
REMARK    4  A    between atoms: C7_10  and  C8_11 
REMARK    5  A    between atoms: C8_11  and  C9_12 
REMARK    6  A    between atoms: C9_12  and  C10_13 
REMARK       I    between atoms: N4_18  and  C14_19 
REMARK    7  A    between atoms: C14_19  and  O3_21 
REMARK    8  A    between atoms: O3_21  and  C15_22 
REMARK    9  A    between atoms: C15_22  and  C16_23 
REMARK   10  A    between atoms: C20_27  and  O4_28 
REMARK   11  A    between atoms: O4_28  and  C21_29 
REMARK   12  A    between atoms: C26_34  and  O5_35 
REMARK   13  A    between atoms: C30_39  and  C31_40 
REMARK   14  A    between atoms: C31_40  and  O6_41 
REMARK   15  A    between atoms: N5_43  and  O7_45 
ROOT
HETATM    1  C10 UNL     1      21.878  32.102  16.056  1.00  0.00     0.125 C 
HETATM    2  C11 UNL     1      23.045  32.234  15.197  1.00  0.00     0.059 C 
HETATM    3  N3  UNL     1      23.977  32.359  14.525  1.00  0.00    -0.197 NA
ENDROOT
BRANCH   1   4
HETATM    4  C9  UNL     1      20.568  32.266  15.487  1.00  0.00     0.028 C 
BRANCH   4   5
HETATM    5  C8  UNL     1      19.432  31.363  15.477  1.00  0.00    -0.014 C 
HETATM    6  C12 UNL     1      18.617  31.569  14.188  1.00  0.00     0.033 C 
HETATM    7  C13 UNL     1      18.043  32.935  14.061  1.00  0.00     0.129 C 
HETATM    8  N4  UNL     1      17.167  33.186  15.189  1.00  0.00    -0.328 N 
HETATM    9  C14 UNL     1      16.410  34.366  15.366  1.00  0.00     0.363 C 
HETATM   10  C28 UNL     1      17.107  32.125  16.161  1.00  0.00     0.129 C 
HETATM   11  O2  UNL     1      16.466  35.307  14.492  1.00  0.00    -0.238 OA
HETATM   12  C29 UNL     1      18.498  31.869  16.621  1.00  0.00     0.033 C 
BRANCH   5  13
HETATM   13  C7  UNL     1      19.573  29.919  15.715  1.00  0.00     0.057 C 
BRANCH  13  14
HETATM   14  C6  UNL     1      19.287  28.927  14.688  1.00  0.00     0.241 C 
HETATM   15  N2  UNL     1      20.372  28.377  13.895  1.00  0.00    -0.333 N 
HETATM   16  C5  UNL     1      21.751  28.747  14.065  1.00  0.00     0.157 C 
HETATM   17  C30 UNL     1      20.087  27.402  12.871  1.00  0.00     0.192 C 
HETATM   18  C4  UNL     1      22.308  29.167  12.718  1.00  0.00     0.292 C 
HETATM   19  N1  UNL     1      22.046  28.215  11.688  1.00  0.00     0.095 N 
HETATM   20  C32 UNL     1      21.377  27.032  12.141  1.00  0.00     0.306 C 
HETATM   21  O1  UNL     1      18.172  28.466  14.388  1.00  0.00    -0.269 OA
BRANCH  19  22
HETATM   22  C3  UNL     1      23.201  27.824  10.942  1.00  0.00     0.299 C 
BRANCH  22  23
HETATM   23  C2  UNL     1      24.288  27.362  11.856  1.00  0.00    -0.007 C 
HETATM   24  C1  UNL     1      25.002  26.296  11.589  1.00  0.00     0.008 C 
ENDBRANCH  22  23
ENDBRANCH  19  22
BRANCH  17  25
HETATM   25  C31 UNL     1      19.019  27.771  11.943  1.00  0.00     0.160 C 
HETATM   26  N5  UNL     1      18.159  26.919  11.505  1.00  0.00    -0.249 N 
ATOM     27  H5  UNL     1      18.223  25.950  11.816  1.00  0.00     0.196 HD
BRANCH  25  28
HETATM   28  O6  UNL     1      18.917  29.082  11.510  1.00  0.00    -0.347 OA
ATOM     29  H6  UNL     1      18.331  29.293  10.793  1.00  0.00     0.219 HD
ENDBRANCH  25  28
BRANCH  26  30
HETATM   30  O7  UNL     1      17.170  27.266  10.645  1.00  0.00    -0.288 OA
ATOM     31  H7  UNL     1      16.324  26.834  10.644  1.00  0.00     0.244 HD
ENDBRANCH  26  30
ENDBRANCH  17  25
ENDBRANCH  13  14
ENDBRANCH   5  13
BRANCH   9  32
HETATM   32  O3  UNL     1      15.583  34.593  16.448  1.00  0.00    -0.299 OA
BRANCH  32  33
HETATM   33  C15 UNL     1      15.689  35.581  17.400  1.00  0.00     0.222 C 
BRANCH  33  34
HETATM   34  C16 UNL     1      17.074  35.877  17.849  1.00  0.00     0.002 A 
HETATM   35  C17 UNL     1      17.817  34.980  18.566  1.00  0.00     0.012 A 
HETATM   36  C18 UNL     1      19.122  35.251  18.930  1.00  0.00     0.003 A 
HETATM   37  C19 UNL     1      19.713  36.416  18.589  1.00  0.00     0.040 A 
HETATM   38  C20 UNL     1      18.963  37.359  17.845  1.00  0.00     0.103 A 
HETATM   39  C26 UNL     1      17.679  37.084  17.494  1.00  0.00     0.110 A 
BRANCH  38  40
HETATM   40  O4  UNL     1      19.667  38.487  17.557  1.00  0.00    -0.343 OA
BRANCH  40  41
HETATM   41  C21 UNL     1      20.572  38.823  16.621  1.00  0.00     0.129 C 
HETATM   42  C22 UNL     1      21.762  39.628  17.210  1.00  0.00     0.032 C 
HETATM   43  C23 UNL     1      22.472  40.000  15.919  1.00  0.00     0.002 C 
HETATM   44  C24 UNL     1      21.342  40.243  14.912  1.00  0.00     0.002 C 
HETATM   45  C25 UNL     1      20.061  39.916  15.648  1.00  0.00     0.032 C 
ENDBRANCH  40  41
ENDBRANCH  38  40
BRANCH  39  46
HETATM   46  O5  UNL     1      16.884  37.968  16.768  1.00  0.00    -0.352 OA
HETATM   47  C27 UNL     1      16.407  39.180  17.411  1.00  0.00     0.210 C 
ENDBRANCH  39  46
ENDBRANCH  33  34
ENDBRANCH  32  33
ENDBRANCH   9  32
ENDBRANCH   4   5
ENDBRANCH   1   4
TORSDOF 15
ENDMDL
MODEL 2
REMARK VINA RESULT: -8.859449859      2.506      3.896
REMARK  15 active torsions:
REMARK  status: ('A' for Active; 'I' for Inactive)
REMARK    1  A    between atoms: C2_2  and  C3_3 
REMARK    2  A    between atoms: C3_3  and  N1_4 
REMARK       I    between atoms: N2_7  and  C6_8 
REMARK    3  A    between atoms: C6_8  and  C7_10 
REMARK    4  A    between atoms: C7_10  and  C8_11 
REMARK    5  A    between atoms: C8_11  and  C9_12 
REMARK    6  A    between atoms: C9_12  and  C10_13 
REMARK       I    between atoms: N4_18  and  C14_19 
REMARK    7  A    between atoms: C14_19  and  O3_21 
REMARK    8  A    between atoms: O3_21  and  C15_22 
REMARK    9  A    between atoms: C15_22  and  C16_23 
REMARK   10  A    between atoms: C20_27  and  O4_28 
REMARK   11  A    between atoms: O4_28  and  C21_29 
REMARK   12  A    between atoms: C26_34  and  O5_35 
REMARK   13  A    between atoms: C30_39  and  C31_40 
REMARK   14  A    between atoms: C31_40  and  O6_41 
REMARK   15  A    between atoms: N5_43  and  O7_45 
ROOT
HETATM    1  C10 UNL     1      22.446  31.216  13.924  1.00  0.00     0.125 C 
HETATM    2  C11 UNL     1      23.496  32.085  14.432  1.00  0.00     0.059 C 
HETATM    3  N3  UNL     1      24.344  32.758  14.837  1.00  0.00    -0.197 NA
ENDROOT
BRANCH   1   4
HETATM    4  C9  UNL     1      21.323  30.908  14.767  1.00  0.00     0.028 C 
BRANCH   4   5
HETATM    5  C8  UNL     1      20.179  30.048  14.525  1.00  0.00    -0.014 C 
HETATM    6  C12 UNL     1      19.407  30.546  13.289  1.00  0.00     0.033 C 
HETATM    7  C13 UNL     1      18.851  31.916  13.451  1.00  0.00     0.129 C 
HETATM    8  N4  UNL     1      17.942  31.927  14.580  1.00  0.00    -0.328 N 
HETATM    9  C14 UNL     1      17.191  33.051  14.990  1.00  0.00     0.363 C 
HETATM   10  C28 UNL     1      17.840  30.678  15.292  1.00  0.00     0.129 C 
HETATM   11  O2  UNL     1      17.284  34.160  14.348  1.00  0.00    -0.238 OA
HETATM   12  C29 UNL     1      19.214  30.305  15.724  1.00  0.00     0.033 C 
BRANCH   5  13
HETATM   13  C7  UNL     1      20.298  28.585  14.442  1.00  0.00     0.057 C 
BRANCH  13  14
HETATM   14  C6  UNL     1      20.894  27.913  13.296  1.00  0.00     0.241 C 
HETATM   15  N2  UNL     1      20.041  27.395  12.241  1.00  0.00    -0.333 N 
HETATM   16  C5  UNL     1      18.608  27.510  12.245  1.00  0.00     0.157 C 
HETATM   17  C30 UNL     1      20.631  26.721  11.110  1.00  0.00     0.192 C 
HETATM   18  C4  UNL     1      18.011  26.131  12.040  1.00  0.00     0.292 C 
HETATM   19  N1  UNL     1      18.573  25.444  10.922  1.00  0.00     0.095 N 
HETATM   20  C32 UNL     1      19.528  26.215  10.182  1.00  0.00     0.306 C 
HETATM   21  O1  UNL     1      22.105  27.717  13.094  1.00  0.00    -0.269 OA
BRANCH  19  22
HETATM   22  C3  UNL     1      17.607  24.923  10.006  1.00  0.00     0.299 C 
BRANCH  22  23
HETATM   23  C2  UNL     1      17.772  25.541   8.656  1.00  0.00    -0.007 C 
HETATM   24  C1  UNL     1      17.141  25.074   7.606  1.00  0.00     0.008 C 
ENDBRANCH  22  23
ENDBRANCH  19  22
BRANCH  17  25
HETATM   25  C31 UNL     1      21.589  25.669  11.446  1.00  0.00     0.160 C 
HETATM   26  N5  UNL     1      22.809  25.687  11.034  1.00  0.00    -0.249 N 
ATOM     27  H5  UNL     1      23.120  26.464  10.451  1.00  0.00     0.196 HD
BRANCH  25  28
HETATM   28  O6  UNL     1      21.184  24.606  12.236  1.00  0.00    -0.347 OA
ATOM     29  H6  UNL     1      21.820  24.167  12.790  1.00  0.00     0.219 HD
ENDBRANCH  25  28
BRANCH  26  30
HETATM   30  O7  UNL     1      23.694  24.710  11.348  1.00  0.00    -0.288 OA
ATOM     31  H7  UNL     1      24.444  24.510  10.800  1.00  0.00     0.244 HD
ENDBRANCH  26  30
ENDBRANCH  17  25
ENDBRANCH  13  14
ENDBRANCH   5  13
BRANCH   9  32
HETATM   32  O3  UNL     1      16.332  33.048  16.072  1.00  0.00    -0.299 OA
BRANCH  32  33
HETATM   33  C15 UNL     1      16.623  33.345  17.383  1.00  0.00     0.222 C 
BRANCH  33  34
HETATM   34  C16 UNL     1      17.130  34.721  17.619  1.00  0.00     0.002 A 
HETATM   35  C17 UNL     1      16.292  35.785  17.814  1.00  0.00     0.012 A 
HETATM   36  C18 UNL     1      16.781  37.049  18.084  1.00  0.00     0.003 A 
HETATM   37  C19 UNL     1      18.108  37.280  18.167  1.00  0.00     0.040 A 
HETATM   38  C20 UNL     1      18.995  36.193  17.971  1.00  0.00     0.103 A 
HETATM   39  C26 UNL     1      18.504  34.954  17.703  1.00  0.00     0.110 A 
BRANCH  38  40
HETATM   40  O4  UNL     1      20.303  36.548  18.085  1.00  0.00    -0.343 OA
BRANCH  40  41
HETATM   41  C21 UNL     1      21.165  36.662  19.111  1.00  0.00     0.129 C 
HETATM   42  C22 UNL     1      22.533  37.251  18.672  1.00  0.00     0.032 C 
HETATM   43  C23 UNL     1      23.305  37.077  19.969  1.00  0.00     0.002 C 
HETATM   44  C24 UNL     1      22.787  35.757  20.553  1.00  0.00     0.002 C 
HETATM   45  C25 UNL     1      21.695  35.295  19.613  1.00  0.00     0.032 C 
ENDBRANCH  40  41
ENDBRANCH  38  40
BRANCH  39  46
HETATM   46  O5  UNL     1      19.319  33.843  17.493  1.00  0.00    -0.352 OA
HETATM   47  C27 UNL     1      20.310  33.884  16.433  1.00  0.00     0.210 C 
ENDBRANCH  39  46
ENDBRANCH  33  34
ENDBRANCH  32  33
ENDBRANCH   9  32
ENDBRANCH   4   5
ENDBRANCH   1   4
TORSDOF 15
ENDMDL
MODEL 3
REMARK VINA RESULT: -8.813793352      2.107      3.349
REMARK  15 active torsions:
REMARK  status: ('A' for Active; 'I' for Inactive)
REMARK    1  A    between atoms: C2_2  and  C3_3 
REMARK    2  A    between atoms: C3_3  and  N1_4 
REMARK       I    between atoms: N2_7  and  C6_8 
REMARK    3  A    between atoms: C6_8  and  C7_10 
REMARK    4  A    between atoms: C7_10  and  C8_11 
REMARK    5  A    between atoms: C8_11  and  C9_12 
REMARK    6  A    between atoms: C9_12  and  C10_13 
REMARK       I    between atoms: N4_18  and  C14_19 
REMARK    7  A    between atoms: C14_19  and  O3_21 
REMARK    8  A    between atoms: O3_21  and  C15_22 
REMARK    9  A    between atoms: C15_22  and  C16_23 
REMARK   10  A    between atoms: C20_27  and  O4_28 
REMARK   11  A    between atoms: O4_28  and  C21_29 
REMARK   12  A    between atoms: C26_34  and  O5_35 
REMARK   13  A    between atoms: C30_39  and  C31_40 
REMARK   14  A    between atoms: C31_40  and  O6_41 
REMARK   15  A    between atoms: N5_43  and  O7_45 
ROOT
HETATM    1  C10 UNL     1      23.463  32.424  14.901  1.00  0.00     0.125 C 
HETATM    2  C11 UNL     1      22.939  33.510  15.716  1.00  0.00     0.059 C 
HETATM    3  N3  UNL     1      22.522  34.358  16.381  1.00  0.00    -0.197 NA
ENDROOT
BRANCH   1   4
HETATM    4  C9  UNL     1      22.626  31.840  13.890  1.00  0.00     0.028 C 
BRANCH   4   5
HETATM    5  C8  UNL     1      21.889  30.590  13.892  1.00  0.00    -0.014 C 
HETATM    6  C12 UNL     1      20.815  30.619  12.789  1.00  0.00     0.033 C 
HETATM    7  C13 UNL     1      19.795  31.684  12.982  1.00  0.00     0.129 C 
HETATM    8  N4  UNL     1      19.127  31.474  14.251  1.00  0.00    -0.328 N 
HETATM    9  C14 UNL     1      18.063  32.268  14.735  1.00  0.00     0.363 C 
HETATM   10  C28 UNL     1      19.627  30.367  15.027  1.00  0.00     0.129 C 
HETATM   11  O2  UNL     1      17.620  33.251  14.035  1.00  0.00    -0.238 OA
HETATM   12  C29 UNL     1      21.083  30.592  15.228  1.00  0.00     0.033 C 
BRANCH   5  13
HETATM   13  C7  UNL     1      22.559  29.281  13.856  1.00  0.00     0.057 C 
BRANCH  13  14
HETATM   14  C6  UNL     1      21.910  28.085  13.340  1.00  0.00     0.241 C 
HETATM   15  N2  UNL     1      22.622  27.219  12.418  1.00  0.00    -0.333 N 
HETATM   16  C5  UNL     1      23.968  27.462  11.974  1.00  0.00     0.157 C 
HETATM   17  C30 UNL     1      21.975  26.038  11.900  1.00  0.00     0.192 C 
HETATM   18  C4  UNL     1      23.990  27.430  10.458  1.00  0.00     0.292 C 
HETATM   19  N1  UNL     1      23.361  26.268   9.919  1.00  0.00     0.095 N 
HETATM   20  C32 UNL     1      22.902  25.339  10.908  1.00  0.00     0.306 C 
HETATM   21  O1  UNL     1      20.760  27.689  13.603  1.00  0.00    -0.269 OA
BRANCH  19  22
HETATM   22  C3  UNL     1      24.156  25.558   8.966  1.00  0.00     0.299 C 
BRANCH  22  23
HETATM   23  C2  UNL     1      23.289  24.779   8.031  1.00  0.00    -0.007 C 
HETATM   24  C1  UNL     1      23.724  24.388   6.858  1.00  0.00     0.008 C 
ENDBRANCH  22  23
ENDBRANCH  19  22
BRANCH  17  25
HETATM   25  C31 UNL     1      20.641  26.257  11.342  1.00  0.00     0.160 C 
HETATM   26  N5  UNL     1      20.423  27.077  10.372  1.00  0.00    -0.249 N 
ATOM     27  H5  UNL     1      21.208  27.593   9.978  1.00  0.00     0.196 HD
BRANCH  25  28
HETATM   28  O6  UNL     1      19.562  25.565  11.865  1.00  0.00    -0.347 OA
ATOM     29  H6  UNL     1      19.295  25.725  12.763  1.00  0.00     0.219 HD
ENDBRANCH  25  28
BRANCH  26  30
HETATM   30  O7  UNL     1      19.185  27.276   9.858  1.00  0.00    -0.288 OA
ATOM     31  H7  UNL     1      19.044  27.487   8.943  1.00  0.00     0.244 HD
ENDBRANCH  26  30
ENDBRANCH  17  25
ENDBRANCH  13  14
ENDBRANCH   5  13
BRANCH   9  32
HETATM   32  O3  UNL     1      17.439  32.059  15.949  1.00  0.00    -0.299 OA
BRANCH  32  33
HETATM   33  C15 UNL     1      17.644  32.731  17.132  1.00  0.00     0.222 C 
BRANCH  33  34
HETATM   34  C16 UNL     1      16.738  33.884  17.367  1.00  0.00     0.002 A 
HETATM   35  C17 UNL     1      15.386  33.734  17.504  1.00  0.00     0.012 A 
HETATM   36  C18 UNL     1      14.564  34.811  17.774  1.00  0.00     0.003 A 
HETATM   37  C19 UNL     1      15.068  36.056  17.914  1.00  0.00     0.040 A 
HETATM   38  C20 UNL     1      16.467  36.235  17.778  1.00  0.00     0.103 A 
HETATM   39  C26 UNL     1      17.266  35.169  17.509  1.00  0.00     0.110 A 
BRANCH  38  40
HETATM   40  O4  UNL     1      16.855  37.527  17.946  1.00  0.00    -0.343 OA
BRANCH  40  41
HETATM   41  C21 UNL     1      16.834  38.628  17.174  1.00  0.00     0.129 C 
HETATM   42  C22 UNL     1      18.183  39.396  17.202  1.00  0.00     0.032 C 
HETATM   43  C23 UNL     1      17.780  40.633  16.417  1.00  0.00     0.002 C 
HETATM   44  C24 UNL     1      16.329  40.899  16.832  1.00  0.00     0.002 C 
HETATM   45  C25 UNL     1      15.953  39.762  17.757  1.00  0.00     0.032 C 
ENDBRANCH  40  41
ENDBRANCH  38  40
BRANCH  39  46
HETATM   46  O5  UNL     1      18.647  35.275  17.357  1.00  0.00    -0.352 OA
HETATM   47  C27 UNL     1      19.472  35.508  18.529  1.00  0.00     0.210 C 
ENDBRANCH  39  46
ENDBRANCH  33  34
ENDBRANCH  32  33
ENDBRANCH   9  32
ENDBRANCH   4   5
ENDBRANCH   1   4
TORSDOF 15
ENDMDL
MODEL 4
REMARK VINA RESULT: -8.756390718      1.141      1.751
REMARK  15 active torsions:
REMARK  status: ('A' for Active; 'I' for Inactive)
REMARK    1  A    between atoms: C2_2  and  C3_3 
REMARK    2  A    between atoms: C3_3  and  N1_4 
REMARK       I    between atoms: N2_7  and  C6_8 
REMARK    3  A    between atoms: C6_8  and  C7_10 
REMARK    4  A    between atoms: C7_10  and  C8_11 
REMARK    5  A    between atoms: C8_11  and  C9_12 
REMARK    6  A    between atoms: C9_12  and  C10_13 
REMARK       I    between atoms: N4_18  and  C14_19 
REMARK    7  A    between atoms: C14_19  and  O3_21 
REMARK    8  A    between atoms: O3_21  and  C15_22 
REMARK    9  A    between atoms: C15_22  and  C16_23 
REMARK   10  A    between atoms: C20_27  and  O4_28 
REMARK   11  A    between atoms: O4_28  and  C21_29 
REMARK   12  A    between atoms: C26_34  and  O5_35 
REMARK   13  A    between atoms: C30_39  and  C31_40 
REMARK   14  A    between atoms: C31_40  and  O6_41 
REMARK   15  A    between atoms: N5_43  and  O7_45 
ROOT
HETATM    1  C10 UNL     1      21.866  31.717  16.000  1.00  0.00     0.125 C 
HETATM    2  C11 UNL     1      23.001  32.070  15.160  1.00  0.00     0.059 C 
HETATM    3  N3  UNL     1      23.907  32.368  14.508  1.00  0.00    -0.197 NA
ENDROOT
BRANCH   1   4
HETATM    4  C9  UNL     1      20.535  31.929  15.502  1.00  0.00     0.028 C 
BRANCH   4   5
HETATM    5  C8  UNL     1      19.388  31.040  15.487  1.00  0.00    -0.014 C 
HETATM    6  C12 UNL     1      18.518  31.334  14.251  1.00  0.00     0.033 C 
HETATM    7  C13 UNL     1      17.956  32.711  14.237  1.00  0.00     0.129 C 
HETATM    8  N4  UNL     1      17.135  32.898  15.417  1.00  0.00    -0.328 N 
HETATM    9  C14 UNL     1      16.401  34.071  15.702  1.00  0.00     0.363 C 
HETATM   10  C28 UNL     1      17.105  31.778  16.322  1.00  0.00     0.129 C 
HETATM   11  O2  UNL     1      16.429  35.066  14.887  1.00  0.00    -0.238 OA
HETATM   12  C29 UNL     1      18.512  31.481  16.701  1.00  0.00     0.033 C 
BRANCH   5  13
HETATM   13  C7  UNL     1      19.522  29.582  15.626  1.00  0.00     0.057 C 
BRANCH  13  14
HETATM   14  C6  UNL     1      19.257  28.665  14.528  1.00  0.00     0.241 C 
HETATM   15  N2  UNL     1      20.358  28.175  13.717  1.00  0.00    -0.333 N 
HETATM   16  C5  UNL     1      21.732  28.535  13.936  1.00  0.00     0.157 C 
HETATM   17  C30 UNL     1      20.095  27.274  12.621  1.00  0.00     0.192 C 
HETATM   18  C4  UNL     1      22.311  29.051  12.633  1.00  0.00     0.292 C 
HETATM   19  N1  UNL     1      22.070  28.174  11.533  1.00  0.00     0.095 N 
HETATM   20  C32 UNL     1      21.398  26.960  11.890  1.00  0.00     0.306 C 
HETATM   21  O1  UNL     1      18.149  28.223  14.176  1.00  0.00    -0.269 OA
BRANCH  19  22
HETATM   22  C3  UNL     1      23.239  27.840  10.781  1.00  0.00     0.299 C 
BRANCH  22  23
HETATM   23  C2  UNL     1      24.357  27.447  11.692  1.00  0.00    -0.007 C 
HETATM   24  C1  UNL     1      25.016  26.327  11.524  1.00  0.00     0.008 C 
ENDBRANCH  22  23
ENDBRANCH  19  22
BRANCH  17  25
HETATM   25  C31 UNL     1      19.042  27.705  11.703  1.00  0.00     0.160 C 
HETATM   26  N5  UNL     1      18.245  26.875  11.125  1.00  0.00    -0.249 N 
ATOM     27  H5  UNL     1      18.352  25.879  11.313  1.00  0.00     0.196 HD
BRANCH  25  28
HETATM   28  O6  UNL     1      18.883  29.055  11.436  1.00  0.00    -0.347 OA
ATOM     29  H6  UNL     1      18.104  29.504  11.745  1.00  0.00     0.219 HD
ENDBRANCH  25  28
BRANCH  26  30
HETATM   30  O7  UNL     1      17.270  27.279  10.275  1.00  0.00    -0.288 OA
ATOM     31  H7  UNL     1      16.406  27.533  10.578  1.00  0.00     0.244 HD
ENDBRANCH  26  30
ENDBRANCH  17  25
ENDBRANCH  13  14
ENDBRANCH   5  13
BRANCH   9  32
HETATM   32  O3  UNL     1      15.626  34.237  16.833  1.00  0.00    -0.299 OA
BRANCH  32  33
HETATM   33  C15 UNL     1      16.029  34.658  18.079  1.00  0.00     0.222 C 
BRANCH  33  34
HETATM   34  C16 UNL     1      16.587  36.034  18.130  1.00  0.00     0.002 A 
HETATM   35  C17 UNL     1      15.814  37.143  17.921  1.00  0.00     0.012 A 
HETATM   36  C18 UNL     1      16.338  38.417  18.024  1.00  0.00     0.003 A 
HETATM   37  C19 UNL     1      17.636  38.614  18.337  1.00  0.00     0.040 A 
HETATM   38  C20 UNL     1      18.455  37.479  18.560  1.00  0.00     0.103 A 
HETATM   39  C26 UNL     1      17.930  36.230  18.453  1.00  0.00     0.110 A 
BRANCH  38  40
HETATM   40  O4  UNL     1      19.738  37.805  18.872  1.00  0.00    -0.343 OA
BRANCH  40  41
HETATM   41  C21 UNL     1      20.886  37.898  18.178  1.00  0.00     0.129 C 
HETATM   42  C22 UNL     1      22.062  37.161  18.874  1.00  0.00     0.032 C 
HETATM   43  C23 UNL     1      23.200  37.604  17.971  1.00  0.00     0.002 C 
HETATM   44  C24 UNL     1      22.851  39.046  17.586  1.00  0.00     0.002 C 
HETATM   45  C25 UNL     1      21.501  39.321  18.212  1.00  0.00     0.032 C 
ENDBRANCH  40  41
ENDBRANCH  38  40
BRANCH  39  46
HETATM   46  O5  UNL     1      18.680  35.073  18.652  1.00  0.00    -0.352 OA
HETATM   47  C27 UNL     1      19.605  34.643  17.619  1.00  0.00     0.210 C 
ENDBRANCH  39  46
ENDBRANCH  33  34
ENDBRANCH  32  33
ENDBRANCH   9  32
ENDBRANCH   4   5
ENDBRANCH   1   4
TORSDOF 15
ENDMDL
MODEL 5
REMARK VINA RESULT: -8.737721153      0.816      1.455
REMARK  15 active torsions:
REMARK  status: ('A' for Active; 'I' for Inactive)
REMARK    1  A    between atoms: C2_2  and  C3_3 
REMARK    2  A    between atoms: C3_3  and  N1_4 
REMARK       I    between atoms: N2_7  and  C6_8 
REMARK    3  A    between atoms: C6_8  and  C7_10 
REMARK    4  A    between atoms: C7_10  and  C8_11 
REMARK    5  A    between atoms: C8_11  and  C9_12 
REMARK    6  A    between atoms: C9_12  and  C10_13 
REMARK       I    between atoms: N4_18  and  C14_19 
REMARK    7  A    between atoms: C14_19  and  O3_21 
REMARK    8  A    between atoms: O3_21  and  C15_22 
REMARK    9  A    between atoms: C15_22  and  C16_23 
REMARK   10  A    between atoms: C20_27  and  O4_28 
REMARK   11  A    between atoms: O4_28  and  C21_29 
REMARK   12  A    between atoms: C26_34  and  O5_35 
REMARK   13  A    between atoms: C30_39  and  C31_40 
REMARK   14  A    between atoms: C31_40  and  O6_41 
REMARK   15  A    between atoms: N5_43  and  O7_45 
ROOT
HETATM    1  C10 UNL     1      21.542  32.401  14.218  1.00  0.00     0.125 C 
HETATM    2  C11 UNL     1      22.974  32.405  14.475  1.00  0.00     0.059 C 
HETATM    3  N3  UNL     1      24.113  32.389  14.667  1.00  0.00    -0.197 NA
ENDROOT
BRANCH   1   4
HETATM    4  C9  UNL     1      20.636  32.152  15.306  1.00  0.00     0.028 C 
BRANCH   4   5
HETATM    5  C8  UNL     1      19.525  31.224  15.405  1.00  0.00    -0.014 C 
HETATM    6  C12 UNL     1      18.569  31.430  14.216  1.00  0.00     0.033 C 
HETATM    7  C13 UNL     1      17.956  32.784  14.176  1.00  0.00     0.129 C 
HETATM    8  N4  UNL     1      17.204  32.999  15.396  1.00  0.00    -0.328 N 
HETATM    9  C14 UNL     1      16.447  34.159  15.675  1.00  0.00     0.363 C 
HETATM   10  C28 UNL     1      17.273  31.923  16.351  1.00  0.00     0.129 C 
HETATM   11  O2  UNL     1      16.387  35.114  14.816  1.00  0.00    -0.238 OA
HETATM   12  C29 UNL     1      18.711  31.692  16.652  1.00  0.00     0.033 C 
BRANCH   5  13
HETATM   13  C7  UNL     1      19.720  29.779  15.601  1.00  0.00     0.057 C 
BRANCH  13  14
HETATM   14  C6  UNL     1      19.411  28.802  14.568  1.00  0.00     0.241 C 
HETATM   15  N2  UNL     1      20.477  28.264  13.742  1.00  0.00    -0.333 N 
HETATM   16  C5  UNL     1      21.859  28.634  13.883  1.00  0.00     0.157 C 
HETATM   17  C30 UNL     1      20.169  27.303  12.711  1.00  0.00     0.192 C 
HETATM   18  C4  UNL     1      22.384  29.073  12.530  1.00  0.00     0.292 C 
HETATM   19  N1  UNL     1      22.097  28.136  11.493  1.00  0.00     0.095 N 
HETATM   20  C32 UNL     1      21.441  26.946  11.946  1.00  0.00     0.306 C 
HETATM   21  O1  UNL     1      18.289  28.344  14.288  1.00  0.00    -0.269 OA
BRANCH  19  22
HETATM   22  C3  UNL     1      23.235  27.756  10.714  1.00  0.00     0.299 C 
BRANCH  22  23
HETATM   23  C2  UNL     1      23.849  26.506  11.253  1.00  0.00    -0.007 C 
HETATM   24  C1  UNL     1      25.074  26.490  11.719  1.00  0.00     0.008 C 
ENDBRANCH  22  23
ENDBRANCH  19  22
BRANCH  17  25
HETATM   25  C31 UNL     1      19.079  27.684  11.815  1.00  0.00     0.160 C 
HETATM   26  N5  UNL     1      18.265  26.823  11.309  1.00  0.00    -0.249 N 
ATOM     27  H5  UNL     1      18.385  25.837  11.543  1.00  0.00     0.196 HD
BRANCH  25  28
HETATM   28  O6  UNL     1      18.901  29.018  11.487  1.00  0.00    -0.347 OA
ATOM     29  H6  UNL     1      19.578  29.473  11.000  1.00  0.00     0.219 HD
ENDBRANCH  25  28
BRANCH  26  30
HETATM   30  O7  UNL     1      17.256  27.180  10.479  1.00  0.00    -0.288 OA
ATOM     31  H7  UNL     1      17.169  28.062  10.136  1.00  0.00     0.244 HD
ENDBRANCH  26  30
ENDBRANCH  17  25
ENDBRANCH  13  14
ENDBRANCH   5  13
BRANCH   9  32
HETATM   32  O3  UNL     1      15.739  34.352  16.845  1.00  0.00    -0.299 OA
BRANCH  32  33
HETATM   33  C15 UNL     1      16.228  34.716  18.078  1.00  0.00     0.222 C 
BRANCH  33  34
HETATM   34  C16 UNL     1      16.561  36.156  18.224  1.00  0.00     0.002 A 
HETATM   35  C17 UNL     1      15.627  37.089  18.582  1.00  0.00     0.012 A 
HETATM   36  C18 UNL     1      15.965  38.416  18.764  1.00  0.00     0.003 A 
HETATM   37  C19 UNL     1      17.235  38.842  18.595  1.00  0.00     0.040 A 
HETATM   38  C20 UNL     1      18.220  37.892  18.226  1.00  0.00     0.103 A 
HETATM   39  C26 UNL     1      17.876  36.590  18.047  1.00  0.00     0.110 A 
BRANCH  38  40
HETATM   40  O4  UNL     1      19.459  38.438  18.092  1.00  0.00    -0.343 OA
BRANCH  40  41
HETATM   41  C21 UNL     1      20.288  38.658  17.057  1.00  0.00     0.129 C 
HETATM   42  C22 UNL     1      21.512  39.527  17.452  1.00  0.00     0.032 C 
HETATM   43  C23 UNL     1      22.119  39.740  16.076  1.00  0.00     0.002 C 
HETATM   44  C24 UNL     1      20.914  39.860  15.136  1.00  0.00     0.002 C 
HETATM   45  C25 UNL     1      19.695  39.626  16.001  1.00  0.00     0.032 C 
ENDBRANCH  40  41
ENDBRANCH  38  40
BRANCH  39  46
HETATM   46  O5  UNL     1      18.792  35.607  17.678  1.00  0.00    -0.352 OA
HETATM   47  C27 UNL     1      19.631  35.004  18.698  1.00  0.00     0.210 C 
ENDBRANCH  39  46
ENDBRANCH  33  34
ENDBRANCH  32  33
ENDBRANCH   9  32
ENDBRANCH   4   5
ENDBRANCH   1   4
TORSDOF 15
ENDMDL
