MODEL 1
REMARK VINA RESULT: -8.870679467      0.000      0.000
REMARK  18 active torsions:
REMARK  status: ('A' for Active; 'I' for Inactive)
REMARK    1  A    between atoms: O1_2  and  C2_3 
REMARK       I    between atoms: C2_3  and  N1_5 
REMARK    2  A    between atoms: N1_5  and  C3_6 
REMARK    3  A    between atoms: N1_5  and  C6_9 
REMARK    4  A    between atoms: C6_9  and  C7_10 
REMARK    5  A    between atoms: C6_9  and  O6_27 
REMARK    6  A    between atoms: C8_11  and  C9_12 
REMARK    7  A    between atoms: C10_13  and  N2_14 
REMARK       I    between atoms: N2_14  and  C11_16 
REMARK    8  A    between atoms: O6_27  and  C16_28 
REMARK    9  A    between atoms: C16_28  and  C17_30 
REMARK   10  A    between atoms: C17_30  and  C18_31 
REMARK   11  A    between atoms: C18_31  and  C19_32 
REMARK   12  A    between atoms: C19_32  and  C20_33 
REMARK   13  A    between atoms: C19_32  and  C27_40 
REMARK   14  A    between atoms: C20_33  and  C21_34 
REMARK   15  A    between atoms: C21_34  and  C22_35 
REMARK   16  A    between atoms: C22_35  and  C23_36 
REMARK   17  A    between atoms: C27_40  and  C28_41 
REMARK   18  A    between atoms: C28_41  and  C29_43 
ROOT
HETATM    1  C6  UNL     1      18.643  29.803  13.803  1.00  0.00     0.320 C 
ENDROOT
BRANCH   1   2
HETATM    2  N1  UNL     1      20.091  30.040  13.676  1.00  0.00    -0.286 N 
HETATM    3  C2  UNL     1      20.584  31.076  12.866  1.00  0.00     0.365 C 
HETATM    4  O2  UNL     1      19.750  31.800  12.243  1.00  0.00    -0.238 OA
BRANCH   3   5
HETATM    5  O1  UNL     1      21.926  31.361  12.703  1.00  0.00    -0.309 OA
HETATM    6  C1  UNL     1      22.554  32.192  13.659  1.00  0.00     0.215 C 
ENDBRANCH   3   5
BRANCH   2   7
HETATM    7  C3  UNL     1      20.983  29.185  14.407  1.00  0.00     0.084 C 
HETATM    8  C4  UNL     1      20.220  28.319  15.408  1.00  0.00     0.032 C 
HETATM    9  C5  UNL     1      21.607  28.245  13.367  1.00  0.00     0.032 C 
ENDBRANCH   2   7
ENDBRANCH   1   2
BRANCH   1  10
HETATM   10  C7  UNL     1      18.071  30.816  14.682  1.00  0.00    -0.046 C 
HETATM   11  C8  UNL     1      17.622  31.652  15.425  1.00  0.00    -0.053 C 
BRANCH  11  12
HETATM   12  C9  UNL     1      17.100  32.640  16.347  1.00  0.00     0.130 A 
HETATM   13  C10 UNL     1      17.968  33.301  17.266  1.00  0.00     0.138 A 
HETATM   14  N3  UNL     1      17.382  34.184  18.065  1.00  0.00    -0.288 N 
HETATM   15  C13 UNL     1      18.161  34.973  18.992  1.00  0.00     0.163 C 
HETATM   16  C14 UNL     1      16.051  34.472  18.052  1.00  0.00     0.330 A 
HETATM   17  O4  UNL     1      15.566  35.322  18.845  1.00  0.00    -0.246 OA
HETATM   18  N4  UNL     1      15.264  33.840  17.186  1.00  0.00    -0.274 N 
HETATM   19  C15 UNL     1      15.777  32.941  16.350  1.00  0.00     0.272 A 
ATOM     20  H4  UNL     1      14.265  34.046  17.162  1.00  0.00     0.173 HD
HETATM   21  O5  UNL     1      14.992  32.358  15.535  1.00  0.00    -0.266 OA
BRANCH  13  22
HETATM   22  N2  UNL     1      19.316  32.964  17.179  1.00  0.00    -0.312 N 
HETATM   23  C11 UNL     1      20.508  33.445  16.683  1.00  0.00     0.219 C 
HETATM   24  C12 UNL     1      21.761  32.517  16.771  1.00  0.00     0.117 C 
HETATM   25  O3  UNL     1      20.817  34.518  16.149  1.00  0.00    -0.274 OA
ATOM     26  H2  UNL     1      19.473  32.065  17.634  1.00  0.00     0.170 HD
ENDBRANCH  13  22
ENDBRANCH  11  12
ENDBRANCH   1  10
BRANCH   1  27
HETATM   27  O6  UNL     1      18.085  29.871  12.503  1.00  0.00    -0.284 OA
BRANCH  27  28
HETATM   28  C16 UNL     1      17.680  28.718  11.816  1.00  0.00     0.261 C 
HETATM   29  O7  UNL     1      16.969  28.877  10.807  1.00  0.00    -0.265 OA
BRANCH  28  30
HETATM   30  C17 UNL     1      18.116  27.367  12.325  1.00  0.00     0.111 C 
BRANCH  30  31
HETATM   31  C18 UNL     1      17.592  26.354  11.328  1.00  0.00     0.015 C 
BRANCH  31  32
HETATM   32  C19 UNL     1      18.678  25.657  10.581  1.00  0.00    -0.007 C 
BRANCH  32  33
HETATM   33  C20 UNL     1      19.934  25.700  11.401  1.00  0.00     0.005 C 
BRANCH  33  34
HETATM   34  C21 UNL     1      20.819  24.511  11.292  1.00  0.00     0.004 C 
BRANCH  34  35
HETATM   35  C22 UNL     1      22.099  24.746  10.532  1.00  0.00     0.027 C 
BRANCH  35  36
HETATM   36  C23 UNL     1      23.112  25.445  11.394  1.00  0.00    -0.025 C 
HETATM   37  C24 UNL     1      24.153  26.076  10.869  1.00  0.00    -0.091 C 
HETATM   38  C25 UNL     1      25.112  26.743  11.780  1.00  0.00     0.042 C 
HETATM   39  C26 UNL     1      24.315  26.091   9.402  1.00  0.00     0.042 C 
ENDBRANCH  35  36
ENDBRANCH  34  35
ENDBRANCH  33  34
ENDBRANCH  32  33
BRANCH  32  40
HETATM   40  C27 UNL     1      18.830  26.205   9.214  1.00  0.00     0.083 C 
BRANCH  40  41
HETATM   41  C28 UNL     1      18.362  25.272   8.161  1.00  0.00     0.134 C 
HETATM   42  O8  UNL     1      17.941  24.149   8.375  1.00  0.00    -0.297 OA
BRANCH  41  43
HETATM   43  C29 UNL     1      18.384  25.677   6.719  1.00  0.00     0.009 C 
HETATM   44  C30 UNL     1      17.249  24.986   6.020  1.00  0.00     0.022 C 
HETATM   45  C31 UNL     1      18.194  27.178   6.632  1.00  0.00     0.022 C 
HETATM   46  C32 UNL     1      19.675  25.344   6.054  1.00  0.00     0.022 C 
ENDBRANCH  41  43
ENDBRANCH  40  41
ENDBRANCH  32  40
ENDBRANCH  31  32
ENDBRANCH  30  31
ENDBRANCH  28  30
ENDBRANCH  27  28
ENDBRANCH   1  27
TORSDOF 18
ENDMDL
MODEL 2
REMARK VINA RESULT: -8.609563765      1.248      2.002
REMARK  18 active torsions:
REMARK  status: ('A' for Active; 'I' for Inactive)
REMARK    1  A    between atoms: O1_2  and  C2_3 
REMARK       I    between atoms: C2_3  and  N1_5 
REMARK    2  A    between atoms: N1_5  and  C3_6 
REMARK    3  A    between atoms: N1_5  and  C6_9 
REMARK    4  A    between atoms: C6_9  and  C7_10 
REMARK    5  A    between atoms: C6_9  and  O6_27 
REMARK    6  A    between atoms: C8_11  and  C9_12 
REMARK    7  A    between atoms: C10_13  and  N2_14 
REMARK       I    between atoms: N2_14  and  C11_16 
REMARK    8  A    between atoms: O6_27  and  C16_28 
REMARK    9  A    between atoms: C16_28  and  C17_30 
REMARK   10  A    between atoms: C17_30  and  C18_31 
REMARK   11  A    between atoms: C18_31  and  C19_32 
REMARK   12  A    between atoms: C19_32  and  C20_33 
REMARK   13  A    between atoms: C19_32  and  C27_40 
REMARK   14  A    between atoms: C20_33  and  C21_34 
REMARK   15  A    between atoms: C21_34  and  C22_35 
REMARK   16  A    between atoms: C22_35  and  C23_36 
REMARK   17  A    between atoms: C27_40  and  C28_41 
REMARK   18  A    between atoms: C28_41  and  C29_43 
ROOT
HETATM    1  C6  UNL     1      19.019  29.515  14.747  1.00  0.00     0.320 C 
ENDROOT
BRANCH   1   2
HETATM    2  N1  UNL     1      20.316  29.852  14.135  1.00  0.00    -0.286 N 
HETATM    3  C2  UNL     1      21.387  28.945  14.170  1.00  0.00     0.365 C 
HETATM    4  O2  UNL     1      21.210  27.829  14.746  1.00  0.00    -0.238 OA
BRANCH   3   5
HETATM    5  O1  UNL     1      22.628  29.188  13.613  1.00  0.00    -0.309 OA
HETATM    6  C1  UNL     1      23.136  28.257  12.679  1.00  0.00     0.215 C 
ENDBRANCH   3   5
BRANCH   2   7
HETATM    7  C3  UNL     1      20.451  31.132  13.499  1.00  0.00     0.084 C 
HETATM    8  C4  UNL     1      21.759  31.812  13.900  1.00  0.00     0.032 C 
HETATM    9  C5  UNL     1      20.525  30.845  11.994  1.00  0.00     0.032 C 
ENDBRANCH   2   7
ENDBRANCH   1   2
BRANCH   1  10
HETATM   10  C7  UNL     1      18.523  30.675  15.478  1.00  0.00    -0.046 C 
HETATM   11  C8  UNL     1      18.085  31.625  16.077  1.00  0.00    -0.053 C 
BRANCH  11  12
HETATM   12  C9  UNL     1      17.529  32.767  16.775  1.00  0.00     0.130 A 
HETATM   13  C10 UNL     1      18.377  33.650  17.505  1.00  0.00     0.138 A 
HETATM   14  N3  UNL     1      17.760  34.659  18.108  1.00  0.00    -0.288 N 
HETATM   15  C13 UNL     1      18.514  35.666  18.820  1.00  0.00     0.163 C 
HETATM   16  C14 UNL     1      16.417  34.879  18.066  1.00  0.00     0.330 A 
HETATM   17  O4  UNL     1      15.903  35.859  18.667  1.00  0.00    -0.246 OA
HETATM   18  N4  UNL     1      15.649  34.038  17.378  1.00  0.00    -0.274 N 
HETATM   19  C15 UNL     1      16.193  33.002  16.745  1.00  0.00     0.272 A 
ATOM     20  H4  UNL     1      14.641  34.189  17.335  1.00  0.00     0.173 HD
HETATM   21  O5  UNL     1      15.426  32.220  16.097  1.00  0.00    -0.266 OA
BRANCH  13  22
HETATM   22  N2  UNL     1      19.738  33.363  17.460  1.00  0.00    -0.312 N 
HETATM   23  C11 UNL     1      20.894  33.763  16.826  1.00  0.00     0.219 C 
HETATM   24  C12 UNL     1      22.194  32.941  17.095  1.00  0.00     0.117 C 
HETATM   25  O3  UNL     1      21.139  34.688  16.041  1.00  0.00    -0.274 OA
ATOM     26  H2  UNL     1      19.950  32.608  18.113  1.00  0.00     0.170 HD
ENDBRANCH  13  22
ENDBRANCH  11  12
ENDBRANCH   1  10
BRANCH   1  27
HETATM   27  O6  UNL     1      18.138  29.146  13.702  1.00  0.00    -0.284 OA
BRANCH  27  28
HETATM   28  C16 UNL     1      17.890  27.802  13.389  1.00  0.00     0.261 C 
HETATM   29  O7  UNL     1      17.550  27.054  14.324  1.00  0.00    -0.265 OA
BRANCH  28  30
HETATM   30  C17 UNL     1      18.047  27.337  11.963  1.00  0.00     0.111 C 
BRANCH  30  31
HETATM   31  C18 UNL     1      17.943  25.826  12.001  1.00  0.00     0.015 C 
BRANCH  31  32
HETATM   32  C19 UNL     1      18.321  25.185  10.709  1.00  0.00    -0.007 C 
BRANCH  32  33
HETATM   33  C20 UNL     1      19.779  25.428  10.455  1.00  0.00     0.005 C 
BRANCH  33  34
HETATM   34  C21 UNL     1      20.719  24.752  11.387  1.00  0.00     0.004 C 
BRANCH  34  35
HETATM   35  C22 UNL     1      22.173  24.863  11.007  1.00  0.00     0.027 C 
BRANCH  35  36
HETATM   36  C23 UNL     1      22.369  24.561   9.548  1.00  0.00    -0.025 C 
HETATM   37  C24 UNL     1      23.340  25.126   8.846  1.00  0.00    -0.091 C 
HETATM   38  C25 UNL     1      23.473  24.781   7.411  1.00  0.00     0.042 C 
HETATM   39  C26 UNL     1      24.251  26.073   9.518  1.00  0.00     0.042 C 
ENDBRANCH  35  36
ENDBRANCH  34  35
ENDBRANCH  33  34
ENDBRANCH  32  33
BRANCH  32  40
HETATM   40  C27 UNL     1      17.435  25.628   9.608  1.00  0.00     0.083 C 
BRANCH  40  41
HETATM   41  C28 UNL     1      17.678  24.899   8.340  1.00  0.00     0.134 C 
HETATM   42  O8  UNL     1      17.517  23.700   8.195  1.00  0.00    -0.297 OA
BRANCH  41  43
HETATM   43  C29 UNL     1      18.156  25.627   7.121  1.00  0.00     0.009 C 
HETATM   44  C30 UNL     1      18.232  27.090   7.447  1.00  0.00     0.022 C 
HETATM   45  C31 UNL     1      19.535  25.115   6.759  1.00  0.00     0.022 C 
HETATM   46  C32 UNL     1      17.267  25.408   5.944  1.00  0.00     0.022 C 
ENDBRANCH  41  43
ENDBRANCH  40  41
ENDBRANCH  32  40
ENDBRANCH  31  32
ENDBRANCH  30  31
ENDBRANCH  28  30
ENDBRANCH  27  28
ENDBRANCH   1  27
TORSDOF 18
ENDMDL
MODEL 3
REMARK VINA RESULT: -8.605438726      2.520     10.013
REMARK  18 active torsions:
REMARK  status: ('A' for Active; 'I' for Inactive)
REMARK    1  A    between atoms: O1_2  and  C2_3 
REMARK       I    between atoms: C2_3  and  N1_5 
REMARK    2  A    between atoms: N1_5  and  C3_6 
REMARK    3  A    between atoms: N1_5  and  C6_9 
REMARK    4  A    between atoms: C6_9  and  C7_10 
REMARK    5  A    between atoms: C6_9  and  O6_27 
REMARK    6  A    between atoms: C8_11  and  C9_12 
REMARK    7  A    between atoms: C10_13  and  N2_14 
REMARK       I    between atoms: N2_14  and  C11_16 
REMARK    8  A    between atoms: O6_27  and  C16_28 
REMARK    9  A    between atoms: C16_28  and  C17_30 
REMARK   10  A    between atoms: C17_30  and  C18_31 
REMARK   11  A    between atoms: C18_31  and  C19_32 
REMARK   12  A    between atoms: C19_32  and  C20_33 
REMARK   13  A    between atoms: C19_32  and  C27_40 
REMARK   14  A    between atoms: C20_33  and  C21_34 
REMARK   15  A    between atoms: C21_34  and  C22_35 
REMARK   16  A    between atoms: C22_35  and  C23_36 
REMARK   17  A    between atoms: C27_40  and  C28_41 
REMARK   18  A    between atoms: C28_41  and  C29_43 
ROOT
HETATM    1  C6  UNL     1      19.056  30.771  13.145  1.00  0.00     0.320 C 
ENDROOT
BRANCH   1   2
HETATM    2  N1  UNL     1      20.130  30.464  14.106  1.00  0.00    -0.286 N 
HETATM    3  C2  UNL     1      21.283  31.263  14.177  1.00  0.00     0.365 C 
HETATM    4  O2  UNL     1      21.378  32.252  13.390  1.00  0.00    -0.238 OA
BRANCH   3   5
HETATM    5  O1  UNL     1      22.326  31.041  15.056  1.00  0.00    -0.309 OA
HETATM    6  C1  UNL     1      23.444  31.904  14.997  1.00  0.00     0.215 C 
ENDBRANCH   3   5
BRANCH   2   7
HETATM    7  C3  UNL     1      19.961  29.330  14.969  1.00  0.00     0.084 C 
HETATM    8  C4  UNL     1      21.121  28.346  14.819  1.00  0.00     0.032 C 
HETATM    9  C5  UNL     1      20.008  29.881  16.399  1.00  0.00     0.032 C 
ENDBRANCH   2   7
ENDBRANCH   1   2
BRANCH   1  10
HETATM   10  C7  UNL     1      18.854  29.618  12.274  1.00  0.00    -0.046 C 
HETATM   11  C8  UNL     1      18.700  28.649  11.576  1.00  0.00    -0.053 C 
BRANCH  11  12
HETATM   12  C9  UNL     1      18.545  27.469  10.749  1.00  0.00     0.130 A 
HETATM   13  C10 UNL     1      19.689  26.730  10.324  1.00  0.00     0.138 A 
HETATM   14  N3  UNL     1      19.430  25.670   9.568  1.00  0.00    -0.288 N 
HETATM   15  C13 UNL     1      20.496  24.796   9.132  1.00  0.00     0.163 C 
HETATM   16  C14 UNL     1      18.182  25.275   9.194  1.00  0.00     0.330 A 
HETATM   17  O4  UNL     1      18.016  24.257   8.471  1.00  0.00    -0.246 OA
HETATM   18  N4  UNL     1      17.134  25.983   9.604  1.00  0.00    -0.274 N 
HETATM   19  C15 UNL     1      17.310  27.059  10.366  1.00  0.00     0.272 A 
ATOM     20  H4  UNL     1      16.192  25.699   9.334  1.00  0.00     0.173 HD
HETATM   21  O5  UNL     1      16.282  27.710  10.739  1.00  0.00    -0.266 OA
BRANCH  13  22
HETATM   22  N2  UNL     1      20.918  27.192  10.786  1.00  0.00    -0.312 N 
HETATM   23  C11 UNL     1      22.007  26.778  11.521  1.00  0.00     0.219 C 
HETATM   24  C12 UNL     1      23.109  27.835  11.850  1.00  0.00     0.117 C 
HETATM   25  O3  UNL     1      22.319  25.683  12.007  1.00  0.00    -0.274 OA
ATOM     26  H2  UNL     1      21.059  28.154  10.478  1.00  0.00     0.170 HD
ENDBRANCH  13  22
ENDBRANCH  11  12
ENDBRANCH   1  10
BRANCH   1  27
HETATM   27  O6  UNL     1      17.889  31.067  13.891  1.00  0.00    -0.284 OA
BRANCH  27  28
HETATM   28  C16 UNL     1      17.672  32.338  14.441  1.00  0.00     0.261 C 
HETATM   29  O7  UNL     1      18.175  33.309  13.848  1.00  0.00    -0.265 OA
BRANCH  28  30
HETATM   30  C17 UNL     1      16.855  32.463  15.703  1.00  0.00     0.111 C 
BRANCH  30  31
HETATM   31  C18 UNL     1      17.843  32.403  16.850  1.00  0.00     0.015 C 
BRANCH  31  32
HETATM   32  C19 UNL     1      18.592  33.679  17.040  1.00  0.00    -0.007 C 
BRANCH  32  33
HETATM   33  C20 UNL     1      20.057  33.411  16.867  1.00  0.00     0.005 C 
BRANCH  33  34
HETATM   34  C21 UNL     1      20.822  34.450  16.129  1.00  0.00     0.004 C 
BRANCH  34  35
HETATM   35  C22 UNL     1      22.051  34.954  16.843  1.00  0.00     0.027 C 
BRANCH  35  36
HETATM   36  C23 UNL     1      21.966  34.673  18.316  1.00  0.00    -0.025 C 
HETATM   37  C24 UNL     1      21.947  35.652  19.210  1.00  0.00    -0.091 C 
HETATM   38  C25 UNL     1      21.862  35.301  20.646  1.00  0.00     0.042 C 
HETATM   39  C26 UNL     1      22.008  37.050  18.740  1.00  0.00     0.042 C 
ENDBRANCH  35  36
ENDBRANCH  34  35
ENDBRANCH  33  34
ENDBRANCH  32  33
BRANCH  32  40
HETATM   40  C27 UNL     1      18.243  34.322  18.328  1.00  0.00     0.083 C 
BRANCH  40  41
HETATM   41  C28 UNL     1      17.793  35.726  18.170  1.00  0.00     0.134 C 
HETATM   42  O8  UNL     1      18.514  36.698  18.308  1.00  0.00    -0.297 OA
BRANCH  41  43
HETATM   43  C29 UNL     1      16.370  36.036  17.820  1.00  0.00     0.009 C 
HETATM   44  C30 UNL     1      16.011  37.357  18.437  1.00  0.00     0.022 C 
HETATM   45  C31 UNL     1      16.250  36.132  16.312  1.00  0.00     0.022 C 
HETATM   46  C32 UNL     1      15.427  34.979  18.284  1.00  0.00     0.022 C 
ENDBRANCH  41  43
ENDBRANCH  40  41
ENDBRANCH  32  40
ENDBRANCH  31  32
ENDBRANCH  30  31
ENDBRANCH  28  30
ENDBRANCH  27  28
ENDBRANCH   1  27
TORSDOF 18
ENDMDL
MODEL 4
REMARK VINA RESULT: -8.591232040      3.829     11.160
REMARK  18 active torsions:
REMARK  status: ('A' for Active; 'I' for Inactive)
REMARK    1  A    between atoms: O1_2  and  C2_3 
REMARK       I    between atoms: C2_3  and  N1_5 
REMARK    2  A    between atoms: N1_5  and  C3_6 
REMARK    3  A    between atoms: N1_5  and  C6_9 
REMARK    4  A    between atoms: C6_9  and  C7_10 
REMARK    5  A    between atoms: C6_9  and  O6_27 
REMARK    6  A    between atoms: C8_11  and  C9_12 
REMARK    7  A    between atoms: C10_13  and  N2_14 
REMARK       I    between atoms: N2_14  and  C11_16 
REMARK    8  A    between atoms: O6_27  and  C16_28 
REMARK    9  A    between atoms: C16_28  and  C17_30 
REMARK   10  A    between atoms: C17_30  and  C18_31 
REMARK   11  A    between atoms: C18_31  and  C19_32 
REMARK   12  A    between atoms: C19_32  and  C20_33 
REMARK   13  A    between atoms: C19_32  and  C27_40 
REMARK   14  A    between atoms: C20_33  and  C21_34 
REMARK   15  A    between atoms: C21_34  and  C22_35 
REMARK   16  A    between atoms: C22_35  and  C23_36 
REMARK   17  A    between atoms: C27_40  and  C28_41 
REMARK   18  A    between atoms: C28_41  and  C29_43 
ROOT
HETATM    1  C6  UNL     1      19.252  33.113  16.833  1.00  0.00     0.320 C 
ENDROOT
BRANCH   1   2
HETATM    2  N1  UNL     1      17.807  33.399  16.805  1.00  0.00    -0.286 N 
HETATM    3  C2  UNL     1      17.188  34.085  17.863  1.00  0.00     0.365 C 
HETATM    4  O2  UNL     1      17.904  34.449  18.844  1.00  0.00    -0.238 OA
BRANCH   3   5
HETATM    5  O1  UNL     1      15.842  34.394  17.903  1.00  0.00    -0.309 OA
HETATM    6  C1  UNL     1      15.459  35.645  18.437  1.00  0.00     0.215 C 
ENDBRANCH   3   5
BRANCH   2   7
HETATM    7  C3  UNL     1      17.053  32.959  15.666  1.00  0.00     0.084 C 
HETATM    8  C4  UNL     1      15.829  32.150  16.094  1.00  0.00     0.032 C 
HETATM    9  C5  UNL     1      16.545  34.235  14.983  1.00  0.00     0.032 C 
ENDBRANCH   2   7
ENDBRANCH   1   2
BRANCH   1  10
HETATM   10  C7  UNL     1      19.523  31.950  15.996  1.00  0.00    -0.046 C 
HETATM   11  C8  UNL     1      19.774  30.988  15.315  1.00  0.00    -0.053 C 
BRANCH  11  12
HETATM   12  C9  UNL     1      20.112  29.842  14.495  1.00  0.00     0.130 A 
HETATM   13  C10 UNL     1      21.452  29.639  14.054  1.00  0.00     0.138 A 
HETATM   14  N3  UNL     1      21.646  28.560  13.305  1.00  0.00    -0.288 N 
HETATM   15  C13 UNL     1      22.972  28.202  12.854  1.00  0.00     0.163 C 
HETATM   16  C14 UNL     1      20.669  27.680  12.953  1.00  0.00     0.330 A 
HETATM   17  O4  UNL     1      20.929  26.677  12.236  1.00  0.00    -0.246 OA
HETATM   18  N4  UNL     1      19.427  27.893  13.378  1.00  0.00    -0.274 N 
HETATM   19  C15 UNL     1      19.152  28.953  14.134  1.00  0.00     0.272 A 
ATOM     20  H4  UNL     1      18.683  27.242  13.125  1.00  0.00     0.173 HD
HETATM   21  O5  UNL     1      17.952  29.124  14.522  1.00  0.00    -0.266 OA
BRANCH  13  22
HETATM   22  N2  UNL     1      22.386  30.573  14.493  1.00  0.00    -0.312 N 
HETATM   23  C11 UNL     1      22.789  31.870  14.265  1.00  0.00     0.219 C 
HETATM   24  C12 UNL     1      24.061  32.381  15.013  1.00  0.00     0.117 C 
HETATM   25  O3  UNL     1      22.333  32.772  13.550  1.00  0.00    -0.274 OA
ATOM     26  H2  UNL     1      22.962  30.160  15.227  1.00  0.00     0.170 HD
ENDBRANCH  13  22
ENDBRANCH  11  12
ENDBRANCH   1  10
BRANCH   1  27
HETATM   27  O6  UNL     1      19.923  34.264  16.353  1.00  0.00    -0.284 OA
BRANCH  27  28
HETATM   28  C16 UNL     1      21.164  34.661  16.869  1.00  0.00     0.261 C 
HETATM   29  O7  UNL     1      21.853  33.789  17.430  1.00  0.00    -0.265 OA
BRANCH  28  30
HETATM   30  C17 UNL     1      21.596  36.099  16.723  1.00  0.00     0.111 C 
BRANCH  30  31
HETATM   31  C18 UNL     1      21.049  36.825  17.936  1.00  0.00     0.015 C 
BRANCH  31  32
HETATM   32  C19 UNL     1      20.271  38.046  17.580  1.00  0.00    -0.007 C 
BRANCH  32  33
HETATM   33  C20 UNL     1      21.114  39.256  17.858  1.00  0.00     0.005 C 
BRANCH  33  34
HETATM   34  C21 UNL     1      22.034  39.669  16.767  1.00  0.00     0.004 C 
BRANCH  34  35
HETATM   35  C22 UNL     1      21.385  40.460  15.661  1.00  0.00     0.027 C 
BRANCH  35  36
HETATM   36  C23 UNL     1      21.327  39.657  14.392  1.00  0.00    -0.025 C 
HETATM   37  C24 UNL     1      22.041  39.991  13.326  1.00  0.00    -0.091 C 
HETATM   38  C25 UNL     1      21.934  39.152  12.109  1.00  0.00     0.042 C 
HETATM   39  C26 UNL     1      22.914  41.179  13.393  1.00  0.00     0.042 C 
ENDBRANCH  35  36
ENDBRANCH  34  35
ENDBRANCH  33  34
ENDBRANCH  32  33
BRANCH  32  40
HETATM   40  C27 UNL     1      18.952  38.061  18.253  1.00  0.00     0.083 C 
BRANCH  40  41
HETATM   41  C28 UNL     1      17.865  38.573  17.385  1.00  0.00     0.134 C 
HETATM   42  O8  UNL     1      17.333  37.930  16.498  1.00  0.00    -0.297 OA
BRANCH  41  43
HETATM   43  C29 UNL     1      17.343  39.966  17.558  1.00  0.00     0.009 C 
HETATM   44  C30 UNL     1      17.846  40.497  18.870  1.00  0.00     0.022 C 
HETATM   45  C31 UNL     1      17.869  40.827  16.427  1.00  0.00     0.022 C 
HETATM   46  C32 UNL     1      15.854  40.025  17.519  1.00  0.00     0.022 C 
ENDBRANCH  41  43
ENDBRANCH  40  41
ENDBRANCH  32  40
ENDBRANCH  31  32
ENDBRANCH  30  31
ENDBRANCH  28  30
ENDBRANCH  27  28
ENDBRANCH   1  27
TORSDOF 18
ENDMDL
MODEL 5
REMARK VINA RESULT: -8.585429911      2.875     11.190
REMARK  18 active torsions:
REMARK  status: ('A' for Active; 'I' for Inactive)
REMARK    1  A    between atoms: O1_2  and  C2_3 
REMARK       I    between atoms: C2_3  and  N1_5 
REMARK    2  A    between atoms: N1_5  and  C3_6 
REMARK    3  A    between atoms: N1_5  and  C6_9 
REMARK    4  A    between atoms: C6_9  and  C7_10 
REMARK    5  A    between atoms: C6_9  and  O6_27 
REMARK    6  A    between atoms: C8_11  and  C9_12 
REMARK    7  A    between atoms: C10_13  and  N2_14 
REMARK       I    between atoms: N2_14  and  C11_16 
REMARK    8  A    between atoms: O6_27  and  C16_28 
REMARK    9  A    between atoms: C16_28  and  C17_30 
REMARK   10  A    between atoms: C17_30  and  C18_31 
REMARK   11  A    between atoms: C18_31  and  C19_32 
REMARK   12  A    between atoms: C19_32  and  C20_33 
REMARK   13  A    between atoms: C19_32  and  C27_40 
REMARK   14  A    between atoms: C20_33  and  C21_34 
REMARK   15  A    between atoms: C21_34  and  C22_35 
REMARK   16  A    between atoms: C22_35  and  C23_36 
REMARK   17  A    between atoms: C27_40  and  C28_41 
REMARK   18  A    between atoms: C28_41  and  C29_43 
ROOT
HETATM    1  C6  UNL     1      21.993  30.240  14.100  1.00  0.00     0.320 C 
ENDROOT
BRANCH   1   2
HETATM    2  N1  UNL     1      20.530  30.388  14.188  1.00  0.00    -0.286 N 
HETATM    3  C2  UNL     1      19.810  31.043  13.176  1.00  0.00     0.365 C 
HETATM    4  O2  UNL     1      20.452  31.507  12.186  1.00  0.00    -0.238 OA
BRANCH   3   5
HETATM    5  O1  UNL     1      18.438  31.215  13.187  1.00  0.00    -0.309 OA
HETATM    6  C1  UNL     1      17.891  32.165  14.079  1.00  0.00     0.215 C 
ENDBRANCH   3   5
BRANCH   2   7
HETATM    7  C3  UNL     1      19.863  29.841  15.335  1.00  0.00     0.084 C 
HETATM    8  C4  UNL     1      20.128  28.342  15.464  1.00  0.00     0.032 C 
HETATM    9  C5  UNL     1      20.495  30.527  16.552  1.00  0.00     0.032 C 
ENDBRANCH   2   7
ENDBRANCH   1   2
BRANCH   1  10
HETATM   10  C7  UNL     1      22.305  29.077  13.276  1.00  0.00    -0.046 C 
HETATM   11  C8  UNL     1      22.542  28.126  12.576  1.00  0.00    -0.053 C 
BRANCH  11  12
HETATM   12  C9  UNL     1      22.793  26.983  11.721  1.00  0.00     0.130 A 
HETATM   13  C10 UNL     1      21.756  26.457  10.896  1.00  0.00     0.138 A 
HETATM   14  N3  UNL     1      22.097  25.407  10.158  1.00  0.00    -0.288 N 
HETATM   15  C13 UNL     1      21.159  24.824   9.224  1.00  0.00     0.163 C 
HETATM   16  C14 UNL     1      23.332  24.834  10.154  1.00  0.00     0.330 A 
HETATM   17  O4  UNL     1      23.579  23.836   9.427  1.00  0.00    -0.246 OA
HETATM   18  N4  UNL     1      24.280  25.345  10.934  1.00  0.00    -0.274 N 
HETATM   19  C15 UNL     1      24.018  26.398  11.704  1.00  0.00     0.272 A 
ATOM     20  H4  UNL     1      25.211  24.928  10.942  1.00  0.00     0.173 HD
HETATM   21  O5  UNL     1      24.951  26.859  12.436  1.00  0.00    -0.266 OA
BRANCH  13  22
HETATM   22  N2  UNL     1      20.539  27.131  10.943  1.00  0.00    -0.312 N 
HETATM   23  C11 UNL     1      19.231  26.948  11.333  1.00  0.00     0.219 C 
HETATM   24  C12 UNL     1      18.208  28.081  11.004  1.00  0.00     0.117 C 
HETATM   25  O3  UNL     1      18.657  26.023  11.923  1.00  0.00    -0.274 OA
ATOM     26  H2  UNL     1      20.655  28.070  10.562  1.00  0.00     0.170 HD
ENDBRANCH  13  22
ENDBRANCH  11  12
ENDBRANCH   1  10
BRANCH   1  27
HETATM   27  O6  UNL     1      22.508  31.430  13.530  1.00  0.00    -0.284 OA
BRANCH  27  28
HETATM   28  C16 UNL     1      23.075  32.438  14.322  1.00  0.00     0.261 C 
HETATM   29  O7  UNL     1      24.311  32.421  14.466  1.00  0.00    -0.265 OA
BRANCH  28  30
HETATM   30  C17 UNL     1      22.176  33.474  14.949  1.00  0.00     0.111 C 
BRANCH  30  31
HETATM   31  C18 UNL     1      22.462  33.431  16.437  1.00  0.00     0.015 C 
BRANCH  31  32
HETATM   32  C19 UNL     1      21.605  34.366  17.221  1.00  0.00    -0.007 C 
BRANCH  32  33
HETATM   33  C20 UNL     1      20.276  34.494  16.537  1.00  0.00     0.005 C 
BRANCH  33  34
HETATM   34  C21 UNL     1      19.125  33.866  17.236  1.00  0.00     0.004 C 
BRANCH  34  35
HETATM   35  C22 UNL     1      18.393  34.776  18.189  1.00  0.00     0.027 C 
BRANCH  35  36
HETATM   36  C23 UNL     1      16.912  34.530  18.132  1.00  0.00    -0.025 C 
HETATM   37  C24 UNL     1      16.083  35.414  17.593  1.00  0.00    -0.091 C 
HETATM   38  C25 UNL     1      14.634  35.105  17.571  1.00  0.00     0.042 C 
HETATM   39  C26 UNL     1      16.633  36.665  17.037  1.00  0.00     0.042 C 
ENDBRANCH  35  36
ENDBRANCH  34  35
ENDBRANCH  33  34
ENDBRANCH  32  33
BRANCH  32  40
HETATM   40  C27 UNL     1      22.291  35.658  17.455  1.00  0.00     0.083 C 
BRANCH  40  41
HETATM   41  C28 UNL     1      21.621  36.490  18.483  1.00  0.00     0.134 C 
HETATM   42  O8  UNL     1      21.360  36.111  19.611  1.00  0.00    -0.297 OA
BRANCH  41  43
HETATM   43  C29 UNL     1      21.212  37.899  18.176  1.00  0.00     0.009 C 
HETATM   44  C30 UNL     1      21.328  38.109  16.694  1.00  0.00     0.022 C 
HETATM   45  C31 UNL     1      19.772  38.090  18.605  1.00  0.00     0.022 C 
HETATM   46  C32 UNL     1      22.040  38.902  18.904  1.00  0.00     0.022 C 
ENDBRANCH  41  43
ENDBRANCH  40  41
ENDBRANCH  32  40
ENDBRANCH  31  32
ENDBRANCH  30  31
ENDBRANCH  28  30
ENDBRANCH  27  28
ENDBRANCH   1  27
TORSDOF 18
ENDMDL
