MODEL 1
REMARK VINA RESULT: -8.407121118      0.000      0.000
REMARK  13 active torsions:
REMARK  status: ('A' for Active; 'I' for Inactive)
REMARK    1  A    between atoms: N1_1  and  C1_5 
REMARK    2  A    between atoms: C1_5  and  C2_6 
REMARK    3  A    between atoms: C2_6  and  N2_7 
REMARK    4  A    between atoms: C2_6  and  C10_23 
REMARK    5  A    between atoms: N2_7  and  C3_9 
REMARK    6  A    between atoms: C3_9  and  C4_10 
REMARK    7  A    between atoms: C4_10  and  C5_11 
REMARK    8  A    between atoms: C5_11  and  S1_12 
REMARK    9  A    between atoms: S1_12  and  C6_15 
REMARK   10  A    between atoms: C6_15  and  C7_16 
REMARK   11  A    between atoms: C7_16  and  C8_17 
REMARK   12  A    between atoms: C8_17  and  N3_18 
REMARK   13  A    between atoms: C13_26  and  N6_27 
REMARK       I    between atoms: N6_27  and  C14_28 
ROOT
HETATM    1  N2  UNL     1      15.448  63.986  36.977  1.00  0.00    -0.396 N 
ATOM      2  H2  UNL     1      15.966  63.737  37.820  1.00  0.00     0.159 HD
ENDROOT
BRANCH   1   3
HETATM    3  C2  UNL     1      16.113  64.725  36.062  1.00  0.00     0.110 C 
BRANCH   3   4
HETATM    4  C1  UNL     1      16.422  64.117  34.709  1.00  0.00     0.254 C 
BRANCH   4   5
HETATM    5  N1  UNL     1      17.714  63.378  34.802  1.00  0.00    -0.077 N 
ATOM      6  H13 UNL     1      18.338  63.770  35.508  1.00  0.00     0.274 HD
ATOM      7  H12 UNL     1      17.605  62.450  35.211  1.00  0.00     0.274 HD
ATOM      8  H11 UNL     1      18.142  63.349  33.876  1.00  0.00     0.274 HD
ENDBRANCH   4   5
ENDBRANCH   3   4
BRANCH   3   9
HETATM    9  C10 UNL     1      15.582  66.137  35.835  1.00  0.00     0.013 C 
HETATM   10  C11 UNL     1      16.623  67.164  35.586  1.00  0.00     0.010 C 
HETATM   11  C12 UNL     1      16.267  67.794  34.228  1.00  0.00     0.040 C 
HETATM   12  C13 UNL     1      14.729  67.702  34.341  1.00  0.00     0.166 C 
HETATM   13  C15 UNL     1      14.622  66.197  34.669  1.00  0.00     0.046 C 
BRANCH  12  14
HETATM   14  N6  UNL     1      14.311  68.419  35.394  1.00  0.00    -0.415 NA
HETATM   15  C14 UNL     1      13.945  69.038  36.323  1.00  0.00     0.270 C 
HETATM   16  N7  UNL     1      13.685  70.436  36.273  1.00  0.00    -0.053 NA
HETATM   17  N8  UNL     1      13.720  68.430  37.616  1.00  0.00    -0.053 NA
ENDBRANCH  12  14
ENDBRANCH   3   9
ENDBRANCH   1   3
BRANCH   1  18
HETATM   18  C3  UNL     1      14.156  63.532  36.900  1.00  0.00     0.057 C 
BRANCH  18  19
HETATM   19  C4  UNL     1      13.254  63.525  38.092  1.00  0.00     0.059 C 
BRANCH  19  20
HETATM   20  C5  UNL     1      13.662  64.638  39.077  1.00  0.00     0.145 C 
BRANCH  20  21
HETATM   21  S1  UNL     1      13.991  63.842  40.655  1.00  0.00     0.144 S 
HETATM   22  O1  UNL     1      12.860  64.006  41.596  1.00  0.00    -0.228 OA
HETATM   23  O2  UNL     1      15.224  64.516  41.246  1.00  0.00    -0.228 OA
BRANCH  21  24
HETATM   24  C6  UNL     1      14.272  62.123  40.372  1.00  0.00     0.142 C 
BRANCH  24  25
HETATM   25  C7  UNL     1      14.225  61.274  41.579  1.00  0.00     0.034 C 
BRANCH  25  26
HETATM   26  C8  UNL     1      12.962  60.492  41.787  1.00  0.00     0.123 C 
BRANCH  26  27
HETATM   27  N3  UNL     1      11.998  61.332  42.523  1.00  0.00    -0.367 N 
HETATM   28  C9  UNL     1      11.412  60.810  43.540  1.00  0.00     0.196 C 
HETATM   29  N4  UNL     1      11.658  59.486  43.963  1.00  0.00    -0.067 NA
HETATM   30  N5  UNL     1      10.473  61.610  44.263  1.00  0.00    -0.067 NA
ATOM     31  H3  UNL     1      11.804  62.291  42.235  1.00  0.00     0.161 HD
ENDBRANCH  26  27
ENDBRANCH  25  26
ENDBRANCH  24  25
ENDBRANCH  21  24
ENDBRANCH  20  21
ENDBRANCH  19  20
ENDBRANCH  18  19
ENDBRANCH   1  18
TORSDOF 13
ENDMDL
MODEL 2
REMARK VINA RESULT: -8.138824098      1.616      1.905
REMARK  13 active torsions:
REMARK  status: ('A' for Active; 'I' for Inactive)
REMARK    1  A    between atoms: N1_1  and  C1_5 
REMARK    2  A    between atoms: C1_5  and  C2_6 
REMARK    3  A    between atoms: C2_6  and  N2_7 
REMARK    4  A    between atoms: C2_6  and  C10_23 
REMARK    5  A    between atoms: N2_7  and  C3_9 
REMARK    6  A    between atoms: C3_9  and  C4_10 
REMARK    7  A    between atoms: C4_10  and  C5_11 
REMARK    8  A    between atoms: C5_11  and  S1_12 
REMARK    9  A    between atoms: S1_12  and  C6_15 
REMARK   10  A    between atoms: C6_15  and  C7_16 
REMARK   11  A    between atoms: C7_16  and  C8_17 
REMARK   12  A    between atoms: C8_17  and  N3_18 
REMARK   13  A    between atoms: C13_26  and  N6_27 
REMARK       I    between atoms: N6_27  and  C14_28 
ROOT
HETATM    1  N2  UNL     1      14.508  63.582  35.886  1.00  0.00    -0.396 N 
ATOM      2  H2  UNL     1      14.275  62.965  35.108  1.00  0.00     0.159 HD
ENDROOT
BRANCH   1   3
HETATM    3  C2  UNL     1      15.592  64.371  35.720  1.00  0.00     0.110 C 
BRANCH   3   4
HETATM    4  C1  UNL     1      16.597  64.024  34.640  1.00  0.00     0.254 C 
BRANCH   4   5
HETATM    5  N1  UNL     1      17.739  63.298  35.266  1.00  0.00    -0.077 N 
ATOM      6  H13 UNL     1      18.312  62.806  34.581  1.00  0.00     0.274 HD
ATOM      7  H12 UNL     1      18.456  63.931  35.621  1.00  0.00     0.274 HD
ATOM      8  H11 UNL     1      17.375  62.677  35.988  1.00  0.00     0.274 HD
ENDBRANCH   4   5
ENDBRANCH   3   4
BRANCH   3   9
HETATM    9  C10 UNL     1      15.319  65.871  35.646  1.00  0.00     0.013 C 
HETATM   10  C11 UNL     1      16.521  66.732  35.758  1.00  0.00     0.010 C 
HETATM   11  C12 UNL     1      16.531  67.597  34.485  1.00  0.00     0.040 C 
HETATM   12  C13 UNL     1      15.003  67.750  34.313  1.00  0.00     0.166 C 
HETATM   13  C15 UNL     1      14.626  66.254  34.359  1.00  0.00     0.046 C 
BRANCH  12  14
HETATM   14  N6  UNL     1      14.490  68.373  35.383  1.00  0.00    -0.415 NA
HETATM   15  C14 UNL     1      14.039  68.929  36.315  1.00  0.00     0.270 C 
HETATM   16  N7  UNL     1      13.846  68.302  37.577  1.00  0.00    -0.053 NA
HETATM   17  N8  UNL     1      13.638  70.318  36.265  1.00  0.00    -0.053 NA
ENDBRANCH  12  14
ENDBRANCH   3   9
ENDBRANCH   1   3
BRANCH   1  18
HETATM   18  C3  UNL     1      13.687  63.517  36.983  1.00  0.00     0.057 C 
BRANCH  18  19
HETATM   19  C4  UNL     1      14.226  63.612  38.374  1.00  0.00     0.059 C 
BRANCH  19  20
HETATM   20  C5  UNL     1      13.710  64.892  39.060  1.00  0.00     0.145 C 
BRANCH  20  21
HETATM   21  S1  UNL     1      13.990  64.686  40.824  1.00  0.00     0.144 S 
HETATM   22  O1  UNL     1      12.781  64.183  41.514  1.00  0.00    -0.228 OA
HETATM   23  O2  UNL     1      14.338  66.061  41.384  1.00  0.00    -0.228 OA
BRANCH  21  24
HETATM   24  C6  UNL     1      15.314  63.544  41.056  1.00  0.00     0.142 C 
BRANCH  24  25
HETATM   25  C7  UNL     1      15.108  62.557  42.134  1.00  0.00     0.034 C 
BRANCH  25  26
HETATM   26  C8  UNL     1      14.793  61.157  41.696  1.00  0.00     0.123 C 
BRANCH  26  27
HETATM   27  N3  UNL     1      13.487  61.156  41.009  1.00  0.00    -0.367 N 
HETATM   28  C9  UNL     1      13.169  60.105  40.341  1.00  0.00     0.196 C 
HETATM   29  N4  UNL     1      14.014  58.979  40.248  1.00  0.00    -0.067 NA
HETATM   30  N5  UNL     1      11.908  60.089  39.667  1.00  0.00    -0.067 NA
ATOM     31  H3  UNL     1      12.860  61.959  41.062  1.00  0.00     0.161 HD
ENDBRANCH  26  27
ENDBRANCH  25  26
ENDBRANCH  24  25
ENDBRANCH  21  24
ENDBRANCH  20  21
ENDBRANCH  19  20
ENDBRANCH  18  19
ENDBRANCH   1  18
TORSDOF 13
ENDMDL
MODEL 3
REMARK VINA RESULT: -8.003762805      2.096      3.106
REMARK  13 active torsions:
REMARK  status: ('A' for Active; 'I' for Inactive)
REMARK    1  A    between atoms: N1_1  and  C1_5 
REMARK    2  A    between atoms: C1_5  and  C2_6 
REMARK    3  A    between atoms: C2_6  and  N2_7 
REMARK    4  A    between atoms: C2_6  and  C10_23 
REMARK    5  A    between atoms: N2_7  and  C3_9 
REMARK    6  A    between atoms: C3_9  and  C4_10 
REMARK    7  A    between atoms: C4_10  and  C5_11 
REMARK    8  A    between atoms: C5_11  and  S1_12 
REMARK    9  A    between atoms: S1_12  and  C6_15 
REMARK   10  A    between atoms: C6_15  and  C7_16 
REMARK   11  A    between atoms: C7_16  and  C8_17 
REMARK   12  A    between atoms: C8_17  and  N3_18 
REMARK   13  A    between atoms: C13_26  and  N6_27 
REMARK       I    between atoms: N6_27  and  C14_28 
ROOT
HETATM    1  N2  UNL     1      14.781  66.022  35.509  1.00  0.00    -0.396 N 
ATOM      2  H2  UNL     1      13.762  66.020  35.462  1.00  0.00     0.159 HD
ENDROOT
BRANCH   1   3
HETATM    3  C2  UNL     1      15.377  67.234  35.538  1.00  0.00     0.110 C 
BRANCH   3   4
HETATM    4  C1  UNL     1      15.718  67.919  34.230  1.00  0.00     0.254 C 
BRANCH   4   5
HETATM    5  N1  UNL     1      16.878  67.214  33.611  1.00  0.00    -0.077 N 
ATOM      6  H13 UNL     1      17.599  67.859  33.288  1.00  0.00     0.274 HD
ATOM      7  H12 UNL     1      17.439  66.709  34.297  1.00  0.00     0.274 HD
ATOM      8  H11 UNL     1      16.533  66.609  32.866  1.00  0.00     0.274 HD
ENDBRANCH   4   5
ENDBRANCH   3   4
BRANCH   3   9
HETATM    9  C10 UNL     1      14.738  68.269  36.460  1.00  0.00     0.013 C 
HETATM   10  C11 UNL     1      14.066  69.395  35.766  1.00  0.00     0.010 C 
HETATM   11  C12 UNL     1      12.613  69.386  36.274  1.00  0.00     0.040 C 
HETATM   12  C13 UNL     1      12.889  68.909  37.717  1.00  0.00     0.166 C 
HETATM   13  C15 UNL     1      13.712  67.647  37.378  1.00  0.00     0.046 C 
BRANCH  12  14
HETATM   14  N6  UNL     1      13.673  69.798  38.343  1.00  0.00    -0.415 NA
HETATM   15  C14 UNL     1      14.358  70.572  38.902  1.00  0.00     0.270 C 
HETATM   16  N7  UNL     1      15.050  71.621  38.237  1.00  0.00    -0.053 NA
HETATM   17  N8  UNL     1      14.561  70.530  40.334  1.00  0.00    -0.053 NA
ENDBRANCH  12  14
ENDBRANCH   3   9
ENDBRANCH   1   3
BRANCH   1  18
HETATM   18  C3  UNL     1      15.392  64.795  35.536  1.00  0.00     0.057 C 
BRANCH  18  19
HETATM   19  C4  UNL     1      15.210  63.852  36.682  1.00  0.00     0.059 C 
BRANCH  19  20
HETATM   20  C5  UNL     1      13.728  63.799  37.100  1.00  0.00     0.145 C 
BRANCH  20  21
HETATM   21  S1  UNL     1      13.692  63.323  38.833  1.00  0.00     0.144 S 
HETATM   22  O1  UNL     1      13.115  61.972  39.017  1.00  0.00    -0.228 OA
HETATM   23  O2  UNL     1      12.812  64.336  39.556  1.00  0.00    -0.228 OA
BRANCH  21  24
HETATM   24  C6  UNL     1      15.342  63.344  39.458  1.00  0.00     0.142 C 
BRANCH  24  25
HETATM   25  C7  UNL     1      15.640  62.315  40.473  1.00  0.00     0.034 C 
BRANCH  25  26
HETATM   26  C8  UNL     1      15.204  62.626  41.875  1.00  0.00     0.123 C 
BRANCH  26  27
HETATM   27  N3  UNL     1      13.763  62.332  42.002  1.00  0.00    -0.367 N 
HETATM   28  C9  UNL     1      13.054  63.138  42.707  1.00  0.00     0.196 C 
HETATM   29  N4  UNL     1      13.602  64.269  43.350  1.00  0.00    -0.067 NA
HETATM   30  N5  UNL     1      11.657  62.867  42.842  1.00  0.00    -0.067 NA
ATOM     31  H3  UNL     1      13.347  61.520  41.546  1.00  0.00     0.161 HD
ENDBRANCH  26  27
ENDBRANCH  25  26
ENDBRANCH  24  25
ENDBRANCH  21  24
ENDBRANCH  20  21
ENDBRANCH  19  20
ENDBRANCH  18  19
ENDBRANCH   1  18
TORSDOF 13
ENDMDL
MODEL 4
REMARK VINA RESULT: -7.933355970      2.840      8.257
REMARK  13 active torsions:
REMARK  status: ('A' for Active; 'I' for Inactive)
REMARK    1  A    between atoms: N1_1  and  C1_5 
REMARK    2  A    between atoms: C1_5  and  C2_6 
REMARK    3  A    between atoms: C2_6  and  N2_7 
REMARK    4  A    between atoms: C2_6  and  C10_23 
REMARK    5  A    between atoms: N2_7  and  C3_9 
REMARK    6  A    between atoms: C3_9  and  C4_10 
REMARK    7  A    between atoms: C4_10  and  C5_11 
REMARK    8  A    between atoms: C5_11  and  S1_12 
REMARK    9  A    between atoms: S1_12  and  C6_15 
REMARK   10  A    between atoms: C6_15  and  C7_16 
REMARK   11  A    between atoms: C7_16  and  C8_17 
REMARK   12  A    between atoms: C8_17  and  N3_18 
REMARK   13  A    between atoms: C13_26  and  N6_27 
REMARK       I    between atoms: N6_27  and  C14_28 
ROOT
HETATM    1  N2  UNL     1      13.679  64.598  38.288  1.00  0.00    -0.396 N 
ATOM      2  H2  UNL     1      13.471  65.554  37.996  1.00  0.00     0.159 HD
ENDROOT
BRANCH   1   3
HETATM    3  C2  UNL     1      14.162  64.446  39.540  1.00  0.00     0.110 C 
BRANCH   3   4
HETATM    4  C1  UNL     1      13.757  65.439  40.612  1.00  0.00     0.254 C 
BRANCH   4   5
HETATM    5  N1  UNL     1      13.385  66.724  39.954  1.00  0.00    -0.077 N 
ATOM      6  H13 UNL     1      12.714  66.595  39.196  1.00  0.00     0.274 HD
ATOM      7  H12 UNL     1      12.808  67.316  40.552  1.00  0.00     0.274 HD
ATOM      8  H11 UNL     1      14.237  67.192  39.646  1.00  0.00     0.274 HD
ENDBRANCH   4   5
ENDBRANCH   3   4
BRANCH   3   9
HETATM    9  C10 UNL     1      14.051  63.043  40.131  1.00  0.00     0.013 C 
HETATM   10  C11 UNL     1      15.344  62.351  40.348  1.00  0.00     0.010 C 
HETATM   11  C12 UNL     1      15.374  61.989  41.843  1.00  0.00     0.040 C 
HETATM   12  C13 UNL     1      13.865  61.718  42.032  1.00  0.00     0.166 C 
HETATM   13  C15 UNL     1      13.329  63.047  41.458  1.00  0.00     0.046 C 
BRANCH  12  14
HETATM   14  N6  UNL     1      13.487  60.705  41.240  1.00  0.00    -0.415 NA
HETATM   15  C14 UNL     1      13.166  59.811  40.548  1.00  0.00     0.270 C 
HETATM   16  N7  UNL     1      11.917  59.763  39.869  1.00  0.00    -0.053 NA
HETATM   17  N8  UNL     1      14.020  58.667  40.319  1.00  0.00    -0.053 NA
ENDBRANCH  12  14
ENDBRANCH   3   9
ENDBRANCH   1   3
BRANCH   1  18
HETATM   18  C3  UNL     1      13.436  63.613  37.365  1.00  0.00     0.057 C 
BRANCH  18  19
HETATM   19  C4  UNL     1      14.330  63.406  36.184  1.00  0.00     0.059 C 
BRANCH  19  20
HETATM   20  C5  UNL     1      14.151  64.555  35.172  1.00  0.00     0.145 C 
BRANCH  20  21
HETATM   21  S1  UNL     1      15.682  65.499  35.181  1.00  0.00     0.144 S 
HETATM   22  O1  UNL     1      16.839  64.667  34.783  1.00  0.00    -0.228 OA
HETATM   23  O2  UNL     1      15.896  65.987  36.610  1.00  0.00    -0.228 OA
BRANCH  21  24
HETATM   24  C6  UNL     1      15.518  66.850  34.058  1.00  0.00     0.142 C 
BRANCH  24  25
HETATM   25  C7  UNL     1      15.448  68.183  34.689  1.00  0.00     0.034 C 
BRANCH  25  26
HETATM   26  C8  UNL     1      14.095  68.615  35.171  1.00  0.00     0.123 C 
BRANCH  26  27
HETATM   27  N3  UNL     1      14.115  68.685  36.646  1.00  0.00    -0.367 N 
HETATM   28  C9  UNL     1      13.231  69.422  37.216  1.00  0.00     0.196 C 
HETATM   29  N4  UNL     1      12.264  70.150  36.490  1.00  0.00    -0.067 NA
HETATM   30  N5  UNL     1      13.237  69.502  38.644  1.00  0.00    -0.067 NA
ATOM     31  H3  UNL     1      14.804  68.167  37.190  1.00  0.00     0.161 HD
ENDBRANCH  26  27
ENDBRANCH  25  26
ENDBRANCH  24  25
ENDBRANCH  21  24
ENDBRANCH  20  21
ENDBRANCH  19  20
ENDBRANCH  18  19
ENDBRANCH   1  18
TORSDOF 13
ENDMDL
MODEL 5
REMARK VINA RESULT: -7.875690168      1.486      2.348
REMARK  13 active torsions:
REMARK  status: ('A' for Active; 'I' for Inactive)
REMARK    1  A    between atoms: N1_1  and  C1_5 
REMARK    2  A    between atoms: C1_5  and  C2_6 
REMARK    3  A    between atoms: C2_6  and  N2_7 
REMARK    4  A    between atoms: C2_6  and  C10_23 
REMARK    5  A    between atoms: N2_7  and  C3_9 
REMARK    6  A    between atoms: C3_9  and  C4_10 
REMARK    7  A    between atoms: C4_10  and  C5_11 
REMARK    8  A    between atoms: C5_11  and  S1_12 
REMARK    9  A    between atoms: S1_12  and  C6_15 
REMARK   10  A    between atoms: C6_15  and  C7_16 
REMARK   11  A    between atoms: C7_16  and  C8_17 
REMARK   12  A    between atoms: C8_17  and  N3_18 
REMARK   13  A    between atoms: C13_26  and  N6_27 
REMARK       I    between atoms: N6_27  and  C14_28 
ROOT
HETATM    1  N2  UNL     1      14.771  65.787  36.194  1.00  0.00    -0.396 N 
ATOM      2  H2  UNL     1      13.813  65.676  35.861  1.00  0.00     0.159 HD
ENDROOT
BRANCH   1   3
HETATM    3  C2  UNL     1      15.368  66.967  35.921  1.00  0.00     0.110 C 
BRANCH   3   4
HETATM    4  C1  UNL     1      15.669  67.324  34.479  1.00  0.00     0.254 C 
BRANCH   4   5
HETATM    5  N1  UNL     1      15.083  66.274  33.596  1.00  0.00    -0.077 N 
ATOM      6  H13 UNL     1      15.787  65.628  33.239  1.00  0.00     0.274 HD
ATOM      7  H12 UNL     1      14.521  65.598  34.113  1.00  0.00     0.274 HD
ATOM      8  H11 UNL     1      14.558  66.730  32.850  1.00  0.00     0.274 HD
ENDBRANCH   4   5
ENDBRANCH   3   4
BRANCH   3   9
HETATM    9  C10 UNL     1      14.758  68.194  36.593  1.00  0.00     0.013 C 
HETATM   10  C11 UNL     1      14.200  69.205  35.663  1.00  0.00     0.010 C 
HETATM   11  C12 UNL     1      12.728  69.378  36.074  1.00  0.00     0.040 C 
HETATM   12  C13 UNL     1      12.900  69.168  37.595  1.00  0.00     0.166 C 
HETATM   13  C15 UNL     1      13.648  67.819  37.547  1.00  0.00     0.046 C 
BRANCH  12  14
HETATM   14  N6  UNL     1      13.712  70.112  38.091  1.00  0.00    -0.415 NA
HETATM   15  C14 UNL     1      14.426  70.934  38.535  1.00  0.00     0.270 C 
HETATM   16  N7  UNL     1      14.768  72.126  37.839  1.00  0.00    -0.053 NA
HETATM   17  N8  UNL     1      15.026  70.808  39.845  1.00  0.00    -0.053 NA
ENDBRANCH  12  14
ENDBRANCH   3   9
ENDBRANCH   1   3
BRANCH   1  18
HETATM   18  C3  UNL     1      15.308  64.720  36.869  1.00  0.00     0.057 C 
BRANCH  18  19
HETATM   19  C4  UNL     1      14.447  63.737  37.596  1.00  0.00     0.059 C 
BRANCH  19  20
HETATM   20  C5  UNL     1      13.608  64.455  38.671  1.00  0.00     0.145 C 
BRANCH  20  21
HETATM   21  S1  UNL     1      14.001  63.677  40.244  1.00  0.00     0.144 S 
HETATM   22  O1  UNL     1      12.987  63.989  41.276  1.00  0.00    -0.228 OA
HETATM   23  O2  UNL     1      15.347  64.233  40.693  1.00  0.00    -0.228 OA
BRANCH  21  24
HETATM   24  C6  UNL     1      14.075  61.930  40.005  1.00  0.00     0.142 C 
BRANCH  24  25
HETATM   25  C7  UNL     1      14.175  61.134  41.244  1.00  0.00     0.034 C 
BRANCH  25  26
HETATM   26  C8  UNL     1      12.933  60.399  41.658  1.00  0.00     0.123 C 
BRANCH  26  27
HETATM   27  N3  UNL     1      12.050  61.329  42.387  1.00  0.00    -0.367 N 
HETATM   28  C9  UNL     1      11.467  60.888  43.444  1.00  0.00     0.196 C 
HETATM   29  N4  UNL     1      11.643  59.569  43.914  1.00  0.00    -0.067 NA
HETATM   30  N5  UNL     1      10.607  61.776  44.162  1.00  0.00    -0.067 NA
ATOM     31  H3  UNL     1      11.909  62.287  42.065  1.00  0.00     0.161 HD
ENDBRANCH  26  27
ENDBRANCH  25  26
ENDBRANCH  24  25
ENDBRANCH  21  24
ENDBRANCH  20  21
ENDBRANCH  19  20
ENDBRANCH  18  19
ENDBRANCH   1  18
TORSDOF 13
ENDMDL
