MODEL 1
REMARK VINA RESULT: -6.681736286      0.000      0.000
REMARK  5 active torsions:
REMARK  status: ('A' for Active; 'I' for Inactive)
REMARK    1  A    between atoms: C2_2  and  O1_3 
REMARK    2  A    between atoms: O1_3  and  C3_4 
REMARK       I    between atoms: C3_4  and  N1_6 
REMARK    3  A    between atoms: N2_9  and  O4_10 
REMARK    4  A    between atoms: C10_20  and  N5_21 
REMARK    5  A    between atoms: N6_26  and  N7_27 
ROOT
HETATM    1  C3  UNL     1      -0.009  36.627  27.227  1.00  0.00     0.377 C 
HETATM    2  O2  UNL     1       1.121  36.132  27.430  1.00  0.00    -0.237 OA
HETATM    3  N1  UNL     1      -0.290  37.322  25.997  1.00  0.00    -0.189 N 
HETATM    4  C4  UNL     1      -1.441  37.904  25.630  1.00  0.00     0.363 A 
HETATM    5  O3  UNL     1      -2.474  37.919  26.345  1.00  0.00    -0.243 OA
HETATM    6  N2  UNL     1      -1.323  38.452  24.416  1.00  0.00    -0.166 N 
HETATM    7  C5  UNL     1      -0.058  38.201  24.019  1.00  0.00     0.145 A 
HETATM    8  C6  UNL     1       0.859  38.384  22.978  1.00  0.00     0.137 A 
HETATM    9  C7  UNL     1       2.045  37.787  23.351  1.00  0.00     0.142 A 
HETATM   10  N3  UNL     1       1.845  37.267  24.567  1.00  0.00    -0.324 N 
ATOM     11  H3  UNL     1       2.553  36.760  25.100  1.00  0.00     0.169 HD
HETATM   12  C8  UNL     1       0.592  37.498  24.997  1.00  0.00     0.155 A 
HETATM   13  N4  UNL     1       3.078  37.843  22.487  1.00  0.00    -0.317 N 
HETATM   14  C9  UNL     1       4.329  37.225  22.858  1.00  0.00     0.159 C 
HETATM   15  C10 UNL     1       2.967  38.468  21.280  1.00  0.00     0.174 A 
HETATM   16  C11 UNL     1       1.768  39.055  20.939  1.00  0.00     0.310 A 
HETATM   17  O5  UNL     1       1.653  39.633  19.830  1.00  0.00    -0.262 OA
HETATM   18  N6  UNL     1       0.744  39.004  21.782  1.00  0.00    -0.218 N 
ENDROOT
BRANCH   1  19
HETATM   19  O1  UNL     1      -0.978  36.498  28.192  1.00  0.00    -0.304 OA
BRANCH  19  20
HETATM   20  C2  UNL     1      -1.633  35.279  28.489  1.00  0.00     0.176 C 
HETATM   21  C1  UNL     1      -2.934  35.600  29.211  1.00  0.00     0.034 C 
ENDBRANCH  19  20
ENDBRANCH   1  19
BRANCH   6  22
HETATM   22  O4  UNL     1      -2.302  39.144  23.699  1.00  0.00    -0.278 OA
ATOM     23  H4  UNL     1      -2.171  39.852  23.079  1.00  0.00     0.245 HD
ENDBRANCH   6  22
BRANCH  18  24
HETATM   24  N7  UNL     1      -0.453  39.624  21.371  1.00  0.00    -0.335 N 
ATOM     25  H72 UNL     1      -1.317  39.288  21.796  1.00  0.00     0.177 HD
ATOM     26  H71 UNL     1      -0.466  40.375  20.680  1.00  0.00     0.177 HD
ENDBRANCH  18  24
BRANCH  15  27
HETATM   27  N5  UNL     1       4.004  38.472  20.525  1.00  0.00    -0.381 N 
ATOM     28  H52 UNL     1       4.878  38.001  20.759  1.00  0.00     0.157 HD
ATOM     29  H51 UNL     1       3.935  38.977  19.642  1.00  0.00     0.157 HD
ENDBRANCH  15  27
TORSDOF 5
ENDMDL
MODEL 2
REMARK VINA RESULT: -6.347323208      2.432      2.452
REMARK  5 active torsions:
REMARK  status: ('A' for Active; 'I' for Inactive)
REMARK    1  A    between atoms: C2_2  and  O1_3 
REMARK    2  A    between atoms: O1_3  and  C3_4 
REMARK       I    between atoms: C3_4  and  N1_6 
REMARK    3  A    between atoms: N2_9  and  O4_10 
REMARK    4  A    between atoms: C10_20  and  N5_21 
REMARK    5  A    between atoms: N6_26  and  N7_27 
ROOT
HETATM    1  C3  UNL     1       0.048  36.568  27.231  1.00  0.00     0.377 C 
HETATM    2  O2  UNL     1       1.189  36.545  27.744  1.00  0.00    -0.237 OA
HETATM    3  N1  UNL     1      -0.275  37.537  26.216  1.00  0.00    -0.189 N 
HETATM    4  C4  UNL     1      -1.441  37.692  25.574  1.00  0.00     0.363 A 
HETATM    5  O3  UNL     1      -2.454  36.977  25.784  1.00  0.00    -0.243 OA
HETATM    6  N2  UNL     1      -1.364  38.699  24.697  1.00  0.00    -0.166 N 
HETATM    7  C5  UNL     1      -0.109  39.182  24.800  1.00  0.00     0.145 A 
HETATM    8  C6  UNL     1       0.776  40.148  24.308  1.00  0.00     0.137 A 
HETATM    9  C7  UNL     1       1.979  39.993  24.966  1.00  0.00     0.142 A 
HETATM   10  N3  UNL     1       1.819  38.974  25.818  1.00  0.00    -0.324 N 
ATOM     11  H3  UNL     1       2.546  38.628  26.445  1.00  0.00     0.169 HD
HETATM   12  C8  UNL     1       0.576  38.465  25.744  1.00  0.00     0.155 A 
HETATM   13  N4  UNL     1       2.985  40.828  24.644  1.00  0.00    -0.317 N 
HETATM   14  C9  UNL     1       4.253  40.683  25.321  1.00  0.00     0.159 C 
HETATM   15  C10 UNL     1       2.834  41.800  23.700  1.00  0.00     0.174 A 
HETATM   16  C11 UNL     1       1.619  41.929  23.062  1.00  0.00     0.310 A 
HETATM   17  O5  UNL     1       1.467  42.819  22.190  1.00  0.00    -0.262 OA
HETATM   18  N6  UNL     1       0.621  41.110  23.371  1.00  0.00    -0.218 N 
ENDROOT
BRANCH   1  19
HETATM   19  O1  UNL     1      -0.891  35.657  27.650  1.00  0.00    -0.304 OA
BRANCH  19  20
HETATM   20  C2  UNL     1      -1.671  35.816  28.821  1.00  0.00     0.176 C 
HETATM   21  C1  UNL     1      -2.521  34.566  29.001  1.00  0.00     0.034 C 
ENDBRANCH  19  20
ENDBRANCH   1  19
BRANCH   6  22
HETATM   22  O4  UNL     1      -2.370  39.161  23.846  1.00  0.00    -0.278 OA
ATOM     23  H4  UNL     1      -2.420  39.061  22.902  1.00  0.00     0.245 HD
ENDBRANCH   6  22
BRANCH  18  24
HETATM   24  N7  UNL     1      -0.594  41.295  22.681  1.00  0.00    -0.335 N 
ATOM     25  H72 UNL     1      -1.453  41.171  23.217  1.00  0.00     0.177 HD
ATOM     26  H71 UNL     1      -0.624  41.541  21.691  1.00  0.00     0.177 HD
ENDBRANCH  18  24
BRANCH  15  27
HETATM   27  N5  UNL     1       3.848  42.549  23.460  1.00  0.00    -0.381 N 
ATOM     28  H52 UNL     1       4.016  43.006  22.565  1.00  0.00     0.157 HD
ATOM     29  H51 UNL     1       4.515  42.686  24.219  1.00  0.00     0.157 HD
ENDBRANCH  15  27
TORSDOF 5
ENDMDL
MODEL 3
REMARK VINA RESULT: -6.303333784      2.677      3.695
REMARK  5 active torsions:
REMARK  status: ('A' for Active; 'I' for Inactive)
REMARK    1  A    between atoms: C2_2  and  O1_3 
REMARK    2  A    between atoms: O1_3  and  C3_4 
REMARK       I    between atoms: C3_4  and  N1_6 
REMARK    3  A    between atoms: N2_9  and  O4_10 
REMARK    4  A    between atoms: C10_20  and  N5_21 
REMARK    5  A    between atoms: N6_26  and  N7_27 
ROOT
HETATM    1  C3  UNL     1      -1.880  35.621  26.329  1.00  0.00     0.377 C 
HETATM    2  O2  UNL     1      -2.809  35.670  25.493  1.00  0.00    -0.237 OA
HETATM    3  N1  UNL     1      -0.818  36.594  26.296  1.00  0.00    -0.189 N 
HETATM    4  C4  UNL     1       0.240  36.678  27.114  1.00  0.00     0.363 A 
HETATM    5  O3  UNL     1       0.455  35.882  28.063  1.00  0.00    -0.243 OA
HETATM    6  N2  UNL     1       1.014  37.715  26.775  1.00  0.00    -0.166 N 
HETATM    7  C5  UNL     1       0.414  38.291  25.712  1.00  0.00     0.145 A 
HETATM    8  C6  UNL     1       0.510  39.337  24.788  1.00  0.00     0.137 A 
HETATM    9  C7  UNL     1      -0.577  39.254  23.943  1.00  0.00     0.142 A 
HETATM   10  N3  UNL     1      -1.295  38.200  24.347  1.00  0.00    -0.324 N 
ATOM     11  H3  UNL     1      -2.162  37.892  23.906  1.00  0.00     0.169 HD
HETATM   12  C8  UNL     1      -0.727  37.599  25.408  1.00  0.00     0.155 A 
HETATM   13  N4  UNL     1      -0.687  40.175  22.966  1.00  0.00    -0.317 N 
HETATM   14  C9  UNL     1      -1.818  40.107  22.070  1.00  0.00     0.159 C 
HETATM   15  C10 UNL     1       0.241  41.162  22.805  1.00  0.00     0.174 A 
HETATM   16  C11 UNL     1       1.315  41.215  23.666  1.00  0.00     0.310 A 
HETATM   17  O5  UNL     1       2.176  42.119  23.530  1.00  0.00    -0.262 OA
HETATM   18  N6  UNL     1       1.432  40.313  24.634  1.00  0.00    -0.218 N 
ENDROOT
BRANCH   1  19
HETATM   19  O1  UNL     1      -1.887  34.628  27.278  1.00  0.00    -0.304 OA
BRANCH  19  20
HETATM   20  C2  UNL     1      -2.928  34.451  28.221  1.00  0.00     0.176 C 
HETATM   21  C1  UNL     1      -2.907  35.633  29.180  1.00  0.00     0.034 C 
ENDBRANCH  19  20
ENDBRANCH   1  19
BRANCH   6  22
HETATM   22  O4  UNL     1       2.200  38.125  27.389  1.00  0.00    -0.278 OA
ATOM     23  H4  UNL     1       2.339  38.904  27.915  1.00  0.00     0.245 HD
ENDBRANCH   6  22
BRANCH  18  24
HETATM   24  N7  UNL     1       2.555  40.425  25.479  1.00  0.00    -0.335 N 
ATOM     25  H72 UNL     1       3.009  41.338  25.525  1.00  0.00     0.177 HD
ATOM     26  H71 UNL     1       2.906  39.637  26.022  1.00  0.00     0.177 HD
ENDBRANCH  18  24
BRANCH  15  27
HETATM   27  N5  UNL     1       0.053  41.993  21.846  1.00  0.00    -0.381 N 
ATOM     28  H52 UNL     1      -0.859  42.183  21.431  1.00  0.00     0.157 HD
ATOM     29  H51 UNL     1       0.872  42.484  21.489  1.00  0.00     0.157 HD
ENDBRANCH  15  27
TORSDOF 5
ENDMDL
MODEL 4
REMARK VINA RESULT: -6.236258225      2.132      6.121
REMARK  5 active torsions:
REMARK  status: ('A' for Active; 'I' for Inactive)
REMARK    1  A    between atoms: C2_2  and  O1_3 
REMARK    2  A    between atoms: O1_3  and  C3_4 
REMARK       I    between atoms: C3_4  and  N1_6 
REMARK    3  A    between atoms: N2_9  and  O4_10 
REMARK    4  A    between atoms: C10_20  and  N5_21 
REMARK    5  A    between atoms: N6_26  and  N7_27 
ROOT
HETATM    1  C3  UNL     1       1.476  40.994  21.466  1.00  0.00     0.377 C 
HETATM    2  O2  UNL     1       2.718  40.936  21.605  1.00  0.00    -0.237 OA
HETATM    3  N1  UNL     1       0.609  40.241  22.335  1.00  0.00    -0.189 N 
HETATM    4  C4  UNL     1      -0.731  40.196  22.317  1.00  0.00     0.363 A 
HETATM    5  O3  UNL     1      -1.439  40.837  21.501  1.00  0.00    -0.243 OA
HETATM    6  N2  UNL     1      -1.186  39.386  23.278  1.00  0.00    -0.166 N 
HETATM    7  C5  UNL     1      -0.092  38.913  23.912  1.00  0.00     0.145 A 
HETATM    8  C6  UNL     1       0.345  38.081  24.948  1.00  0.00     0.137 A 
HETATM    9  C7  UNL     1       1.723  38.123  24.971  1.00  0.00     0.142 A 
HETATM   10  N3  UNL     1       2.096  38.949  23.987  1.00  0.00    -0.324 N 
ATOM     11  H3  UNL     1       3.065  39.177  23.762  1.00  0.00     0.169 HD
HETATM   12  C8  UNL     1       1.030  39.441  23.331  1.00  0.00     0.155 A 
HETATM   13  N4  UNL     1       2.361  37.386  25.902  1.00  0.00    -0.317 N 
HETATM   14  C9  UNL     1       3.804  37.416  25.943  1.00  0.00     0.159 C 
HETATM   15  C10 UNL     1       1.677  36.619  26.798  1.00  0.00     0.174 A 
HETATM   16  C11 UNL     1       0.300  36.599  26.747  1.00  0.00     0.310 A 
HETATM   17  O5  UNL     1      -0.341  35.897  27.567  1.00  0.00    -0.262 OA
HETATM   18  N6  UNL     1      -0.338  37.322  25.834  1.00  0.00    -0.218 N 
ENDROOT
BRANCH   1  19
HETATM   19  O1  UNL     1       0.951  41.787  20.474  1.00  0.00    -0.304 OA
BRANCH  19  20
HETATM   20  C2  UNL     1       1.167  41.562  19.093  1.00  0.00     0.176 C 
HETATM   21  C1  UNL     1       0.477  40.260  18.710  1.00  0.00     0.034 C 
ENDBRANCH  19  20
ENDBRANCH   1  19
BRANCH   6  22
HETATM   22  O4  UNL     1      -2.517  39.084  23.573  1.00  0.00    -0.278 OA
ATOM     23  H4  UNL     1      -3.295  39.431  23.151  1.00  0.00     0.245 HD
ENDBRANCH   6  22
BRANCH  18  24
HETATM   24  N7  UNL     1      -1.746  37.256  25.838  1.00  0.00    -0.335 N 
ATOM     25  H72 UNL     1      -2.224  37.554  24.988  1.00  0.00     0.177 HD
ATOM     26  H71 UNL     1      -2.272  36.928  26.648  1.00  0.00     0.177 HD
ENDBRANCH  18  24
BRANCH  15  27
HETATM   27  N5  UNL     1       2.370  35.951  27.646  1.00  0.00    -0.381 N 
ATOM     28  H52 UNL     1       3.346  36.150  27.863  1.00  0.00     0.157 HD
ATOM     29  H51 UNL     1       1.904  35.180  28.124  1.00  0.00     0.157 HD
ENDBRANCH  15  27
TORSDOF 5
ENDMDL
MODEL 5
REMARK VINA RESULT: -6.145304273      2.230      3.271
REMARK  5 active torsions:
REMARK  status: ('A' for Active; 'I' for Inactive)
REMARK    1  A    between atoms: C2_2  and  O1_3 
REMARK    2  A    between atoms: O1_3  and  C3_4 
REMARK       I    between atoms: C3_4  and  N1_6 
REMARK    3  A    between atoms: N2_9  and  O4_10 
REMARK    4  A    between atoms: C10_20  and  N5_21 
REMARK    5  A    between atoms: N6_26  and  N7_27 
ROOT
HETATM    1  C3  UNL     1       2.734  36.563  26.488  1.00  0.00     0.377 C 
HETATM    2  O2  UNL     1       3.843  36.904  26.020  1.00  0.00    -0.237 OA
HETATM    3  N1  UNL     1       1.514  37.065  25.911  1.00  0.00    -0.189 N 
HETATM    4  C4  UNL     1       0.257  36.798  26.293  1.00  0.00     0.363 A 
HETATM    5  O3  UNL     1      -0.034  36.038  27.251  1.00  0.00    -0.243 OA
HETATM    6  N2  UNL     1      -0.617  37.448  25.518  1.00  0.00    -0.166 N 
HETATM    7  C5  UNL     1       0.123  38.139  24.627  1.00  0.00     0.145 A 
HETATM    8  C6  UNL     1       0.056  39.015  23.537  1.00  0.00     0.137 A 
HETATM    9  C7  UNL     1       1.348  39.293  23.140  1.00  0.00     0.142 A 
HETATM   10  N3  UNL     1       2.155  38.610  23.960  1.00  0.00    -0.324 N 
ATOM     11  H3  UNL     1       3.174  38.622  23.905  1.00  0.00     0.169 HD
HETATM   12  C8  UNL     1       1.451  37.907  24.864  1.00  0.00     0.155 A 
HETATM   13  N4  UNL     1       1.520  40.126  22.095  1.00  0.00    -0.317 N 
HETATM   14  C9  UNL     1       2.864  40.431  21.663  1.00  0.00     0.159 C 
HETATM   15  C10 UNL     1       0.460  40.683  21.442  1.00  0.00     0.174 A 
HETATM   16  C11 UNL     1      -0.817  40.385  21.866  1.00  0.00     0.310 A 
HETATM   17  O5  UNL     1      -1.802  40.891  21.272  1.00  0.00    -0.262 OA
HETATM   18  N6  UNL     1      -0.998  39.565  22.894  1.00  0.00    -0.218 N 
ENDROOT
BRANCH   1  19
HETATM   19  O1  UNL     1       2.697  35.704  27.560  1.00  0.00    -0.304 OA
BRANCH  19  20
HETATM   20  C2  UNL     1       3.847  35.298  28.280  1.00  0.00     0.176 C 
HETATM   21  C1  UNL     1       4.399  34.040  27.624  1.00  0.00     0.034 C 
ENDBRANCH  19  20
ENDBRANCH   1  19
BRANCH   6  22
HETATM   22  O4  UNL     1      -2.011  37.422  25.605  1.00  0.00    -0.278 OA
ATOM     23  H4  UNL     1      -2.590  36.703  25.381  1.00  0.00     0.245 HD
ENDBRANCH   6  22
BRANCH  18  24
HETATM   24  N7  UNL     1      -2.329  39.302  23.275  1.00  0.00    -0.335 N 
ATOM     25  H72 UNL     1      -2.796  40.010  23.840  1.00  0.00     0.177 HD
ATOM     26  H71 UNL     1      -2.812  38.445  23.004  1.00  0.00     0.177 HD
ENDBRANCH  18  24
BRANCH  15  27
HETATM   27  N5  UNL     1       0.721  41.465  20.459  1.00  0.00    -0.381 N 
ATOM     28  H52 UNL     1       1.389  42.234  20.509  1.00  0.00     0.157 HD
ATOM     29  H51 UNL     1       0.226  41.294  19.584  1.00  0.00     0.157 HD
ENDBRANCH  15  27
TORSDOF 5
ENDMDL
