MODEL 1
REMARK VINA RESULT: -8.935840586      0.000      0.000
REMARK  6 active torsions:
REMARK  status: ('A' for Active; 'I' for Inactive)
REMARK    1  A    between atoms: N1_1  and  C1_4 
REMARK    2  A    between atoms: C2_7  and  C3_8 
REMARK    3  A    between atoms: C3_8  and  S1_9 
REMARK    4  A    between atoms: S1_9  and  C4_10 
REMARK    5  A    between atoms: C6_18  and  C7_19 
REMARK    6  A    between atoms: C9_35  and  N13_36 
ROOT
HETATM    1  C4  UNL     1      48.873 -12.525  -8.453  1.00  0.00     0.162 A 
HETATM    2  N3  UNL     1      49.103 -12.536  -7.134  1.00  0.00    -0.168 N 
ATOM      3  H3  UNL     1      48.577 -13.182  -6.545  1.00  0.00     0.186 HD
HETATM    4  C5  UNL     1      50.005 -11.723  -6.566  1.00  0.00     0.709 A 
HETATM    5  N4  UNL     1      50.340 -11.621  -5.270  1.00  0.00    -0.130 N 
ATOM      6  H4  UNL     1      49.950 -12.161  -4.497  1.00  0.00     0.205 HD
HETATM    7  N5  UNL     1      51.250 -10.711  -5.188  1.00  0.00    -0.267 N 
ATOM      8  H5  UNL     1      51.701 -10.414  -4.323  1.00  0.00     0.189 HD
HETATM    9  C6  UNL     1      51.529 -10.192  -6.449  1.00  0.00     0.193 A 
HETATM   10  N10 UNL     1      50.737 -10.839  -7.315  1.00  0.00    -0.100 N 
HETATM   11  C8  UNL     1      50.523 -10.811  -8.639  1.00  0.00     0.202 A 
HETATM   12  S2  UNL     1      51.345  -9.796  -9.605  1.00  0.00    -0.039 SA
HETATM   13  N11 UNL     1      49.594 -11.659  -9.174  1.00  0.00    -0.312 N 
ATOM     14  H11 UNL     1      49.440 -11.630 -10.182  1.00  0.00     0.170 HD
ENDROOT
BRANCH   1  15
HETATM   15  S1  UNL     1      47.664 -13.615  -9.217  1.00  0.00    -0.086 SA
BRANCH  15  16
HETATM   16  C3  UNL     1      46.282 -13.926  -8.087  1.00  0.00     0.160 C 
BRANCH  16  17
HETATM   17  C2  UNL     1      45.027 -13.675  -8.831  1.00  0.00     0.123 A 
HETATM   18  N2  UNL     1      43.887 -14.260  -8.469  1.00  0.00    -0.179 N 
HETATM   19  C1  UNL     1      42.733 -14.045  -9.133  1.00  0.00     0.691 A 
ATOM     20  H2  UNL     1      43.887 -14.890  -7.666  1.00  0.00     0.185 HD
HETATM   21  N14 UNL     1      42.763 -13.207 -10.190  1.00  0.00    -0.023 N 
HETATM   22  C9  UNL     1      43.901 -12.607 -10.573  1.00  0.00     0.691 A 
ATOM     23  H14 UNL     1      41.904 -13.027 -10.710  1.00  0.00     0.203 HD
HETATM   24  N12 UNL     1      45.057 -12.837  -9.889  1.00  0.00    -0.179 N 
ATOM     25  H12 UNL     1      45.927 -12.386 -10.171  1.00  0.00     0.185 HD
BRANCH  19  26
HETATM   26  N1  UNL     1      41.615 -14.605  -8.793  1.00  0.00    -0.234 N 
ATOM     27  H12 UNL     1      41.517 -15.618  -8.866  1.00  0.00     0.174 HD
ATOM     28  H11 UNL     1      40.813 -14.074  -8.452  1.00  0.00     0.174 HD
ENDBRANCH  19  26
BRANCH  22  29
HETATM   29  N13 UNL     1      43.879 -11.814 -11.591  1.00  0.00    -0.234 N 
ATOM     30 2H13 UNL     1      43.051 -11.241 -11.754  1.00  0.00     0.174 HD
ATOM     31 1H13 UNL     1      44.674 -11.754 -12.226  1.00  0.00     0.174 HD
ENDBRANCH  22  29
ENDBRANCH  16  17
ENDBRANCH  15  16
ENDBRANCH   1  15
BRANCH   9  32
HETATM   32  C7  UNL     1      52.503  -9.156  -6.696  1.00  0.00     0.184 A 
HETATM   33  N6  UNL     1      53.764  -9.116  -7.008  1.00  0.00    -0.266 N 
HETATM   34  N7  UNL     1      54.220  -7.887  -7.129  1.00  0.00    -0.226 N 
ATOM     35  H6  UNL     1      54.338  -9.948  -7.144  1.00  0.00     0.190 HD
HETATM   36  N8  UNL     1      53.198  -7.106  -6.882  1.00  0.00    -0.226 N 
ATOM     37  H7  UNL     1      55.170  -7.603  -7.365  1.00  0.00     0.210 HD
HETATM   38  N9  UNL     1      52.149  -7.833  -6.618  1.00  0.00    -0.266 N 
ATOM     39  H8  UNL     1      53.219  -6.087  -6.894  1.00  0.00     0.210 HD
ATOM     40  H9  UNL     1      51.220  -7.478  -6.391  1.00  0.00     0.190 HD
ENDBRANCH   9  32
TORSDOF 6
ENDMDL
MODEL 2
REMARK VINA RESULT: -8.902947885      0.046      1.592
REMARK  6 active torsions:
REMARK  status: ('A' for Active; 'I' for Inactive)
REMARK    1  A    between atoms: N1_1  and  C1_4 
REMARK    2  A    between atoms: C2_7  and  C3_8 
REMARK    3  A    between atoms: C3_8  and  S1_9 
REMARK    4  A    between atoms: S1_9  and  C4_10 
REMARK    5  A    between atoms: C6_18  and  C7_19 
REMARK    6  A    between atoms: C9_35  and  N13_36 
ROOT
HETATM    1  C4  UNL     1      48.856 -12.513  -8.490  1.00  0.00     0.162 A 
HETATM    2  N3  UNL     1      49.085 -12.534  -7.171  1.00  0.00    -0.168 N 
ATOM      3  H3  UNL     1      48.556 -13.183  -6.587  1.00  0.00     0.186 HD
HETATM    4  C5  UNL     1      49.989 -11.729  -6.596  1.00  0.00     0.709 A 
HETATM    5  N4  UNL     1      50.323 -11.638  -5.299  1.00  0.00    -0.130 N 
ATOM      6  H4  UNL     1      49.930 -12.182  -4.531  1.00  0.00     0.205 HD
HETATM    7  N5  UNL     1      51.236 -10.732  -5.210  1.00  0.00    -0.267 N 
ATOM      8  H5  UNL     1      51.687 -10.443  -4.342  1.00  0.00     0.189 HD
HETATM    9  C6  UNL     1      51.519 -10.204  -6.466  1.00  0.00     0.193 A 
HETATM   10  N10 UNL     1      50.724 -10.843  -7.338  1.00  0.00    -0.100 N 
HETATM   11  C8  UNL     1      50.512 -10.804  -8.662  1.00  0.00     0.202 A 
HETATM   12  S2  UNL     1      51.338  -9.785  -9.620  1.00  0.00    -0.039 SA
HETATM   13  N11 UNL     1      49.580 -11.644  -9.204  1.00  0.00    -0.312 N 
ATOM     14  H11 UNL     1      49.427 -11.607 -10.211  1.00  0.00     0.170 HD
ENDROOT
BRANCH   1  15
HETATM   15  S1  UNL     1      47.643 -13.593  -9.263  1.00  0.00    -0.086 SA
BRANCH  15  16
HETATM   16  C3  UNL     1      46.269 -13.924  -8.129  1.00  0.00     0.160 C 
BRANCH  16  17
HETATM   17  C2  UNL     1      45.009 -13.655  -8.858  1.00  0.00     0.123 A 
HETATM   18  N2  UNL     1      44.980 -12.807  -9.885  1.00  0.00    -0.179 N 
HETATM   19  C1  UNL     1      43.842 -12.548 -10.563  1.00  0.00     0.691 A 
ATOM     20  H2  UNL     1      45.842 -12.340 -10.166  1.00  0.00     0.185 HD
HETATM   21  N14 UNL     1      42.718 -13.181 -10.168  1.00  0.00    -0.023 N 
HETATM   22  C9  UNL     1      42.726 -14.039  -9.136  1.00  0.00     0.691 A 
ATOM     23  H14 UNL     1      41.844 -13.003 -10.664  1.00  0.00     0.203 HD
HETATM   24  N12 UNL     1      43.884 -14.287  -8.464  1.00  0.00    -0.179 N 
ATOM     25  H12 UNL     1      43.900 -14.938  -7.679  1.00  0.00     0.185 HD
BRANCH  19  26
HETATM   26  N1  UNL     1      43.796 -11.726 -11.564  1.00  0.00    -0.234 N 
ATOM     27  H12 UNL     1      42.899 -11.339 -11.856  1.00  0.00     0.174 HD
ATOM     28  H11 UNL     1      44.627 -11.444 -12.083  1.00  0.00     0.174 HD
ENDBRANCH  19  26
BRANCH  22  29
HETATM   29  N13 UNL     1      41.624 -14.619  -8.797  1.00  0.00    -0.234 N 
ATOM     30 2H13 UNL     1      40.855 -14.052  -8.438  1.00  0.00     0.174 HD
ATOM     31 1H13 UNL     1      41.514 -15.629  -8.885  1.00  0.00     0.174 HD
ENDBRANCH  22  29
ENDBRANCH  16  17
ENDBRANCH  15  16
ENDBRANCH   1  15
BRANCH   9  32
HETATM   32  C7  UNL     1      52.496  -9.170  -6.705  1.00  0.00     0.184 A 
HETATM   33  N6  UNL     1      53.758  -9.132  -7.011  1.00  0.00    -0.266 N 
HETATM   34  N7  UNL     1      54.219  -7.904  -7.125  1.00  0.00    -0.226 N 
ATOM     35  H6  UNL     1      54.331  -9.965  -7.147  1.00  0.00     0.190 HD
HETATM   36  N8  UNL     1      53.197  -7.121  -6.880  1.00  0.00    -0.226 N 
ATOM     37  H7  UNL     1      55.171  -7.621  -7.357  1.00  0.00     0.210 HD
HETATM   38  N9  UNL     1      52.145  -7.846  -6.624  1.00  0.00    -0.266 N 
ATOM     39  H8  UNL     1      53.221  -6.102  -6.888  1.00  0.00     0.210 HD
ATOM     40  H9  UNL     1      51.216  -7.490  -6.400  1.00  0.00     0.190 HD
ENDBRANCH   9  32
TORSDOF 6
ENDMDL
MODEL 3
REMARK VINA RESULT: -8.789537296      1.407      2.164
REMARK  6 active torsions:
REMARK  status: ('A' for Active; 'I' for Inactive)
REMARK    1  A    between atoms: N1_1  and  C1_4 
REMARK    2  A    between atoms: C2_7  and  C3_8 
REMARK    3  A    between atoms: C3_8  and  S1_9 
REMARK    4  A    between atoms: S1_9  and  C4_10 
REMARK    5  A    between atoms: C6_18  and  C7_19 
REMARK    6  A    between atoms: C9_35  and  N13_36 
ROOT
HETATM    1  C4  UNL     1      48.483 -12.553  -9.581  1.00  0.00     0.162 A 
HETATM    2  N3  UNL     1      48.334 -13.017  -8.334  1.00  0.00    -0.168 N 
ATOM      3  H3  UNL     1      47.660 -13.763  -8.160  1.00  0.00     0.186 HD
HETATM    4  C5  UNL     1      49.044 -12.529  -7.307  1.00  0.00     0.709 A 
HETATM    5  N4  UNL     1      49.003 -12.890  -6.015  1.00  0.00    -0.130 N 
ATOM      6  H4  UNL     1      48.408 -13.609  -5.604  1.00  0.00     0.205 HD
HETATM    7  N5  UNL     1      49.858 -12.153  -5.392  1.00  0.00    -0.267 N 
ATOM      8  H5  UNL     1      50.050 -12.201  -4.392  1.00  0.00     0.189 HD
HETATM    9  C6  UNL     1      50.484 -11.282  -6.280  1.00  0.00     0.193 A 
HETATM   10  N10 UNL     1      49.962 -11.528  -7.491  1.00  0.00    -0.100 N 
HETATM   11  C8  UNL     1      50.129 -11.049  -8.733  1.00  0.00     0.202 A 
HETATM   12  S2  UNL     1      51.195  -9.863  -9.043  1.00  0.00    -0.039 SA
HETATM   13  N11 UNL     1      49.382 -11.578  -9.748  1.00  0.00    -0.312 N 
ATOM     14  H11 UNL     1      49.518 -11.206 -10.688  1.00  0.00     0.170 HD
ENDROOT
BRANCH   1  15
HETATM   15  S1  UNL     1      47.531 -13.207 -10.959  1.00  0.00    -0.086 SA
BRANCH  15  16
HETATM   16  C3  UNL     1      45.861 -12.502 -10.972  1.00  0.00     0.160 C 
BRANCH  16  17
HETATM   17  C2  UNL     1      44.963 -13.461 -10.290  1.00  0.00     0.123 A 
HETATM   18  N2  UNL     1      43.692 -13.151 -10.041  1.00  0.00    -0.179 N 
HETATM   19  C1  UNL     1      42.857 -14.010  -9.421  1.00  0.00     0.691 A 
ATOM     20  H2  UNL     1      43.340 -12.237 -10.328  1.00  0.00     0.185 HD
HETATM   21  N14 UNL     1      43.350 -15.211  -9.054  1.00  0.00    -0.023 N 
HETATM   22  C9  UNL     1      44.628 -15.543  -9.295  1.00  0.00     0.691 A 
ATOM     23  H14 UNL     1      42.740 -15.879  -8.583  1.00  0.00     0.203 HD
HETATM   24  N12 UNL     1      45.456 -14.663  -9.922  1.00  0.00    -0.179 N 
ATOM     25  H12 UNL     1      46.428 -14.906 -10.110  1.00  0.00     0.185 HD
BRANCH  19  26
HETATM   26  N1  UNL     1      41.618 -13.724  -9.172  1.00  0.00    -0.234 N 
ATOM     27  H12 UNL     1      41.339 -12.750  -9.055  1.00  0.00     0.174 HD
ATOM     28  H11 UNL     1      40.894 -14.438  -9.084  1.00  0.00     0.174 HD
ENDBRANCH  19  26
BRANCH  22  29
HETATM   29  N13 UNL     1      45.053 -16.705  -8.924  1.00  0.00    -0.234 N 
ATOM     30 2H13 UNL     1      45.566 -16.787  -8.046  1.00  0.00     0.174 HD
ATOM     31 1H13 UNL     1      44.880 -17.533  -9.494  1.00  0.00     0.174 HD
ENDBRANCH  22  29
ENDBRANCH  16  17
ENDBRANCH  15  16
ENDBRANCH   1  15
BRANCH   9  32
HETATM   32  C7  UNL     1      51.493 -10.326  -5.895  1.00  0.00     0.184 A 
HETATM   33  N6  UNL     1      52.616  -9.904  -6.394  1.00  0.00    -0.266 N 
HETATM   34  N7  UNL     1      53.195  -8.989  -5.644  1.00  0.00    -0.226 N 
ATOM     35  H6  UNL     1      53.007 -10.244  -7.273  1.00  0.00     0.190 HD
HETATM   36  N8  UNL     1      52.400  -8.822  -4.616  1.00  0.00    -0.226 N 
ATOM     37  H7  UNL     1      54.078  -8.511  -5.825  1.00  0.00     0.210 HD
HETATM   38  N9  UNL     1      51.367  -9.608  -4.733  1.00  0.00    -0.266 N 
ATOM     39  H8  UNL     1      52.564  -8.176  -3.844  1.00  0.00     0.210 HD
ATOM     40  H9  UNL     1      50.594  -9.678  -4.071  1.00  0.00     0.190 HD
ENDBRANCH   9  32
TORSDOF 6
ENDMDL
MODEL 4
REMARK VINA RESULT: -8.768821501      1.328      1.624
REMARK  6 active torsions:
REMARK  status: ('A' for Active; 'I' for Inactive)
REMARK    1  A    between atoms: N1_1  and  C1_4 
REMARK    2  A    between atoms: C2_7  and  C3_8 
REMARK    3  A    between atoms: C3_8  and  S1_9 
REMARK    4  A    between atoms: S1_9  and  C4_10 
REMARK    5  A    between atoms: C6_18  and  C7_19 
REMARK    6  A    between atoms: C9_35  and  N13_36 
ROOT
HETATM    1  C4  UNL     1      48.123 -12.995  -9.093  1.00  0.00     0.162 A 
HETATM    2  N3  UNL     1      48.068 -13.361  -7.806  1.00  0.00    -0.168 N 
ATOM      3  H3  UNL     1      47.415 -14.094  -7.527  1.00  0.00     0.186 HD
HETATM    4  C5  UNL     1      48.846 -12.793  -6.874  1.00  0.00     0.709 A 
HETATM    5  N4  UNL     1      48.902 -13.053  -5.559  1.00  0.00    -0.130 N 
ATOM      6  H4  UNL     1      48.345 -13.741  -5.051  1.00  0.00     0.205 HD
HETATM    7  N5  UNL     1      49.793 -12.267  -5.058  1.00  0.00    -0.267 N 
ATOM      8  H5  UNL     1      50.057 -12.238  -4.073  1.00  0.00     0.189 HD
HETATM    9  C6  UNL     1      50.345 -11.466  -6.054  1.00  0.00     0.193 A 
HETATM   10  N10 UNL     1      49.740 -11.806  -7.201  1.00  0.00    -0.100 N 
HETATM   11  C8  UNL     1      49.812 -11.424  -8.484  1.00  0.00     0.202 A 
HETATM   12  S2  UNL     1      50.842 -10.262  -8.961  1.00  0.00    -0.039 SA
HETATM   13  N11 UNL     1      48.998 -12.032  -9.399  1.00  0.00    -0.312 N 
ATOM     14  H11 UNL     1      49.063 -11.734 -10.372  1.00  0.00     0.170 HD
ENDROOT
BRANCH   1  15
HETATM   15  S1  UNL     1      47.079 -13.756 -10.344  1.00  0.00    -0.086 SA
BRANCH  15  16
HETATM   16  C3  UNL     1      45.893 -14.893  -9.580  1.00  0.00     0.160 C 
BRANCH  16  17
HETATM   17  C2  UNL     1      44.617 -14.162  -9.405  1.00  0.00     0.123 A 
HETATM   18  N2  UNL     1      43.494 -14.807  -9.097  1.00  0.00    -0.179 N 
HETATM   19  C1  UNL     1      42.322 -14.160  -8.933  1.00  0.00     0.691 A 
ATOM     20  H2  UNL     1      43.521 -15.821  -8.981  1.00  0.00     0.185 HD
HETATM   21  N14 UNL     1      42.317 -12.820  -9.092  1.00  0.00    -0.023 N 
HETATM   22  C9  UNL     1      43.437 -12.150  -9.403  1.00  0.00     0.691 A 
ATOM     23  H14 UNL     1      41.443 -12.306  -8.973  1.00  0.00     0.203 HD
HETATM   24  N12 UNL     1      44.611 -12.821  -9.564  1.00  0.00    -0.179 N 
ATOM     25  H12 UNL     1      45.468 -12.321  -9.800  1.00  0.00     0.185 HD
BRANCH  19  26
HETATM   26  N1  UNL     1      41.220 -14.773  -8.632  1.00  0.00    -0.234 N 
ATOM     27  H12 UNL     1      41.240 -15.771  -8.424  1.00  0.00     0.174 HD
ATOM     28  H11 UNL     1      40.318 -14.298  -8.593  1.00  0.00     0.174 HD
ENDBRANCH  19  26
BRANCH  22  29
HETATM   29  N13 UNL     1      43.381 -10.868  -9.544  1.00  0.00    -0.234 N 
ATOM     30 2H13 UNL     1      43.770 -10.272  -8.813  1.00  0.00     0.174 HD
ATOM     31 1H13 UNL     1      42.956 -10.450 -10.371  1.00  0.00     0.174 HD
ENDBRANCH  22  29
ENDBRANCH  16  17
ENDBRANCH  15  16
ENDBRANCH   1  15
BRANCH   9  32
HETATM   32  C7  UNL     1      51.371 -10.479  -5.817  1.00  0.00     0.184 A 
HETATM   33  N6  UNL     1      52.441 -10.080  -6.437  1.00  0.00    -0.266 N 
HETATM   34  N7  UNL     1      53.070  -9.116  -5.799  1.00  0.00    -0.226 N 
ATOM     35  H6  UNL     1      52.760 -10.472  -7.324  1.00  0.00     0.190 HD
HETATM   36  N8  UNL     1      52.365  -8.890  -4.718  1.00  0.00    -0.226 N 
ATOM     37  H7  UNL     1      53.927  -8.643  -6.085  1.00  0.00     0.210 HD
HETATM   38  N9  UNL     1      51.336  -9.691  -4.695  1.00  0.00    -0.266 N 
ATOM     39  H8  UNL     1      52.586  -8.197  -4.004  1.00  0.00     0.210 HD
ATOM     40  H9  UNL     1      50.624  -9.726  -3.966  1.00  0.00     0.190 HD
ENDBRANCH   9  32
TORSDOF 6
ENDMDL
MODEL 5
REMARK VINA RESULT: -8.637384106      1.718      8.721
REMARK  6 active torsions:
REMARK  status: ('A' for Active; 'I' for Inactive)
REMARK    1  A    between atoms: N1_1  and  C1_4 
REMARK    2  A    between atoms: C2_7  and  C3_8 
REMARK    3  A    between atoms: C3_8  and  S1_9 
REMARK    4  A    between atoms: S1_9  and  C4_10 
REMARK    5  A    between atoms: C6_18  and  C7_19 
REMARK    6  A    between atoms: C9_35  and  N13_36 
ROOT
HETATM    1  C4  UNL     1      48.406 -12.287  -9.867  1.00  0.00     0.162 A 
HETATM    2  N3  UNL     1      48.258 -12.994  -8.740  1.00  0.00    -0.168 N 
ATOM      3  H3  UNL     1      49.079 -13.188  -8.165  1.00  0.00     0.186 HD
HETATM    4  C5  UNL     1      47.063 -13.454  -8.344  1.00  0.00     0.709 A 
HETATM    5  N4  UNL     1      46.763 -14.170  -7.249  1.00  0.00    -0.130 N 
ATOM      6  H4  UNL     1      47.416 -14.484  -6.531  1.00  0.00     0.205 HD
HETATM    7  N5  UNL     1      45.492 -14.386  -7.279  1.00  0.00    -0.267 N 
ATOM      8  H5  UNL     1      44.973 -14.907  -6.572  1.00  0.00     0.189 HD
HETATM    9  C6  UNL     1      44.929 -13.806  -8.412  1.00  0.00     0.193 A 
HETATM   10  N10 UNL     1      45.932 -13.217  -9.081  1.00  0.00    -0.100 N 
HETATM   11  C8  UNL     1      46.056 -12.511 -10.214  1.00  0.00     0.202 A 
HETATM   12  S2  UNL     1      44.769 -12.183 -11.149  1.00  0.00    -0.039 SA
HETATM   13  N11 UNL     1      47.295 -12.062 -10.577  1.00  0.00    -0.312 N 
ATOM     14  H11 UNL     1      47.378 -11.525 -11.440  1.00  0.00     0.170 HD
ENDROOT
BRANCH   1  15
HETATM   15  S1  UNL     1      50.009 -11.669 -10.399  1.00  0.00    -0.086 SA
BRANCH  15  16
HETATM   16  C3  UNL     1      50.167  -9.903 -10.030  1.00  0.00     0.160 C 
BRANCH  16  17
HETATM   17  C2  UNL     1      51.057  -9.767  -8.854  1.00  0.00     0.123 A 
HETATM   18  N2  UNL     1      52.078  -8.912  -8.863  1.00  0.00    -0.179 N 
HETATM   19  C1  UNL     1      52.900  -8.773  -7.802  1.00  0.00     0.691 A 
ATOM     20  H2  UNL     1      52.243  -8.346  -9.695  1.00  0.00     0.185 HD
HETATM   21  N14 UNL     1      52.656  -9.533  -6.714  1.00  0.00    -0.023 N 
HETATM   22  C9  UNL     1      51.633 -10.401  -6.685  1.00  0.00     0.691 A 
ATOM     23  H14 UNL     1      53.263  -9.447  -5.898  1.00  0.00     0.203 HD
HETATM   24  N12 UNL     1      50.814 -10.527  -7.766  1.00  0.00    -0.179 N 
ATOM     25  H12 UNL     1      50.033 -11.183  -7.753  1.00  0.00     0.185 HD
BRANCH  19  26
HETATM   26  N1  UNL     1      53.897  -7.946  -7.793  1.00  0.00    -0.234 N 
ATOM     27  H12 UNL     1      53.719  -6.942  -7.808  1.00  0.00     0.174 HD
ATOM     28  H11 UNL     1      54.869  -8.255  -7.773  1.00  0.00     0.174 HD
ENDBRANCH  19  26
BRANCH  22  29
HETATM   29  N13 UNL     1      51.441 -11.106  -5.621  1.00  0.00    -0.234 N 
ATOM     30 2H13 UNL     1      52.135 -11.806  -5.359  1.00  0.00     0.174 HD
ATOM     31 1H13 UNL     1      50.611 -10.970  -5.044  1.00  0.00     0.174 HD
ENDBRANCH  22  29
ENDBRANCH  16  17
ENDBRANCH  15  16
ENDBRANCH   1  15
BRANCH   9  32
HETATM   32  C7  UNL     1      43.525 -13.869  -8.737  1.00  0.00     0.184 A 
HETATM   33  N6  UNL     1      42.717 -14.769  -9.214  1.00  0.00    -0.266 N 
HETATM   34  N7  UNL     1      41.481 -14.332  -9.334  1.00  0.00    -0.226 N 
ATOM     35  H6  UNL     1      43.010 -15.713  -9.468  1.00  0.00     0.190 HD
HETATM   36  N8  UNL     1      41.503 -13.092  -8.911  1.00  0.00    -0.226 N 
ATOM     37  H7  UNL     1      40.675 -14.850  -9.682  1.00  0.00     0.210 HD
HETATM   38  N9  UNL     1      42.714 -12.779  -8.544  1.00  0.00    -0.266 N 
ATOM     39  H8  UNL     1      40.698 -12.468  -8.875  1.00  0.00     0.210 HD
ATOM     40  H9  UNL     1      43.011 -11.875  -8.176  1.00  0.00     0.190 HD
ENDBRANCH   9  32
TORSDOF 6
ENDMDL
