MODEL 1
REMARK VINA RESULT: -8.145759041      0.000      0.000
REMARK  8 active torsions:
REMARK  status: ('A' for Active; 'I' for Inactive)
REMARK    1  A    between atoms: C2_2  and  N1_4 
REMARK    2  A    between atoms: N1_4  and  C4_5 
REMARK    3  A    between atoms: C6_9  and  O1_10 
REMARK    4  A    between atoms: O1_10  and  C7_11 
REMARK    5  A    between atoms: C7_11  and  C8_12 
REMARK    6  A    between atoms: N3_14  and  C10_15 
REMARK    7  A    between atoms: C12_21  and  N6_22 
REMARK    8  A    between atoms: C19_40  and  N12_41 
ROOT
HETATM    1  C10 UNL     1      19.567 -30.112  11.718  1.00  0.00     0.153 A 
HETATM    2  N4  UNL     1      18.419 -29.524  12.125  1.00  0.00    -0.336 N 
ATOM      3  H4  UNL     1      18.049 -28.723  11.613  1.00  0.00     0.168 HD
HETATM    4  C11 UNL     1      17.760 -29.994  13.202  1.00  0.00     0.183 A 
HETATM    5  N5  UNL     1      18.195 -31.045  13.916  1.00  0.00    -0.338 N 
ATOM      6  H5  UNL     1      17.668 -31.371  14.727  1.00  0.00     0.168 HD
HETATM    7  C12 UNL     1      19.338 -31.667  13.550  1.00  0.00     0.124 A 
HETATM    8  C13 UNL     1      20.015 -31.189  12.448  1.00  0.00     0.134 A 
HETATM    9  C14 UNL     1      21.233 -31.816  12.021  1.00  0.00     0.107 C 
HETATM   10  N7  UNL     1      22.207 -32.339  11.678  1.00  0.00    -0.191 NA
ENDROOT
BRANCH   1  11
HETATM   11  N3  UNL     1      20.242 -29.596  10.578  1.00  0.00    -0.233 N 
HETATM   12  C9  UNL     1      21.117 -28.574  10.634  1.00  0.00     0.148 A 
HETATM   13  C8  UNL     1      21.584 -28.333   9.349  1.00  0.00     0.069 A 
HETATM   14  N9  UNL     1      20.970 -29.223   8.564  1.00  0.00    -0.286 N 
HETATM   15  N8  UNL     1      20.182 -29.954   9.330  1.00  0.00    -0.234 N 
ATOM     16  H9  UNL     1      21.088 -29.320   7.556  1.00  0.00     0.188 HD
ATOM     17  H8  UNL     1      19.594 -30.712   8.984  1.00  0.00     0.209 HD
BRANCH  13  18
HETATM   18  C7  UNL     1      22.547 -27.331   8.880  1.00  0.00     0.237 C 
BRANCH  18  19
HETATM   19  O1  UNL     1      22.561 -27.239   7.455  1.00  0.00    -0.330 OA
BRANCH  19  20
HETATM   20  C6  UNL     1      23.521 -27.941   6.710  1.00  0.00     0.143 A 
HETATM   21  N2  UNL     1      23.396 -29.254   6.462  1.00  0.00    -0.331 N 
HETATM   22  C5  UNL     1      24.342 -29.904   5.739  1.00  0.00     0.122 A 
ATOM     23  H2  UNL     1      22.588 -29.765   6.818  1.00  0.00     0.168 HD
HETATM   24  C4  UNL     1      24.164 -31.274   5.507  1.00  0.00     0.241 A 
HETATM   25  C17 UNL     1      25.415 -29.187   5.277  1.00  0.00     0.081 A 
HETATM   26  N14 UNL     1      25.138 -31.886   4.777  1.00  0.00    -0.040 N 
HETATM   27  C18 UNL     1      26.185 -31.182   4.328  1.00  0.00     0.721 A 
HETATM   28  N13 UNL     1      25.296 -33.149   4.371  1.00  0.00    -0.108 N 
HETATM   29  N10 UNL     1      26.334 -29.871   4.563  1.00  0.00    -0.187 N 
HETATM   30  N11 UNL     1      26.977 -32.041   3.644  1.00  0.00    -0.019 N 
ATOM     31  H10 UNL     1      27.152 -29.383   4.197  1.00  0.00     0.184 HD
HETATM   32  C19 UNL     1      26.430 -33.269   3.668  1.00  0.00     0.706 A 
ATOM     33  H11 UNL     1      27.853 -31.794   3.183  1.00  0.00     0.203 HD
ATOM     34  H13 UNL     1      24.648 -33.911   4.568  1.00  0.00     0.207 HD
HETATM   35  C16 UNL     1      25.567 -27.832   5.520  1.00  0.00     0.037 A 
HETATM   36  C15 UNL     1      24.591 -27.200   6.257  1.00  0.00     0.058 A 
BRANCH  24  37
HETATM   37  N1  UNL     1      23.229 -31.885   5.913  1.00  0.00    -0.422 NA
BRANCH  37  38
HETATM   38  C2  UNL     1      22.176 -32.571   6.373  1.00  0.00     0.157 C 
HETATM   39  C1  UNL     1      20.806 -31.912   6.067  1.00  0.00     0.047 C 
HETATM   40  C3  UNL     1      22.213 -32.645   7.916  1.00  0.00     0.047 C 
ENDBRANCH  37  38
ENDBRANCH  24  37
BRANCH  32  41
HETATM   41  N12 UNL     1      26.877 -34.364   3.131  1.00  0.00    -0.233 N 
ATOM     42 2H12 UNL     1      27.332 -34.439   2.222  1.00  0.00     0.174 HD
ATOM     43 1H12 UNL     1      26.855 -35.311   3.509  1.00  0.00     0.174 HD
ENDBRANCH  32  41
ENDBRANCH  19  20
ENDBRANCH  18  19
ENDBRANCH  13  18
ENDBRANCH   1  11
BRANCH   7  44
HETATM   44  N6  UNL     1      19.791 -32.689  14.219  1.00  0.00    -0.384 N 
ATOM     45  H62 UNL     1      19.188 -33.196  14.869  1.00  0.00     0.157 HD
ATOM     46  H61 UNL     1      20.754 -33.006  14.108  1.00  0.00     0.157 HD
ENDBRANCH   7  44
TORSDOF 8
ENDMDL
MODEL 2
REMARK VINA RESULT: -7.979144916      3.309      6.250
REMARK  8 active torsions:
REMARK  status: ('A' for Active; 'I' for Inactive)
REMARK    1  A    between atoms: C2_2  and  N1_4 
REMARK    2  A    between atoms: N1_4  and  C4_5 
REMARK    3  A    between atoms: C6_9  and  O1_10 
REMARK    4  A    between atoms: O1_10  and  C7_11 
REMARK    5  A    between atoms: C7_11  and  C8_12 
REMARK    6  A    between atoms: N3_14  and  C10_15 
REMARK    7  A    between atoms: C12_21  and  N6_22 
REMARK    8  A    between atoms: C19_40  and  N12_41 
ROOT
HETATM    1  C10 UNL     1      22.876 -33.681  14.034  1.00  0.00     0.153 A 
HETATM    2  N4  UNL     1      23.462 -33.865  15.238  1.00  0.00    -0.336 N 
ATOM      3  H4  UNL     1      22.889 -33.907  16.081  1.00  0.00     0.168 HD
HETATM    4  C11 UNL     1      24.800 -33.993  15.330  1.00  0.00     0.183 A 
HETATM    5  N5  UNL     1      25.608 -33.946  14.258  1.00  0.00    -0.338 N 
ATOM      6  H5  UNL     1      26.617 -34.047  14.368  1.00  0.00     0.168 HD
HETATM    7  C12 UNL     1      25.069 -33.764  13.031  1.00  0.00     0.124 A 
HETATM    8  C13 UNL     1      23.701 -33.632  12.933  1.00  0.00     0.134 A 
HETATM    9  C14 UNL     1      23.084 -33.437  11.652  1.00  0.00     0.107 C 
HETATM   10  N7  UNL     1      22.597 -33.294  10.613  1.00  0.00    -0.191 NA
ENDROOT
BRANCH   1  11
HETATM   11  N3  UNL     1      21.461 -33.548  13.966  1.00  0.00    -0.233 N 
HETATM   12  C9  UNL     1      20.840 -32.407  13.612  1.00  0.00     0.148 A 
HETATM   13  C8  UNL     1      19.470 -32.631  13.651  1.00  0.00     0.069 A 
HETATM   14  N9  UNL     1      19.318 -33.904  14.027  1.00  0.00    -0.286 N 
HETATM   15  N8  UNL     1      20.522 -34.415  14.204  1.00  0.00    -0.234 N 
ATOM     16  H9  UNL     1      18.433 -34.392  14.154  1.00  0.00     0.188 HD
ATOM     17  H8  UNL     1      20.696 -35.377  14.495  1.00  0.00     0.209 HD
BRANCH  13  18
HETATM   18  C7  UNL     1      18.368 -31.711  13.353  1.00  0.00     0.237 C 
BRANCH  18  19
HETATM   19  O1  UNL     1      18.342 -31.348  11.971  1.00  0.00    -0.330 OA
BRANCH  19  20
HETATM   20  C6  UNL     1      19.217 -30.368  11.482  1.00  0.00     0.143 A 
HETATM   21  N2  UNL     1      19.837 -30.504  10.299  1.00  0.00    -0.331 N 
HETATM   22  C5  UNL     1      20.678 -29.537   9.854  1.00  0.00     0.122 A 
ATOM     23  H2  UNL     1      19.675 -31.337   9.733  1.00  0.00     0.168 HD
HETATM   24  C4  UNL     1      21.298 -29.727   8.613  1.00  0.00     0.241 A 
HETATM   25  C17 UNL     1      20.873 -28.431  10.641  1.00  0.00     0.081 A 
HETATM   26  N14 UNL     1      22.135 -28.732   8.206  1.00  0.00    -0.040 N 
HETATM   27  C18 UNL     1      22.322 -27.653   8.977  1.00  0.00     0.721 A 
HETATM   28  N13 UNL     1      22.877 -28.576   7.106  1.00  0.00    -0.108 N 
HETATM   29  N10 UNL     1      21.717 -27.493  10.162  1.00  0.00    -0.187 N 
HETATM   30  N11 UNL     1      23.190 -26.845   8.325  1.00  0.00    -0.019 N 
ATOM     31  H10 UNL     1      21.896 -26.651  10.710  1.00  0.00     0.184 HD
HETATM   32  C19 UNL     1      23.541 -27.414   7.158  1.00  0.00     0.706 A 
ATOM     33  H11 UNL     1      23.526 -25.944   8.666  1.00  0.00     0.203 HD
ATOM     34  H13 UNL     1      22.930 -29.245   6.338  1.00  0.00     0.207 HD
HETATM   35  C16 UNL     1      20.246 -28.267  11.864  1.00  0.00     0.037 A 
HETATM   36  C15 UNL     1      19.398 -29.265  12.289  1.00  0.00     0.058 A 
BRANCH  24  37
HETATM   37  N1  UNL     1      21.121 -30.691   7.939  1.00  0.00    -0.422 NA
BRANCH  37  38
HETATM   38  C2  UNL     1      20.918 -31.775   7.182  1.00  0.00     0.157 C 
HETATM   39  C1  UNL     1      22.148 -32.714   7.075  1.00  0.00     0.047 C 
HETATM   40  C3  UNL     1      20.638 -31.366   5.718  1.00  0.00     0.047 C 
ENDBRANCH  37  38
ENDBRANCH  24  37
BRANCH  32  41
HETATM   41  N12 UNL     1      24.349 -26.962   6.248  1.00  0.00    -0.233 N 
ATOM     42 2H12 UNL     1      24.097 -26.328   5.491  1.00  0.00     0.174 HD
ATOM     43 1H12 UNL     1      25.345 -27.151   6.132  1.00  0.00     0.174 HD
ENDBRANCH  32  41
ENDBRANCH  19  20
ENDBRANCH  18  19
ENDBRANCH  13  18
ENDBRANCH   1  11
BRANCH   7  44
HETATM   44  N6  UNL     1      25.822 -33.713  11.968  1.00  0.00    -0.384 N 
ATOM     45  H62 UNL     1      26.836 -33.799  12.043  1.00  0.00     0.157 HD
ATOM     46  H61 UNL     1      25.416 -33.587  11.042  1.00  0.00     0.157 HD
ENDBRANCH   7  44
TORSDOF 8
ENDMDL
MODEL 3
REMARK VINA RESULT: -7.836355342      3.281      6.190
REMARK  8 active torsions:
REMARK  status: ('A' for Active; 'I' for Inactive)
REMARK    1  A    between atoms: C2_2  and  N1_4 
REMARK    2  A    between atoms: N1_4  and  C4_5 
REMARK    3  A    between atoms: C6_9  and  O1_10 
REMARK    4  A    between atoms: O1_10  and  C7_11 
REMARK    5  A    between atoms: C7_11  and  C8_12 
REMARK    6  A    between atoms: N3_14  and  C10_15 
REMARK    7  A    between atoms: C12_21  and  N6_22 
REMARK    8  A    between atoms: C19_40  and  N12_41 
ROOT
HETATM    1  C10 UNL     1      23.083 -33.439  13.251  1.00  0.00     0.153 A 
HETATM    2  N4  UNL     1      24.049 -32.742  12.613  1.00  0.00    -0.336 N 
ATOM      3  H4  UNL     1      23.906 -31.756  12.397  1.00  0.00     0.168 HD
HETATM    4  C11 UNL     1      25.202 -33.345  12.262  1.00  0.00     0.183 A 
HETATM    5  N5  UNL     1      25.451 -34.639  12.518  1.00  0.00    -0.338 N 
ATOM      6  H5  UNL     1      26.336 -35.060  12.236  1.00  0.00     0.168 HD
HETATM    7  C12 UNL     1      24.515 -35.380  13.155  1.00  0.00     0.124 A 
HETATM    8  C13 UNL     1      23.334 -34.767  13.516  1.00  0.00     0.134 A 
HETATM    9  C14 UNL     1      22.311 -35.511  14.193  1.00  0.00     0.107 C 
HETATM   10  N7  UNL     1      21.500 -36.119  14.751  1.00  0.00    -0.191 NA
ENDROOT
BRANCH   1  11
HETATM   11  N3  UNL     1      21.875 -32.779  13.611  1.00  0.00    -0.233 N 
HETATM   12  C9  UNL     1      20.768 -32.790  12.845  1.00  0.00     0.148 A 
HETATM   13  C8  UNL     1      19.786 -32.053  13.493  1.00  0.00     0.069 A 
HETATM   14  N9  UNL     1      20.342 -31.624  14.630  1.00  0.00    -0.286 N 
HETATM   15  N8  UNL     1      21.582 -32.076  14.664  1.00  0.00    -0.234 N 
ATOM     16  H9  UNL     1      19.890 -31.052  15.342  1.00  0.00     0.188 HD
ATOM     17  H8  UNL     1      22.234 -31.893  15.426  1.00  0.00     0.209 HD
BRANCH  13  18
HETATM   18  C7  UNL     1      18.409 -31.767  13.077  1.00  0.00     0.237 C 
BRANCH  18  19
HETATM   19  O1  UNL     1      18.353 -31.296  11.729  1.00  0.00    -0.330 OA
BRANCH  19  20
HETATM   20  C6  UNL     1      19.249 -30.312  11.286  1.00  0.00     0.143 A 
HETATM   21  N2  UNL     1      19.883 -30.416  10.107  1.00  0.00    -0.331 N 
HETATM   22  C5  UNL     1      20.744 -29.446   9.708  1.00  0.00     0.122 A 
ATOM     23  H2  UNL     1      19.717 -31.226   9.510  1.00  0.00     0.168 HD
HETATM   24  C4  UNL     1      21.378 -29.602   8.470  1.00  0.00     0.241 A 
HETATM   25  C17 UNL     1      20.944 -28.372  10.536  1.00  0.00     0.081 A 
HETATM   26  N14 UNL     1      22.234 -28.606   8.109  1.00  0.00    -0.040 N 
HETATM   27  C18 UNL     1      22.427 -27.558   8.921  1.00  0.00     0.721 A 
HETATM   28  N13 UNL     1      22.994 -28.423   7.026  1.00  0.00    -0.108 N 
HETATM   29  N10 UNL     1      21.807 -27.430  10.102  1.00  0.00    -0.187 N 
HETATM   30  N11 UNL     1      23.315 -26.740   8.309  1.00  0.00    -0.019 N 
ATOM     31  H10 UNL     1      21.991 -26.611  10.682  1.00  0.00     0.184 HD
HETATM   32  C19 UNL     1      23.674 -27.273   7.128  1.00  0.00     0.706 A 
ATOM     33  H11 UNL     1      23.659 -25.857   8.686  1.00  0.00     0.203 HD
ATOM     34  H13 UNL     1      23.048 -29.065   6.235  1.00  0.00     0.207 HD
HETATM   35  C16 UNL     1      20.302 -28.242  11.756  1.00  0.00     0.037 A 
HETATM   36  C15 UNL     1      19.435 -29.241  12.134  1.00  0.00     0.058 A 
BRANCH  24  37
HETATM   37  N1  UNL     1      21.197 -30.539   7.760  1.00  0.00    -0.422 NA
BRANCH  37  38
HETATM   38  C2  UNL     1      20.997 -31.594   6.961  1.00  0.00     0.157 C 
HETATM   39  C1  UNL     1      21.801 -32.856   7.363  1.00  0.00     0.047 C 
HETATM   40  C3  UNL     1      21.486 -31.286   5.528  1.00  0.00     0.047 C 
ENDBRANCH  37  38
ENDBRANCH  24  37
BRANCH  32  41
HETATM   41  N12 UNL     1      24.501 -26.801   6.245  1.00  0.00    -0.233 N 
ATOM     42 2H12 UNL     1      25.224 -26.104   6.420  1.00  0.00     0.174 HD
ATOM     43 1H12 UNL     1      24.574 -27.034   5.254  1.00  0.00     0.174 HD
ENDBRANCH  32  41
ENDBRANCH  19  20
ENDBRANCH  18  19
ENDBRANCH  13  18
ENDBRANCH   1  11
BRANCH   7  44
HETATM   44  N6  UNL     1      24.721 -36.639  13.420  1.00  0.00    -0.384 N 
ATOM     45  H62 UNL     1      24.169 -37.119  14.131  1.00  0.00     0.157 HD
ATOM     46  H61 UNL     1      25.435 -37.170  12.924  1.00  0.00     0.157 HD
ENDBRANCH   7  44
TORSDOF 8
ENDMDL
MODEL 4
REMARK VINA RESULT: -7.774832120      1.486      1.855
REMARK  8 active torsions:
REMARK  status: ('A' for Active; 'I' for Inactive)
REMARK    1  A    between atoms: C2_2  and  N1_4 
REMARK    2  A    between atoms: N1_4  and  C4_5 
REMARK    3  A    between atoms: C6_9  and  O1_10 
REMARK    4  A    between atoms: O1_10  and  C7_11 
REMARK    5  A    between atoms: C7_11  and  C8_12 
REMARK    6  A    between atoms: N3_14  and  C10_15 
REMARK    7  A    between atoms: C12_21  and  N6_22 
REMARK    8  A    between atoms: C19_40  and  N12_41 
ROOT
HETATM    1  C10 UNL     1      19.192 -30.690  11.638  1.00  0.00     0.153 A 
HETATM    2  N4  UNL     1      17.843 -30.643  11.559  1.00  0.00    -0.336 N 
ATOM      3  H4  UNL     1      17.395 -30.083  10.833  1.00  0.00     0.168 HD
HETATM    4  C11 UNL     1      17.087 -31.332  12.436  1.00  0.00     0.183 A 
HETATM    5  N5  UNL     1      17.616 -32.087  13.413  1.00  0.00    -0.338 N 
ATOM      6  H5  UNL     1      17.010 -32.594  14.057  1.00  0.00     0.168 HD
HETATM    7  C12 UNL     1      18.961 -32.166  13.533  1.00  0.00     0.124 A 
HETATM    8  C13 UNL     1      19.738 -31.462  12.638  1.00  0.00     0.134 A 
HETATM    9  C14 UNL     1      21.169 -31.515  12.726  1.00  0.00     0.107 C 
HETATM   10  N7  UNL     1      22.322 -31.577  12.799  1.00  0.00    -0.191 NA
ENDROOT
BRANCH   1  11
HETATM   11  N3  UNL     1      19.966 -29.952  10.700  1.00  0.00    -0.233 N 
HETATM   12  C9  UNL     1      20.385 -30.457   9.525  1.00  0.00     0.148 A 
HETATM   13  C8  UNL     1      21.110 -29.473   8.865  1.00  0.00     0.069 A 
HETATM   14  N9  UNL     1      21.099 -28.408   9.672  1.00  0.00    -0.286 N 
HETATM   15  N8  UNL     1      20.411 -28.732  10.750  1.00  0.00    -0.234 N 
ATOM     16  H9  UNL     1      21.542 -27.509   9.488  1.00  0.00     0.188 HD
ATOM     17  H8  UNL     1      20.247 -28.098  11.532  1.00  0.00     0.209 HD
BRANCH  13  18
HETATM   18  C7  UNL     1      21.772 -29.524   7.557  1.00  0.00     0.237 C 
BRANCH  18  19
HETATM   19  O1  UNL     1      22.602 -28.381   7.342  1.00  0.00    -0.330 OA
BRANCH  19  20
HETATM   20  C6  UNL     1      23.718 -28.468   6.496  1.00  0.00     0.143 A 
HETATM   21  N2  UNL     1      24.201 -29.652   6.088  1.00  0.00    -0.331 N 
HETATM   22  C5  UNL     1      25.282 -29.701   5.269  1.00  0.00     0.122 A 
ATOM     23  H2  UNL     1      23.755 -30.516   6.393  1.00  0.00     0.168 HD
HETATM   24  C4  UNL     1      25.746 -30.960   4.871  1.00  0.00     0.241 A 
HETATM   25  C17 UNL     1      25.857 -28.519   4.878  1.00  0.00     0.081 A 
HETATM   26  N14 UNL     1      26.834 -30.963   4.050  1.00  0.00    -0.040 N 
HETATM   27  C18 UNL     1      27.393 -29.807   3.671  1.00  0.00     0.721 A 
HETATM   28  N13 UNL     1      27.531 -31.953   3.486  1.00  0.00    -0.108 N 
HETATM   29  N10 UNL     1      26.930 -28.612   4.064  1.00  0.00    -0.187 N 
HETATM   30  N11 UNL     1      28.438 -30.116   2.868  1.00  0.00    -0.019 N 
ATOM     31  H10 UNL     1      27.395 -27.761   3.745  1.00  0.00     0.184 HD
HETATM   32  C19 UNL     1      28.531 -31.452   2.749  1.00  0.00     0.706 A 
ATOM     33  H11 UNL     1      29.059 -29.440   2.423  1.00  0.00     0.203 HD
ATOM     34  H13 UNL     1      27.330 -32.946   3.600  1.00  0.00     0.207 HD
HETATM   35  C16 UNL     1      25.377 -27.286   5.285  1.00  0.00     0.037 A 
HETATM   36  C15 UNL     1      24.280 -27.268   6.115  1.00  0.00     0.058 A 
BRANCH  24  37
HETATM   37  N1  UNL     1      25.239 -31.979   5.217  1.00  0.00    -0.422 NA
BRANCH  37  38
HETATM   38  C2  UNL     1      24.672 -33.127   5.607  1.00  0.00     0.157 C 
HETATM   39  C1  UNL     1      23.354 -32.945   6.402  1.00  0.00     0.047 C 
HETATM   40  C3  UNL     1      25.596 -33.878   6.591  1.00  0.00     0.047 C 
ENDBRANCH  37  38
ENDBRANCH  24  37
BRANCH  32  41
HETATM   41  N12 UNL     1      29.394 -32.145   2.071  1.00  0.00    -0.233 N 
ATOM     42 2H12 UNL     1      30.393 -31.955   2.008  1.00  0.00     0.174 HD
ATOM     43 1H12 UNL     1      29.234 -32.976   1.500  1.00  0.00     0.174 HD
ENDBRANCH  32  41
ENDBRANCH  19  20
ENDBRANCH  18  19
ENDBRANCH  13  18
ENDBRANCH   1  11
BRANCH   7  44
HETATM   44  N6  UNL     1      19.509 -32.888  14.469  1.00  0.00    -0.384 N 
ATOM     45  H62 UNL     1      20.149 -32.468  15.144  1.00  0.00     0.157 HD
ATOM     46  H61 UNL     1      19.311 -33.885  14.549  1.00  0.00     0.157 HD
ENDBRANCH   7  44
TORSDOF 8
ENDMDL
MODEL 5
REMARK VINA RESULT: -7.440593974      2.755      5.083
REMARK  8 active torsions:
REMARK  status: ('A' for Active; 'I' for Inactive)
REMARK    1  A    between atoms: C2_2  and  N1_4 
REMARK    2  A    between atoms: N1_4  and  C4_5 
REMARK    3  A    between atoms: C6_9  and  O1_10 
REMARK    4  A    between atoms: O1_10  and  C7_11 
REMARK    5  A    between atoms: C7_11  and  C8_12 
REMARK    6  A    between atoms: N3_14  and  C10_15 
REMARK    7  A    between atoms: C12_21  and  N6_22 
REMARK    8  A    between atoms: C19_40  and  N12_41 
ROOT
HETATM    1  C10 UNL     1      20.205 -34.405  14.305  1.00  0.00     0.153 A 
HETATM    2  N4  UNL     1      19.133 -35.043  14.825  1.00  0.00    -0.336 N 
ATOM      3  H4  UNL     1      18.295 -34.514  15.066  1.00  0.00     0.168 HD
HETATM    4  C11 UNL     1      19.167 -36.374  15.027  1.00  0.00     0.183 A 
HETATM    5  N5  UNL     1      20.239 -37.126  14.730  1.00  0.00    -0.338 N 
ATOM      6  H5  UNL     1      20.226 -38.132  14.897  1.00  0.00     0.168 HD
HETATM    7  C12 UNL     1      21.337 -36.534  14.206  1.00  0.00     0.124 A 
HETATM    8  C13 UNL     1      21.307 -35.172  13.999  1.00  0.00     0.134 A 
HETATM    9  C14 UNL     1      22.448 -34.499  13.447  1.00  0.00     0.107 C 
HETATM   10  N7  UNL     1      23.369 -33.971  12.988  1.00  0.00    -0.191 NA
ENDROOT
BRANCH   1  11
HETATM   11  N3  UNL     1      20.144 -32.998  14.103  1.00  0.00    -0.233 N 
HETATM   12  C9  UNL     1      19.471 -32.424  13.088  1.00  0.00     0.148 A 
HETATM   13  C8  UNL     1      19.621 -31.048  13.193  1.00  0.00     0.069 A 
HETATM   14  N9  UNL     1      20.381 -30.845  14.273  1.00  0.00    -0.286 N 
HETATM   15  N8  UNL     1      20.670 -32.026  14.786  1.00  0.00    -0.234 N 
ATOM     16  H9  UNL     1      20.682 -29.941  14.636  1.00  0.00     0.188 HD
ATOM     17  H8  UNL     1      21.241 -32.160  15.620  1.00  0.00     0.209 HD
BRANCH  13  18
HETATM   18  C7  UNL     1      19.085 -29.984  12.337  1.00  0.00     0.237 C 
BRANCH  18  19
HETATM   19  O1  UNL     1      19.421 -30.193  10.964  1.00  0.00    -0.330 OA
BRANCH  19  20
HETATM   20  C6  UNL     1      20.361 -29.364  10.333  1.00  0.00     0.143 A 
HETATM   21  N2  UNL     1      20.951 -29.720   9.181  1.00  0.00    -0.331 N 
HETATM   22  C5  UNL     1      21.857 -28.895   8.596  1.00  0.00     0.122 A 
ATOM     23  H2  UNL     1      20.718 -30.611   8.743  1.00  0.00     0.168 HD
HETATM   24  C4  UNL     1      22.442 -29.311   7.394  1.00  0.00     0.241 A 
HETATM   25  C17 UNL     1      22.147 -27.705   9.212  1.00  0.00     0.081 A 
HETATM   26  N14 UNL     1      23.346 -28.454   6.843  1.00  0.00    -0.040 N 
HETATM   27  C18 UNL     1      23.626 -27.292   7.448  1.00  0.00     0.721 A 
HETATM   28  N13 UNL     1      24.081 -28.518   5.730  1.00  0.00    -0.108 N 
HETATM   29  N10 UNL     1      23.052 -26.915   8.599  1.00  0.00    -0.187 N 
HETATM   30  N11 UNL     1      24.544 -26.657   6.681  1.00  0.00    -0.019 N 
ATOM     31  H10 UNL     1      23.303 -26.018   9.016  1.00  0.00     0.184 HD
HETATM   32  C19 UNL     1      24.832 -27.416   5.609  1.00  0.00     0.706 A 
ATOM     33  H11 UNL     1      24.952 -25.746   6.885  1.00  0.00     0.203 HD
ATOM     34  H13 UNL     1      24.072 -29.294   5.068  1.00  0.00     0.207 HD
HETATM   35  C16 UNL     1      21.552 -27.317  10.401  1.00  0.00     0.037 A 
HETATM   36  C15 UNL     1      20.638 -28.173  10.970  1.00  0.00     0.058 A 
BRANCH  24  37
HETATM   37  N1  UNL     1      22.182 -30.347   6.870  1.00  0.00    -0.422 NA
BRANCH  37  38
HETATM   38  C2  UNL     1      21.892 -31.514   6.282  1.00  0.00     0.157 C 
HETATM   39  C1  UNL     1      20.390 -31.697   5.943  1.00  0.00     0.047 C 
HETATM   40  C3  UNL     1      22.200 -32.689   7.237  1.00  0.00     0.047 C 
ENDBRANCH  37  38
ENDBRANCH  24  37
BRANCH  32  41
HETATM   41  N12 UNL     1      25.659 -27.165   4.639  1.00  0.00    -0.233 N 
ATOM     42 2H12 UNL     1      26.670 -27.292   4.671  1.00  0.00     0.174 HD
ATOM     43 1H12 UNL     1      25.454 -26.809   3.705  1.00  0.00     0.174 HD
ENDBRANCH  32  41
ENDBRANCH  19  20
ENDBRANCH  18  19
ENDBRANCH  13  18
ENDBRANCH   1  11
BRANCH   7  44
HETATM   44  N6  UNL     1      22.397 -37.231  13.907  1.00  0.00    -0.384 N 
ATOM     45  H62 UNL     1      22.417 -38.240  14.054  1.00  0.00     0.157 HD
ATOM     46  H61 UNL     1      23.227 -36.784  13.518  1.00  0.00     0.157 HD
ENDBRANCH   7  44
TORSDOF 8
ENDMDL
