MODEL 1
REMARK VINA RESULT: -8.070205611      0.000      0.000
REMARK  6 active torsions:
REMARK  status: ('A' for Active; 'I' for Inactive)
REMARK    1  A    between atoms: C3_5  and  C4_6 
REMARK    2  A    between atoms: C7_9  and  C8_10 
REMARK    3  A    between atoms: C8_10  and  N2_11 
REMARK    4  A    between atoms: C13_18  and  N4_19 
REMARK       I    between atoms: N4_19  and  C14_21 
REMARK       I    between atoms: C14_21  and  N6_27 
REMARK    5  A    between atoms: N5_22  and  C15_24 
REMARK    6  A    between atoms: N6_27  and  C18_29 
ROOT
HETATM    1  C1  UNL     1      -3.829  -2.373  11.336  1.00  0.00     0.089 C 
HETATM    2  C2  UNL     1      -3.545  -0.991  11.817  1.00  0.00     0.095 A 
HETATM    3  N1  UNL     1      -2.714  -0.194  11.125  1.00  0.00    -0.331 N 
ATOM      4  H1  UNL     1      -2.279  -0.535  10.268  1.00  0.00     0.168 HD
HETATM    5  C3  UNL     1      -2.453   1.065  11.561  1.00  0.00     0.132 A 
HETATM    6  N3  UNL     1      -3.019   1.504  12.672  1.00  0.00    -0.175 N 
ATOM      7  H3  UNL     1      -2.815   2.451  12.990  1.00  0.00     0.186 HD
HETATM    8  C13 UNL     1      -3.870   0.728  13.405  1.00  0.00     0.699 A 
HETATM    9  N7  UNL     1      -4.094  -0.498  12.936  1.00  0.00    -0.180 N 
ATOM     10  H7  UNL     1      -4.725  -1.100  13.462  1.00  0.00     0.185 HD
ENDROOT
BRANCH   8  11
HETATM   11  N4  UNL     1      -4.350   1.253  14.445  1.00  0.00    -0.022 N 
HETATM   12  C14 UNL     1      -5.129   2.374  14.652  1.00  0.00     0.689 C 
HETATM   13  N5  UNL     1      -5.947   2.343  15.686  1.00  0.00    -0.222 N 
HETATM   14  N6  UNL     1      -5.176   3.572  13.903  1.00  0.00    -0.218 N 
ATOM     15  H5  UNL     1      -6.538   3.155  15.867  1.00  0.00     0.178 HD
ATOM     16  H6  UNL     1      -5.846   3.626  13.136  1.00  0.00     0.178 HD
ATOM     17  H4  UNL     1      -4.117   0.751  15.302  1.00  0.00     0.203 HD
BRANCH  13  18
HETATM   18  C15 UNL     1      -6.040   1.211  16.572  1.00  0.00     0.091 C 
HETATM   19  C16 UNL     1      -5.474   1.530  17.951  1.00  0.00     0.032 C 
HETATM   20  C17 UNL     1      -7.505   0.871  16.762  1.00  0.00     0.032 C 
ENDBRANCH  13  18
BRANCH  14  21
HETATM   21  C18 UNL     1      -4.350   4.714  14.145  1.00  0.00     0.036 C 
HETATM   22  C19 UNL     1      -2.918   4.355  14.501  1.00  0.00     0.038 C 
HETATM   23  C20 UNL     1      -4.287   5.559  12.891  1.00  0.00     0.038 C 
HETATM   24  C21 UNL     1      -4.967   5.583  15.221  1.00  0.00     0.038 C 
ENDBRANCH  14  21
ENDBRANCH   8  11
BRANCH   5  25
HETATM   25  C4  UNL     1      -1.534   1.864  10.748  1.00  0.00     0.009 A 
HETATM   26  C5  UNL     1      -1.635   1.927   9.378  1.00  0.00     0.016 A 
HETATM   27  C6  UNL     1      -0.779   2.672   8.590  1.00  0.00     0.010 A 
HETATM   28  C7  UNL     1       0.241   3.403   9.164  1.00  0.00    -0.030 A 
HETATM   29  C11 UNL     1       0.343   3.340  10.544  1.00  0.00     0.010 A 
HETATM   30  C12 UNL     1      -0.510   2.598  11.332  1.00  0.00     0.016 A 
BRANCH  28  31
HETATM   31  C8  UNL     1       1.209   4.226   8.384  1.00  0.00     0.309 C 
BRANCH  31  32
HETATM   32  N2  UNL     1       2.204   3.463   7.697  1.00  0.00     0.084 N 
HETATM   33  C9  UNL     1       3.430   3.416   8.470  1.00  0.00     0.309 C 
HETATM   34  C10 UNL     1       2.509   4.162   6.460  1.00  0.00     0.309 C 
ENDBRANCH  31  32
ENDBRANCH  28  31
ENDBRANCH   5  25
TORSDOF 6
ENDMDL
MODEL 2
REMARK VINA RESULT: -7.893929839      1.437      1.738
REMARK  6 active torsions:
REMARK  status: ('A' for Active; 'I' for Inactive)
REMARK    1  A    between atoms: C3_5  and  C4_6 
REMARK    2  A    between atoms: C7_9  and  C8_10 
REMARK    3  A    between atoms: C8_10  and  N2_11 
REMARK    4  A    between atoms: C13_18  and  N4_19 
REMARK       I    between atoms: N4_19  and  C14_21 
REMARK       I    between atoms: C14_21  and  N6_27 
REMARK    5  A    between atoms: N5_22  and  C15_24 
REMARK    6  A    between atoms: N6_27  and  C18_29 
ROOT
HETATM    1  C1  UNL     1      -3.422  -2.431  11.357  1.00  0.00     0.089 C 
HETATM    2  C2  UNL     1      -3.456  -0.976  11.678  1.00  0.00     0.095 A 
HETATM    3  N1  UNL     1      -3.023  -0.077  10.778  1.00  0.00    -0.331 N 
ATOM      4  H1  UNL     1      -2.673  -0.392   9.874  1.00  0.00     0.168 HD
HETATM    5  C3  UNL     1      -3.051   1.249  11.068  1.00  0.00     0.132 A 
HETATM    6  N3  UNL     1      -3.506   1.653  12.241  1.00  0.00    -0.175 N 
ATOM      7  H3  UNL     1      -3.523   2.652  12.449  1.00  0.00     0.186 HD
HETATM    8  C13 UNL     1      -3.957   0.774  13.184  1.00  0.00     0.699 A 
HETATM    9  N7  UNL     1      -3.909  -0.514  12.852  1.00  0.00    -0.180 N 
ATOM     10  H7  UNL     1      -4.238  -1.194  13.536  1.00  0.00     0.185 HD
ENDROOT
BRANCH   8  11
HETATM   11  N4  UNL     1      -4.368   1.275  14.265  1.00  0.00    -0.022 N 
HETATM   12  C14 UNL     1      -5.064   2.431  14.554  1.00  0.00     0.689 C 
HETATM   13  N5  UNL     1      -5.848   2.400  15.613  1.00  0.00    -0.222 N 
HETATM   14  N6  UNL     1      -5.056   3.667  13.867  1.00  0.00    -0.218 N 
ATOM     15  H5  UNL     1      -6.379   3.238  15.854  1.00  0.00     0.178 HD
ATOM     16  H6  UNL     1      -5.745   3.803  13.127  1.00  0.00     0.178 HD
ATOM     17  H4  UNL     1      -4.141   0.716  15.087  1.00  0.00     0.203 HD
BRANCH  13  18
HETATM   18  C15 UNL     1      -5.988   1.232  16.445  1.00  0.00     0.091 C 
HETATM   19  C16 UNL     1      -5.340   1.436  17.811  1.00  0.00     0.032 C 
HETATM   20  C17 UNL     1      -7.465   0.991  16.687  1.00  0.00     0.032 C 
ENDBRANCH  13  18
BRANCH  14  21
HETATM   21  C18 UNL     1      -4.150   4.740  14.135  1.00  0.00     0.036 C 
HETATM   22  C19 UNL     1      -2.757   4.269  14.517  1.00  0.00     0.038 C 
HETATM   23  C20 UNL     1      -3.995   5.587  12.890  1.00  0.00     0.038 C 
HETATM   24  C21 UNL     1      -4.720   5.646  15.206  1.00  0.00     0.038 C 
ENDBRANCH  14  21
ENDBRANCH   8  11
BRANCH   5  25
HETATM   25  C4  UNL     1      -2.559   2.158  10.032  1.00  0.00     0.009 A 
HETATM   26  C5  UNL     1      -3.249   3.287   9.659  1.00  0.00     0.016 A 
HETATM   27  C6  UNL     1      -2.806   4.157   8.682  1.00  0.00     0.010 A 
HETATM   28  C7  UNL     1      -1.617   3.921   8.023  1.00  0.00    -0.030 A 
HETATM   29  C11 UNL     1      -0.921   2.784   8.398  1.00  0.00     0.010 A 
HETATM   30  C12 UNL     1      -1.361   1.914   9.372  1.00  0.00     0.016 A 
BRANCH  28  31
HETATM   31  C8  UNL     1      -1.074   4.807   6.954  1.00  0.00     0.309 C 
BRANCH  31  32
HETATM   32  N2  UNL     1      -0.590   4.109   5.805  1.00  0.00     0.084 N 
HETATM   33  C9  UNL     1       0.815   4.397   5.592  1.00  0.00     0.309 C 
HETATM   34  C10 UNL     1      -1.308   4.623   4.651  1.00  0.00     0.309 C 
ENDBRANCH  31  32
ENDBRANCH  28  31
ENDBRANCH   5  25
TORSDOF 6
ENDMDL
MODEL 3
REMARK VINA RESULT: -7.426158288      3.083      9.132
REMARK  6 active torsions:
REMARK  status: ('A' for Active; 'I' for Inactive)
REMARK    1  A    between atoms: C3_5  and  C4_6 
REMARK    2  A    between atoms: C7_9  and  C8_10 
REMARK    3  A    between atoms: C8_10  and  N2_11 
REMARK    4  A    between atoms: C13_18  and  N4_19 
REMARK       I    between atoms: N4_19  and  C14_21 
REMARK       I    between atoms: C14_21  and  N6_27 
REMARK    5  A    between atoms: N5_22  and  C15_24 
REMARK    6  A    between atoms: N6_27  and  C18_29 
ROOT
HETATM    1  C1  UNL     1      -0.536   8.939  14.478  1.00  0.00     0.089 C 
HETATM    2  C2  UNL     1      -0.881   7.623  13.869  1.00  0.00     0.095 A 
HETATM    3  N1  UNL     1      -1.893   6.893  14.369  1.00  0.00    -0.331 N 
ATOM      4  H1  UNL     1      -2.426   7.242  15.164  1.00  0.00     0.168 HD
HETATM    5  C3  UNL     1      -2.207   5.693  13.817  1.00  0.00     0.132 A 
HETATM    6  N3  UNL     1      -1.514   5.244  12.786  1.00  0.00    -0.175 N 
ATOM      7  H3  UNL     1      -1.759   4.341  12.380  1.00  0.00     0.186 HD
HETATM    8  C13 UNL     1      -0.479   5.954  12.247  1.00  0.00     0.699 A 
HETATM    9  N7  UNL     1      -0.210   7.123  12.822  1.00  0.00    -0.180 N 
ATOM     10  H7  UNL     1       0.557   7.675  12.441  1.00  0.00     0.185 HD
ENDROOT
BRANCH   8  11
HETATM   11  N4  UNL     1       0.109   5.426  11.265  1.00  0.00    -0.022 N 
HETATM   12  C14 UNL     1       1.219   4.612  11.166  1.00  0.00     0.689 C 
HETATM   13  N5  UNL     1       1.243   3.762  10.159  1.00  0.00    -0.222 N 
HETATM   14  N6  UNL     1       2.357   4.560  12.005  1.00  0.00    -0.218 N 
ATOM     15  H5  UNL     1       2.049   3.145  10.059  1.00  0.00     0.178 HD
ATOM     16  H6  UNL     1       2.335   3.914  12.794  1.00  0.00     0.178 HD
ATOM     17  H4  UNL     1      -0.322   5.643  10.366  1.00  0.00     0.203 HD
BRANCH  13  18
HETATM   18  C15 UNL     1       0.177   3.668   9.194  1.00  0.00     0.091 C 
HETATM   19  C16 UNL     1       0.712   3.396   7.793  1.00  0.00     0.032 C 
HETATM   20  C17 UNL     1      -0.705   2.493   9.568  1.00  0.00     0.032 C 
ENDBRANCH  13  18
BRANCH  14  21
HETATM   21  C18 UNL     1       3.536   5.347  11.824  1.00  0.00     0.036 C 
HETATM   22  C19 UNL     1       3.285   6.841  11.938  1.00  0.00     0.038 C 
HETATM   23  C20 UNL     1       4.543   4.993  12.897  1.00  0.00     0.038 C 
HETATM   24  C21 UNL     1       4.185   5.015  10.496  1.00  0.00     0.038 C 
ENDBRANCH  14  21
ENDBRANCH   8  11
BRANCH   5  25
HETATM   25  C4  UNL     1      -3.322   4.964  14.425  1.00  0.00     0.009 A 
HETATM   26  C5  UNL     1      -4.527   5.565  14.703  1.00  0.00     0.016 A 
HETATM   27  C6  UNL     1      -5.591   4.898  15.278  1.00  0.00     0.010 A 
HETATM   28  C7  UNL     1      -5.483   3.562  15.607  1.00  0.00    -0.030 A 
HETATM   29  C11 UNL     1      -4.269   2.956  15.329  1.00  0.00     0.010 A 
HETATM   30  C12 UNL     1      -3.206   3.619  14.754  1.00  0.00     0.016 A 
BRANCH  28  31
HETATM   31  C8  UNL     1      -6.581   2.774  16.236  1.00  0.00     0.309 C 
BRANCH  31  32
HETATM   32  N2  UNL     1      -6.130   1.681  17.039  1.00  0.00     0.084 N 
HETATM   33  C9  UNL     1      -7.060   0.571  16.951  1.00  0.00     0.309 C 
HETATM   34  C10 UNL     1      -6.133   2.128  18.421  1.00  0.00     0.309 C 
ENDBRANCH  31  32
ENDBRANCH  28  31
ENDBRANCH   5  25
TORSDOF 6
ENDMDL
MODEL 4
REMARK VINA RESULT: -7.378828050      3.462      6.633
REMARK  6 active torsions:
REMARK  status: ('A' for Active; 'I' for Inactive)
REMARK    1  A    between atoms: C3_5  and  C4_6 
REMARK    2  A    between atoms: C7_9  and  C8_10 
REMARK    3  A    between atoms: C8_10  and  N2_11 
REMARK    4  A    between atoms: C13_18  and  N4_19 
REMARK       I    between atoms: N4_19  and  C14_21 
REMARK       I    between atoms: C14_21  and  N6_27 
REMARK    5  A    between atoms: N5_22  and  C15_24 
REMARK    6  A    between atoms: N6_27  and  C18_29 
ROOT
HETATM    1  C1  UNL     1      -6.495   3.837  16.208  1.00  0.00     0.089 C 
HETATM    2  C2  UNL     1      -5.423   3.991  15.184  1.00  0.00     0.095 A 
HETATM    3  N1  UNL     1      -4.711   5.129  15.118  1.00  0.00    -0.331 N 
ATOM      4  H1  UNL     1      -4.904   5.887  15.772  1.00  0.00     0.168 HD
HETATM    5  C3  UNL     1      -3.735   5.273  14.185  1.00  0.00     0.132 A 
HETATM    6  N3  UNL     1      -3.488   4.288  13.340  1.00  0.00    -0.175 N 
ATOM      7  H3  UNL     1      -2.752   4.407  12.643  1.00  0.00     0.186 HD
HETATM    8  C13 UNL     1      -4.186   3.114  13.372  1.00  0.00     0.699 A 
HETATM    9  N7  UNL     1      -5.131   3.023  14.304  1.00  0.00    -0.180 N 
ATOM     10  H7  UNL     1      -5.669   2.158  14.352  1.00  0.00     0.185 HD
ENDROOT
BRANCH   8  11
HETATM   11  N4  UNL     1      -3.861   2.247  12.517  1.00  0.00    -0.022 N 
HETATM   12  C14 UNL     1      -2.640   1.826  12.029  1.00  0.00     0.689 C 
HETATM   13  N5  UNL     1      -2.562   0.571  11.634  1.00  0.00    -0.222 N 
HETATM   14  N6  UNL     1      -1.441   2.562  11.887  1.00  0.00    -0.218 N 
ATOM     15  H5  UNL     1      -1.673   0.227  11.270  1.00  0.00     0.178 HD
ATOM     16  H6  UNL     1      -0.785   2.554  12.668  1.00  0.00     0.178 HD
ATOM     17  H4  UNL     1      -4.657   1.760  12.105  1.00  0.00     0.203 HD
BRANCH  13  18
HETATM   18  C15 UNL     1      -3.680  -0.337  11.697  1.00  0.00     0.091 C 
HETATM   19  C16 UNL     1      -4.662  -0.095  10.555  1.00  0.00     0.032 C 
HETATM   20  C17 UNL     1      -3.157  -1.751  11.540  1.00  0.00     0.032 C 
ENDBRANCH  13  18
BRANCH  14  21
HETATM   21  C18 UNL     1      -1.083   3.315  10.726  1.00  0.00     0.036 C 
HETATM   22  C19 UNL     1      -2.253   3.572   9.792  1.00  0.00     0.038 C 
HETATM   23  C20 UNL     1      -0.561   4.671  11.152  1.00  0.00     0.038 C 
HETATM   24  C21 UNL     1       0.048   2.628   9.989  1.00  0.00     0.038 C 
ENDBRANCH  14  21
ENDBRANCH   8  11
BRANCH   5  25
HETATM   25  C4  UNL     1      -3.011   6.545  14.183  1.00  0.00     0.009 A 
HETATM   26  C5  UNL     1      -2.595   7.149  13.020  1.00  0.00     0.016 A 
HETATM   27  C6  UNL     1      -1.908   8.347  12.993  1.00  0.00     0.010 A 
HETATM   28  C7  UNL     1      -1.604   9.005  14.168  1.00  0.00    -0.030 A 
HETATM   29  C11 UNL     1      -2.024   8.397  15.339  1.00  0.00     0.010 A 
HETATM   30  C12 UNL     1      -2.709   7.202  15.368  1.00  0.00     0.016 A 
BRANCH  28  31
HETATM   31  C8  UNL     1      -0.862  10.297  14.224  1.00  0.00     0.309 C 
BRANCH  31  32
HETATM   32  N2  UNL     1       0.306  10.264  15.048  1.00  0.00     0.084 N 
HETATM   33  C9  UNL     1       0.705  11.610  15.413  1.00  0.00     0.309 C 
HETATM   34  C10 UNL     1       1.383   9.704  14.251  1.00  0.00     0.309 C 
ENDBRANCH  31  32
ENDBRANCH  28  31
ENDBRANCH   5  25
TORSDOF 6
ENDMDL
MODEL 5
REMARK VINA RESULT: -7.284901634      3.932      7.057
REMARK  6 active torsions:
REMARK  status: ('A' for Active; 'I' for Inactive)
REMARK    1  A    between atoms: C3_5  and  C4_6 
REMARK    2  A    between atoms: C7_9  and  C8_10 
REMARK    3  A    between atoms: C8_10  and  N2_11 
REMARK    4  A    between atoms: C13_18  and  N4_19 
REMARK       I    between atoms: N4_19  and  C14_21 
REMARK       I    between atoms: C14_21  and  N6_27 
REMARK    5  A    between atoms: N5_22  and  C15_24 
REMARK    6  A    between atoms: N6_27  and  C18_29 
ROOT
HETATM    1  C1  UNL     1      -0.994   6.991  13.714  1.00  0.00     0.089 C 
HETATM    2  C2  UNL     1      -2.331   6.417  13.389  1.00  0.00     0.095 A 
HETATM    3  N1  UNL     1      -3.141   7.046  12.521  1.00  0.00    -0.331 N 
ATOM      4  H1  UNL     1      -2.839   7.916  12.083  1.00  0.00     0.168 HD
HETATM    5  C3  UNL     1      -4.360   6.528  12.225  1.00  0.00     0.132 A 
HETATM    6  N3  UNL     1      -4.748   5.400  12.794  1.00  0.00    -0.175 N 
ATOM      7  H3  UNL     1      -5.666   5.019  12.564  1.00  0.00     0.186 HD
HETATM    8  C13 UNL     1      -3.956   4.728  13.681  1.00  0.00     0.699 A 
HETATM    9  N7  UNL     1      -2.771   5.277  13.938  1.00  0.00    -0.180 N 
ATOM     10  H7  UNL     1      -2.158   4.798  14.596  1.00  0.00     0.185 HD
ENDROOT
BRANCH   8  11
HETATM   11  N4  UNL     1      -4.431   3.663  14.159  1.00  0.00    -0.022 N 
HETATM   12  C14 UNL     1      -3.981   2.359  14.166  1.00  0.00     0.689 C 
HETATM   13  N5  UNL     1      -4.335   1.616  15.197  1.00  0.00    -0.222 N 
HETATM   14  N6  UNL     1      -3.182   1.691  13.209  1.00  0.00    -0.218 N 
ATOM     15  H5  UNL     1      -4.017   0.647  15.234  1.00  0.00     0.178 HD
ATOM     16  H6  UNL     1      -2.170   1.717  13.336  1.00  0.00     0.178 HD
ATOM     17  H4  UNL     1      -5.324   3.791  14.635  1.00  0.00     0.203 HD
BRANCH  13  18
HETATM   18  C15 UNL     1      -5.152   2.116  16.273  1.00  0.00     0.091 C 
HETATM   19  C16 UNL     1      -6.559   2.460  15.795  1.00  0.00     0.032 C 
HETATM   20  C17 UNL     1      -5.293   1.023  17.314  1.00  0.00     0.032 C 
ENDBRANCH  13  18
BRANCH  14  21
HETATM   21  C18 UNL     1      -3.691   0.983  12.078  1.00  0.00     0.036 C 
HETATM   22  C19 UNL     1      -4.892   1.657  11.437  1.00  0.00     0.038 C 
HETATM   23  C20 UNL     1      -2.618   0.904  11.013  1.00  0.00     0.038 C 
HETATM   24  C21 UNL     1      -4.023  -0.444  12.463  1.00  0.00     0.038 C 
ENDBRANCH  14  21
ENDBRANCH   8  11
BRANCH   5  25
HETATM   25  C4  UNL     1      -5.179   7.279  11.271  1.00  0.00     0.009 A 
HETATM   26  C5  UNL     1      -6.550   7.172  11.239  1.00  0.00     0.016 A 
HETATM   27  C6  UNL     1      -7.342   7.868  10.347  1.00  0.00     0.010 A 
HETATM   28  C7  UNL     1      -6.773   8.723   9.426  1.00  0.00    -0.030 A 
HETATM   29  C11 UNL     1      -5.393   8.831   9.457  1.00  0.00     0.010 A 
HETATM   30  C12 UNL     1      -4.600   8.138  10.347  1.00  0.00     0.016 A 
BRANCH  28  31
HETATM   31  C8  UNL     1      -7.557   9.504   8.427  1.00  0.00     0.309 C 
BRANCH  31  32
HETATM   32  N2  UNL     1      -8.142   8.709   7.393  1.00  0.00     0.084 N 
HETATM   33  C9  UNL     1      -7.627   9.107   6.096  1.00  0.00     0.309 C 
HETATM   34  C10 UNL     1      -9.568   8.988   7.386  1.00  0.00     0.309 C 
ENDBRANCH  31  32
ENDBRANCH  28  31
ENDBRANCH   5  25
TORSDOF 6
ENDMDL
