MODEL 1
REMARK VINA RESULT: -7.682068777      0.000      0.000
REMARK  3 active torsions:
REMARK  status: ('A' for Active; 'I' for Inactive)
REMARK       I    between atoms: C3_3  and  N1_5 
REMARK    1  A    between atoms: N1_5  and  C4_7 
REMARK    2  A    between atoms: C7_10  and  C8_11 
REMARK    3  A    between atoms: N3_19  and  C12_20 
ROOT
HETATM    1  C1  UNL     1       7.085   4.026   6.418  1.00  0.00     0.022 C 
HETATM    2  C2  UNL     1       6.144   3.794   7.145  1.00  0.00    -0.016 C 
HETATM    3  C3  UNL     1       5.012   3.495   8.002  1.00  0.00     0.300 C 
HETATM    4  O1  UNL     1       4.785   2.310   8.324  1.00  0.00    -0.258 OA
HETATM    5  N1  UNL     1       4.215   4.550   8.439  1.00  0.00    -0.316 N 
ATOM      6  H1  UNL     1       4.496   5.475   8.115  1.00  0.00     0.170 HD
ENDROOT
BRANCH   5   7
HETATM    7  C4  UNL     1       3.075   4.517   9.265  1.00  0.00     0.035 A 
HETATM    8  C5  UNL     1       3.196   4.200  10.628  1.00  0.00     0.030 A 
HETATM    9  C6  UNL     1       2.127   4.158  11.475  1.00  0.00     0.013 A 
HETATM   10  C7  UNL     1       0.862   4.423  11.040  1.00  0.00    -0.035 A 
HETATM   11  C19 UNL     1       0.699   4.739   9.705  1.00  0.00     0.013 A 
HETATM   12  C20 UNL     1       1.794   4.780   8.854  1.00  0.00     0.030 A 
BRANCH  10  13
HETATM   13  C8  UNL     1      -0.298   4.370  11.900  1.00  0.00     0.034 C 
HETATM   14  C9  UNL     1      -1.145   3.381  12.027  1.00  0.00     0.101 A 
HETATM   15  C10 UNL     1      -1.075   2.131  11.301  1.00  0.00     0.263 A 
HETATM   16  C18 UNL     1      -2.247   3.512  13.019  1.00  0.00     0.270 A 
HETATM   17  O2  UNL     1      -0.203   1.881  10.428  1.00  0.00    -0.267 OA
HETATM   18  N2  UNL     1      -2.043   1.115  11.570  1.00  0.00    -0.299 N 
HETATM   19  C11 UNL     1      -3.070   1.299  12.530  1.00  0.00     0.188 A 
ATOM     20  H2  UNL     1      -1.994   0.234  11.059  1.00  0.00     0.171 HD
HETATM   21  S1  UNL     1      -4.152   0.113  12.806  1.00  0.00    -0.040 SA
HETATM   22  N3  UNL     1      -3.194   2.503  13.275  1.00  0.00    -0.254 N 
HETATM   23  O3  UNL     1      -2.352   4.582  13.678  1.00  0.00    -0.266 OA
BRANCH  22  24
HETATM   24  C12 UNL     1      -4.235   2.664  14.239  1.00  0.00     0.045 A 
HETATM   25  C13 UNL     1      -4.140   2.130  15.513  1.00  0.00     0.030 A 
HETATM   26  C14 UNL     1      -5.149   2.285  16.444  1.00  0.00     0.002 A 
HETATM   27  C15 UNL     1      -6.297   2.983  16.137  1.00  0.00     0.000 A 
HETATM   28  C16 UNL     1      -6.403   3.520  14.868  1.00  0.00     0.002 A 
HETATM   29  C17 UNL     1      -5.386   3.361  13.938  1.00  0.00     0.030 A 
ENDBRANCH  22  24
ENDBRANCH  10  13
ENDBRANCH   5   7
TORSDOF 3
ENDMDL
MODEL 2
REMARK VINA RESULT: -7.664255491      0.083      1.281
REMARK  3 active torsions:
REMARK  status: ('A' for Active; 'I' for Inactive)
REMARK       I    between atoms: C3_3  and  N1_5 
REMARK    1  A    between atoms: N1_5  and  C4_7 
REMARK    2  A    between atoms: C7_10  and  C8_11 
REMARK    3  A    between atoms: N3_19  and  C12_20 
ROOT
HETATM    1  C1  UNL     1       7.092   4.091   6.418  1.00  0.00     0.022 C 
HETATM    2  C2  UNL     1       6.166   3.840   7.159  1.00  0.00    -0.016 C 
HETATM    3  C3  UNL     1       5.053   3.519   8.032  1.00  0.00     0.300 C 
HETATM    4  O1  UNL     1       4.830   2.326   8.326  1.00  0.00    -0.258 OA
HETATM    5  N1  UNL     1       4.268   4.562   8.515  1.00  0.00    -0.316 N 
ATOM      6  H1  UNL     1       4.544   5.496   8.211  1.00  0.00     0.170 HD
ENDROOT
BRANCH   5   7
HETATM    7  C4  UNL     1       3.147   4.508   9.365  1.00  0.00     0.035 A 
HETATM    8  C5  UNL     1       1.859   4.741   8.856  1.00  0.00     0.030 A 
HETATM    9  C6  UNL     1       0.737   4.697   9.632  1.00  0.00     0.013 A 
HETATM   10  C7  UNL     1       0.804   4.422  10.966  1.00  0.00    -0.035 A 
HETATM   11  C19 UNL     1       2.053   4.186  11.507  1.00  0.00     0.013 A 
HETATM   12  C20 UNL     1       3.186   4.233  10.707  1.00  0.00     0.030 A 
BRANCH  10  13
HETATM   13  C8  UNL     1      -0.357   4.385  11.825  1.00  0.00     0.034 C 
HETATM   14  C9  UNL     1      -1.199   3.394  11.976  1.00  0.00     0.101 A 
HETATM   15  C10 UNL     1      -1.121   2.126  11.283  1.00  0.00     0.263 A 
HETATM   16  C18 UNL     1      -2.304   3.546  12.962  1.00  0.00     0.270 A 
HETATM   17  O2  UNL     1      -0.246   1.858  10.419  1.00  0.00    -0.267 OA
HETATM   18  N2  UNL     1      -2.084   1.112  11.577  1.00  0.00    -0.299 N 
HETATM   19  C11 UNL     1      -3.113   1.316  12.530  1.00  0.00     0.188 A 
ATOM     20  H2  UNL     1      -2.029   0.218  11.089  1.00  0.00     0.171 HD
HETATM   21  S1  UNL     1      -4.189   0.131  12.835  1.00  0.00    -0.040 SA
HETATM   22  N3  UNL     1      -3.246   2.538  13.243  1.00  0.00    -0.254 N 
HETATM   23  O3  UNL     1      -2.416   4.632  13.593  1.00  0.00    -0.266 OA
BRANCH  22  24
HETATM   24  C12 UNL     1      -4.290   2.718  14.201  1.00  0.00     0.045 A 
HETATM   25  C13 UNL     1      -5.444   3.423  13.900  1.00  0.00     0.030 A 
HETATM   26  C14 UNL     1      -6.452   3.597  14.827  1.00  0.00     0.002 A 
HETATM   27  C15 UNL     1      -6.347   3.073  16.098  1.00  0.00     0.000 A 
HETATM   28  C16 UNL     1      -5.200   2.368  16.409  1.00  0.00     0.002 A 
HETATM   29  C17 UNL     1      -4.191   2.196  15.473  1.00  0.00     0.030 A 
ENDBRANCH  22  24
ENDBRANCH  10  13
ENDBRANCH   5   7
TORSDOF 3
ENDMDL
MODEL 3
REMARK VINA RESULT: -7.561335632      5.835      8.686
REMARK  3 active torsions:
REMARK  status: ('A' for Active; 'I' for Inactive)
REMARK       I    between atoms: C3_3  and  N1_5 
REMARK    1  A    between atoms: N1_5  and  C4_7 
REMARK    2  A    between atoms: C7_10  and  C8_11 
REMARK    3  A    between atoms: N3_19  and  C12_20 
ROOT
HETATM    1  C1  UNL     1      -7.605  14.425   9.615  1.00  0.00     0.022 C 
HETATM    2  C2  UNL     1      -7.395  13.244   9.443  1.00  0.00    -0.016 C 
HETATM    3  C3  UNL     1      -7.166  11.827   9.229  1.00  0.00     0.300 C 
HETATM    4  O1  UNL     1      -7.670  11.271   8.232  1.00  0.00    -0.258 OA
HETATM    5  N1  UNL     1      -6.386  11.136  10.152  1.00  0.00    -0.316 N 
ATOM      6  H1  UNL     1      -6.025  11.693  10.926  1.00  0.00     0.170 HD
ENDROOT
BRANCH   5   7
HETATM    7  C4  UNL     1      -6.026   9.774  10.164  1.00  0.00     0.035 A 
HETATM    8  C5  UNL     1      -4.699   9.389   9.914  1.00  0.00     0.030 A 
HETATM    9  C6  UNL     1      -4.294   8.086   9.918  1.00  0.00     0.013 A 
HETATM   10  C7  UNL     1      -5.167   7.069  10.168  1.00  0.00    -0.035 A 
HETATM   11  C19 UNL     1      -6.483   7.405  10.419  1.00  0.00     0.013 A 
HETATM   12  C20 UNL     1      -6.882   8.733  10.413  1.00  0.00     0.030 A 
BRANCH  10  13
HETATM   13  C8  UNL     1      -4.781   5.676  10.162  1.00  0.00     0.034 C 
HETATM   14  C9  UNL     1      -4.388   4.960  11.184  1.00  0.00     0.101 A 
HETATM   15  C10 UNL     1      -4.254   5.450  12.539  1.00  0.00     0.263 A 
HETATM   16  C18 UNL     1      -4.090   3.518  10.967  1.00  0.00     0.270 A 
HETATM   17  O2  UNL     1      -4.466   6.646  12.870  1.00  0.00    -0.267 OA
HETATM   18  N2  UNL     1      -3.856   4.545  13.570  1.00  0.00    -0.299 N 
HETATM   19  C11 UNL     1      -3.587   3.180  13.301  1.00  0.00     0.188 A 
ATOM     20  H2  UNL     1      -3.762   4.890  14.526  1.00  0.00     0.171 HD
HETATM   21  S1  UNL     1      -3.137   2.182  14.508  1.00  0.00    -0.040 SA
HETATM   22  N3  UNL     1      -3.698   2.636  11.992  1.00  0.00    -0.254 N 
HETATM   23  O3  UNL     1      -4.190   3.040   9.804  1.00  0.00    -0.266 OA
BRANCH  22  24
HETATM   24  C12 UNL     1      -3.425   1.256  11.746  1.00  0.00     0.045 A 
HETATM   25  C13 UNL     1      -2.189   0.825  11.294  1.00  0.00     0.030 A 
HETATM   26  C14 UNL     1      -1.927  -0.510  11.055  1.00  0.00     0.002 A 
HETATM   27  C15 UNL     1      -2.894  -1.471  11.260  1.00  0.00     0.000 A 
HETATM   28  C16 UNL     1      -4.131  -1.052  11.712  1.00  0.00     0.002 A 
HETATM   29  C17 UNL     1      -4.387   0.290  11.950  1.00  0.00     0.030 A 
ENDBRANCH  22  24
ENDBRANCH  10  13
ENDBRANCH   5   7
TORSDOF 3
ENDMDL
MODEL 4
REMARK VINA RESULT: -7.237702317      5.772      8.500
REMARK  3 active torsions:
REMARK  status: ('A' for Active; 'I' for Inactive)
REMARK       I    between atoms: C3_3  and  N1_5 
REMARK    1  A    between atoms: N1_5  and  C4_7 
REMARK    2  A    between atoms: C7_10  and  C8_11 
REMARK    3  A    between atoms: N3_19  and  C12_20 
ROOT
HETATM    1  C1  UNL     1      -6.733  14.744  10.179  1.00  0.00     0.022 C 
HETATM    2  C2  UNL     1      -6.227  13.649  10.285  1.00  0.00    -0.016 C 
HETATM    3  C3  UNL     1      -5.599  12.346  10.407  1.00  0.00     0.300 C 
HETATM    4  O1  UNL     1      -4.462  12.261  10.915  1.00  0.00    -0.258 OA
HETATM    5  N1  UNL     1      -6.295  11.231   9.949  1.00  0.00    -0.316 N 
ATOM      6  H1  UNL     1      -7.216  11.419   9.555  1.00  0.00     0.170 HD
ENDROOT
BRANCH   5   7
HETATM    7  C4  UNL     1      -5.903   9.878   9.955  1.00  0.00     0.035 A 
HETATM    8  C5  UNL     1      -6.800   8.882  10.374  1.00  0.00     0.030 A 
HETATM    9  C6  UNL     1      -6.475   7.556  10.396  1.00  0.00     0.013 A 
HETATM   10  C7  UNL     1      -5.244   7.118  10.008  1.00  0.00    -0.035 A 
HETATM   11  C19 UNL     1      -4.331   8.066   9.588  1.00  0.00     0.013 A 
HETATM   12  C20 UNL     1      -4.673   9.410   9.569  1.00  0.00     0.030 A 
BRANCH  10  13
HETATM   13  C8  UNL     1      -4.855   5.726  10.035  1.00  0.00     0.034 C 
HETATM   14  C9  UNL     1      -4.414   5.047  11.064  1.00  0.00     0.101 A 
HETATM   15  C10 UNL     1      -4.223   5.586  12.393  1.00  0.00     0.263 A 
HETATM   16  C18 UNL     1      -4.122   3.598  10.885  1.00  0.00     0.270 A 
HETATM   17  O2  UNL     1      -4.423   6.792  12.690  1.00  0.00    -0.267 OA
HETATM   18  N2  UNL     1      -3.777   4.718  13.438  1.00  0.00    -0.299 N 
HETATM   19  C11 UNL     1      -3.516   3.345  13.205  1.00  0.00     0.188 A 
ATOM     20  H2  UNL     1      -3.642   5.098  14.375  1.00  0.00     0.171 HD
HETATM   21  S1  UNL     1      -3.011   2.392  14.426  1.00  0.00    -0.040 SA
HETATM   22  N3  UNL     1      -3.683   2.755  11.923  1.00  0.00    -0.254 N 
HETATM   23  O3  UNL     1      -4.273   3.080   9.745  1.00  0.00    -0.266 OA
BRANCH  22  24
HETATM   24  C12 UNL     1      -3.418   1.367  11.715  1.00  0.00     0.045 A 
HETATM   25  C13 UNL     1      -4.385   0.398  11.924  1.00  0.00     0.030 A 
HETATM   26  C14 UNL     1      -4.126  -0.944  11.723  1.00  0.00     0.002 A 
HETATM   27  C15 UNL     1      -2.885  -1.372  11.303  1.00  0.00     0.000 A 
HETATM   28  C16 UNL     1      -1.911  -0.414  11.092  1.00  0.00     0.002 A 
HETATM   29  C17 UNL     1      -2.178   0.932  11.295  1.00  0.00     0.030 A 
ENDBRANCH  22  24
ENDBRANCH  10  13
ENDBRANCH   5   7
TORSDOF 3
ENDMDL
MODEL 5
REMARK VINA RESULT: -7.125776649      5.233      7.157
REMARK  3 active torsions:
REMARK  status: ('A' for Active; 'I' for Inactive)
REMARK       I    between atoms: C3_3  and  N1_5 
REMARK    1  A    between atoms: N1_5  and  C4_7 
REMARK    2  A    between atoms: C7_10  and  C8_11 
REMARK    3  A    between atoms: N3_19  and  C12_20 
ROOT
HETATM    1  C1  UNL     1       1.375  14.870  15.563  1.00  0.00     0.022 C 
HETATM    2  C2  UNL     1       1.237  13.752  15.118  1.00  0.00    -0.016 C 
HETATM    3  C3  UNL     1       1.085  12.419  14.564  1.00  0.00     0.300 C 
HETATM    4  O1  UNL     1       2.022  11.918  13.910  1.00  0.00    -0.258 OA
HETATM    5  N1  UNL     1      -0.111  11.742  14.787  1.00  0.00    -0.316 N 
ATOM      6  H1  UNL     1      -0.805  12.248  15.337  1.00  0.00     0.170 HD
ENDROOT
BRANCH   5   7
HETATM    7  C4  UNL     1      -0.496  10.457  14.358  1.00  0.00     0.035 A 
HETATM    8  C5  UNL     1      -0.040   9.317  15.039  1.00  0.00     0.030 A 
HETATM    9  C6  UNL     1      -0.385   8.049  14.670  1.00  0.00     0.013 A 
HETATM   10  C7  UNL     1      -1.201   7.813  13.604  1.00  0.00    -0.035 A 
HETATM   11  C19 UNL     1      -1.672   8.909  12.907  1.00  0.00     0.013 A 
HETATM   12  C20 UNL     1      -1.316  10.193  13.292  1.00  0.00     0.030 A 
BRANCH  10  13
HETATM   13  C8  UNL     1      -1.573   6.486  13.170  1.00  0.00     0.034 C 
HETATM   14  C9  UNL     1      -2.591   5.774  13.584  1.00  0.00     0.101 A 
HETATM   15  C10 UNL     1      -3.547   6.197  14.584  1.00  0.00     0.263 A 
HETATM   16  C18 UNL     1      -2.826   4.443  12.960  1.00  0.00     0.270 A 
HETATM   17  O2  UNL     1      -3.471   7.292  15.200  1.00  0.00    -0.267 OA
HETATM   18  N2  UNL     1      -4.640   5.335  14.910  1.00  0.00    -0.299 N 
HETATM   19  C11 UNL     1      -4.811   4.078  14.279  1.00  0.00     0.188 A 
ATOM     20  H2  UNL     1      -5.314   5.633  15.615  1.00  0.00     0.171 HD
HETATM   21  S1  UNL     1      -6.073   3.129  14.680  1.00  0.00    -0.040 SA
HETATM   22  N3  UNL     1      -3.907   3.605  13.290  1.00  0.00    -0.254 N 
HETATM   23  O3  UNL     1      -2.021   4.028  12.082  1.00  0.00    -0.266 OA
BRANCH  22  24
HETATM   24  C12 UNL     1      -4.103   2.335  12.666  1.00  0.00     0.045 A 
HETATM   25  C13 UNL     1      -4.741   2.212  11.442  1.00  0.00     0.030 A 
HETATM   26  C14 UNL     1      -4.931   0.984  10.841  1.00  0.00     0.002 A 
HETATM   27  C15 UNL     1      -4.489  -0.176  11.440  1.00  0.00     0.000 A 
HETATM   28  C16 UNL     1      -3.850  -0.066  12.661  1.00  0.00     0.002 A 
HETATM   29  C17 UNL     1      -3.663   1.171  13.259  1.00  0.00     0.030 A 
ENDBRANCH  22  24
ENDBRANCH  10  13
ENDBRANCH   5   7
TORSDOF 3
ENDMDL
