MODEL 1
REMARK VINA RESULT: -9.250148708      0.000      0.000
REMARK  4 active torsions:
REMARK  status: ('A' for Active; 'I' for Inactive)
REMARK    1  A    between atoms: C5_9  and  C6_10 
REMARK    2  A    between atoms: C6_10  and  C7_11 
REMARK    3  A    between atoms: C14_19  and  C15_20 
REMARK       I    between atoms: C15_20  and  N4_22 
REMARK    4  A    between atoms: N4_22  and  C16_24 
ROOT
HETATM    1  C1  UNL     1      -0.723   2.346   8.925  1.00  0.00     0.070 C 
HETATM    2  C2  UNL     1      -1.409   2.269  10.218  1.00  0.00     0.040 A 
HETATM    3  N1  UNL     1      -2.247   1.233  10.520  1.00  0.00    -0.194 N 
ATOM      4  H1  UNL     1      -2.394   0.501   9.824  1.00  0.00     0.184 HD
HETATM    5  C3  UNL     1      -2.886   1.141  11.698  1.00  0.00     0.689 A 
HETATM    6  N2  UNL     1      -3.743   0.240  12.224  1.00  0.00    -0.199 N 
ATOM      7  H2  UNL     1      -4.070  -0.603  11.751  1.00  0.00     0.183 HD
HETATM    8  C4  UNL     1      -4.096   0.611  13.449  1.00  0.00     0.132 A 
HETATM    9  C5  UNL     1      -3.431   1.812  13.726  1.00  0.00     0.054 A 
HETATM   10  N3  UNL     1      -2.713   2.088  12.632  1.00  0.00    -0.159 N 
HETATM   11  C13 UNL     1      -1.903   3.107  12.366  1.00  0.00     0.134 A 
HETATM   12  C14 UNL     1      -1.223   3.240  11.157  1.00  0.00     0.072 A 
ENDROOT
BRANCH  12  13
HETATM   13  C15 UNL     1      -0.370   4.365  10.947  1.00  0.00     0.273 C 
HETATM   14  O1  UNL     1      -0.868   5.548  11.022  1.00  0.00    -0.267 OA
HETATM   15  N4  UNL     1       1.005   4.369  10.655  1.00  0.00    -0.155 N 
ATOM     16  H4  UNL     1       1.341   3.762   9.908  1.00  0.00     0.187 HD
BRANCH  15  17
HETATM   17  C16 UNL     1       1.868   5.100  11.283  1.00  0.00     0.686 A 
HETATM   18  N5  UNL     1       1.878   6.402  11.532  1.00  0.00    -0.189 N 
HETATM   19  C17 UNL     1       2.997   6.732  12.231  1.00  0.00     0.076 A 
ATOM     20  H5  UNL     1       1.153   7.059  11.242  1.00  0.00     0.184 HD
HETATM   21  C18 UNL     1       3.498   7.905  12.736  1.00  0.00     0.032 A 
HETATM   22  C22 UNL     1       3.696   5.565  12.411  1.00  0.00     0.076 A 
HETATM   23  C19 UNL     1       4.692   7.973  13.429  1.00  0.00     0.002 A 
HETATM   24  C20 UNL     1       5.361   6.777  13.586  1.00  0.00     0.002 A 
HETATM   25  C21 UNL     1       4.889   5.590  13.095  1.00  0.00     0.032 A 
HETATM   26  N6  UNL     1       2.989   4.594  11.827  1.00  0.00    -0.189 N 
ATOM     27  H6  UNL     1       3.261   3.611  11.798  1.00  0.00     0.184 HD
ENDBRANCH  15  17
ENDBRANCH  12  13
BRANCH   9  28
HETATM   28  C6  UNL     1      -3.514   2.608  14.979  1.00  0.00     0.098 C 
BRANCH  28  29
HETATM   29  C7  UNL     1      -4.699   2.182  15.764  1.00  0.00    -0.052 A 
HETATM   30  C8  UNL     1      -4.586   1.052  16.562  1.00  0.00     0.007 A 
HETATM   31  C9  UNL     1      -5.653   0.617  17.309  1.00  0.00     0.001 A 
HETATM   32  C10 UNL     1      -6.859   1.295  17.281  1.00  0.00     0.000 A 
HETATM   33  C11 UNL     1      -6.946   2.401  16.492  1.00  0.00     0.001 A 
HETATM   34  C12 UNL     1      -5.884   2.876  15.717  1.00  0.00     0.007 A 
ENDBRANCH  28  29
ENDBRANCH   9  28
TORSDOF 4
ENDMDL
MODEL 2
REMARK VINA RESULT: -9.231816190      1.546      8.726
REMARK  4 active torsions:
REMARK  status: ('A' for Active; 'I' for Inactive)
REMARK    1  A    between atoms: C5_9  and  C6_10 
REMARK    2  A    between atoms: C6_10  and  C7_11 
REMARK    3  A    between atoms: C14_19  and  C15_20 
REMARK       I    between atoms: C15_20  and  N4_22 
REMARK    4  A    between atoms: N4_22  and  C16_24 
ROOT
HETATM    1  C1  UNL     1      -2.282   1.280  11.457  1.00  0.00     0.070 C 
HETATM    2  C2  UNL     1      -1.290   2.319  11.168  1.00  0.00     0.040 A 
HETATM    3  N1  UNL     1      -0.367   2.166  10.171  1.00  0.00    -0.194 N 
ATOM      4  H1  UNL     1      -0.375   1.306   9.622  1.00  0.00     0.184 HD
HETATM    5  C3  UNL     1       0.551   3.104   9.887  1.00  0.00     0.689 A 
HETATM    6  N2  UNL     1       1.544   3.189   8.976  1.00  0.00    -0.199 N 
ATOM      7  H2  UNL     1       1.770   2.471   8.287  1.00  0.00     0.183 HD
HETATM    8  C4  UNL     1       2.182   4.346   9.107  1.00  0.00     0.132 A 
HETATM    9  C5  UNL     1       1.568   5.042  10.156  1.00  0.00     0.054 A 
HETATM   10  N3  UNL     1       0.587   4.245  10.593  1.00  0.00    -0.159 N 
HETATM   11  C13 UNL     1      -0.298   4.421  11.568  1.00  0.00     0.134 A 
HETATM   12  C14 UNL     1      -1.265   3.472  11.894  1.00  0.00     0.072 A 
ENDROOT
BRANCH  12  13
HETATM   13  C15 UNL     1      -2.182   3.736  12.956  1.00  0.00     0.273 C 
HETATM   14  O1  UNL     1      -3.209   4.475  12.725  1.00  0.00    -0.267 OA
HETATM   15  N4  UNL     1      -2.122   3.285  14.286  1.00  0.00    -0.155 N 
ATOM     16  H4  UNL     1      -1.244   3.391  14.793  1.00  0.00     0.187 HD
BRANCH  15  17
HETATM   17  C16 UNL     1      -3.121   2.741  14.903  1.00  0.00     0.686 A 
HETATM   18  N5  UNL     1      -3.232   1.560  15.494  1.00  0.00    -0.189 N 
HETATM   19  C17 UNL     1      -4.480   1.417  16.015  1.00  0.00     0.076 A 
ATOM     20  H5  UNL     1      -2.491   0.861  15.548  1.00  0.00     0.184 HD
HETATM   21  C18 UNL     1      -5.117   0.421  16.711  1.00  0.00     0.032 A 
HETATM   22  C22 UNL     1      -5.154   2.576  15.721  1.00  0.00     0.076 A 
HETATM   23  C19 UNL     1      -6.427   0.528  17.139  1.00  0.00     0.002 A 
HETATM   24  C20 UNL     1      -7.066   1.708  16.822  1.00  0.00     0.002 A 
HETATM   25  C21 UNL     1      -6.459   2.720  16.130  1.00  0.00     0.032 A 
HETATM   26  N6  UNL     1      -4.308   3.359  15.048  1.00  0.00    -0.189 N 
ATOM     27  H6  UNL     1      -4.529   4.290  14.695  1.00  0.00     0.184 HD
ENDBRANCH  15  17
ENDBRANCH  12  13
BRANCH   9  28
HETATM   28  C6  UNL     1       1.937   6.387  10.669  1.00  0.00     0.098 C 
BRANCH  28  29
HETATM   29  C7  UNL     1       3.052   6.262  11.641  1.00  0.00    -0.052 A 
HETATM   30  C8  UNL     1       3.487   7.408  12.291  1.00  0.00     0.007 A 
HETATM   31  C9  UNL     1       4.515   7.345  13.201  1.00  0.00     0.001 A 
HETATM   32  C10 UNL     1       5.135   6.142  13.486  1.00  0.00     0.000 A 
HETATM   33  C11 UNL     1       4.690   5.031  12.836  1.00  0.00     0.001 A 
HETATM   34  C12 UNL     1       3.648   5.052  11.905  1.00  0.00     0.007 A 
ENDBRANCH  28  29
ENDBRANCH   9  28
TORSDOF 4
ENDMDL
MODEL 3
REMARK VINA RESULT: -9.199504915      0.132      1.050
REMARK  4 active torsions:
REMARK  status: ('A' for Active; 'I' for Inactive)
REMARK    1  A    between atoms: C5_9  and  C6_10 
REMARK    2  A    between atoms: C6_10  and  C7_11 
REMARK    3  A    between atoms: C14_19  and  C15_20 
REMARK       I    between atoms: C15_20  and  N4_22 
REMARK    4  A    between atoms: N4_22  and  C16_24 
ROOT
HETATM    1  C1  UNL     1      -0.698   2.397   8.928  1.00  0.00     0.070 C 
HETATM    2  C2  UNL     1      -1.391   2.277  10.214  1.00  0.00     0.040 A 
HETATM    3  N1  UNL     1      -2.248   1.242  10.468  1.00  0.00    -0.194 N 
ATOM      4  H1  UNL     1      -2.403   0.543   9.742  1.00  0.00     0.184 HD
HETATM    5  C3  UNL     1      -2.894   1.112  11.639  1.00  0.00     0.689 A 
HETATM    6  N2  UNL     1      -3.768   0.203  12.123  1.00  0.00    -0.199 N 
ATOM      7  H2  UNL     1      -4.106  -0.613  11.614  1.00  0.00     0.183 HD
HETATM    8  C4  UNL     1      -4.121   0.529  13.361  1.00  0.00     0.132 A 
HETATM    9  C5  UNL     1      -3.439   1.706  13.691  1.00  0.00     0.054 A 
HETATM   10  N3  UNL     1      -2.710   2.016  12.613  1.00  0.00    -0.159 N 
HETATM   11  C13 UNL     1      -1.883   3.032  12.394  1.00  0.00     0.134 A 
HETATM   12  C14 UNL     1      -1.195   3.204  11.194  1.00  0.00     0.072 A 
ENDROOT
BRANCH  12  13
HETATM   13  C15 UNL     1      -0.323   4.323  11.035  1.00  0.00     0.273 C 
HETATM   14  O1  UNL     1      -0.780   5.506  11.250  1.00  0.00    -0.267 OA
HETATM   15  N4  UNL     1       1.031   4.321  10.658  1.00  0.00    -0.155 N 
ATOM     16  H4  UNL     1       1.303   3.779   9.838  1.00  0.00     0.187 HD
BRANCH  15  17
HETATM   17  C16 UNL     1       1.952   4.969  11.295  1.00  0.00     0.686 A 
HETATM   18  N5  UNL     1       3.068   4.543  11.869  1.00  0.00    -0.189 N 
HETATM   19  C17 UNL     1       3.734   5.590  12.424  1.00  0.00     0.076 A 
ATOM     20  H5  UNL     1       3.380   3.572  11.892  1.00  0.00     0.184 HD
HETATM   21  C18 UNL     1       4.909   5.716  13.121  1.00  0.00     0.032 A 
HETATM   22  C22 UNL     1       2.977   6.707  12.168  1.00  0.00     0.076 A 
HETATM   23  C19 UNL     1       5.377   6.930  13.588  1.00  0.00     0.002 A 
HETATM   24  C20 UNL     1       4.585   8.024  13.309  1.00  0.00     0.002 A 
HETATM   25  C21 UNL     1       3.409   7.933  12.615  1.00  0.00     0.032 A 
HETATM   26  N6  UNL     1       1.905   6.300  11.483  1.00  0.00    -0.189 N 
ATOM     27  H6  UNL     1       1.158   6.912  11.151  1.00  0.00     0.184 HD
ENDBRANCH  15  17
ENDBRANCH  12  13
BRANCH   9  28
HETATM   28  C6  UNL     1      -3.515   2.450  14.975  1.00  0.00     0.098 C 
BRANCH  28  29
HETATM   29  C7  UNL     1      -4.728   2.034  15.723  1.00  0.00    -0.052 A 
HETATM   30  C8  UNL     1      -4.661   0.881  16.492  1.00  0.00     0.007 A 
HETATM   31  C9  UNL     1      -5.756   0.454  17.204  1.00  0.00     0.001 A 
HETATM   32  C10 UNL     1      -6.943   1.162  17.168  1.00  0.00     0.000 A 
HETATM   33  C11 UNL     1      -6.985   2.291  16.407  1.00  0.00     0.001 A 
HETATM   34  C12 UNL     1      -5.894   2.759  15.668  1.00  0.00     0.007 A 
ENDBRANCH  28  29
ENDBRANCH   9  28
TORSDOF 4
ENDMDL
MODEL 4
REMARK VINA RESULT: -8.983098498      4.535      8.309
REMARK  4 active torsions:
REMARK  status: ('A' for Active; 'I' for Inactive)
REMARK    1  A    between atoms: C5_9  and  C6_10 
REMARK    2  A    between atoms: C6_10  and  C7_11 
REMARK    3  A    between atoms: C14_19  and  C15_20 
REMARK       I    between atoms: C15_20  and  N4_22 
REMARK    4  A    between atoms: N4_22  and  C16_24 
ROOT
HETATM    1  C1  UNL     1      -0.864   2.162   9.850  1.00  0.00     0.070 C 
HETATM    2  C2  UNL     1      -1.744   3.333   9.797  1.00  0.00     0.040 A 
HETATM    3  N1  UNL     1      -1.804   4.130   8.689  1.00  0.00    -0.194 N 
ATOM      4  H1  UNL     1      -1.221   3.897   7.884  1.00  0.00     0.184 HD
HETATM    5  C3  UNL     1      -2.603   5.207   8.617  1.00  0.00     0.689 A 
HETATM    6  N2  UNL     1      -2.838   6.130   7.659  1.00  0.00    -0.199 N 
ATOM      7  H2  UNL     1      -2.393   6.147   6.741  1.00  0.00     0.183 HD
HETATM    8  C4  UNL     1      -3.734   7.011   8.088  1.00  0.00     0.132 A 
HETATM    9  C5  UNL     1      -4.095   6.636   9.387  1.00  0.00     0.054 A 
HETATM   10  N3  UNL     1      -3.381   5.538   9.659  1.00  0.00    -0.159 N 
HETATM   11  C13 UNL     1      -3.343   4.782  10.751  1.00  0.00     0.134 A 
HETATM   12  C14 UNL     1      -2.528   3.657  10.865  1.00  0.00     0.072 A 
ENDROOT
BRANCH  12  13
HETATM   13  C15 UNL     1      -2.544   2.895  12.071  1.00  0.00     0.273 C 
HETATM   14  O1  UNL     1      -1.696   3.175  12.997  1.00  0.00    -0.267 OA
HETATM   15  N4  UNL     1      -3.392   1.828  12.413  1.00  0.00    -0.155 N 
ATOM     16  H4  UNL     1      -3.516   1.074  11.738  1.00  0.00     0.187 HD
BRANCH  15  17
HETATM   17  C16 UNL     1      -4.026   1.749  13.538  1.00  0.00     0.686 A 
HETATM   18  N5  UNL     1      -4.083   0.771  14.431  1.00  0.00    -0.189 N 
HETATM   19  C17 UNL     1      -4.881   1.137  15.470  1.00  0.00     0.076 A 
ATOM     20  H5  UNL     1      -3.600  -0.123  14.351  1.00  0.00     0.184 HD
HETATM   21  C18 UNL     1      -5.278   0.526  16.632  1.00  0.00     0.032 A 
HETATM   22  C22 UNL     1      -5.328   2.403  15.184  1.00  0.00     0.076 A 
HETATM   23  C19 UNL     1      -6.119   1.132  17.547  1.00  0.00     0.002 A 
HETATM   24  C20 UNL     1      -6.543   2.403  17.220  1.00  0.00     0.002 A 
HETATM   25  C21 UNL     1      -6.166   3.040  16.070  1.00  0.00     0.032 A 
HETATM   26  N6  UNL     1      -4.794   2.748  14.010  1.00  0.00    -0.189 N 
ATOM     27  H6  UNL     1      -4.947   3.641  13.539  1.00  0.00     0.184 HD
ENDBRANCH  15  17
ENDBRANCH  12  13
BRANCH   9  28
HETATM   28  C6  UNL     1      -5.071   7.322  10.274  1.00  0.00     0.098 C 
BRANCH  28  29
HETATM   29  C7  UNL     1      -6.260   7.733   9.485  1.00  0.00    -0.052 A 
HETATM   30  C8  UNL     1      -7.161   6.753   9.096  1.00  0.00     0.007 A 
HETATM   31  C9  UNL     1      -8.277   7.083   8.366  1.00  0.00     0.001 A 
HETATM   32  C10 UNL     1      -8.524   8.395   8.005  1.00  0.00     0.000 A 
HETATM   33  C11 UNL     1      -7.626   9.340   8.398  1.00  0.00     0.001 A 
HETATM   34  C12 UNL     1      -6.479   9.046   9.142  1.00  0.00     0.007 A 
ENDBRANCH  28  29
ENDBRANCH   9  28
TORSDOF 4
ENDMDL
MODEL 5
REMARK VINA RESULT: -8.977456172      3.777      7.871
REMARK  4 active torsions:
REMARK  status: ('A' for Active; 'I' for Inactive)
REMARK    1  A    between atoms: C5_9  and  C6_10 
REMARK    2  A    between atoms: C6_10  and  C7_11 
REMARK    3  A    between atoms: C14_19  and  C15_20 
REMARK       I    between atoms: C15_20  and  N4_22 
REMARK    4  A    between atoms: N4_22  and  C16_24 
ROOT
HETATM    1  C1  UNL     1      -1.132   1.591  10.232  1.00  0.00     0.070 C 
HETATM    2  C2  UNL     1      -1.517   3.004  10.168  1.00  0.00     0.040 A 
HETATM    3  N1  UNL     1      -1.446   3.710   9.000  1.00  0.00    -0.194 N 
ATOM      4  H1  UNL     1      -1.117   3.235   8.159  1.00  0.00     0.184 HD
HETATM    5  C3  UNL     1      -1.793   5.004   8.917  1.00  0.00     0.689 A 
HETATM    6  N2  UNL     1      -1.814   5.900   7.906  1.00  0.00    -0.199 N 
ATOM      7  H2  UNL     1      -1.537   5.703   6.944  1.00  0.00     0.183 HD
HETATM    8  C4  UNL     1      -2.248   7.074   8.349  1.00  0.00     0.132 A 
HETATM    9  C5  UNL     1      -2.522   6.927   9.714  1.00  0.00     0.054 A 
HETATM   10  N3  UNL     1      -2.229   5.655  10.006  1.00  0.00    -0.159 N 
HETATM   11  C13 UNL     1      -2.308   4.994  11.156  1.00  0.00     0.134 A 
HETATM   12  C14 UNL     1      -1.957   3.651  11.284  1.00  0.00     0.072 A 
ENDROOT
BRANCH  12  13
HETATM   13  C15 UNL     1      -2.070   3.011  12.555  1.00  0.00     0.273 C 
HETATM   14  O1  UNL     1      -1.351   3.435  13.534  1.00  0.00    -0.267 OA
HETATM   15  N4  UNL     1      -2.894   1.929  12.912  1.00  0.00    -0.155 N 
ATOM     16  H4  UNL     1      -2.898   1.107  12.309  1.00  0.00     0.187 HD
BRANCH  15  17
HETATM   17  C16 UNL     1      -3.648   1.920  13.963  1.00  0.00     0.686 A 
HETATM   18  N5  UNL     1      -3.716   1.059  14.968  1.00  0.00    -0.189 N 
HETATM   19  C17 UNL     1      -4.665   1.458  15.857  1.00  0.00     0.076 A 
ATOM     20  H5  UNL     1      -3.143   0.221  15.061  1.00  0.00     0.184 HD
HETATM   21  C18 UNL     1      -5.138   0.955  17.042  1.00  0.00     0.032 A 
HETATM   22  C22 UNL     1      -5.194   2.622  15.358  1.00  0.00     0.076 A 
HETATM   23  C19 UNL     1      -6.137   1.570  17.772  1.00  0.00     0.002 A 
HETATM   24  C20 UNL     1      -6.640   2.736  17.234  1.00  0.00     0.002 A 
HETATM   25  C21 UNL     1      -6.190   3.265  16.054  1.00  0.00     0.032 A 
HETATM   26  N6  UNL     1      -4.560   2.877  14.211  1.00  0.00    -0.189 N 
ATOM     27  H6  UNL     1      -4.740   3.682  13.610  1.00  0.00     0.184 HD
ENDBRANCH  15  17
ENDBRANCH  12  13
BRANCH   9  28
HETATM   28  C6  UNL     1      -3.033   7.973  10.638  1.00  0.00     0.098 C 
BRANCH  28  29
HETATM   29  C7  UNL     1      -4.512   8.046  10.542  1.00  0.00    -0.052 A 
HETATM   30  C8  UNL     1      -5.261   7.091  11.215  1.00  0.00     0.007 A 
HETATM   31  C9  UNL     1      -6.634   7.116  11.158  1.00  0.00     0.001 A 
HETATM   32  C10 UNL     1      -7.295   8.090  10.432  1.00  0.00     0.000 A 
HETATM   33  C11 UNL     1      -6.538   9.016   9.780  1.00  0.00     0.001 A 
HETATM   34  C12 UNL     1      -5.141   9.026   9.812  1.00  0.00     0.007 A 
ENDBRANCH  28  29
ENDBRANCH   9  28
TORSDOF 4
ENDMDL
