MODEL 1
REMARK VINA RESULT: -8.939338633      0.000      0.000
REMARK  5 active torsions:
REMARK  status: ('A' for Active; 'I' for Inactive)
REMARK    1  A    between atoms: C5_5  and  C6_6 
REMARK    2  A    between atoms: C9_11  and  N2_12 
REMARK    3  A    between atoms: N2_12  and  C10_14 
REMARK    4  A    between atoms: C14_20  and  C15_21 
REMARK       I    between atoms: C15_21  and  N4_23 
REMARK    5  A    between atoms: N4_23  and  C16_25 
ROOT
HETATM    1  C10 UNL     1      -3.029   1.559  13.184  1.00  0.00     0.081 A 
HETATM    2  C11 UNL     1      -2.742   1.521  11.842  1.00  0.00     0.034 A 
HETATM    3  C12 UNL     1      -3.272   0.478  11.110  1.00  0.00     0.019 A 
HETATM    4  C13 UNL     1      -4.057  -0.481  11.716  1.00  0.00     0.088 A 
HETATM    5  N3  UNL     1      -4.307  -0.396  13.039  1.00  0.00    -0.360 N 
ATOM      6  H3  UNL     1      -4.888  -1.111  13.477  1.00  0.00     0.165 HD
HETATM    7  C14 UNL     1      -3.821   0.591  13.793  1.00  0.00     0.128 A 
ENDROOT
BRANCH   1   8
HETATM    8  N2  UNL     1      -2.537   2.596  14.012  1.00  0.00    -0.189 N 
ATOM      9  H2  UNL     1      -2.521   2.479  15.025  1.00  0.00     0.184 HD
BRANCH   8  10
HETATM   10  C9  UNL     1      -2.113   3.679  13.484  1.00  0.00     0.683 A 
HETATM   11  N1  UNL     1      -0.801   4.005  13.488  1.00  0.00    -0.202 N 
HETATM   12  C8  UNL     1      -0.389   5.151  12.926  1.00  0.00     0.108 A 
ATOM     13  H1  UNL     1      -0.123   3.378  13.920  1.00  0.00     0.183 HD
HETATM   14  C7  UNL     1      -1.287   6.038  12.322  1.00  0.00     0.048 A 
HETATM   15  C6  UNL     1      -2.638   5.698  12.319  1.00  0.00     0.060 A 
HETATM   16  N6  UNL     1      -2.958   4.530  12.907  1.00  0.00    -0.191 N 
ATOM     17  H6  UNL     1      -3.945   4.272  12.911  1.00  0.00     0.184 HD
BRANCH  15  18
HETATM   18  C5  UNL     1      -3.637   6.561  11.713  1.00  0.00    -0.009 A 
HETATM   19  C4  UNL     1      -3.322   7.728  11.072  1.00  0.00     0.014 A 
HETATM   20  C3  UNL     1      -4.292   8.542  10.495  1.00  0.00     0.007 A 
HETATM   21  C2  UNL     1      -5.606   8.138  10.589  1.00  0.00    -0.062 A 
HETATM   22  C1  UNL     1      -6.651   9.007   9.971  1.00  0.00     0.048 C 
HETATM   23  C22 UNL     1      -5.968   6.975  11.224  1.00  0.00     0.007 A 
HETATM   24  C21 UNL     1      -4.959   6.191  11.786  1.00  0.00     0.014 A 
ENDBRANCH  15  18
ENDBRANCH   8  10
ENDBRANCH   1   8
BRANCH   7  25
HETATM   25  C15 UNL     1      -4.110   0.655  15.217  1.00  0.00     0.275 C 
HETATM   26  O1  UNL     1      -3.243   0.405  16.080  1.00  0.00    -0.266 OA
HETATM   27  N4  UNL     1      -5.415   1.011  15.664  1.00  0.00    -0.322 N 
ATOM     28  H4  UNL     1      -6.034   0.264  15.975  1.00  0.00     0.169 HD
BRANCH  27  29
HETATM   29  C16 UNL     1      -5.854   2.202  15.697  1.00  0.00     0.037 A 
HETATM   30  C17 UNL     1      -6.339   2.724  16.865  1.00  0.00     0.046 A 
HETATM   31  C18 UNL     1      -6.822   4.036  16.881  1.00  0.00     0.090 A 
HETATM   32  N5  UNL     1      -6.801   4.760  15.751  1.00  0.00    -0.375 N 
HETATM   33  C19 UNL     1      -6.329   4.285  14.572  1.00  0.00     0.090 A 
ATOM     34  H5  UNL     1      -7.157   5.715  15.781  1.00  0.00     0.164 HD
HETATM   35  C20 UNL     1      -5.852   2.977  14.570  1.00  0.00     0.046 A 
ENDBRANCH  27  29
ENDBRANCH   7  25
TORSDOF 5
ENDMDL
MODEL 2
REMARK VINA RESULT: -8.901168447      2.544      5.610
REMARK  5 active torsions:
REMARK  status: ('A' for Active; 'I' for Inactive)
REMARK    1  A    between atoms: C5_5  and  C6_6 
REMARK    2  A    between atoms: C9_11  and  N2_12 
REMARK    3  A    between atoms: N2_12  and  C10_14 
REMARK    4  A    between atoms: C14_20  and  C15_21 
REMARK       I    between atoms: C15_21  and  N4_23 
REMARK    5  A    between atoms: N4_23  and  C16_25 
ROOT
HETATM    1  C10 UNL     1      -3.463   1.752  10.809  1.00  0.00     0.081 A 
HETATM    2  C11 UNL     1      -4.488   0.907  11.153  1.00  0.00     0.034 A 
HETATM    3  C12 UNL     1      -4.153  -0.384  11.506  1.00  0.00     0.019 A 
HETATM    4  C13 UNL     1      -2.837  -0.796  11.509  1.00  0.00     0.088 A 
HETATM    5  N3  UNL     1      -1.868   0.076  11.162  1.00  0.00    -0.360 N 
ATOM      6  H3  UNL     1      -0.898  -0.239  11.167  1.00  0.00     0.165 HD
HETATM    7  C14 UNL     1      -2.135   1.334  10.813  1.00  0.00     0.128 A 
ENDROOT
BRANCH   1   8
HETATM    8  N2  UNL     1      -3.709   3.096  10.441  1.00  0.00    -0.189 N 
ATOM      9  H2  UNL     1      -3.475   3.422   9.504  1.00  0.00     0.184 HD
BRANCH   8  10
HETATM   10  C9  UNL     1      -4.227   3.899  11.290  1.00  0.00     0.683 A 
HETATM   11  N1  UNL     1      -4.471   5.193  10.985  1.00  0.00    -0.202 N 
HETATM   12  C8  UNL     1      -5.015   6.009  11.899  1.00  0.00     0.108 A 
ATOM     13  H1  UNL     1      -4.242   5.549  10.058  1.00  0.00     0.183 HD
HETATM   14  C7  UNL     1      -5.346   5.560  13.183  1.00  0.00     0.048 A 
HETATM   15  C6  UNL     1      -5.092   4.225  13.492  1.00  0.00     0.060 A 
HETATM   16  N6  UNL     1      -4.544   3.482  12.512  1.00  0.00    -0.191 N 
ATOM     17  H6  UNL     1      -4.355   2.503  12.728  1.00  0.00     0.184 HD
BRANCH  15  18
HETATM   18  C5  UNL     1      -5.406   3.677  14.800  1.00  0.00    -0.009 A 
HETATM   19  C4  UNL     1      -6.396   4.179  15.600  1.00  0.00     0.014 A 
HETATM   20  C3  UNL     1      -6.684   3.639  16.850  1.00  0.00     0.007 A 
HETATM   21  C2  UNL     1      -5.931   2.565  17.273  1.00  0.00    -0.062 A 
HETATM   22  C1  UNL     1      -6.236   1.981  18.613  1.00  0.00     0.048 C 
HETATM   23  C22 UNL     1      -4.927   2.029  16.504  1.00  0.00     0.007 A 
HETATM   24  C21 UNL     1      -4.676   2.604  15.257  1.00  0.00     0.014 A 
ENDBRANCH  15  18
ENDBRANCH   8  10
ENDBRANCH   1   8
BRANCH   7  25
HETATM   25  C15 UNL     1      -1.067   2.251  10.444  1.00  0.00     0.275 C 
HETATM   26  O1  UNL     1      -0.770   2.476   9.252  1.00  0.00    -0.266 OA
HETATM   27  N4  UNL     1      -0.324   2.923  11.456  1.00  0.00    -0.322 N 
ATOM     28  H4  UNL     1       0.602   2.564  11.688  1.00  0.00     0.169 HD
BRANCH  27  29
HETATM   29  C16 UNL     1      -0.743   3.941  12.089  1.00  0.00     0.037 A 
HETATM   30  C17 UNL     1      -1.172   3.820  13.382  1.00  0.00     0.046 A 
HETATM   31  C18 UNL     1      -1.632   4.951  14.060  1.00  0.00     0.090 A 
HETATM   32  N5  UNL     1      -1.645   6.137  13.432  1.00  0.00    -0.375 N 
HETATM   33  C19 UNL     1      -1.229   6.305  12.152  1.00  0.00     0.090 A 
ATOM     34  H5  UNL     1      -1.985   6.952  13.942  1.00  0.00     0.164 HD
HETATM   35  C20 UNL     1      -0.774   5.169  11.488  1.00  0.00     0.046 A 
ENDBRANCH  27  29
ENDBRANCH   7  25
TORSDOF 5
ENDMDL
MODEL 3
REMARK VINA RESULT: -8.816414878      2.749      5.866
REMARK  5 active torsions:
REMARK  status: ('A' for Active; 'I' for Inactive)
REMARK    1  A    between atoms: C5_5  and  C6_6 
REMARK    2  A    between atoms: C9_11  and  N2_12 
REMARK    3  A    between atoms: N2_12  and  C10_14 
REMARK    4  A    between atoms: C14_20  and  C15_21 
REMARK       I    between atoms: C15_21  and  N4_23 
REMARK    5  A    between atoms: N4_23  and  C16_25 
ROOT
HETATM    1  C10 UNL     1      -1.135   4.862  10.714  1.00  0.00     0.081 A 
HETATM    2  C11 UNL     1      -1.617   5.941  10.016  1.00  0.00     0.034 A 
HETATM    3  C12 UNL     1      -1.900   5.755   8.678  1.00  0.00     0.019 A 
HETATM    4  C13 UNL     1      -1.702   4.528   8.079  1.00  0.00     0.088 A 
HETATM    5  N3  UNL     1      -1.226   3.501   8.812  1.00  0.00    -0.360 N 
ATOM      6  H3  UNL     1      -1.082   2.598   8.359  1.00  0.00     0.165 HD
HETATM    7  C14 UNL     1      -0.937   3.625  10.107  1.00  0.00     0.128 A 
ENDROOT
BRANCH   1   8
HETATM    8  N2  UNL     1      -0.826   4.956  12.091  1.00  0.00    -0.189 N 
ATOM      9  H2  UNL     1       0.098   4.688  12.429  1.00  0.00     0.184 HD
BRANCH   8  10
HETATM   10  C9  UNL     1      -1.710   5.379  12.910  1.00  0.00     0.683 A 
HETATM   11  N1  UNL     1      -1.854   6.694  13.184  1.00  0.00    -0.202 N 
HETATM   12  C8  UNL     1      -2.792   7.105  14.049  1.00  0.00     0.108 A 
ATOM     13  H1  UNL     1      -1.248   7.377  12.730  1.00  0.00     0.183 HD
HETATM   14  C7  UNL     1      -3.646   6.201  14.692  1.00  0.00     0.048 A 
HETATM   15  C6  UNL     1      -3.494   4.845  14.407  1.00  0.00     0.060 A 
HETATM   16  N6  UNL     1      -2.526   4.528  13.527  1.00  0.00    -0.191 N 
ATOM     17  H6  UNL     1      -2.407   3.538  13.312  1.00  0.00     0.184 HD
BRANCH  15  18
HETATM   18  C5  UNL     1      -4.338   3.841  15.029  1.00  0.00    -0.009 A 
HETATM   19  C4  UNL     1      -5.683   4.012  15.220  1.00  0.00     0.014 A 
HETATM   20  C3  UNL     1      -6.477   3.037  15.816  1.00  0.00     0.007 A 
HETATM   21  C2  UNL     1      -5.864   1.871  16.221  1.00  0.00    -0.062 A 
HETATM   22  C1  UNL     1      -6.711   0.821  16.861  1.00  0.00     0.048 C 
HETATM   23  C22 UNL     1      -4.518   1.657  16.051  1.00  0.00     0.007 A 
HETATM   24  C21 UNL     1      -3.763   2.663  15.447  1.00  0.00     0.014 A 
ENDBRANCH  15  18
ENDBRANCH   8  10
ENDBRANCH   1   8
BRANCH   7  25
HETATM   25  C15 UNL     1      -0.426   2.497  10.871  1.00  0.00     0.275 C 
HETATM   26  O1  UNL     1       0.466   2.633  11.734  1.00  0.00    -0.266 OA
HETATM   27  N4  UNL     1      -0.943   1.190  10.644  1.00  0.00    -0.322 N 
ATOM     28  H4  UNL     1      -0.389   0.548  10.077  1.00  0.00     0.169 HD
BRANCH  27  29
HETATM   29  C16 UNL     1      -2.052   0.774  11.102  1.00  0.00     0.037 A 
HETATM   30  C17 UNL     1      -2.374  -0.553  11.028  1.00  0.00     0.046 A 
HETATM   31  C18 UNL     1      -3.600  -0.990  11.535  1.00  0.00     0.090 A 
HETATM   32  N5  UNL     1      -4.441  -0.101  12.086  1.00  0.00    -0.375 N 
HETATM   33  C19 UNL     1      -4.164   1.223  12.182  1.00  0.00     0.090 A 
ATOM     34  H5  UNL     1      -5.332  -0.438  12.451  1.00  0.00     0.164 HD
HETATM   35  C20 UNL     1      -2.939   1.645  11.673  1.00  0.00     0.046 A 
ENDBRANCH  27  29
ENDBRANCH   7  25
TORSDOF 5
ENDMDL
MODEL 4
REMARK VINA RESULT: -8.650775867      1.598      2.200
REMARK  5 active torsions:
REMARK  status: ('A' for Active; 'I' for Inactive)
REMARK    1  A    between atoms: C5_5  and  C6_6 
REMARK    2  A    between atoms: C9_11  and  N2_12 
REMARK    3  A    between atoms: N2_12  and  C10_14 
REMARK    4  A    between atoms: C14_20  and  C15_21 
REMARK       I    between atoms: C15_21  and  N4_23 
REMARK    5  A    between atoms: N4_23  and  C16_25 
ROOT
HETATM    1  C10 UNL     1      -4.470   1.948  12.179  1.00  0.00     0.081 A 
HETATM    2  C11 UNL     1      -4.942   1.531  10.959  1.00  0.00     0.034 A 
HETATM    3  C12 UNL     1      -4.772   0.200  10.636  1.00  0.00     0.019 A 
HETATM    4  C13 UNL     1      -4.152  -0.665  11.512  1.00  0.00     0.088 A 
HETATM    5  N3  UNL     1      -3.706  -0.202  12.698  1.00  0.00    -0.360 N 
ATOM      6  H3  UNL     1      -3.248  -0.850  13.339  1.00  0.00     0.165 HD
HETATM    7  C14 UNL     1      -3.845   1.073  13.062  1.00  0.00     0.128 A 
ENDROOT
BRANCH   1   8
HETATM    8  N2  UNL     1      -4.607   3.292  12.600  1.00  0.00    -0.189 N 
ATOM      9  H2  UNL     1      -5.236   3.527  13.367  1.00  0.00     0.184 HD
BRANCH   8  10
HETATM   10  C9  UNL     1      -3.939   4.210  12.014  1.00  0.00     0.683 A 
HETATM   11  N1  UNL     1      -2.629   4.056  11.718  1.00  0.00    -0.202 N 
HETATM   12  C8  UNL     1      -1.956   5.039  11.103  1.00  0.00     0.108 A 
ATOM     13  H1  UNL     1      -2.151   3.189  11.963  1.00  0.00     0.183 HD
HETATM   14  C7  UNL     1      -2.575   6.243  10.748  1.00  0.00     0.048 A 
HETATM   15  C6  UNL     1      -3.926   6.398  11.055  1.00  0.00     0.060 A 
HETATM   16  N6  UNL     1      -4.517   5.358  11.673  1.00  0.00    -0.191 N 
ATOM     17  H6  UNL     1      -5.506   5.461  11.902  1.00  0.00     0.184 HD
BRANCH  15  18
HETATM   18  C5  UNL     1      -4.645   7.614  10.721  1.00  0.00    -0.009 A 
HETATM   19  C4  UNL     1      -6.006   7.665  10.596  1.00  0.00     0.014 A 
HETATM   20  C3  UNL     1      -6.679   8.840  10.278  1.00  0.00     0.007 A 
HETATM   21  C2  UNL     1      -5.925   9.977  10.084  1.00  0.00    -0.062 A 
HETATM   22  C1  UNL     1      -6.641  11.242   9.742  1.00  0.00     0.048 C 
HETATM   23  C22 UNL     1      -4.556   9.973  10.198  1.00  0.00     0.007 A 
HETATM   24  C21 UNL     1      -3.927   8.770  10.521  1.00  0.00     0.014 A 
ENDBRANCH  15  18
ENDBRANCH   8  10
ENDBRANCH   1   8
BRANCH   7  25
HETATM   25  C15 UNL     1      -3.354   1.541  14.349  1.00  0.00     0.275 C 
HETATM   26  O1  UNL     1      -2.441   2.387  14.441  1.00  0.00    -0.266 OA
HETATM   27  N4  UNL     1      -3.918   1.033  15.554  1.00  0.00    -0.322 N 
ATOM     28  H4  UNL     1      -3.397   0.319  16.062  1.00  0.00     0.169 HD
BRANCH  27  29
HETATM   29  C16 UNL     1      -5.030   1.414  16.035  1.00  0.00     0.037 A 
HETATM   30  C17 UNL     1      -5.887   0.505  16.591  1.00  0.00     0.046 A 
HETATM   31  C18 UNL     1      -7.107   0.944  17.113  1.00  0.00     0.090 A 
HETATM   32  N5  UNL     1      -7.417   2.248  17.058  1.00  0.00    -0.375 N 
HETATM   33  C19 UNL     1      -6.599   3.185  16.517  1.00  0.00     0.090 A 
ATOM     34  H5  UNL     1      -8.312   2.550  17.443  1.00  0.00     0.164 HD
HETATM   35  C20 UNL     1      -5.387   2.734  16.001  1.00  0.00     0.046 A 
ENDBRANCH  27  29
ENDBRANCH   7  25
TORSDOF 5
ENDMDL
MODEL 5
REMARK VINA RESULT: -8.616876072      1.960      3.100
REMARK  5 active torsions:
REMARK  status: ('A' for Active; 'I' for Inactive)
REMARK    1  A    between atoms: C5_5  and  C6_6 
REMARK    2  A    between atoms: C9_11  and  N2_12 
REMARK    3  A    between atoms: N2_12  and  C10_14 
REMARK    4  A    between atoms: C14_20  and  C15_21 
REMARK       I    between atoms: C15_21  and  N4_23 
REMARK    5  A    between atoms: N4_23  and  C16_25 
ROOT
HETATM    1  C10 UNL     1      -4.103   3.294  12.280  1.00  0.00     0.081 A 
HETATM    2  C11 UNL     1      -4.245   2.843  10.991  1.00  0.00     0.034 A 
HETATM    3  C12 UNL     1      -3.566   1.693  10.644  1.00  0.00     0.019 A 
HETATM    4  C13 UNL     1      -2.779   1.033  11.564  1.00  0.00     0.088 A 
HETATM    5  N3  UNL     1      -2.674   1.520  12.818  1.00  0.00    -0.360 N 
ATOM      6  H3  UNL     1      -2.089   1.024  13.491  1.00  0.00     0.165 HD
HETATM    7  C14 UNL     1      -3.309   2.626  13.207  1.00  0.00     0.128 A 
ENDROOT
BRANCH   1   8
HETATM    8  N2  UNL     1      -4.768   4.459  12.729  1.00  0.00    -0.189 N 
ATOM      9  H2  UNL     1      -5.438   4.403  13.496  1.00  0.00     0.184 HD
BRANCH   8  10
HETATM   10  C9  UNL     1      -4.524   5.581  12.170  1.00  0.00     0.683 A 
HETATM   11  N1  UNL     1      -3.360   6.237  12.372  1.00  0.00    -0.202 N 
HETATM   12  C8  UNL     1      -3.136   7.414  11.770  1.00  0.00     0.108 A 
ATOM     13  H1  UNL     1      -2.649   5.836  12.983  1.00  0.00     0.183 HD
HETATM   14  C7  UNL     1      -4.084   7.999  10.923  1.00  0.00     0.048 A 
HETATM   15  C6  UNL     1      -5.283   7.319  10.717  1.00  0.00     0.060 A 
HETATM   16  N6  UNL     1      -5.419   6.146  11.363  1.00  0.00    -0.191 N 
ATOM     17  H6  UNL     1      -6.293   5.640  11.220  1.00  0.00     0.184 HD
BRANCH  15  18
HETATM   18  C5  UNL     1      -6.320   7.854   9.853  1.00  0.00    -0.009 A 
HETATM   19  C4  UNL     1      -6.394   9.177   9.509  1.00  0.00     0.014 A 
HETATM   20  C3  UNL     1      -7.394   9.672   8.678  1.00  0.00     0.007 A 
HETATM   21  C2  UNL     1      -8.329   8.780   8.199  1.00  0.00    -0.062 A 
HETATM   22  C1  UNL     1      -9.404   9.305   7.306  1.00  0.00     0.048 C 
HETATM   23  C22 UNL     1      -8.294   7.444   8.519  1.00  0.00     0.007 A 
HETATM   24  C21 UNL     1      -7.271   6.995   9.355  1.00  0.00     0.014 A 
ENDBRANCH  15  18
ENDBRANCH   8  10
ENDBRANCH   1   8
BRANCH   7  25
HETATM   25  C15 UNL     1      -3.175   3.124  14.568  1.00  0.00     0.275 C 
HETATM   26  O1  UNL     1      -2.836   4.301  14.810  1.00  0.00    -0.266 OA
HETATM   27  N4  UNL     1      -3.435   2.263  15.671  1.00  0.00    -0.322 N 
ATOM     28  H4  UNL     1      -2.637   1.861  16.163  1.00  0.00     0.169 HD
BRANCH  27  29
HETATM   29  C16 UNL     1      -4.598   1.962  16.080  1.00  0.00     0.037 A 
HETATM   30  C17 UNL     1      -4.842   0.728  16.617  1.00  0.00     0.046 A 
HETATM   31  C18 UNL     1      -6.130   0.415  17.060  1.00  0.00     0.090 A 
HETATM   32  N5  UNL     1      -7.106   1.331  16.951  1.00  0.00    -0.375 N 
HETATM   33  C19 UNL     1      -6.911   2.566  16.426  1.00  0.00     0.090 A 
ATOM     34  H5  UNL     1      -8.040   1.085  17.278  1.00  0.00     0.164 HD
HETATM   35  C20 UNL     1      -5.623   2.864  15.989  1.00  0.00     0.046 A 
ENDBRANCH  27  29
ENDBRANCH   7  25
TORSDOF 5
ENDMDL
