MODEL 1
REMARK VINA RESULT: -8.535126653      0.000      0.000
REMARK  6 active torsions:
REMARK  status: ('A' for Active; 'I' for Inactive)
REMARK    1  A    between atoms: C2_2  and  C3_3 
REMARK    2  A    between atoms: C3_3  and  C4_4 
REMARK    3  A    between atoms: C5_5  and  C6_6 
REMARK    4  A    between atoms: C11_11  and  C12_12 
REMARK    5  A    between atoms: C15_17  and  N2_18 
REMARK    6  A    between atoms: N2_18  and  C16_20 
ROOT
HETATM    1  C12 UNL     1      -1.162   5.199  10.749  1.00  0.00     0.062 A 
HETATM    2  C13 UNL     1      -2.176   5.551   9.914  1.00  0.00     0.048 A 
HETATM    3  C14 UNL     1      -3.480   5.851  10.360  1.00  0.00     0.108 A 
HETATM    4  N1  UNL     1      -3.715   5.780  11.678  1.00  0.00    -0.202 N 
ATOM      5  H1  UNL     1      -4.646   5.992  12.036  1.00  0.00     0.183 HD
HETATM    6  C15 UNL     1      -2.737   5.432  12.532  1.00  0.00     0.683 A 
HETATM    7  N5  UNL     1      -1.510   5.154  12.085  1.00  0.00    -0.191 N 
ATOM      8  H5  UNL     1      -0.794   4.895  12.765  1.00  0.00     0.184 HD
ENDROOT
BRANCH   6   9
HETATM    9  N2  UNL     1      -3.024   5.379  13.791  1.00  0.00    -0.190 N 
ATOM     10  H2  UNL     1      -2.989   6.242  14.334  1.00  0.00     0.184 HD
BRANCH   9  11
HETATM   11  C16 UNL     1      -3.384   4.182  14.455  1.00  0.00     0.065 A 
HETATM   12  C17 UNL     1      -2.404   3.250  14.712  1.00  0.00     0.119 A 
HETATM   13  N3  UNL     1      -2.652   2.087  15.337  1.00  0.00    -0.349 N 
HETATM   14  C18 UNL     1      -3.927   1.814  15.733  1.00  0.00     0.118 A 
ATOM     15  H3  UNL     1      -1.900   1.421  15.512  1.00  0.00     0.167 HD
HETATM   16  N4  UNL     1      -4.224   0.659  16.363  1.00  0.00    -0.309 N 
HETATM   17  C22 UNL     1      -4.954   2.705  15.504  1.00  0.00     0.010 A 
HETATM   18  C19 UNL     1      -5.477   0.378  16.757  1.00  0.00     0.246 A 
ATOM     19  H4  UNL     1      -3.480  -0.016  16.543  1.00  0.00     0.170 HD
HETATM   20  O1  UNL     1      -5.714  -0.704  17.340  1.00  0.00    -0.268 OA
HETATM   21  C20 UNL     1      -6.537   1.235  16.553  1.00  0.00     0.075 A 
HETATM   22  C21 UNL     1      -6.263   2.423  15.912  1.00  0.00     0.021 A 
HETATM   23  C23 UNL     1      -4.665   3.895  14.859  1.00  0.00     0.046 A 
ENDBRANCH   9  11
ENDBRANCH   6   9
BRANCH   1  24
HETATM   24  C11 UNL     1       0.173   4.799  10.360  1.00  0.00     0.010 A 
HETATM   25  C6  UNL     1       0.593   3.523  10.267  1.00  0.00     0.030 A 
HETATM   26  C7  UNL     1       1.902   3.211   9.830  1.00  0.00     0.021 A 
HETATM   27  C8  UNL     1       2.745   4.239   9.497  1.00  0.00     0.002 A 
HETATM   28  C9  UNL     1       2.365   5.561   9.572  1.00  0.00     0.001 A 
HETATM   29  C10 UNL     1       1.097   5.817   9.998  1.00  0.00     0.015 A 
BRANCH  25  30
HETATM   30  C5  UNL     1      -0.285   2.415  10.510  1.00  0.00    -0.066 C 
HETATM   31  C4  UNL     1      -1.070   1.495  10.722  1.00  0.00    -0.097 C 
BRANCH  31  32
HETATM   32  C3  UNL     1      -1.996   0.396  10.998  1.00  0.00     0.120 C 
BRANCH  32  33
HETATM   33  C2  UNL     1      -3.080   0.942  11.851  1.00  0.00    -0.025 C 
HETATM   34  C1  UNL     1      -3.958   0.134  12.423  1.00  0.00     0.008 C 
ENDBRANCH  32  33
ENDBRANCH  31  32
ENDBRANCH  25  30
ENDBRANCH   1  24
TORSDOF 6
ENDMDL
MODEL 2
REMARK VINA RESULT: -8.501689038      2.332      4.469
REMARK  6 active torsions:
REMARK  status: ('A' for Active; 'I' for Inactive)
REMARK    1  A    between atoms: C2_2  and  C3_3 
REMARK    2  A    between atoms: C3_3  and  C4_4 
REMARK    3  A    between atoms: C5_5  and  C6_6 
REMARK    4  A    between atoms: C11_11  and  C12_12 
REMARK    5  A    between atoms: C15_17  and  N2_18 
REMARK    6  A    between atoms: N2_18  and  C16_20 
ROOT
HETATM    1  C12 UNL     1      -2.033   6.564  11.920  1.00  0.00     0.062 A 
HETATM    2  C13 UNL     1      -2.323   7.112  10.709  1.00  0.00     0.048 A 
HETATM    3  C14 UNL     1      -2.493   6.349   9.534  1.00  0.00     0.108 A 
HETATM    4  N1  UNL     1      -2.358   5.020   9.633  1.00  0.00    -0.202 N 
ATOM      5  H1  UNL     1      -2.476   4.437   8.804  1.00  0.00     0.183 HD
HETATM    6  C15 UNL     1      -2.069   4.445  10.814  1.00  0.00     0.683 A 
HETATM    7  N5  UNL     1      -1.914   5.188  11.912  1.00  0.00    -0.191 N 
ATOM      8  H5  UNL     1      -1.696   4.715  12.790  1.00  0.00     0.184 HD
ENDROOT
BRANCH   6   9
HETATM    9  N2  UNL     1      -1.949   3.159  10.848  1.00  0.00    -0.190 N 
ATOM     10  H2  UNL     1      -1.362   2.708  10.147  1.00  0.00     0.184 HD
BRANCH   9  11
HETATM   11  C16 UNL     1      -2.593   2.345  11.810  1.00  0.00     0.065 A 
HETATM   12  C17 UNL     1      -3.128   1.143  11.405  1.00  0.00     0.119 A 
HETATM   13  N3  UNL     1      -3.756   0.305  12.247  1.00  0.00    -0.349 N 
HETATM   14  C18 UNL     1      -3.871   0.657  13.558  1.00  0.00     0.118 A 
ATOM     15  H3  UNL     1      -4.139  -0.578  11.911  1.00  0.00     0.167 HD
HETATM   16  N4  UNL     1      -4.493  -0.151  14.440  1.00  0.00    -0.309 N 
HETATM   17  C22 UNL     1      -3.358   1.848  14.028  1.00  0.00     0.010 A 
HETATM   18  C19 UNL     1      -4.614   0.185  15.735  1.00  0.00     0.246 A 
ATOM     19  H4  UNL     1      -4.881  -1.037  14.116  1.00  0.00     0.170 HD
HETATM   20  O1  UNL     1      -5.198  -0.591  16.525  1.00  0.00    -0.268 OA
HETATM   21  C20 UNL     1      -4.117   1.362  16.253  1.00  0.00     0.075 A 
HETATM   22  C21 UNL     1      -3.477   2.208  15.375  1.00  0.00     0.021 A 
HETATM   23  C23 UNL     1      -2.716   2.688  13.135  1.00  0.00     0.046 A 
ENDBRANCH   9  11
ENDBRANCH   6   9
BRANCH   1  24
HETATM   24  C11 UNL     1      -1.765   7.284  13.146  1.00  0.00     0.010 A 
HETATM   25  C6  UNL     1      -2.524   7.210  14.257  1.00  0.00     0.030 A 
HETATM   26  C7  UNL     1      -2.167   7.906  15.436  1.00  0.00     0.021 A 
HETATM   27  C8  UNL     1      -1.026   8.664  15.430  1.00  0.00     0.002 A 
HETATM   28  C9  UNL     1      -0.214   8.772  14.323  1.00  0.00     0.001 A 
HETATM   29  C10 UNL     1      -0.594   8.086  13.209  1.00  0.00     0.015 A 
BRANCH  25  30
HETATM   30  C5  UNL     1      -3.671   6.353  14.338  1.00  0.00    -0.066 C 
HETATM   31  C4  UNL     1      -4.658   5.623  14.363  1.00  0.00    -0.097 C 
BRANCH  31  32
HETATM   32  C3  UNL     1      -5.847   4.772  14.404  1.00  0.00     0.120 C 
BRANCH  32  33
HETATM   33  C2  UNL     1      -6.385   4.839  15.785  1.00  0.00    -0.025 C 
HETATM   34  C1  UNL     1      -6.750   3.736  16.419  1.00  0.00     0.008 C 
ENDBRANCH  32  33
ENDBRANCH  31  32
ENDBRANCH  25  30
ENDBRANCH   1  24
TORSDOF 6
ENDMDL
MODEL 3
REMARK VINA RESULT: -8.488014473      2.344      5.241
REMARK  6 active torsions:
REMARK  status: ('A' for Active; 'I' for Inactive)
REMARK    1  A    between atoms: C2_2  and  C3_3 
REMARK    2  A    between atoms: C3_3  and  C4_4 
REMARK    3  A    between atoms: C5_5  and  C6_6 
REMARK    4  A    between atoms: C11_11  and  C12_12 
REMARK    5  A    between atoms: C15_17  and  N2_18 
REMARK    6  A    between atoms: N2_18  and  C16_20 
ROOT
HETATM    1  C12 UNL     1      -3.745   5.903   9.586  1.00  0.00     0.062 A 
HETATM    2  C13 UNL     1      -2.552   6.538   9.431  1.00  0.00     0.048 A 
HETATM    3  C14 UNL     1      -1.308   5.876   9.495  1.00  0.00     0.108 A 
HETATM    4  N1  UNL     1      -1.319   4.555   9.721  1.00  0.00    -0.202 N 
ATOM      5  H1  UNL     1      -0.438   4.044   9.771  1.00  0.00     0.183 HD
HETATM    6  C15 UNL     1      -2.480   3.897   9.882  1.00  0.00     0.683 A 
HETATM    7  N5  UNL     1      -3.645   4.545   9.817  1.00  0.00    -0.191 N 
ATOM      8  H5  UNL     1      -4.505   4.010   9.943  1.00  0.00     0.184 HD
ENDROOT
BRANCH   6   9
HETATM    9  N2  UNL     1      -2.428   2.623  10.099  1.00  0.00    -0.190 N 
ATOM     10  H2  UNL     1      -2.009   2.026   9.387  1.00  0.00     0.184 HD
BRANCH   9  11
HETATM   11  C16 UNL     1      -2.925   2.016  11.277  1.00  0.00     0.065 A 
HETATM   12  C17 UNL     1      -3.632   0.840  11.165  1.00  0.00     0.119 A 
HETATM   13  N3  UNL     1      -4.140   0.193  12.227  1.00  0.00    -0.349 N 
HETATM   14  C18 UNL     1      -3.951   0.720  13.469  1.00  0.00     0.118 A 
ATOM     15  H3  UNL     1      -4.658  -0.677  12.105  1.00  0.00     0.167 HD
HETATM   16  N4  UNL     1      -4.443   0.106  14.564  1.00  0.00    -0.309 N 
HETATM   17  C22 UNL     1      -3.253   1.895  13.649  1.00  0.00     0.010 A 
HETATM   18  C19 UNL     1      -4.264   0.616  15.794  1.00  0.00     0.246 A 
ATOM     19  H4  UNL     1      -4.963  -0.765  14.455  1.00  0.00     0.170 HD
HETATM   20  O1  UNL     1      -4.735   0.018  16.787  1.00  0.00    -0.268 OA
HETATM   21  C20 UNL     1      -3.573   1.786  16.026  1.00  0.00     0.075 A 
HETATM   22  C21 UNL     1      -3.059   2.436  14.926  1.00  0.00     0.021 A 
HETATM   23  C23 UNL     1      -2.741   2.537  12.535  1.00  0.00     0.046 A 
ENDBRANCH   9  11
ENDBRANCH   6   9
BRANCH   1  24
HETATM   24  C11 UNL     1      -5.052   6.524   9.615  1.00  0.00     0.010 A 
HETATM   25  C6  UNL     1      -5.786   6.708  10.730  1.00  0.00     0.030 A 
HETATM   26  C7  UNL     1      -7.036   7.370  10.684  1.00  0.00     0.021 A 
HETATM   27  C8  UNL     1      -7.491   7.828   9.475  1.00  0.00     0.002 A 
HETATM   28  C9  UNL     1      -6.779   7.668   8.307  1.00  0.00     0.001 A 
HETATM   29  C10 UNL     1      -5.582   7.025   8.396  1.00  0.00     0.015 A 
BRANCH  25  30
HETATM   30  C5  UNL     1      -5.305   6.333  12.028  1.00  0.00    -0.066 C 
HETATM   31  C4  UNL     1      -4.904   5.969  13.130  1.00  0.00    -0.097 C 
BRANCH  31  32
HETATM   32  C3  UNL     1      -4.447   5.548  14.455  1.00  0.00     0.120 C 
BRANCH  32  33
HETATM   33  C2  UNL     1      -5.644   5.104  15.209  1.00  0.00    -0.025 C 
HETATM   34  C1  UNL     1      -6.379   4.094  14.772  1.00  0.00     0.008 C 
ENDBRANCH  32  33
ENDBRANCH  31  32
ENDBRANCH  25  30
ENDBRANCH   1  24
TORSDOF 6
ENDMDL
MODEL 4
REMARK VINA RESULT: -8.424054070      1.403      1.512
REMARK  6 active torsions:
REMARK  status: ('A' for Active; 'I' for Inactive)
REMARK    1  A    between atoms: C2_2  and  C3_3 
REMARK    2  A    between atoms: C3_3  and  C4_4 
REMARK    3  A    between atoms: C5_5  and  C6_6 
REMARK    4  A    between atoms: C11_11  and  C12_12 
REMARK    5  A    between atoms: C15_17  and  N2_18 
REMARK    6  A    between atoms: N2_18  and  C16_20 
ROOT
HETATM    1  C12 UNL     1      -2.609   5.169  10.176  1.00  0.00     0.062 A 
HETATM    2  C13 UNL     1      -3.753   5.793   9.788  1.00  0.00     0.048 A 
HETATM    3  C14 UNL     1      -4.726   6.261  10.695  1.00  0.00     0.108 A 
HETATM    4  N1  UNL     1      -4.497   6.073  12.002  1.00  0.00    -0.202 N 
ATOM      5  H1  UNL     1      -5.179   6.400  12.687  1.00  0.00     0.183 HD
HETATM    6  C15 UNL     1      -3.378   5.456  12.421  1.00  0.00     0.683 A 
HETATM    7  N5  UNL     1      -2.471   5.023  11.543  1.00  0.00    -0.191 N 
ATOM      8  H5  UNL     1      -1.634   4.561  11.899  1.00  0.00     0.184 HD
ENDROOT
BRANCH   6   9
HETATM    9  N2  UNL     1      -3.212   5.301  13.693  1.00  0.00    -0.190 N 
ATOM     10  H2  UNL     1      -2.827   6.078  14.231  1.00  0.00     0.184 HD
BRANCH   9  11
HETATM   11  C16 UNL     1      -3.540   4.107  14.378  1.00  0.00     0.065 A 
HETATM   12  C17 UNL     1      -2.552   3.167  14.573  1.00  0.00     0.119 A 
HETATM   13  N3  UNL     1      -2.769   2.006  15.213  1.00  0.00    -0.349 N 
HETATM   14  C18 UNL     1      -4.019   1.742  15.687  1.00  0.00     0.118 A 
ATOM     15  H3  UNL     1      -2.013   1.334  15.340  1.00  0.00     0.167 HD
HETATM   16  N4  UNL     1      -4.284   0.589  16.335  1.00  0.00    -0.309 N 
HETATM   17  C22 UNL     1      -5.052   2.640  15.524  1.00  0.00     0.010 A 
HETATM   18  C19 UNL     1      -5.512   0.317  16.807  1.00  0.00     0.246 A 
ATOM     19  H4  UNL     1      -3.535  -0.091  16.468  1.00  0.00     0.170 HD
HETATM   20  O1  UNL     1      -5.720  -0.764  17.403  1.00  0.00    -0.268 OA
HETATM   21  C20 UNL     1      -6.576   1.182  16.670  1.00  0.00     0.075 A 
HETATM   22  C21 UNL     1      -6.335   2.368  16.013  1.00  0.00     0.021 A 
HETATM   23  C23 UNL     1      -4.795   3.828  14.862  1.00  0.00     0.046 A 
ENDBRANCH   9  11
ENDBRANCH   6   9
BRANCH   1  24
HETATM   24  C11 UNL     1      -1.607   4.591   9.306  1.00  0.00     0.010 A 
HETATM   25  C6  UNL     1      -1.217   3.302   9.340  1.00  0.00     0.030 A 
HETATM   26  C7  UNL     1      -0.266   2.800   8.420  1.00  0.00     0.021 A 
HETATM   27  C8  UNL     1       0.256   3.653   7.483  1.00  0.00     0.002 A 
HETATM   28  C9  UNL     1      -0.111   4.979   7.404  1.00  0.00     0.001 A 
HETATM   29  C10 UNL     1      -1.028   5.421   8.308  1.00  0.00     0.015 A 
BRANCH  25  30
HETATM   30  C5  UNL     1      -1.807   2.352  10.237  1.00  0.00    -0.066 C 
HETATM   31  C4  UNL     1      -2.318   1.510  10.971  1.00  0.00    -0.097 C 
BRANCH  31  32
HETATM   32  C3  UNL     1      -2.947   0.521  11.847  1.00  0.00     0.120 C 
BRANCH  32  33
HETATM   33  C2  UNL     1      -4.414   0.695  11.718  1.00  0.00    -0.025 C 
HETATM   34  C1  UNL     1      -4.955   1.901  11.759  1.00  0.00     0.008 C 
ENDBRANCH  32  33
ENDBRANCH  31  32
ENDBRANCH  25  30
ENDBRANCH   1  24
TORSDOF 6
ENDMDL
MODEL 5
REMARK VINA RESULT: -8.295583249      3.291      7.559
REMARK  6 active torsions:
REMARK  status: ('A' for Active; 'I' for Inactive)
REMARK    1  A    between atoms: C2_2  and  C3_3 
REMARK    2  A    between atoms: C3_3  and  C4_4 
REMARK    3  A    between atoms: C5_5  and  C6_6 
REMARK    4  A    between atoms: C11_11  and  C12_12 
REMARK    5  A    between atoms: C15_17  and  N2_18 
REMARK    6  A    between atoms: N2_18  and  C16_20 
ROOT
HETATM    1  C12 UNL     1      -3.829   1.785  14.195  1.00  0.00     0.062 A 
HETATM    2  C13 UNL     1      -4.007   1.045  13.067  1.00  0.00     0.048 A 
HETATM    3  C14 UNL     1      -3.132   1.094  11.961  1.00  0.00     0.108 A 
HETATM    4  N1  UNL     1      -2.077   1.917  12.041  1.00  0.00    -0.202 N 
ATOM      5  H1  UNL     1      -1.423   1.977  11.261  1.00  0.00     0.183 HD
HETATM    6  C15 UNL     1      -1.873   2.665  13.140  1.00  0.00     0.683 A 
HETATM    7  N5  UNL     1      -2.714   2.600  14.174  1.00  0.00    -0.191 N 
ATOM      8  H5  UNL     1      -2.523   3.182  14.990  1.00  0.00     0.184 HD
ENDROOT
BRANCH   6   9
HETATM    9  N2  UNL     1      -0.839   3.441  13.159  1.00  0.00    -0.190 N 
ATOM     10  H2  UNL     1       0.082   3.019  13.275  1.00  0.00     0.184 HD
BRANCH   9  11
HETATM   11  C16 UNL     1      -0.923   4.848  13.028  1.00  0.00     0.065 A 
HETATM   12  C17 UNL     1      -0.549   5.421  11.833  1.00  0.00     0.119 A 
HETATM   13  N3  UNL     1      -0.596   6.746  11.617  1.00  0.00    -0.349 N 
HETATM   14  C18 UNL     1      -1.029   7.560  12.620  1.00  0.00     0.118 A 
ATOM     15  H3  UNL     1      -0.312   7.136  10.718  1.00  0.00     0.167 HD
HETATM   16  N4  UNL     1      -1.092   8.896  12.449  1.00  0.00    -0.309 N 
HETATM   17  C22 UNL     1      -1.416   7.049  13.841  1.00  0.00     0.010 A 
HETATM   18  C19 UNL     1      -1.517   9.709  13.431  1.00  0.00     0.246 A 
ATOM     19  H4  UNL     1      -0.811   9.298  11.555  1.00  0.00     0.170 HD
HETATM   20  O1  UNL     1      -1.562  10.945  13.235  1.00  0.00    -0.268 OA
HETATM   21  C20 UNL     1      -1.915   9.247  14.666  1.00  0.00     0.075 A 
HETATM   22  C21 UNL     1      -1.861   7.886  14.870  1.00  0.00     0.021 A 
HETATM   23  C23 UNL     1      -1.357   5.679  14.031  1.00  0.00     0.046 A 
ENDBRANCH   9  11
ENDBRANCH   6   9
BRANCH   1  24
HETATM   24  C11 UNL     1      -4.722   1.848  15.331  1.00  0.00     0.010 A 
HETATM   25  C6  UNL     1      -5.563   2.870  15.585  1.00  0.00     0.030 A 
HETATM   26  C7  UNL     1      -6.445   2.836  16.691  1.00  0.00     0.021 A 
HETATM   27  C8  UNL     1      -6.430   1.735  17.508  1.00  0.00     0.002 A 
HETATM   28  C9  UNL     1      -5.592   0.664  17.292  1.00  0.00     0.001 A 
HETATM   29  C10 UNL     1      -4.760   0.738  16.216  1.00  0.00     0.015 A 
BRANCH  25  30
HETATM   30  C5  UNL     1      -5.682   3.995  14.703  1.00  0.00    -0.066 C 
HETATM   31  C4  UNL     1      -5.761   4.934  13.917  1.00  0.00    -0.097 C 
BRANCH  31  32
HETATM   32  C3  UNL     1      -5.839   6.066  12.993  1.00  0.00     0.120 C 
BRANCH  32  33
HETATM   33  C2  UNL     1      -4.588   6.066  12.196  1.00  0.00    -0.025 C 
HETATM   34  C1  UNL     1      -4.259   5.017  11.459  1.00  0.00     0.008 C 
ENDBRANCH  32  33
ENDBRANCH  31  32
ENDBRANCH  25  30
ENDBRANCH   1  24
TORSDOF 6
ENDMDL
