MODEL 1
REMARK VINA RESULT: -8.902976891      0.000      0.000
REMARK  4 active torsions:
REMARK  status: ('A' for Active; 'I' for Inactive)
REMARK    1  A    between atoms: C4_4  and  C5_5 
REMARK    2  A    between atoms: C14_15  and  N2_16 
REMARK    3  A    between atoms: C16_22  and  N5_23 
REMARK       I    between atoms: N5_23  and  C17_25 
REMARK    4  A    between atoms: C17_25  and  C18_27 
ROOT
HETATM    1  C5  UNL     1      -1.272   7.648  14.109  1.00  0.00    -0.026 A 
HETATM    2  C6  UNL     1      -1.595   8.167  15.346  1.00  0.00     0.014 A 
HETATM    3  C7  UNL     1      -0.907   9.244  15.866  1.00  0.00     0.023 A 
HETATM    4  C8  UNL     1       0.131   9.852  15.185  1.00  0.00     0.044 A 
HETATM    5  C9  UNL     1       0.837  10.979  15.748  1.00  0.00     0.099 C 
HETATM    6  N1  UNL     1       1.406  11.894  16.183  1.00  0.00    -0.191 NA
HETATM    7  C10 UNL     1       0.457   9.335  13.948  1.00  0.00     0.023 A 
HETATM    8  C11 UNL     1      -0.234   8.259  13.430  1.00  0.00     0.014 A 
ENDROOT
BRANCH   1   9
HETATM    9  C4  UNL     1      -1.979   6.507  13.520  1.00  0.00    -0.025 A 
HETATM   10  C3  UNL     1      -1.349   5.301  13.306  1.00  0.00     0.021 A 
HETATM   11  C2  UNL     1      -2.031   4.242  12.752  1.00  0.00    -0.032 A 
HETATM   12  C1  UNL     1      -1.384   2.930  12.507  1.00  0.00     0.050 C 
HETATM   13  C14 UNL     1      -3.376   4.386  12.399  1.00  0.00     0.066 A 
HETATM   14  C13 UNL     1      -4.018   5.592  12.609  1.00  0.00     0.033 A 
HETATM   15  C12 UNL     1      -3.306   6.611  13.159  1.00  0.00     0.014 A 
BRANCH  13  16
HETATM   16  N2  UNL     1      -4.049   3.272  11.827  1.00  0.00    -0.224 N 
HETATM   17  N3  UNL     1      -4.079   3.022  10.545  1.00  0.00    -0.234 N 
HETATM   18  N4  UNL     1      -4.776   1.931  10.334  1.00  0.00    -0.293 N 
ATOM     19  H3  UNL     1      -3.631   3.586   9.823  1.00  0.00     0.209 HD
HETATM   20  C15 UNL     1      -5.206   1.470  11.540  1.00  0.00     0.159 A 
ATOM     21  H4  UNL     1      -4.962   1.503   9.427  1.00  0.00     0.187 HD
HETATM   22  C16 UNL     1      -4.747   2.322  12.510  1.00  0.00     0.148 A 
BRANCH  22  23
HETATM   23  N5  UNL     1      -4.865   2.346  13.780  1.00  0.00    -0.306 N 
HETATM   24  C17 UNL     1      -5.875   3.036  14.467  1.00  0.00     0.257 C 
HETATM   25  O1  UNL     1      -6.708   3.830  13.958  1.00  0.00    -0.267 OA
ATOM     26  H5  UNL     1      -4.181   1.828  14.331  1.00  0.00     0.170 HD
BRANCH  24  27
HETATM   27  C18 UNL     1      -5.987   2.824  15.926  1.00  0.00     0.032 A 
HETATM   28  C19 UNL     1      -5.482   1.682  16.502  1.00  0.00     0.017 A 
HETATM   29  C20 UNL     1      -5.593   1.487  17.883  1.00  0.00     0.001 A 
HETATM   30  C21 UNL     1      -6.204   2.433  18.667  1.00  0.00     0.000 A 
HETATM   31  C22 UNL     1      -6.712   3.577  18.099  1.00  0.00     0.001 A 
HETATM   32  C23 UNL     1      -6.593   3.746  16.750  1.00  0.00     0.017 A 
ENDBRANCH  24  27
ENDBRANCH  22  23
ENDBRANCH  13  16
ENDBRANCH   1   9
TORSDOF 4
ENDMDL
MODEL 2
REMARK VINA RESULT: -8.721480549      3.756      7.901
REMARK  4 active torsions:
REMARK  status: ('A' for Active; 'I' for Inactive)
REMARK    1  A    between atoms: C4_4  and  C5_5 
REMARK    2  A    between atoms: C14_15  and  N2_16 
REMARK    3  A    between atoms: C16_22  and  N5_23 
REMARK       I    between atoms: N5_23  and  C17_25 
REMARK    4  A    between atoms: C17_25  and  C18_27 
ROOT
HETATM    1  C5  UNL     1      -3.637   4.017  14.772  1.00  0.00    -0.026 A 
HETATM    2  C6  UNL     1      -2.897   2.908  15.128  1.00  0.00     0.014 A 
HETATM    3  C7  UNL     1      -3.490   1.830  15.753  1.00  0.00     0.023 A 
HETATM    4  C8  UNL     1      -4.840   1.804  16.052  1.00  0.00     0.044 A 
HETATM    5  C9  UNL     1      -5.440   0.665  16.706  1.00  0.00     0.099 C 
HETATM    6  N1  UNL     1      -5.939  -0.250  17.220  1.00  0.00    -0.191 NA
HETATM    7  C10 UNL     1      -5.582   2.912  15.698  1.00  0.00     0.023 A 
HETATM    8  C11 UNL     1      -4.986   3.988  15.073  1.00  0.00     0.014 A 
ENDROOT
BRANCH   1   9
HETATM    9  C4  UNL     1      -3.046   5.181  14.106  1.00  0.00    -0.025 A 
HETATM   10  C3  UNL     1      -2.905   6.389  14.754  1.00  0.00     0.021 A 
HETATM   11  C2  UNL     1      -2.348   7.469  14.111  1.00  0.00    -0.032 A 
HETATM   12  C1  UNL     1      -2.182   8.784  14.777  1.00  0.00     0.050 C 
HETATM   13  C14 UNL     1      -1.920   7.348  12.785  1.00  0.00     0.066 A 
HETATM   14  C13 UNL     1      -2.056   6.141  12.125  1.00  0.00     0.033 A 
HETATM   15  C12 UNL     1      -2.612   5.099  12.799  1.00  0.00     0.014 A 
BRANCH  13  16
HETATM   16  N2  UNL     1      -1.350   8.485  12.151  1.00  0.00    -0.224 N 
HETATM   17  N3  UNL     1      -0.107   8.856  12.304  1.00  0.00    -0.234 N 
HETATM   18  N4  UNL     1       0.113   9.936  11.593  1.00  0.00    -0.293 N 
ATOM     19  H3  UNL     1       0.583   8.381  12.886  1.00  0.00     0.209 HD
HETATM   20  C15 UNL     1      -1.046  10.262  10.959  1.00  0.00     0.159 A 
ATOM     21  H4  UNL     1       0.996  10.442  11.526  1.00  0.00     0.187 HD
HETATM   22  C16 UNL     1      -1.997   9.339  11.308  1.00  0.00     0.148 A 
BRANCH  22  23
HETATM   23  N5  UNL     1      -3.225   9.189  10.998  1.00  0.00    -0.306 N 
HETATM   24  C17 UNL     1      -3.675   8.517   9.853  1.00  0.00     0.257 C 
HETATM   25  O1  UNL     1      -2.956   8.094   8.910  1.00  0.00    -0.267 OA
ATOM     26  H5  UNL     1      -3.925   9.586  11.624  1.00  0.00     0.170 HD
BRANCH  24  27
HETATM   27  C18 UNL     1      -5.127   8.271   9.721  1.00  0.00     0.032 A 
HETATM   28  C19 UNL     1      -5.874   7.921  10.822  1.00  0.00     0.017 A 
HETATM   29  C20 UNL     1      -7.247   7.689  10.691  1.00  0.00     0.001 A 
HETATM   30  C21 UNL     1      -7.854   7.809   9.466  1.00  0.00     0.000 A 
HETATM   31  C22 UNL     1      -7.114   8.158   8.360  1.00  0.00     0.001 A 
HETATM   32  C23 UNL     1      -5.776   8.380   8.512  1.00  0.00     0.017 A 
ENDBRANCH  24  27
ENDBRANCH  22  23
ENDBRANCH  13  16
ENDBRANCH   1   9
TORSDOF 4
ENDMDL
MODEL 3
REMARK VINA RESULT: -8.678203119      3.754      7.848
REMARK  4 active torsions:
REMARK  status: ('A' for Active; 'I' for Inactive)
REMARK    1  A    between atoms: C4_4  and  C5_5 
REMARK    2  A    between atoms: C14_15  and  N2_16 
REMARK    3  A    between atoms: C16_22  and  N5_23 
REMARK       I    between atoms: N5_23  and  C17_25 
REMARK    4  A    between atoms: C17_25  and  C18_27 
ROOT
HETATM    1  C5  UNL     1      -3.654   4.004  14.824  1.00  0.00    -0.026 A 
HETATM    2  C6  UNL     1      -2.899   2.908  15.187  1.00  0.00     0.014 A 
HETATM    3  C7  UNL     1      -3.482   1.815  15.795  1.00  0.00     0.023 A 
HETATM    4  C8  UNL     1      -4.836   1.760  16.069  1.00  0.00     0.044 A 
HETATM    5  C9  UNL     1      -5.425   0.606  16.705  1.00  0.00     0.099 C 
HETATM    6  N1  UNL     1      -5.915  -0.322  17.205  1.00  0.00    -0.191 NA
HETATM    7  C10 UNL     1      -5.593   2.856  15.707  1.00  0.00     0.023 A 
HETATM    8  C11 UNL     1      -5.008   3.947  15.100  1.00  0.00     0.014 A 
ENDROOT
BRANCH   1   9
HETATM    9  C4  UNL     1      -3.074   5.185  14.175  1.00  0.00    -0.025 A 
HETATM   10  C3  UNL     1      -2.369   5.086  12.996  1.00  0.00     0.021 A 
HETATM   11  C2  UNL     1      -1.834   6.205  12.402  1.00  0.00    -0.032 A 
HETATM   12  C1  UNL     1      -1.070   6.136  11.134  1.00  0.00     0.050 C 
HETATM   13  C14 UNL     1      -2.002   7.459  12.998  1.00  0.00     0.066 A 
HETATM   14  C13 UNL     1      -2.708   7.570  14.182  1.00  0.00     0.033 A 
HETATM   15  C12 UNL     1      -3.220   6.438  14.733  1.00  0.00     0.014 A 
BRANCH  13  16
HETATM   16  N2  UNL     1      -1.435   8.594  12.359  1.00  0.00    -0.224 N 
HETATM   17  N3  UNL     1      -0.204   8.991  12.544  1.00  0.00    -0.234 N 
HETATM   18  N4  UNL     1       0.018  10.062  11.818  1.00  0.00    -0.293 N 
ATOM     19  H3  UNL     1       0.477   8.540  13.155  1.00  0.00     0.209 HD
HETATM   20  C15 UNL     1      -1.126  10.354  11.144  1.00  0.00     0.159 A 
ATOM     21  H4  UNL     1       0.894  10.582  11.769  1.00  0.00     0.187 HD
HETATM   22  C16 UNL     1      -2.070   9.420  11.481  1.00  0.00     0.148 A 
BRANCH  22  23
HETATM   23  N5  UNL     1      -3.285   9.242  11.137  1.00  0.00    -0.306 N 
HETATM   24  C17 UNL     1      -3.687   8.619   9.947  1.00  0.00     0.257 C 
HETATM   25  O1  UNL     1      -2.934   8.278   8.998  1.00  0.00    -0.267 OA
ATOM     26  H5  UNL     1      -4.013   9.575  11.770  1.00  0.00     0.170 HD
BRANCH  24  27
HETATM   27  C18 UNL     1      -5.126   8.326   9.771  1.00  0.00     0.032 A 
HETATM   28  C19 UNL     1      -5.703   8.410   8.524  1.00  0.00     0.017 A 
HETATM   29  C20 UNL     1      -7.064   8.133   8.363  1.00  0.00     0.001 A 
HETATM   30  C21 UNL     1      -7.829   7.777   9.446  1.00  0.00     0.000 A 
HETATM   31  C22 UNL     1      -7.260   7.692  10.695  1.00  0.00     0.001 A 
HETATM   32  C23 UNL     1      -5.930   7.967  10.828  1.00  0.00     0.017 A 
ENDBRANCH  24  27
ENDBRANCH  22  23
ENDBRANCH  13  16
ENDBRANCH   1   9
TORSDOF 4
ENDMDL
MODEL 4
REMARK VINA RESULT: -8.491791446      3.758      8.551
REMARK  4 active torsions:
REMARK  status: ('A' for Active; 'I' for Inactive)
REMARK    1  A    between atoms: C4_4  and  C5_5 
REMARK    2  A    between atoms: C14_15  and  N2_16 
REMARK    3  A    between atoms: C16_22  and  N5_23 
REMARK       I    between atoms: N5_23  and  C17_25 
REMARK    4  A    between atoms: C17_25  and  C18_27 
ROOT
HETATM    1  C5  UNL     1      -3.709   4.284  14.706  1.00  0.00    -0.026 A 
HETATM    2  C6  UNL     1      -2.893   3.225  15.042  1.00  0.00     0.014 A 
HETATM    3  C7  UNL     1      -3.409   2.090  15.634  1.00  0.00     0.023 A 
HETATM    4  C8  UNL     1      -4.755   1.956  15.917  1.00  0.00     0.044 A 
HETATM    5  C9  UNL     1      -5.274   0.759  16.536  1.00  0.00     0.099 C 
HETATM    6  N1  UNL     1      -5.708  -0.203  17.022  1.00  0.00    -0.191 NA
HETATM    7  C10 UNL     1      -5.575   3.015  15.583  1.00  0.00     0.023 A 
HETATM    8  C11 UNL     1      -5.055   4.148  14.991  1.00  0.00     0.014 A 
ENDROOT
BRANCH   1   9
HETATM    9  C4  UNL     1      -3.201   5.506  14.075  1.00  0.00    -0.025 A 
HETATM   10  C3  UNL     1      -2.841   6.607  14.821  1.00  0.00     0.021 A 
HETATM   11  C2  UNL     1      -2.366   7.744  14.209  1.00  0.00    -0.032 A 
HETATM   12  C1  UNL     1      -1.970   8.947  14.981  1.00  0.00     0.050 C 
HETATM   13  C14 UNL     1      -2.247   7.789  12.817  1.00  0.00     0.066 A 
HETATM   14  C13 UNL     1      -2.605   6.691  12.058  1.00  0.00     0.033 A 
HETATM   15  C12 UNL     1      -3.069   5.588  12.704  1.00  0.00     0.014 A 
BRANCH  13  16
HETATM   16  N2  UNL     1      -1.754   8.981  12.218  1.00  0.00    -0.224 N 
HETATM   17  N3  UNL     1      -2.521   9.938  11.770  1.00  0.00    -0.234 N 
HETATM   18  N4  UNL     1      -1.772  10.897  11.277  1.00  0.00    -0.293 N 
ATOM     19  H3  UNL     1      -3.541   9.941  11.798  1.00  0.00     0.209 HD
HETATM   20  C15 UNL     1      -0.471  10.526  11.422  1.00  0.00     0.159 A 
ATOM     21  H4  UNL     1      -2.106  11.765  10.860  1.00  0.00     0.187 HD
HETATM   22  C16 UNL     1      -0.443   9.297  12.026  1.00  0.00     0.148 A 
BRANCH  22  23
HETATM   23  N5  UNL     1       0.504   8.519  12.380  1.00  0.00    -0.306 N 
HETATM   24  C17 UNL     1       1.219   7.693  11.502  1.00  0.00     0.257 C 
HETATM   25  O1  UNL     1       0.950   7.491  10.289  1.00  0.00    -0.267 OA
ATOM     26  H5  UNL     1       0.757   8.497  13.368  1.00  0.00     0.170 HD
BRANCH  24  27
HETATM   27  C18 UNL     1       2.404   6.982  12.030  1.00  0.00     0.032 A 
HETATM   28  C19 UNL     1       3.310   7.643  12.826  1.00  0.00     0.017 A 
HETATM   29  C20 UNL     1       4.430   6.966  13.322  1.00  0.00     0.001 A 
HETATM   30  C21 UNL     1       4.627   5.643  13.017  1.00  0.00     0.000 A 
HETATM   31  C22 UNL     1       3.726   4.976  12.220  1.00  0.00     0.001 A 
HETATM   32  C23 UNL     1       2.642   5.656  11.748  1.00  0.00     0.017 A 
ENDBRANCH  24  27
ENDBRANCH  22  23
ENDBRANCH  13  16
ENDBRANCH   1   9
TORSDOF 4
ENDMDL
MODEL 5
REMARK VINA RESULT: -8.408716724      4.326      6.556
REMARK  4 active torsions:
REMARK  status: ('A' for Active; 'I' for Inactive)
REMARK    1  A    between atoms: C4_4  and  C5_5 
REMARK    2  A    between atoms: C14_15  and  N2_16 
REMARK    3  A    between atoms: C16_22  and  N5_23 
REMARK       I    between atoms: N5_23  and  C17_25 
REMARK    4  A    between atoms: C17_25  and  C18_27 
ROOT
HETATM    1  C5  UNL     1      -6.467   7.775   9.277  1.00  0.00    -0.026 A 
HETATM    2  C6  UNL     1      -7.574   7.011   8.971  1.00  0.00     0.014 A 
HETATM    3  C7  UNL     1      -8.664   7.565   8.330  1.00  0.00     0.023 A 
HETATM    4  C8  UNL     1      -8.703   8.898   7.965  1.00  0.00     0.044 A 
HETATM    5  C9  UNL     1      -9.853   9.456   7.294  1.00  0.00     0.099 C 
HETATM    6  N1  UNL     1     -10.766   9.917   6.742  1.00  0.00    -0.191 NA
HETATM    7  C10 UNL     1      -7.597   9.665   8.269  1.00  0.00     0.023 A 
HETATM    8  C11 UNL     1      -6.509   9.108   8.910  1.00  0.00     0.014 A 
ENDROOT
BRANCH   1   9
HETATM    9  C4  UNL     1      -5.289   7.225   9.955  1.00  0.00    -0.025 A 
HETATM   10  C3  UNL     1      -4.903   5.914   9.782  1.00  0.00     0.021 A 
HETATM   11  C2  UNL     1      -3.794   5.418  10.427  1.00  0.00    -0.032 A 
HETATM   12  C1  UNL     1      -3.351   4.012  10.264  1.00  0.00     0.050 C 
HETATM   13  C14 UNL     1      -3.048   6.247  11.269  1.00  0.00     0.066 A 
HETATM   14  C13 UNL     1      -3.425   7.565  11.450  1.00  0.00     0.033 A 
HETATM   15  C12 UNL     1      -4.527   8.013  10.793  1.00  0.00     0.014 A 
BRANCH  13  16
HETATM   16  N2  UNL     1      -1.909   5.701  11.921  1.00  0.00    -0.224 N 
HETATM   17  N3  UNL     1      -0.698   5.755  11.434  1.00  0.00    -0.234 N 
HETATM   18  N4  UNL     1       0.129   5.166  12.265  1.00  0.00    -0.293 N 
ATOM     19  H3  UNL     1      -0.437   6.187  10.548  1.00  0.00     0.209 HD
HETATM   20  C15 UNL     1      -0.594   4.719  13.327  1.00  0.00     0.159 A 
ATOM     21  H4  UNL     1       1.135   5.062  12.138  1.00  0.00     0.187 HD
HETATM   22  C16 UNL     1      -1.907   5.056  13.121  1.00  0.00     0.148 A 
BRANCH  22  23
HETATM   23  N5  UNL     1      -2.972   4.874  13.798  1.00  0.00    -0.306 N 
HETATM   24  C17 UNL     1      -3.532   3.617  14.068  1.00  0.00     0.257 C 
HETATM   25  O1  UNL     1      -3.160   2.519  13.578  1.00  0.00    -0.267 OA
ATOM     26  H5  UNL     1      -3.447   5.697  14.168  1.00  0.00     0.170 HD
BRANCH  24  27
HETATM   27  C18 UNL     1      -4.667   3.554  15.014  1.00  0.00     0.032 A 
HETATM   28  C19 UNL     1      -5.563   4.595  15.092  1.00  0.00     0.017 A 
HETATM   29  C20 UNL     1      -6.634   4.530  15.990  1.00  0.00     0.001 A 
HETATM   30  C21 UNL     1      -6.796   3.430  16.794  1.00  0.00     0.000 A 
HETATM   31  C22 UNL     1      -5.904   2.386  16.723  1.00  0.00     0.001 A 
HETATM   32  C23 UNL     1      -4.866   2.471  15.840  1.00  0.00     0.017 A 
ENDBRANCH  24  27
ENDBRANCH  22  23
ENDBRANCH  13  16
ENDBRANCH   1   9
TORSDOF 4
ENDMDL
