MODEL 1
REMARK VINA RESULT: -6.884988248      0.000      0.000
REMARK  3 active torsions:
REMARK  status: ('A' for Active; 'I' for Inactive)
REMARK    1  A    between atoms: N1_1  and  N2_4 
REMARK    2  A    between atoms: N2_4  and  N3_6 
REMARK       I    between atoms: N3_6  and  C1_8 
REMARK    3  A    between atoms: C1_8  and  C2_10 
ROOT
HETATM    1  C2  UNL     1      25.890   0.479  12.491  1.00  0.00     0.186 A 
HETATM    2  N4  UNL     1      25.611   0.091  13.779  1.00  0.00    -0.287 N 
ATOM      3  H4  UNL     1      25.806   0.752  14.532  1.00  0.00     0.187 HD
HETATM    4  N5  UNL     1      25.110  -1.080  14.098  1.00  0.00    -0.251 N 
ATOM      5  H5  UNL     1      24.919  -1.321  15.071  1.00  0.00     0.191 HD
HETATM    6  C3  UNL     1      24.853  -1.961  13.101  1.00  0.00     0.341 A 
HETATM    7  O2  UNL     1      24.368  -3.098  13.385  1.00  0.00    -0.245 OA
HETATM    8  N6  UNL     1      25.101  -1.647  11.827  1.00  0.00    -0.272 N 
ATOM      9  H6  UNL     1      24.901  -2.323  11.090  1.00  0.00     0.174 HD
HETATM   10  C4  UNL     1      25.625  -0.418  11.504  1.00  0.00     0.283 A 
HETATM   11  O3  UNL     1      25.833  -0.206  10.273  1.00  0.00    -0.265 OA
ENDROOT
BRANCH   1  12
HETATM   12  C1  UNL     1      26.476   1.771  12.231  1.00  0.00     0.294 C 
HETATM   13  N3  UNL     1      26.579   2.371  10.959  1.00  0.00    -0.250 N 
ATOM     14  H3  UNL     1      26.210   1.870  10.152  1.00  0.00     0.192 HD
HETATM   15  O1  UNL     1      26.927   2.385  13.261  1.00  0.00    -0.264 OA
BRANCH  13  16
HETATM   16  N2  UNL     1      27.166   3.624  10.756  1.00  0.00    -0.246 N 
ATOM     17  H2  UNL     1      27.442   4.220  11.536  1.00  0.00     0.207 HD
BRANCH  16  18
HETATM   18  N1  UNL     1      27.347   4.006   9.473  1.00  0.00    -0.331 N 
ATOM     19  H12 UNL     1      28.167   3.700   8.948  1.00  0.00     0.178 HD
ATOM     20  H11 UNL     1      26.629   4.607   9.069  1.00  0.00     0.178 HD
ENDBRANCH  16  18
ENDBRANCH  13  16
ENDBRANCH   1  12
TORSDOF 3
ENDMDL
MODEL 2
REMARK VINA RESULT: -6.437916425      2.017      2.719
REMARK  3 active torsions:
REMARK  status: ('A' for Active; 'I' for Inactive)
REMARK    1  A    between atoms: N1_1  and  N2_4 
REMARK    2  A    between atoms: N2_4  and  N3_6 
REMARK       I    between atoms: N3_6  and  C1_8 
REMARK    3  A    between atoms: C1_8  and  C2_10 
ROOT
HETATM    1  C2  UNL     1      25.970   1.632  12.940  1.00  0.00     0.186 A 
HETATM    2  N4  UNL     1      26.121   0.816  11.846  1.00  0.00    -0.287 N 
ATOM      3  H4  UNL     1      26.497   1.225  10.990  1.00  0.00     0.187 HD
HETATM    4  N5  UNL     1      25.810  -0.460  11.837  1.00  0.00    -0.251 N 
ATOM      5  H5  UNL     1      25.941  -1.026  10.998  1.00  0.00     0.191 HD
HETATM    6  C3  UNL     1      25.308  -1.006  12.971  1.00  0.00     0.341 A 
HETATM    7  O2  UNL     1      25.001  -2.236  12.986  1.00  0.00    -0.245 OA
HETATM    8  N6  UNL     1      25.135  -0.267  14.070  1.00  0.00    -0.272 N 
ATOM      9  H6  UNL     1      24.756  -0.696  14.914  1.00  0.00     0.174 HD
HETATM   10  C4  UNL     1      25.466   1.067  14.069  1.00  0.00     0.283 A 
HETATM   11  O3  UNL     1      25.266   1.692  15.152  1.00  0.00    -0.265 OA
ENDROOT
BRANCH   1  12
HETATM   12  C1  UNL     1      26.302   3.034  12.853  1.00  0.00     0.294 C 
HETATM   13  N3  UNL     1      25.593   4.074  13.488  1.00  0.00    -0.250 N 
ATOM     14  H3  UNL     1      24.784   3.834  14.061  1.00  0.00     0.192 HD
HETATM   15  O1  UNL     1      27.325   3.310  12.134  1.00  0.00    -0.264 OA
BRANCH  13  16
HETATM   16  N2  UNL     1      25.949   5.420  13.366  1.00  0.00    -0.246 N 
ATOM     17  H2  UNL     1      26.083   6.016  14.182  1.00  0.00     0.207 HD
BRANCH  16  18
HETATM   18  N1  UNL     1      26.105   5.893  12.110  1.00  0.00    -0.331 N 
ATOM     19  H12 UNL     1      25.555   5.516  11.338  1.00  0.00     0.178 HD
ATOM     20  H11 UNL     1      26.793   6.636  11.983  1.00  0.00     0.178 HD
ENDBRANCH  16  18
ENDBRANCH  13  16
ENDBRANCH   1  12
TORSDOF 3
ENDMDL
MODEL 3
REMARK VINA RESULT: -6.425519167      2.039      5.349
REMARK  3 active torsions:
REMARK  status: ('A' for Active; 'I' for Inactive)
REMARK    1  A    between atoms: N1_1  and  N2_4 
REMARK    2  A    between atoms: N2_4  and  N3_6 
REMARK       I    between atoms: N3_6  and  C1_8 
REMARK    3  A    between atoms: C1_8  and  C2_10 
ROOT
HETATM    1  C2  UNL     1      25.835   0.665  13.174  1.00  0.00     0.186 A 
HETATM    2  N4  UNL     1      26.602   1.289  12.221  1.00  0.00    -0.287 N 
ATOM      3  H4  UNL     1      27.074   0.706  11.528  1.00  0.00     0.187 HD
HETATM    4  N5  UNL     1      26.764   2.590  12.148  1.00  0.00    -0.251 N 
ATOM      5  H5  UNL     1      27.344   3.007  11.420  1.00  0.00     0.191 HD
HETATM    6  C3  UNL     1      26.140   3.366  13.067  1.00  0.00     0.341 A 
HETATM    7  O2  UNL     1      26.281   4.626  13.017  1.00  0.00    -0.245 OA
HETATM    8  N6  UNL     1      25.380   2.823  14.022  1.00  0.00    -0.272 N 
ATOM      9  H6  UNL     1      24.919   3.423  14.705  1.00  0.00     0.174 HD
HETATM   10  C4  UNL     1      25.217   1.460  14.088  1.00  0.00     0.283 A 
HETATM   11  O3  UNL     1      24.483   1.031  15.026  1.00  0.00    -0.265 OA
ENDROOT
BRANCH   1  12
HETATM   12  C1  UNL     1      25.741  -0.774  13.206  1.00  0.00     0.294 C 
HETATM   13  N3  UNL     1      25.919  -1.572  14.355  1.00  0.00    -0.250 N 
ATOM     14  H3  UNL     1      26.123  -1.111  15.241  1.00  0.00     0.192 HD
HETATM   15  O1  UNL     1      25.476  -1.330  12.082  1.00  0.00    -0.264 OA
BRANCH  13  16
HETATM   16  N2  UNL     1      25.826  -2.967  14.332  1.00  0.00    -0.246 N 
ATOM     17  H2  UNL     1      26.545  -3.559  14.748  1.00  0.00     0.207 HD
BRANCH  16  18
HETATM   18  N1  UNL     1      24.736  -3.491  13.731  1.00  0.00    -0.331 N 
ATOM     19  H12 UNL     1      24.685  -3.565  12.715  1.00  0.00     0.178 HD
ATOM     20  H11 UNL     1      23.982  -3.803  14.344  1.00  0.00     0.178 HD
ENDBRANCH  16  18
ENDBRANCH  13  16
ENDBRANCH   1  12
TORSDOF 3
ENDMDL
MODEL 4
REMARK VINA RESULT: -6.405092237      1.771      5.147
REMARK  3 active torsions:
REMARK  status: ('A' for Active; 'I' for Inactive)
REMARK    1  A    between atoms: N1_1  and  N2_4 
REMARK    2  A    between atoms: N2_4  and  N3_6 
REMARK       I    between atoms: N3_6  and  C1_8 
REMARK    3  A    between atoms: C1_8  and  C2_10 
ROOT
HETATM    1  C2  UNL     1      25.567  -0.420  13.091  1.00  0.00     0.186 A 
HETATM    2  N4  UNL     1      25.714   0.596  14.003  1.00  0.00    -0.287 N 
ATOM      3  H4  UNL     1      25.488   0.402  14.979  1.00  0.00     0.187 HD
HETATM    4  N5  UNL     1      26.128   1.804  13.692  1.00  0.00    -0.251 N 
ATOM      5  H5  UNL     1      26.222   2.526  14.406  1.00  0.00     0.191 HD
HETATM    6  C3  UNL     1      26.427   2.065  12.396  1.00  0.00     0.341 A 
HETATM    7  O2  UNL     1      26.829   3.224  12.073  1.00  0.00    -0.245 OA
HETATM    8  N6  UNL     1      26.305   1.122  11.460  1.00  0.00    -0.272 N 
ATOM      9  H6  UNL     1      26.535   1.337  10.490  1.00  0.00     0.174 HD
HETATM   10  C4  UNL     1      25.872  -0.139  11.796  1.00  0.00     0.283 A 
HETATM   11  O3  UNL     1      25.782  -0.970  10.845  1.00  0.00    -0.265 OA
ENDROOT
BRANCH   1  12
HETATM   12  C1  UNL     1      25.070  -1.708  13.510  1.00  0.00     0.294 C 
HETATM   13  N3  UNL     1      23.745  -2.159  13.338  1.00  0.00    -0.250 N 
ATOM     14  H3  UNL     1      23.076  -1.543  12.878  1.00  0.00     0.192 HD
HETATM   15  O1  UNL     1      25.930  -2.468  14.079  1.00  0.00    -0.264 OA
BRANCH  13  16
HETATM   16  N2  UNL     1      23.308  -3.415  13.771  1.00  0.00    -0.246 N 
ATOM     17  H2  UNL     1      23.864  -4.257  13.622  1.00  0.00     0.207 HD
BRANCH  16  18
HETATM   18  N1  UNL     1      22.112  -3.456  14.398  1.00  0.00    -0.331 N 
ATOM     19  H12 UNL     1      21.713  -2.616  14.816  1.00  0.00     0.178 HD
ATOM     20  H11 UNL     1      21.642  -4.361  14.425  1.00  0.00     0.178 HD
ENDBRANCH  16  18
ENDBRANCH  13  16
ENDBRANCH   1  12
TORSDOF 3
ENDMDL
MODEL 5
REMARK VINA RESULT: -6.404871448      2.211      5.546
REMARK  3 active torsions:
REMARK  status: ('A' for Active; 'I' for Inactive)
REMARK    1  A    between atoms: N1_1  and  N2_4 
REMARK    2  A    between atoms: N2_4  and  N3_6 
REMARK       I    between atoms: N3_6  and  C1_8 
REMARK    3  A    between atoms: C1_8  and  C2_10 
ROOT
HETATM    1  C2  UNL     1      25.360  -0.123  13.448  1.00  0.00     0.186 A 
HETATM    2  N4  UNL     1      26.152   0.188  12.369  1.00  0.00    -0.287 N 
ATOM      3  H4  UNL     1      26.384  -0.558  11.713  1.00  0.00     0.187 HD
HETATM    4  N5  UNL     1      26.628   1.390  12.134  1.00  0.00    -0.251 N 
ATOM      5  H5  UNL     1      27.212   1.572  11.317  1.00  0.00     0.191 HD
HETATM    6  C3  UNL     1      26.324   2.382  13.005  1.00  0.00     0.341 A 
HETATM    7  O2  UNL     1      26.771   3.551  12.798  1.00  0.00    -0.245 OA
HETATM    8  N6  UNL     1      25.560   2.147  14.074  1.00  0.00    -0.272 N 
ATOM      9  H6  UNL     1      25.342   2.906  14.719  1.00  0.00     0.174 HD
HETATM   10  C4  UNL     1      25.066   0.886  14.311  1.00  0.00     0.283 A 
HETATM   11  O3  UNL     1      24.353   0.751  15.349  1.00  0.00    -0.265 OA
ENDROOT
BRANCH   1  12
HETATM   12  C1  UNL     1      24.910  -1.478  13.653  1.00  0.00     0.294 C 
HETATM   13  N3  UNL     1      23.565  -1.899  13.614  1.00  0.00    -0.250 N 
ATOM     14  H3  UNL     1      22.843  -1.206  13.420  1.00  0.00     0.192 HD
HETATM   15  O1  UNL     1      25.835  -2.332  13.888  1.00  0.00    -0.264 OA
BRANCH  13  16
HETATM   16  N2  UNL     1      23.178  -3.225  13.829  1.00  0.00    -0.246 N 
ATOM     17  H2  UNL     1      23.767  -4.008  13.549  1.00  0.00     0.207 HD
BRANCH  16  18
HETATM   18  N1  UNL     1      21.981  -3.416  14.427  1.00  0.00    -0.331 N 
ATOM     19  H12 UNL     1      21.582  -2.702  15.037  1.00  0.00     0.178 HD
ATOM     20  H11 UNL     1      21.511  -4.301  14.235  1.00  0.00     0.178 HD
ENDBRANCH  16  18
ENDBRANCH  13  16
ENDBRANCH   1  12
TORSDOF 3
ENDMDL
