MODEL 1
REMARK VINA RESULT: -5.096315492      0.000      0.000
REMARK  3 active torsions:
REMARK  status: ('A' for Active; 'I' for Inactive)
REMARK    1  A    between atoms: C6_6  and  O1_7 
REMARK    2  A    between atoms: C11_13  and  O2_14 
REMARK    3  A    between atoms: C13_17  and  O3_19 
ROOT
HETATM    1  C1  UNL     1      23.255  17.387  14.466  1.00  0.00     0.016 C 
HETATM    2  C2  UNL     1      22.297  16.490  15.299  1.00  0.00    -0.036 C 
HETATM    3  C3  UNL     1      21.565  17.443  16.170  1.00  0.00     0.010 C 
HETATM    4  C4  UNL     1      20.330  16.961  16.840  1.00  0.00     0.009 C 
HETATM    5  C5  UNL     1      19.625  15.811  16.155  1.00  0.00     0.025 C 
HETATM    6  C6  UNL     1      19.976  15.676  14.716  1.00  0.00     0.128 C 
HETATM    7  C7  UNL     1      21.432  15.707  14.375  1.00  0.00     0.023 C 
HETATM    8  C8  UNL     1      21.981  14.364  13.994  1.00  0.00     0.008 C 
HETATM    9  C9  UNL     1      22.295  13.380  14.975  1.00  0.00     0.011 C 
HETATM   10  C10 UNL     1      21.921  13.603  16.448  1.00  0.00     0.049 C 
HETATM   11  C11 UNL     1      22.736  14.678  17.039  1.00  0.00     0.126 C 
HETATM   12  C12 UNL     1      23.304  15.651  16.043  1.00  0.00     0.041 C 
HETATM   13  C13 UNL     1      20.500  13.465  16.737  1.00  0.00     0.067 C 
HETATM   14  C14 UNL     1      20.284  12.552  17.974  1.00  0.00     0.047 C 
HETATM   15  C15 UNL     1      19.560  14.548  16.923  1.00  0.00    -0.011 C 
HETATM   16  C16 UNL     1      19.312  14.928  18.394  1.00  0.00     0.018 C 
HETATM   17  C17 UNL     1      18.174  13.915  16.586  1.00  0.00     0.018 C 
ENDROOT
BRANCH  13  18
HETATM   18  O3  UNL     1      20.039  12.623  15.678  1.00  0.00    -0.389 OA
ATOM     19  H3  UNL     1      19.218  13.029  15.426  1.00  0.00     0.210 HD
ENDBRANCH  13  18
BRANCH  11  20
HETATM   20  O2  UNL     1      23.935  14.186  17.651  1.00  0.00    -0.395 OA
ATOM     21  H2  UNL     1      24.339  13.486  17.152  1.00  0.00     0.210 HD
ENDBRANCH  11  20
BRANCH   6  22
HETATM   22  O1  UNL     1      19.209  16.576  13.929  1.00  0.00    -0.395 OA
ATOM     23  H1  UNL     1      18.991  16.185  13.091  1.00  0.00     0.210 HD
ENDBRANCH   6  22
TORSDOF 3
ENDMDL
MODEL 2
REMARK VINA RESULT: -5.073220504      1.668      3.111
REMARK  3 active torsions:
REMARK  status: ('A' for Active; 'I' for Inactive)
REMARK    1  A    between atoms: C6_6  and  O1_7 
REMARK    2  A    between atoms: C11_13  and  O2_14 
REMARK    3  A    between atoms: C13_17  and  O3_19 
ROOT
HETATM    1  C1  UNL     1      23.662  13.824  13.202  1.00  0.00     0.016 C 
HETATM    2  C2  UNL     1      22.824  14.634  14.233  1.00  0.00    -0.036 C 
HETATM    3  C3  UNL     1      21.715  15.210  13.433  1.00  0.00     0.010 C 
HETATM    4  C4  UNL     1      20.540  15.749  14.165  1.00  0.00     0.009 C 
HETATM    5  C5  UNL     1      20.305  15.161  15.540  1.00  0.00     0.025 C 
HETATM    6  C6  UNL     1      20.954  13.838  15.735  1.00  0.00     0.128 C 
HETATM    7  C7  UNL     1      22.390  13.728  15.331  1.00  0.00     0.023 C 
HETATM    8  C8  UNL     1      23.332  13.665  16.497  1.00  0.00     0.008 C 
HETATM    9  C9  UNL     1      23.691  14.832  17.230  1.00  0.00     0.011 C 
HETATM   10  C10 UNL     1      22.992  16.171  16.954  1.00  0.00     0.049 C 
HETATM   11  C11 UNL     1      23.368  16.696  15.631  1.00  0.00     0.126 C 
HETATM   12  C12 UNL     1      23.849  15.654  14.658  1.00  0.00     0.041 C 
HETATM   13  C13 UNL     1      21.627  16.252  17.456  1.00  0.00     0.067 C 
HETATM   14  C14 UNL     1      21.416  17.574  18.244  1.00  0.00     0.047 C 
HETATM   15  C15 UNL     1      20.420  16.107  16.672  1.00  0.00    -0.011 C 
HETATM   16  C16 UNL     1      19.799  17.439  16.210  1.00  0.00     0.018 C 
HETATM   17  C17 UNL     1      19.339  15.668  17.708  1.00  0.00     0.018 C 
ENDROOT
BRANCH  13  18
HETATM   18  O3  UNL     1      21.616  15.289  18.511  1.00  0.00    -0.389 OA
ATOM     19  H3  UNL     1      21.031  15.680  19.150  1.00  0.00     0.210 HD
ENDBRANCH  13  18
BRANCH  11  20
HETATM   20  O2  UNL     1      24.510  17.561  15.687  1.00  0.00    -0.395 OA
ATOM     21  H2  UNL     1      24.886  17.724  14.830  1.00  0.00     0.210 HD
ENDBRANCH  11  20
BRANCH   6  22
HETATM   22  O1  UNL     1      20.149  12.802  15.188  1.00  0.00    -0.395 OA
ATOM     23  H1  UNL     1      20.599  11.967  15.239  1.00  0.00     0.210 HD
ENDBRANCH   6  22
TORSDOF 3
ENDMDL
MODEL 3
REMARK VINA RESULT: -5.016819641      1.527      3.764
REMARK  3 active torsions:
REMARK  status: ('A' for Active; 'I' for Inactive)
REMARK    1  A    between atoms: C6_6  and  O1_7 
REMARK    2  A    between atoms: C11_13  and  O2_14 
REMARK    3  A    between atoms: C13_17  and  O3_19 
ROOT
HETATM    1  C1  UNL     1      22.776  12.730  13.583  1.00  0.00     0.016 C 
HETATM    2  C2  UNL     1      22.342  13.611  14.789  1.00  0.00    -0.036 C 
HETATM    3  C3  UNL     1      23.236  13.186  15.894  1.00  0.00     0.010 C 
HETATM    4  C4  UNL     1      23.326  14.066  17.089  1.00  0.00     0.009 C 
HETATM    5  C5  UNL     1      22.999  15.524  16.848  1.00  0.00     0.025 C 
HETATM    6  C6  UNL     1      23.123  15.930  15.424  1.00  0.00     0.128 C 
HETATM    7  C7  UNL     1      22.461  15.046  14.414  1.00  0.00     0.023 C 
HETATM    8  C8  UNL     1      21.215  15.643  13.829  1.00  0.00     0.008 C 
HETATM    9  C9  UNL     1      19.983  15.647  14.543  1.00  0.00     0.011 C 
HETATM   10  C10 UNL     1      19.930  15.190  16.008  1.00  0.00     0.049 C 
HETATM   11  C11 UNL     1      20.166  13.740  16.113  1.00  0.00     0.126 C 
HETATM   12  C12 UNL     1      20.919  13.144  14.955  1.00  0.00     0.041 C 
HETATM   13  C13 UNL     1      20.505  16.135  16.956  1.00  0.00     0.067 C 
HETATM   14  C14 UNL     1      19.539  16.359  18.151  1.00  0.00     0.047 C 
HETATM   15  C15 UNL     1      21.813  16.042  17.565  1.00  0.00    -0.011 C 
HETATM   16  C16 UNL     1      21.817  15.402  18.966  1.00  0.00     0.018 C 
HETATM   17  C17 UNL     1      22.160  17.513  17.956  1.00  0.00     0.018 C 
ENDROOT
BRANCH  13  18
HETATM   18  O3  UNL     1      20.397  17.383  16.268  1.00  0.00    -0.389 OA
ATOM     19  H3  UNL     1      19.912  17.922  16.881  1.00  0.00     0.210 HD
ENDBRANCH  13  18
BRANCH  11  20
HETATM   20  O2  UNL     1      18.952  12.980  16.066  1.00  0.00    -0.395 OA
ATOM     21  H2  UNL     1      18.196  13.512  15.849  1.00  0.00     0.210 HD
ENDBRANCH  11  20
BRANCH   6  22
HETATM   22  O1  UNL     1      24.478  16.212  15.101  1.00  0.00    -0.395 OA
ATOM     23  H1  UNL     1      25.043  15.500  15.379  1.00  0.00     0.210 HD
ENDBRANCH   6  22
TORSDOF 3
ENDMDL
MODEL 4
REMARK VINA RESULT: -4.869661371      1.339      3.833
REMARK  3 active torsions:
REMARK  status: ('A' for Active; 'I' for Inactive)
REMARK    1  A    between atoms: C6_6  and  O1_7 
REMARK    2  A    between atoms: C11_13  and  O2_14 
REMARK    3  A    between atoms: C13_17  and  O3_19 
ROOT
HETATM    1  C1  UNL     1      23.283  13.243  13.436  1.00  0.00     0.016 C 
HETATM    2  C2  UNL     1      22.325  13.802  14.527  1.00  0.00    -0.036 C 
HETATM    3  C3  UNL     1      21.307  12.737  14.702  1.00  0.00     0.010 C 
HETATM    4  C4  UNL     1      20.447  12.794  15.912  1.00  0.00     0.009 C 
HETATM    5  C5  UNL     1      21.037  13.529  17.096  1.00  0.00     0.025 C 
HETATM    6  C6  UNL     1      22.518  13.641  17.042  1.00  0.00     0.128 C 
HETATM    7  C7  UNL     1      23.110  14.115  15.753  1.00  0.00     0.023 C 
HETATM    8  C8  UNL     1      23.628  15.522  15.819  1.00  0.00     0.008 C 
HETATM    9  C9  UNL     1      22.753  16.644  15.759  1.00  0.00     0.011 C 
HETATM   10  C10 UNL     1      21.230  16.446  15.795  1.00  0.00     0.049 C 
HETATM   11  C11 UNL     1      20.755  15.811  14.555  1.00  0.00     0.126 C 
HETATM   12  C12 UNL     1      21.801  15.022  13.815  1.00  0.00     0.041 C 
HETATM   13  C13 UNL     1      20.701  16.078  17.101  1.00  0.00     0.067 C 
HETATM   14  C14 UNL     1      19.478  16.965  17.460  1.00  0.00     0.047 C 
HETATM   15  C15 UNL     1      20.314  14.749  17.520  1.00  0.00    -0.011 C 
HETATM   16  C16 UNL     1      18.810  14.452  17.382  1.00  0.00     0.018 C 
HETATM   17  C17 UNL     1      20.423  14.790  19.077  1.00  0.00     0.018 C 
ENDROOT
BRANCH  13  18
HETATM   18  O3  UNL     1      21.690  16.582  18.001  1.00  0.00    -0.389 OA
ATOM     19  H3  UNL     1      21.195  17.182  18.546  1.00  0.00     0.210 HD
ENDBRANCH  13  18
BRANCH  11  20
HETATM   20  O2  UNL     1      20.382  16.768  13.555  1.00  0.00    -0.395 OA
ATOM     21  H2  UNL     1      19.940  16.369  12.815  1.00  0.00     0.210 HD
ENDBRANCH  11  20
BRANCH   6  22
HETATM   22  O1  UNL     1      23.126  12.448  17.519  1.00  0.00    -0.395 OA
ATOM     23  H1  UNL     1      22.942  11.723  16.934  1.00  0.00     0.210 HD
ENDBRANCH   6  22
TORSDOF 3
ENDMDL
MODEL 5
REMARK VINA RESULT: -4.791520331      1.107      3.649
REMARK  3 active torsions:
REMARK  status: ('A' for Active; 'I' for Inactive)
REMARK    1  A    between atoms: C6_6  and  O1_7 
REMARK    2  A    between atoms: C11_13  and  O2_14 
REMARK    3  A    between atoms: C13_17  and  O3_19 
ROOT
HETATM    1  C1  UNL     1      23.705  16.791  14.331  1.00  0.00     0.016 C 
HETATM    2  C2  UNL     1      22.702  15.855  15.064  1.00  0.00    -0.036 C 
HETATM    3  C3  UNL     1      23.105  14.489  14.651  1.00  0.00     0.010 C 
HETATM    4  C4  UNL     1      22.581  13.344  15.439  1.00  0.00     0.009 C 
HETATM    5  C5  UNL     1      22.199  13.660  16.869  1.00  0.00     0.025 C 
HETATM    6  C6  UNL     1      22.847  14.889  17.396  1.00  0.00     0.128 C 
HETATM    7  C7  UNL     1      22.781  16.107  16.529  1.00  0.00     0.023 C 
HETATM    8  C8  UNL     1      21.822  17.145  17.036  1.00  0.00     0.008 C 
HETATM    9  C9  UNL     1      20.416  17.014  16.855  1.00  0.00     0.011 C 
HETATM   10  C10 UNL     1      19.822  15.719  16.281  1.00  0.00     0.049 C 
HETATM   11  C11 UNL     1      20.177  15.563  14.861  1.00  0.00     0.126 C 
HETATM   12  C12 UNL     1      21.410  16.314  14.439  1.00  0.00     0.041 C 
HETATM   13  C13 UNL     1      19.827  14.592  17.205  1.00  0.00     0.067 C 
HETATM   14  C14 UNL     1      18.434  13.907  17.232  1.00  0.00     0.047 C 
HETATM   15  C15 UNL     1      20.767  13.493  17.203  1.00  0.00    -0.011 C 
HETATM   16  C16 UNL     1      20.274  12.238  16.460  1.00  0.00     0.018 C 
HETATM   17  C17 UNL     1      20.730  12.953  18.667  1.00  0.00     0.018 C 
ENDROOT
BRANCH  13  18
HETATM   18  O3  UNL     1      19.855  15.228  18.484  1.00  0.00    -0.389 OA
ATOM     19  H3  UNL     1      18.936  15.264  18.723  1.00  0.00     0.210 HD
ENDBRANCH  13  18
BRANCH  11  20
HETATM   20  O2  UNL     1      19.199  16.135  13.983  1.00  0.00    -0.395 OA
ATOM     21  H2  UNL     1      18.632  15.481  13.592  1.00  0.00     0.210 HD
ENDBRANCH  11  20
BRANCH   6  22
HETATM   22  O1  UNL     1      24.166  14.606  17.843  1.00  0.00    -0.395 OA
ATOM     23  H1  UNL     1      24.322  15.000  18.693  1.00  0.00     0.210 HD
ENDBRANCH   6  22
TORSDOF 3
ENDMDL
