MODEL 1
REMARK VINA RESULT: -5.726054443      0.000      0.000
REMARK  14 active torsions:
REMARK  status: ('A' for Active; 'I' for Inactive)
REMARK    1  A    between atoms: C2_7  and  C3_8 
REMARK    2  A    between atoms: C3_8  and  N3_9 
REMARK    3  A    between atoms: N3_9  and  O1_10 
REMARK    4  A    between atoms: N3_9  and  C4_12 
REMARK    5  A    between atoms: C4_12  and  C5_13 
REMARK       I    between atoms: C5_13  and  N4_15 
REMARK    6  A    between atoms: N4_15  and  O3_17 
REMARK    7  A    between atoms: O3_17  and  C6_18 
REMARK    8  A    between atoms: C7_22  and  N6_23 
REMARK    9  A    between atoms: C8_28  and  C9_29 
REMARK   10  A    between atoms: C9_29  and  N7_30 
REMARK   11  A    between atoms: C10_34  and  N8_35 
REMARK   12  A    between atoms: N8_35  and  C11_37 
REMARK   13  A    between atoms: C11_37  and  C12_38 
REMARK   14  A    between atoms: C12_38  and  O5_39 
ROOT
HETATM    1  N1  UNL     1      18.888   0.518  17.973  1.00  0.00    -0.234 N 
ATOM      2  H11 UNL     1      18.340  -0.248  18.365  1.00  0.00     0.174 HD
ATOM      3  H12 UNL     1      18.492   1.083  17.221  1.00  0.00     0.174 HD
HETATM    4  C1  UNL     1      20.059   0.737  18.448  1.00  0.00     0.677 A 
HETATM    5  N2  UNL     1      20.797   1.769  17.920  1.00  0.00    -0.194 N 
ATOM      6  H2  UNL     1      20.407   2.337  17.169  1.00  0.00     0.184 HD
HETATM    7  C2  UNL     1      22.023   2.033  18.384  1.00  0.00     0.053 A 
HETATM    8  C8  UNL     1      22.551   1.245  19.420  1.00  0.00     0.036 A 
HETATM    9  C10 UNL     1      21.791   0.223  19.926  1.00  0.00     0.127 A 
HETATM   10  N9  UNL     1      20.579  -0.006  19.437  1.00  0.00    -0.177 N 
ATOM     11  H9  UNL     1      20.026  -0.770  19.825  1.00  0.00     0.186 HD
ENDROOT
BRANCH   7  12
HETATM   12  C3  UNL     1      22.817   3.141  17.844  1.00  0.00     0.179 C 
BRANCH  12  13
HETATM   13  N3  UNL     1      22.250   3.749  16.693  1.00  0.00    -0.185 NA
BRANCH  13  14
HETATM   14  O1  UNL     1      22.036   2.892  15.666  1.00  0.00    -0.312 OA
ATOM     15  H1  UNL     1      22.240   3.253  14.812  1.00  0.00     0.237 HD
ENDBRANCH  13  14
BRANCH  13  16
HETATM   16  C4  UNL     1      22.845   4.973  16.289  1.00  0.00     0.225 C 
BRANCH  16  17
HETATM   17  C5  UNL     1      23.702   4.834  15.097  1.00  0.00     0.256 C 
HETATM   18  O2  UNL     1      24.888   4.458  15.076  1.00  0.00    -0.270 OA
HETATM   19  N4  UNL     1      23.114   5.166  13.838  1.00  0.00    -0.229 N 
ATOM     20  H4  UNL     1      22.144   5.480  13.811  1.00  0.00     0.197 HD
BRANCH  19  21
HETATM   21  O3  UNL     1      23.806   5.075  12.681  1.00  0.00    -0.215 OA
BRANCH  21  22
HETATM   22  C6  UNL     1      24.345   6.324  12.402  1.00  0.00     0.500 C 
HETATM   23  N5  UNL     1      25.287   6.246  11.294  1.00  0.00     0.029 N 
HETATM   24  C7  UNL     1      24.605   7.453  10.806  1.00  0.00     0.530 C 
ATOM     25  H52 UNL     1      26.296   6.211  11.439  1.00  0.00     0.288 HD
ATOM     26  H51 UNL     1      25.389   5.408  10.722  1.00  0.00     0.288 HD
HETATM   27  O4  UNL     1      23.489   7.110  11.611  1.00  0.00    -0.282 OA
BRANCH  24  28
HETATM   28  N6  UNL     1      25.227   8.621  11.398  1.00  0.00    -0.027 N 
ATOM     29  H63 UNL     1      24.555   9.365  11.586  1.00  0.00     0.279 HD
ATOM     30  H62 UNL     1      25.530   8.455  12.358  1.00  0.00     0.279 HD
ATOM     31  H61 UNL     1      25.992   8.931  10.799  1.00  0.00     0.279 HD
ENDBRANCH  24  28
ENDBRANCH  21  22
ENDBRANCH  19  21
ENDBRANCH  16  17
ENDBRANCH  13  16
ENDBRANCH  12  13
ENDBRANCH   7  12
BRANCH   8  32
HETATM   32  C9  UNL     1      23.907   1.588  19.883  1.00  0.00     0.274 C 
BRANCH  32  33
HETATM   33  N7  UNL     1      24.952   0.833  19.299  1.00  0.00    -0.075 N 
ATOM     34  H73 UNL     1      24.839  -0.155  19.524  1.00  0.00     0.274 HD
ATOM     35  H72 UNL     1      24.838   0.801  18.286  1.00  0.00     0.274 HD
ATOM     36  H71 UNL     1      25.895   1.141  19.536  1.00  0.00     0.274 HD
ENDBRANCH  32  33
ENDBRANCH   8  32
BRANCH   9  37
HETATM   37  N8  UNL     1      22.327  -0.469  20.878  1.00  0.00    -0.373 N 
ATOM     38  H8  UNL     1      22.945   0.019  21.527  1.00  0.00     0.161 HD
BRANCH  37  39
HETATM   39  C11 UNL     1      22.120  -1.867  21.088  1.00  0.00     0.147 C 
BRANCH  39  40
HETATM   40  C12 UNL     1      21.210  -2.126  22.280  1.00  0.00     0.183 C 
BRANCH  40  41
HETATM   41  O5  UNL     1      19.884  -2.090  21.842  1.00  0.00    -0.399 OA
ATOM     42  H5  UNL     1      19.426  -2.837  22.208  1.00  0.00     0.209 HD
ENDBRANCH  40  41
ENDBRANCH  39  40
ENDBRANCH  37  39
ENDBRANCH   9  37
TORSDOF 14
ENDMDL
MODEL 2
REMARK VINA RESULT: -5.724316055      0.965      2.382
REMARK  14 active torsions:
REMARK  status: ('A' for Active; 'I' for Inactive)
REMARK    1  A    between atoms: C2_7  and  C3_8 
REMARK    2  A    between atoms: C3_8  and  N3_9 
REMARK    3  A    between atoms: N3_9  and  O1_10 
REMARK    4  A    between atoms: N3_9  and  C4_12 
REMARK    5  A    between atoms: C4_12  and  C5_13 
REMARK       I    between atoms: C5_13  and  N4_15 
REMARK    6  A    between atoms: N4_15  and  O3_17 
REMARK    7  A    between atoms: O3_17  and  C6_18 
REMARK    8  A    between atoms: C7_22  and  N6_23 
REMARK    9  A    between atoms: C8_28  and  C9_29 
REMARK   10  A    between atoms: C9_29  and  N7_30 
REMARK   11  A    between atoms: C10_34  and  N8_35 
REMARK   12  A    between atoms: N8_35  and  C11_37 
REMARK   13  A    between atoms: C11_37  and  C12_38 
REMARK   14  A    between atoms: C12_38  and  O5_39 
ROOT
HETATM    1  N1  UNL     1      25.418   0.930  20.300  1.00  0.00    -0.234 N 
ATOM      2  H11 UNL     1      25.705   0.174  20.921  1.00  0.00     0.174 HD
ATOM      3  H12 UNL     1      26.109   1.613  19.988  1.00  0.00     0.174 HD
HETATM    4  C1  UNL     1      24.190   0.988  19.935  1.00  0.00     0.677 A 
HETATM    5  N2  UNL     1      23.802   2.006  19.097  1.00  0.00    -0.194 N 
ATOM      6  H2  UNL     1      24.489   2.691  18.782  1.00  0.00     0.184 HD
HETATM    7  C2  UNL     1      22.532   2.106  18.692  1.00  0.00     0.053 A 
HETATM    8  C8  UNL     1      21.594   1.156  19.131  1.00  0.00     0.036 A 
HETATM    9  C10 UNL     1      22.010   0.152  19.966  1.00  0.00     0.127 A 
HETATM   10  N9  UNL     1      23.280   0.090  20.344  1.00  0.00    -0.177 N 
ATOM     11  H9  UNL     1      23.575  -0.664  20.966  1.00  0.00     0.186 HD
ENDROOT
BRANCH   7  12
HETATM   12  C3  UNL     1      22.106   3.175  17.785  1.00  0.00     0.179 C 
BRANCH  12  13
HETATM   13  N3  UNL     1      22.282   2.869  16.409  1.00  0.00    -0.185 NA
BRANCH  13  14
HETATM   14  O1  UNL     1      23.362   2.093  16.152  1.00  0.00    -0.312 OA
ATOM     15  H1  UNL     1      23.938   2.442  15.482  1.00  0.00     0.237 HD
ENDBRANCH  13  14
BRANCH  13  16
HETATM   16  C4  UNL     1      22.151   3.964  15.515  1.00  0.00     0.225 C 
BRANCH  16  17
HETATM   17  C5  UNL     1      23.387   4.250  14.764  1.00  0.00     0.256 C 
HETATM   18  O2  UNL     1      24.532   4.367  15.237  1.00  0.00    -0.270 OA
HETATM   19  N4  UNL     1      23.260   4.409  13.350  1.00  0.00    -0.229 N 
ATOM     20  H4  UNL     1      22.339   4.321  12.922  1.00  0.00     0.197 HD
BRANCH  19  21
HETATM   21  O3  UNL     1      24.327   4.672  12.563  1.00  0.00    -0.215 OA
BRANCH  21  22
HETATM   22  C6  UNL     1      24.503   6.049  12.523  1.00  0.00     0.500 C 
HETATM   23  N5  UNL     1      25.170   6.450  11.292  1.00  0.00     0.029 N 
HETATM   24  C7  UNL     1      24.149   7.506  11.242  1.00  0.00     0.530 C 
ATOM     25  H52 UNL     1      26.168   6.654  11.254  1.00  0.00     0.288 HD
ATOM     26  H51 UNL     1      25.323   5.803  10.518  1.00  0.00     0.288 HD
HETATM   27  O4  UNL     1      23.343   6.725  12.107  1.00  0.00    -0.282 OA
BRANCH  24  28
HETATM   28  N6  UNL     1      24.617   8.652  11.998  1.00  0.00    -0.027 N 
ATOM     29  H63 UNL     1      23.974   8.910  12.747  1.00  0.00     0.279 HD
ATOM     30  H62 UNL     1      25.428   8.431  12.576  1.00  0.00     0.279 HD
ATOM     31  H61 UNL     1      24.796   9.424  11.356  1.00  0.00     0.279 HD
ENDBRANCH  24  28
ENDBRANCH  21  22
ENDBRANCH  19  21
ENDBRANCH  16  17
ENDBRANCH  13  16
ENDBRANCH  12  13
ENDBRANCH   7  12
BRANCH   8  32
HETATM   32  C9  UNL     1      20.212   1.325  18.649  1.00  0.00     0.274 C 
BRANCH  32  33
HETATM   33  N7  UNL     1      19.906   0.650  17.444  1.00  0.00    -0.075 N 
ATOM     34  H73 UNL     1      20.741   0.192  17.078  1.00  0.00     0.274 HD
ATOM     35  H72 UNL     1      19.324  -0.165  17.636  1.00  0.00     0.274 HD
ATOM     36  H71 UNL     1      19.477   1.226  16.720  1.00  0.00     0.274 HD
ENDBRANCH  32  33
ENDBRANCH   8  32
BRANCH   9  37
HETATM   37  N8  UNL     1      21.104  -0.693  20.337  1.00  0.00    -0.373 N 
ATOM     38  H8  UNL     1      20.305  -0.832  19.718  1.00  0.00     0.161 HD
BRANCH  37  39
HETATM   39  C11 UNL     1      21.140  -1.447  21.550  1.00  0.00     0.147 C 
BRANCH  39  40
HETATM   40  C12 UNL     1      20.610  -2.859  21.349  1.00  0.00     0.183 C 
BRANCH  40  41
HETATM   41  O5  UNL     1      19.303  -2.915  21.839  1.00  0.00    -0.399 OA
ATOM     42  H5  UNL     1      18.716  -3.087  21.112  1.00  0.00     0.209 HD
ENDBRANCH  40  41
ENDBRANCH  39  40
ENDBRANCH  37  39
ENDBRANCH   9  37
TORSDOF 14
ENDMDL
MODEL 3
REMARK VINA RESULT: -5.693074786      3.089      5.172
REMARK  14 active torsions:
REMARK  status: ('A' for Active; 'I' for Inactive)
REMARK    1  A    between atoms: C2_7  and  C3_8 
REMARK    2  A    between atoms: C3_8  and  N3_9 
REMARK    3  A    between atoms: N3_9  and  O1_10 
REMARK    4  A    between atoms: N3_9  and  C4_12 
REMARK    5  A    between atoms: C4_12  and  C5_13 
REMARK       I    between atoms: C5_13  and  N4_15 
REMARK    6  A    between atoms: N4_15  and  O3_17 
REMARK    7  A    between atoms: O3_17  and  C6_18 
REMARK    8  A    between atoms: C7_22  and  N6_23 
REMARK    9  A    between atoms: C8_28  and  C9_29 
REMARK   10  A    between atoms: C9_29  and  N7_30 
REMARK   11  A    between atoms: C10_34  and  N8_35 
REMARK   12  A    between atoms: N8_35  and  C11_37 
REMARK   13  A    between atoms: C11_37  and  C12_38 
REMARK   14  A    between atoms: C12_38  and  O5_39 
ROOT
HETATM    1  N1  UNL     1      18.984  -4.251  22.243  1.00  0.00    -0.234 N 
ATOM      2  H11 UNL     1      18.666  -5.217  22.166  1.00  0.00     0.174 HD
ATOM      3  H12 UNL     1      18.452  -3.592  22.811  1.00  0.00     0.174 HD
HETATM    4  C1  UNL     1      20.050  -3.906  21.616  1.00  0.00     0.677 A 
HETATM    5  N2  UNL     1      20.478  -2.605  21.720  1.00  0.00    -0.194 N 
ATOM      6  H2  UNL     1      19.950  -1.942  22.287  1.00  0.00     0.184 HD
HETATM    7  C2  UNL     1      21.583  -2.201  21.084  1.00  0.00     0.053 A 
HETATM    8  C8  UNL     1      22.304  -3.123  20.306  1.00  0.00     0.036 A 
HETATM    9  C10 UNL     1      21.851  -4.413  20.222  1.00  0.00     0.127 A 
HETATM   10  N9  UNL     1      20.750  -4.773  20.869  1.00  0.00    -0.177 N 
ATOM     11  H9  UNL     1      20.426  -5.738  20.796  1.00  0.00     0.186 HD
ENDROOT
BRANCH   7  12
HETATM   12  C3  UNL     1      22.063  -0.821  21.198  1.00  0.00     0.179 C 
BRANCH  12  13
HETATM   13  N3  UNL     1      21.411   0.090  20.326  1.00  0.00    -0.185 NA
BRANCH  13  14
HETATM   14  O1  UNL     1      20.371  -0.447  19.646  1.00  0.00    -0.312 OA
ATOM     15  H1  UNL     1      20.423  -0.331  18.704  1.00  0.00     0.237 HD
ENDBRANCH  13  14
BRANCH  13  16
HETATM   16  C4  UNL     1      22.266   0.881  19.514  1.00  0.00     0.225 C 
BRANCH  16  17
HETATM   17  C5  UNL     1      21.540   1.651  18.487  1.00  0.00     0.256 C 
HETATM   18  O2  UNL     1      20.353   2.021  18.539  1.00  0.00    -0.270 OA
HETATM   19  N4  UNL     1      22.271   2.009  17.313  1.00  0.00    -0.229 N 
ATOM     20  H4  UNL     1      23.247   1.724  17.230  1.00  0.00     0.197 HD
BRANCH  19  21
HETATM   21  O3  UNL     1      21.705   2.714  16.308  1.00  0.00    -0.215 OA
BRANCH  21  22
HETATM   22  C6  UNL     1      22.640   3.631  15.846  1.00  0.00     0.500 C 
HETATM   23  N5  UNL     1      23.077   3.293  14.499  1.00  0.00     0.029 N 
HETATM   24  C7  UNL     1      22.900   4.726  14.227  1.00  0.00     0.530 C 
ATOM     25  H52 UNL     1      23.955   2.807  14.317  1.00  0.00     0.288 HD
ATOM     26  H51 UNL     1      22.619   2.571  13.942  1.00  0.00     0.288 HD
HETATM   27  O4  UNL     1      22.040   4.802  15.350  1.00  0.00    -0.282 OA
BRANCH  24  28
HETATM   28  N6  UNL     1      24.124   5.426  14.566  1.00  0.00    -0.027 N 
ATOM     29  H63 UNL     1      24.906   4.789  14.718  1.00  0.00     0.279 HD
ATOM     30  H62 UNL     1      24.510   5.941  13.774  1.00  0.00     0.279 HD
ATOM     31  H61 UNL     1      23.951   6.028  15.372  1.00  0.00     0.279 HD
ENDBRANCH  24  28
ENDBRANCH  21  22
ENDBRANCH  19  21
ENDBRANCH  16  17
ENDBRANCH  13  16
ENDBRANCH  12  13
ENDBRANCH   7  12
BRANCH   8  32
HETATM   32  C9  UNL     1      23.509  -2.612  19.630  1.00  0.00     0.274 C 
BRANCH  32  33
HETATM   33  N7  UNL     1      23.357  -2.344  18.249  1.00  0.00    -0.075 N 
ATOM     34  H73 UNL     1      23.117  -1.362  18.107  1.00  0.00     0.274 HD
ATOM     35  H72 UNL     1      24.264  -2.375  17.784  1.00  0.00     0.274 HD
ATOM     36  H71 UNL     1      22.691  -2.941  17.761  1.00  0.00     0.274 HD
ENDBRANCH  32  33
ENDBRANCH   8  32
BRANCH   9  37
HETATM   37  N8  UNL     1      22.554  -5.218  19.492  1.00  0.00    -0.373 N 
ATOM     38  H8  UNL     1      23.547  -5.307  19.711  1.00  0.00     0.161 HD
BRANCH  37  39
HETATM   39  C11 UNL     1      22.044  -5.989  18.403  1.00  0.00     0.147 C 
BRANCH  39  40
HETATM   40  C12 UNL     1      22.809  -5.715  17.116  1.00  0.00     0.183 C 
BRANCH  40  41
HETATM   41  O5  UNL     1      22.134  -4.721  16.404  1.00  0.00    -0.399 OA
ATOM     42  H5  UNL     1      22.743  -4.323  15.793  1.00  0.00     0.209 HD
ENDBRANCH  40  41
ENDBRANCH  39  40
ENDBRANCH  37  39
ENDBRANCH   9  37
TORSDOF 14
ENDMDL
MODEL 4
REMARK VINA RESULT: -5.584019714      1.032      1.063
REMARK  14 active torsions:
REMARK  status: ('A' for Active; 'I' for Inactive)
REMARK    1  A    between atoms: C2_7  and  C3_8 
REMARK    2  A    between atoms: C3_8  and  N3_9 
REMARK    3  A    between atoms: N3_9  and  O1_10 
REMARK    4  A    between atoms: N3_9  and  C4_12 
REMARK    5  A    between atoms: C4_12  and  C5_13 
REMARK       I    between atoms: C5_13  and  N4_15 
REMARK    6  A    between atoms: N4_15  and  O3_17 
REMARK    7  A    between atoms: O3_17  and  C6_18 
REMARK    8  A    between atoms: C7_22  and  N6_23 
REMARK    9  A    between atoms: C8_28  and  C9_29 
REMARK   10  A    between atoms: C9_29  and  N7_30 
REMARK   11  A    between atoms: C10_34  and  N8_35 
REMARK   12  A    between atoms: N8_35  and  C11_37 
REMARK   13  A    between atoms: C11_37  and  C12_38 
REMARK   14  A    between atoms: C12_38  and  O5_39 
ROOT
HETATM    1  N1  UNL     1      19.273   0.500  18.048  1.00  0.00    -0.234 N 
ATOM      2  H11 UNL     1      18.912  -0.327  18.523  1.00  0.00     0.174 HD
ATOM      3  H12 UNL     1      18.704   0.956  17.334  1.00  0.00     0.174 HD
HETATM    4  C1  UNL     1      20.436   0.932  18.373  1.00  0.00     0.677 A 
HETATM    5  N2  UNL     1      20.923   2.046  17.733  1.00  0.00    -0.194 N 
ATOM      6  H2  UNL     1      20.359   2.507  17.019  1.00  0.00     0.184 HD
HETATM    7  C2  UNL     1      22.131   2.532  18.038  1.00  0.00     0.053 A 
HETATM    8  C8  UNL     1      22.900   1.890  19.024  1.00  0.00     0.036 A 
HETATM    9  C10 UNL     1      22.388   0.781  19.644  1.00  0.00     0.127 A 
HETATM   10  N9  UNL     1      21.184   0.332  19.311  1.00  0.00    -0.177 N 
ATOM     11  H9  UNL     1      20.817  -0.495  19.782  1.00  0.00     0.186 HD
ENDROOT
BRANCH   7  12
HETATM   12  C3  UNL     1      22.657   3.730  17.377  1.00  0.00     0.179 C 
BRANCH  12  13
HETATM   13  N3  UNL     1      22.295   3.839  16.009  1.00  0.00    -0.185 NA
BRANCH  13  14
HETATM   14  O1  UNL     1      22.614   2.753  15.266  1.00  0.00    -0.312 OA
ATOM     15  H1  UNL     1      22.302   2.792  14.370  1.00  0.00     0.237 HD
ENDBRANCH  13  14
BRANCH  13  16
HETATM   16  C4  UNL     1      22.631   5.068  15.381  1.00  0.00     0.225 C 
BRANCH  16  17
HETATM   17  C5  UNL     1      23.768   4.950  14.451  1.00  0.00     0.256 C 
HETATM   18  O2  UNL     1      24.953   4.719  14.752  1.00  0.00    -0.270 OA
HETATM   19  N4  UNL     1      23.483   5.118  13.060  1.00  0.00    -0.229 N 
ATOM     20  H4  UNL     1      22.524   5.310  12.770  1.00  0.00     0.197 HD
BRANCH  19  21
HETATM   21  O3  UNL     1      24.448   5.030  12.118  1.00  0.00    -0.215 OA
BRANCH  21  22
HETATM   22  C6  UNL     1      24.932   6.309  11.877  1.00  0.00     0.500 C 
HETATM   23  N5  UNL     1      25.855   6.309  10.750  1.00  0.00     0.029 N 
HETATM   24  C7  UNL     1      25.117   7.505  10.320  1.00  0.00     0.530 C 
ATOM     25  H52 UNL     1      26.867   6.309  10.875  1.00  0.00     0.288 HD
ATOM     26  H51 UNL     1      25.978   5.497  10.145  1.00  0.00     0.288 HD
HETATM   27  O4  UNL     1      24.031   7.089  11.131  1.00  0.00    -0.282 OA
BRANCH  24  28
HETATM   28  N6  UNL     1      25.705   8.674  10.944  1.00  0.00    -0.027 N 
ATOM     29  H63 UNL     1      25.072   9.119  11.609  1.00  0.00     0.279 HD
ATOM     30  H62 UNL     1      26.451   8.432  11.597  1.00  0.00     0.279 HD
ATOM     31  H61 UNL     1      26.019   9.317  10.217  1.00  0.00     0.279 HD
ENDBRANCH  24  28
ENDBRANCH  21  22
ENDBRANCH  19  21
ENDBRANCH  16  17
ENDBRANCH  13  16
ENDBRANCH  12  13
ENDBRANCH   7  12
BRANCH   8  32
HETATM   32  C9  UNL     1      24.221   2.474  19.310  1.00  0.00     0.274 C 
BRANCH  32  33
HETATM   33  N7  UNL     1      25.300   1.908  18.591  1.00  0.00    -0.075 N 
ATOM     34  H73 UNL     1      26.137   1.888  19.173  1.00  0.00     0.274 HD
ATOM     35  H72 UNL     1      25.148   0.908  18.460  1.00  0.00     0.274 HD
ATOM     36  H71 UNL     1      25.506   2.352  17.696  1.00  0.00     0.274 HD
ENDBRANCH  32  33
ENDBRANCH   8  32
BRANCH   9  37
HETATM   37  N8  UNL     1      23.139   0.232  20.543  1.00  0.00    -0.373 N 
ATOM     38  H8  UNL     1      24.098   0.571  20.628  1.00  0.00     0.161 HD
BRANCH  37  39
HETATM   39  C11 UNL     1      22.726  -0.813  21.425  1.00  0.00     0.147 C 
BRANCH  39  40
HETATM   40  C12 UNL     1      23.101  -2.184  20.882  1.00  0.00     0.183 C 
BRANCH  40  41
HETATM   41  O5  UNL     1      22.039  -2.660  20.108  1.00  0.00    -0.399 OA
ATOM     42  H5  UNL     1      22.320  -3.452  19.666  1.00  0.00     0.209 HD
ENDBRANCH  40  41
ENDBRANCH  39  40
ENDBRANCH  37  39
ENDBRANCH   9  37
TORSDOF 14
ENDMDL
MODEL 5
REMARK VINA RESULT: -5.535128227      2.008      2.230
REMARK  14 active torsions:
REMARK  status: ('A' for Active; 'I' for Inactive)
REMARK    1  A    between atoms: C2_7  and  C3_8 
REMARK    2  A    between atoms: C3_8  and  N3_9 
REMARK    3  A    between atoms: N3_9  and  O1_10 
REMARK    4  A    between atoms: N3_9  and  C4_12 
REMARK    5  A    between atoms: C4_12  and  C5_13 
REMARK       I    between atoms: C5_13  and  N4_15 
REMARK    6  A    between atoms: N4_15  and  O3_17 
REMARK    7  A    between atoms: O3_17  and  C6_18 
REMARK    8  A    between atoms: C7_22  and  N6_23 
REMARK    9  A    between atoms: C8_28  and  C9_29 
REMARK   10  A    between atoms: C9_29  and  N7_30 
REMARK   11  A    between atoms: C10_34  and  N8_35 
REMARK   12  A    between atoms: N8_35  and  C11_37 
REMARK   13  A    between atoms: C11_37  and  C12_38 
REMARK   14  A    between atoms: C12_38  and  O5_39 
ROOT
HETATM    1  N1  UNL     1      19.655   0.600  18.826  1.00  0.00    -0.234 N 
ATOM      2  H11 UNL     1      19.456  -0.314  19.232  1.00  0.00     0.174 HD
ATOM      3  H12 UNL     1      18.885   1.241  18.631  1.00  0.00     0.174 HD
HETATM    4  C1  UNL     1      20.876   0.906  18.578  1.00  0.00     0.677 A 
HETATM    5  N2  UNL     1      21.145   2.137  18.031  1.00  0.00    -0.194 N 
ATOM      6  H2  UNL     1      20.380   2.782  17.835  1.00  0.00     0.184 HD
HETATM    7  C2  UNL     1      22.403   2.498  17.755  1.00  0.00     0.053 A 
HETATM    8  C8  UNL     1      23.451   1.603  18.031  1.00  0.00     0.036 A 
HETATM    9  C10 UNL     1      23.151   0.382  18.576  1.00  0.00     0.127 A 
HETATM   10  N9  UNL     1      21.889   0.064  18.834  1.00  0.00    -0.177 N 
ATOM     11  H9  UNL     1      21.683  -0.849  19.240  1.00  0.00     0.186 HD
ENDROOT
BRANCH   7  12
HETATM   12  C3  UNL     1      22.708   3.815  17.189  1.00  0.00     0.179 C 
BRANCH  12  13
HETATM   13  N3  UNL     1      22.283   3.976  15.843  1.00  0.00    -0.185 NA
BRANCH  13  14
HETATM   14  O1  UNL     1      22.463   2.877  15.074  1.00  0.00    -0.312 OA
ATOM     15  H1  UNL     1      23.260   2.396  15.266  1.00  0.00     0.237 HD
ENDBRANCH  13  14
BRANCH  13  16
HETATM   16  C4  UNL     1      22.692   5.179  15.210  1.00  0.00     0.225 C 
BRANCH  16  17
HETATM   17  C5  UNL     1      23.867   5.003  14.337  1.00  0.00     0.256 C 
HETATM   18  O2  UNL     1      25.027   4.733  14.698  1.00  0.00    -0.270 OA
HETATM   19  N4  UNL     1      23.655   5.157  12.932  1.00  0.00    -0.229 N 
ATOM     20  H4  UNL     1      22.719   5.379  12.593  1.00  0.00     0.197 HD
BRANCH  19  21
HETATM   21  O3  UNL     1      24.660   5.017  12.039  1.00  0.00    -0.215 OA
BRANCH  21  22
HETATM   22  C6  UNL     1      25.158   6.280  11.749  1.00  0.00     0.500 C 
HETATM   23  N5  UNL     1      25.997   6.246  10.560  1.00  0.00     0.029 N 
HETATM   24  C7  UNL     1      25.261   7.456  10.170  1.00  0.00     0.530 C 
ATOM     25  H52 UNL     1      27.015   6.219  10.612  1.00  0.00     0.288 HD
ATOM     26  H51 UNL     1      26.055   5.425   9.956  1.00  0.00     0.288 HD
HETATM   27  O4  UNL     1      24.226   7.077  11.061  1.00  0.00    -0.282 OA
BRANCH  24  28
HETATM   28  N6  UNL     1      25.922   8.615  10.737  1.00  0.00    -0.027 N 
ATOM     29  H63 UNL     1      25.814   9.447  10.156  1.00  0.00     0.279 HD
ATOM     30  H62 UNL     1      25.450   8.962  11.573  1.00  0.00     0.279 HD
ATOM     31  H61 UNL     1      26.901   8.388  10.912  1.00  0.00     0.279 HD
ENDBRANCH  24  28
ENDBRANCH  21  22
ENDBRANCH  19  21
ENDBRANCH  16  17
ENDBRANCH  13  16
ENDBRANCH  12  13
ENDBRANCH   7  12
BRANCH   8  32
HETATM   32  C9  UNL     1      24.811   2.062  17.701  1.00  0.00     0.274 C 
BRANCH  32  33
HETATM   33  N7  UNL     1      25.533   2.631  18.776  1.00  0.00    -0.075 N 
ATOM     34  H73 UNL     1      24.966   3.340  19.242  1.00  0.00     0.274 HD
ATOM     35  H72 UNL     1      25.631   1.954  19.532  1.00  0.00     0.274 HD
ATOM     36  H71 UNL     1      26.445   3.017  18.531  1.00  0.00     0.274 HD
ENDBRANCH  32  33
ENDBRANCH   8  32
BRANCH   9  37
HETATM   37  N8  UNL     1      24.155  -0.400  18.809  1.00  0.00    -0.373 N 
ATOM     38  H8  UNL     1      24.941  -0.016  19.333  1.00  0.00     0.161 HD
BRANCH  37  39
HETATM   39  C11 UNL     1      24.243  -1.762  18.386  1.00  0.00     0.147 C 
BRANCH  39  40
HETATM   40  C12 UNL     1      24.239  -1.879  16.869  1.00  0.00     0.183 C 
BRANCH  40  41
HETATM   41  O5  UNL     1      23.001  -2.389  16.468  1.00  0.00    -0.399 OA
ATOM     42  H5  UNL     1      22.884  -2.203  15.543  1.00  0.00     0.209 HD
ENDBRANCH  40  41
ENDBRANCH  39  40
ENDBRANCH  37  39
ENDBRANCH   9  37
TORSDOF 14
ENDMDL
