MODEL 1
REMARK VINA RESULT: -4.695271704      0.000      0.000
REMARK  14 active torsions:
REMARK  status: ('A' for Active; 'I' for Inactive)
REMARK    1  A    between atoms: N1_1  and  N2_4 
REMARK    2  A    between atoms: C1_6  and  C2_7 
REMARK    3  A    between atoms: C1_6  and  N4_11 
REMARK    4  A    between atoms: C2_7  and  N3_8 
REMARK    5  A    between atoms: N4_11  and  C3_13 
REMARK    6  A    between atoms: C4_14  and  C5_15 
REMARK    7  A    between atoms: C5_15  and  N5_16 
REMARK    8  A    between atoms: C5_15  and  C6_20 
REMARK    9  A    between atoms: C6_20  and  O3_21 
REMARK   10  A    between atoms: C7_25  and  N7_26 
REMARK   11  A    between atoms: N7_26  and  C8_27 
REMARK   12  A    between atoms: C8_27  and  C9_28 
REMARK   13  A    between atoms: C9_28  and  O4_29 
REMARK   14  A    between atoms: C10_33  and  N9_34 
REMARK       I    between atoms: N9_34  and  C11_36 
REMARK       I    between atoms: C11_36  and  N10_37 
REMARK       I    between atoms: C11_36  and  N11_41 
ROOT
HETATM    1  C3  UNL     1      23.145   1.665  18.129  1.00  0.00     0.103 A 
HETATM    2  C4  UNL     1      22.237   0.659  18.365  1.00  0.00     0.076 A 
HETATM    3  N6  UNL     1      22.569  -0.569  18.110  1.00  0.00    -0.316 N 
ATOM      4  H6  UNL     1      21.889  -1.310  18.283  1.00  0.00     0.170 HD
HETATM    5  C7  UNL     1      23.809  -0.904  17.614  1.00  0.00     0.255 A 
HETATM    6  N8  UNL     1      24.717   0.112  17.394  1.00  0.00    -0.301 N 
ATOM      7  H8  UNL     1      25.643  -0.121  17.034  1.00  0.00     0.171 HD
HETATM    8  C10 UNL     1      24.428   1.351  17.631  1.00  0.00     0.136 A 
ENDROOT
BRANCH   1   9
HETATM    9  N4  UNL     1      22.804   3.047  18.307  1.00  0.00    -0.339 N 
ATOM     10  H4  UNL     1      22.586   3.365  19.252  1.00  0.00     0.167 HD
BRANCH   9  11
HETATM   11  C1  UNL     1      22.748   4.001  17.258  1.00  0.00     0.120 C 
HETATM   12  N2  UNL     1      22.344   3.580  16.079  1.00  0.00    -0.294 N 
ATOM     13  H2  UNL     1      22.071   2.601  15.989  1.00  0.00     0.187 HD
BRANCH  12  14
HETATM   14  N1  UNL     1      22.268   4.378  14.961  1.00  0.00    -0.344 N 
ATOM     15  H12 UNL     1      22.883   5.190  14.930  1.00  0.00     0.176 HD
ATOM     16  H11 UNL     1      21.640   4.202  14.176  1.00  0.00     0.176 HD
ENDBRANCH  12  14
BRANCH  11  17
HETATM   17  C2  UNL     1      23.130   5.431  17.315  1.00  0.00     0.278 C 
BRANCH  17  18
HETATM   18  N3  UNL     1      24.554   5.540  17.173  1.00  0.00    -0.148 N 
HETATM   19  O1  UNL     1      25.220   6.151  18.060  1.00  0.00    -0.536 OA
HETATM   20  O2  UNL     1      25.199   4.978  16.073  1.00  0.00    -0.536 OA
ENDBRANCH  17  18
ENDBRANCH  11  17
ENDBRANCH   9  11
ENDBRANCH   1   9
BRANCH   2  21
HETATM   21  C5  UNL     1      20.870   0.931  18.939  1.00  0.00     0.258 C 
BRANCH  21  22
HETATM   22  N5  UNL     1      20.425  -0.016  19.901  1.00  0.00    -0.068 N 
ATOM     23  H53 UNL     1      21.039  -0.831  19.904  1.00  0.00     0.275 HD
ATOM     24  H52 UNL     1      20.593   0.334  20.844  1.00  0.00     0.275 HD
ATOM     25  H51 UNL     1      19.453  -0.307  19.800  1.00  0.00     0.275 HD
ENDBRANCH  21  22
BRANCH  21  26
HETATM   26  C6  UNL     1      19.890   0.819  17.736  1.00  0.00     0.203 C 
BRANCH  26  27
HETATM   27  O3  UNL     1      20.457   1.425  16.600  1.00  0.00    -0.398 OA
ATOM     28  H3  UNL     1      20.871   2.245  16.844  1.00  0.00     0.209 HD
ENDBRANCH  26  27
ENDBRANCH  21  26
ENDBRANCH   2  21
BRANCH   8  29
HETATM   29  N9  UNL     1      25.269   2.295  17.487  1.00  0.00    -0.325 N 
HETATM   30  C11 UNL     1      26.470   2.497  18.282  1.00  0.00     0.481 C 
HETATM   31  N10 UNL     1      26.164   3.445  19.385  1.00  0.00    -0.033 N 
HETATM   32  N11 UNL     1      27.467   3.091  17.437  1.00  0.00    -0.033 N 
ATOM     33 3H10 UNL     1      25.771   4.322  19.045  1.00  0.00     0.278 HD
ATOM     34 2H10 UNL     1      25.370   3.142  19.949  1.00  0.00     0.278 HD
ATOM     35 1H10 UNL     1      27.006   3.586  19.943  1.00  0.00     0.278 HD
ATOM     36 3H11 UNL     1      27.640   2.549  16.590  1.00  0.00     0.278 HD
ATOM     37 2H11 UNL     1      27.143   3.947  16.987  1.00  0.00     0.278 HD
ATOM     38 1H11 UNL     1      28.308   3.233  17.995  1.00  0.00     0.278 HD
ATOM     39  H9  UNL     1      25.084   2.972  16.746  1.00  0.00     0.165 HD
ENDBRANCH   8  29
BRANCH   5  40
HETATM   40  N7  UNL     1      24.098  -2.034  17.264  1.00  0.00    -0.413 NA
BRANCH  40  41
HETATM   41  C8  UNL     1      24.405  -3.267  16.872  1.00  0.00     0.247 C 
BRANCH  41  42
HETATM   42  C9  UNL     1      23.204  -4.276  16.888  1.00  0.00     0.197 C 
BRANCH  42  43
HETATM   43  O4  UNL     1      22.310  -3.875  15.904  1.00  0.00    -0.398 OA
ATOM     44  H4  UNL     1      21.804  -3.152  16.256  1.00  0.00     0.209 HD
ENDBRANCH  42  43
ENDBRANCH  41  42
ENDBRANCH  40  41
ENDBRANCH   5  40
TORSDOF 14
ENDMDL
MODEL 2
REMARK VINA RESULT: -4.587390401      1.233      1.872
REMARK  14 active torsions:
REMARK  status: ('A' for Active; 'I' for Inactive)
REMARK    1  A    between atoms: N1_1  and  N2_4 
REMARK    2  A    between atoms: C1_6  and  C2_7 
REMARK    3  A    between atoms: C1_6  and  N4_11 
REMARK    4  A    between atoms: C2_7  and  N3_8 
REMARK    5  A    between atoms: N4_11  and  C3_13 
REMARK    6  A    between atoms: C4_14  and  C5_15 
REMARK    7  A    between atoms: C5_15  and  N5_16 
REMARK    8  A    between atoms: C5_15  and  C6_20 
REMARK    9  A    between atoms: C6_20  and  O3_21 
REMARK   10  A    between atoms: C7_25  and  N7_26 
REMARK   11  A    between atoms: N7_26  and  C8_27 
REMARK   12  A    between atoms: C8_27  and  C9_28 
REMARK   13  A    between atoms: C9_28  and  O4_29 
REMARK   14  A    between atoms: C10_33  and  N9_34 
REMARK       I    between atoms: N9_34  and  C11_36 
REMARK       I    between atoms: C11_36  and  N10_37 
REMARK       I    between atoms: C11_36  and  N11_41 
ROOT
HETATM    1  C3  UNL     1      23.808   1.277  18.767  1.00  0.00     0.103 A 
HETATM    2  C4  UNL     1      22.806   0.338  18.856  1.00  0.00     0.076 A 
HETATM    3  N6  UNL     1      22.941  -0.796  18.242  1.00  0.00    -0.316 N 
ATOM      4  H6  UNL     1      22.193  -1.485  18.307  1.00  0.00     0.170 HD
HETATM    5  C7  UNL     1      24.064  -1.099  17.504  1.00  0.00     0.255 A 
HETATM    6  N8  UNL     1      25.070  -0.156  17.433  1.00  0.00    -0.301 N 
ATOM      7  H8  UNL     1      25.911  -0.369  16.897  1.00  0.00     0.171 HD
HETATM    8  C10 UNL     1      24.976   0.989  18.028  1.00  0.00     0.136 A 
ENDROOT
BRANCH   1   9
HETATM    9  N4  UNL     1      23.676   2.581  19.350  1.00  0.00    -0.339 N 
ATOM     10  H4  UNL     1      23.706   2.652  20.368  1.00  0.00     0.167 HD
BRANCH   9  11
HETATM   11  C1  UNL     1      23.504   3.778  18.607  1.00  0.00     0.120 C 
HETATM   12  N2  UNL     1      24.361   4.751  18.824  1.00  0.00    -0.294 N 
ATOM     13  H2  UNL     1      25.114   4.587  19.493  1.00  0.00     0.187 HD
BRANCH  12  14
HETATM   14  N1  UNL     1      24.306   5.979  18.205  1.00  0.00    -0.344 N 
ATOM     15  H12 UNL     1      23.721   6.050  17.372  1.00  0.00     0.176 HD
ATOM     16  H11 UNL     1      24.810   6.805  18.528  1.00  0.00     0.176 HD
ENDBRANCH  12  14
BRANCH  11  17
HETATM   17  C2  UNL     1      22.439   4.088  17.625  1.00  0.00     0.278 C 
BRANCH  17  18
HETATM   18  N3  UNL     1      22.758   3.457  16.376  1.00  0.00    -0.148 N 
HETATM   19  O1  UNL     1      21.870   2.783  15.778  1.00  0.00    -0.536 OA
HETATM   20  O2  UNL     1      24.032   3.587  15.825  1.00  0.00    -0.536 OA
ENDBRANCH  17  18
ENDBRANCH  11  17
ENDBRANCH   9  11
ENDBRANCH   1   9
BRANCH   2  21
HETATM   21  C5  UNL     1      21.558   0.572  19.669  1.00  0.00     0.258 C 
BRANCH  21  22
HETATM   22  N5  UNL     1      20.942  -0.606  20.172  1.00  0.00    -0.068 N 
ATOM     23  H53 UNL     1      21.067  -1.377  19.516  1.00  0.00     0.275 HD
ATOM     24  H52 UNL     1      21.467  -0.965  20.969  1.00  0.00     0.275 HD
ATOM     25  H51 UNL     1      19.957  -0.504  20.415  1.00  0.00     0.275 HD
ENDBRANCH  21  22
BRANCH  21  26
HETATM   26  C6  UNL     1      20.538   1.208  18.682  1.00  0.00     0.203 C 
BRANCH  26  27
HETATM   27  O3  UNL     1      20.618   0.566  17.433  1.00  0.00    -0.398 OA
ATOM     28  H3  UNL     1      20.331   1.158  16.747  1.00  0.00     0.209 HD
ENDBRANCH  26  27
ENDBRANCH  21  26
ENDBRANCH   2  21
BRANCH   8  29
HETATM   29  N9  UNL     1      25.914   1.849  18.019  1.00  0.00    -0.325 N 
HETATM   30  C11 UNL     1      27.215   1.698  18.652  1.00  0.00     0.481 C 
HETATM   31  N10 UNL     1      27.169   2.318  20.002  1.00  0.00    -0.033 N 
HETATM   32  N11 UNL     1      28.178   2.410  17.860  1.00  0.00    -0.033 N 
ATOM     33 3H10 UNL     1      26.861   3.289  19.974  1.00  0.00     0.278 HD
ATOM     34 2H10 UNL     1      26.412   1.945  20.576  1.00  0.00     0.278 HD
ATOM     35 1H10 UNL     1      28.081   2.212  20.446  1.00  0.00     0.278 HD
ATOM     36 3H11 UNL     1      28.178   2.118  16.882  1.00  0.00     0.278 HD
ATOM     37 2H11 UNL     1      27.923   3.386  17.710  1.00  0.00     0.278 HD
ATOM     38 1H11 UNL     1      29.090   2.304  18.304  1.00  0.00     0.278 HD
ATOM     39  H9  UNL     1      25.738   2.724  17.525  1.00  0.00     0.165 HD
ENDBRANCH   8  29
BRANCH   5  40
HETATM   40  N7  UNL     1      24.160  -2.109  16.831  1.00  0.00    -0.413 NA
BRANCH  40  41
HETATM   41  C8  UNL     1      24.276  -3.213  16.097  1.00  0.00     0.247 C 
BRANCH  41  42
HETATM   42  C9  UNL     1      23.205  -4.316  16.401  1.00  0.00     0.197 C 
BRANCH  42  43
HETATM   43  O4  UNL     1      22.018  -3.921  15.798  1.00  0.00    -0.398 OA
ATOM     44  H4  UNL     1      22.216  -3.706  14.894  1.00  0.00     0.209 HD
ENDBRANCH  42  43
ENDBRANCH  41  42
ENDBRANCH  40  41
ENDBRANCH   5  40
TORSDOF 14
ENDMDL
MODEL 3
REMARK VINA RESULT: -4.469579964      3.327      7.814
REMARK  14 active torsions:
REMARK  status: ('A' for Active; 'I' for Inactive)
REMARK    1  A    between atoms: N1_1  and  N2_4 
REMARK    2  A    between atoms: C1_6  and  C2_7 
REMARK    3  A    between atoms: C1_6  and  N4_11 
REMARK    4  A    between atoms: C2_7  and  N3_8 
REMARK    5  A    between atoms: N4_11  and  C3_13 
REMARK    6  A    between atoms: C4_14  and  C5_15 
REMARK    7  A    between atoms: C5_15  and  N5_16 
REMARK    8  A    between atoms: C5_15  and  C6_20 
REMARK    9  A    between atoms: C6_20  and  O3_21 
REMARK   10  A    between atoms: C7_25  and  N7_26 
REMARK   11  A    between atoms: N7_26  and  C8_27 
REMARK   12  A    between atoms: C8_27  and  C9_28 
REMARK   13  A    between atoms: C9_28  and  O4_29 
REMARK   14  A    between atoms: C10_33  and  N9_34 
REMARK       I    between atoms: N9_34  and  C11_36 
REMARK       I    between atoms: C11_36  and  N10_37 
REMARK       I    between atoms: C11_36  and  N11_41 
ROOT
HETATM    1  C3  UNL     1      23.076  -2.523  19.567  1.00  0.00     0.103 A 
HETATM    2  C4  UNL     1      23.774  -1.850  18.591  1.00  0.00     0.076 A 
HETATM    3  N6  UNL     1      23.452  -0.627  18.307  1.00  0.00    -0.316 N 
ATOM      4  H6  UNL     1      23.970  -0.135  17.579  1.00  0.00     0.170 HD
HETATM    5  C7  UNL     1      22.433   0.031  18.960  1.00  0.00     0.255 A 
HETATM    6  N8  UNL     1      21.747  -0.648  19.947  1.00  0.00    -0.301 N 
ATOM      7  H8  UNL     1      20.995  -0.172  20.444  1.00  0.00     0.171 HD
HETATM    8  C10 UNL     1      22.033  -1.870  20.260  1.00  0.00     0.136 A 
ENDROOT
BRANCH   1   9
HETATM    9  N4  UNL     1      23.328  -3.904  19.860  1.00  0.00    -0.339 N 
ATOM     10  H4  UNL     1      24.086  -4.122  20.507  1.00  0.00     0.167 HD
BRANCH   9  11
HETATM   11  C1  UNL     1      22.594  -4.987  19.310  1.00  0.00     0.120 C 
HETATM   12  N2  UNL     1      22.504  -5.053  17.999  1.00  0.00    -0.294 N 
ATOM     13  H2  UNL     1      22.984  -4.339  17.451  1.00  0.00     0.187 HD
BRANCH  12  14
HETATM   14  N1  UNL     1      21.803  -6.024  17.323  1.00  0.00    -0.344 N 
ATOM     15  H12 UNL     1      21.463  -6.815  17.871  1.00  0.00     0.176 HD
ATOM     16  H11 UNL     1      21.608  -5.996  16.322  1.00  0.00     0.176 HD
ENDBRANCH  12  14
BRANCH  11  17
HETATM   17  C2  UNL     1      21.872  -6.054  20.041  1.00  0.00     0.278 C 
BRANCH  17  18
HETATM   18  N3  UNL     1      21.193  -5.474  21.165  1.00  0.00    -0.148 N 
HETATM   19  O1  UNL     1      21.814  -5.332  22.258  1.00  0.00    -0.536 OA
HETATM   20  O2  UNL     1      19.864  -5.067  21.053  1.00  0.00    -0.536 OA
ENDBRANCH  17  18
ENDBRANCH  11  17
ENDBRANCH   9  11
ENDBRANCH   1   9
BRANCH   2  21
HETATM   21  C5  UNL     1      24.926  -2.481  17.850  1.00  0.00     0.258 C 
BRANCH  21  22
HETATM   22  N5  UNL     1      26.149  -1.760  17.921  1.00  0.00    -0.068 N 
ATOM     23  H53 UNL     1      25.974  -0.795  18.199  1.00  0.00     0.275 HD
ATOM     24  H52 UNL     1      26.699  -2.077  18.720  1.00  0.00     0.275 HD
ATOM     25  H51 UNL     1      26.713  -1.787  17.071  1.00  0.00     0.275 HD
ENDBRANCH  21  22
BRANCH  21  26
HETATM   26  C6  UNL     1      24.505  -2.475  16.353  1.00  0.00     0.203 C 
BRANCH  26  27
HETATM   27  O3  UNL     1      23.120  -2.692  16.245  1.00  0.00    -0.398 OA
ATOM     28  H3  UNL     1      22.922  -3.109  15.414  1.00  0.00     0.209 HD
ENDBRANCH  26  27
ENDBRANCH  21  26
ENDBRANCH   2  21
BRANCH   8  29
HETATM   29  N9  UNL     1      21.450  -2.495  21.203  1.00  0.00    -0.325 N 
HETATM   30  C11 UNL     1      21.300  -2.025  22.571  1.00  0.00     0.481 C 
HETATM   31  N10 UNL     1      22.405  -2.577  23.396  1.00  0.00    -0.033 N 
HETATM   32  N11 UNL     1      20.057  -2.534  23.080  1.00  0.00    -0.033 N 
ATOM     33 3H10 UNL     1      22.462  -3.594  23.339  1.00  0.00     0.278 HD
ATOM     34 2H10 UNL     1      23.324  -2.361  23.010  1.00  0.00     0.278 HD
ATOM     35 1H10 UNL     1      22.299  -2.248  24.355  1.00  0.00     0.278 HD
ATOM     36 3H11 UNL     1      19.260  -2.294  22.489  1.00  0.00     0.278 HD
ATOM     37 2H11 UNL     1      19.984  -3.548  23.001  1.00  0.00     0.278 HD
ATOM     38 1H11 UNL     1      19.951  -2.205  24.039  1.00  0.00     0.278 HD
ATOM     39  H9  UNL     1      21.054  -3.408  20.980  1.00  0.00     0.165 HD
ENDBRANCH   8  29
BRANCH   5  40
HETATM   40  N7  UNL     1      22.043   1.137  18.631  1.00  0.00    -0.413 NA
BRANCH  40  41
HETATM   41  C8  UNL     1      21.620   2.343  18.260  1.00  0.00     0.247 C 
BRANCH  41  42
HETATM   42  C9  UNL     1      22.321   2.916  16.981  1.00  0.00     0.197 C 
BRANCH  42  43
HETATM   43  O4  UNL     1      21.502   2.637  15.896  1.00  0.00    -0.398 OA
ATOM     44  H4  UNL     1      21.768   1.794  15.547  1.00  0.00     0.209 HD
ENDBRANCH  42  43
ENDBRANCH  41  42
ENDBRANCH  40  41
ENDBRANCH   5  40
TORSDOF 14
ENDMDL
MODEL 4
REMARK VINA RESULT: -4.422007994      4.740      9.034
REMARK  14 active torsions:
REMARK  status: ('A' for Active; 'I' for Inactive)
REMARK    1  A    between atoms: N1_1  and  N2_4 
REMARK    2  A    between atoms: C1_6  and  C2_7 
REMARK    3  A    between atoms: C1_6  and  N4_11 
REMARK    4  A    between atoms: C2_7  and  N3_8 
REMARK    5  A    between atoms: N4_11  and  C3_13 
REMARK    6  A    between atoms: C4_14  and  C5_15 
REMARK    7  A    between atoms: C5_15  and  N5_16 
REMARK    8  A    between atoms: C5_15  and  C6_20 
REMARK    9  A    between atoms: C6_20  and  O3_21 
REMARK   10  A    between atoms: C7_25  and  N7_26 
REMARK   11  A    between atoms: N7_26  and  C8_27 
REMARK   12  A    between atoms: C8_27  and  C9_28 
REMARK   13  A    between atoms: C9_28  and  O4_29 
REMARK   14  A    between atoms: C10_33  and  N9_34 
REMARK       I    between atoms: N9_34  and  C11_36 
REMARK       I    between atoms: C11_36  and  N10_37 
REMARK       I    between atoms: C11_36  and  N11_41 
ROOT
HETATM    1  C3  UNL     1      21.937  -3.755  21.041  1.00  0.00     0.103 A 
HETATM    2  C4  UNL     1      22.738  -3.365  19.993  1.00  0.00     0.076 A 
HETATM    3  N6  UNL     1      22.730  -2.125  19.612  1.00  0.00    -0.316 N 
ATOM      4  H6  UNL     1      23.322  -1.844  18.832  1.00  0.00     0.170 HD
HETATM    5  C7  UNL     1      21.945  -1.176  20.230  1.00  0.00     0.255 A 
HETATM    6  N8  UNL     1      21.155  -1.575  21.289  1.00  0.00    -0.301 N 
ATOM      7  H8  UNL     1      20.574  -0.882  21.762  1.00  0.00     0.171 HD
HETATM    8  C10 UNL     1      21.131  -2.801  21.700  1.00  0.00     0.136 A 
ENDROOT
BRANCH   1   9
HETATM    9  N4  UNL     1      21.838  -5.127  21.446  1.00  0.00    -0.339 N 
ATOM     10  H4  UNL     1      22.541  -5.483  22.095  1.00  0.00     0.167 HD
BRANCH   9  11
HETATM   11  C1  UNL     1      20.829  -6.023  21.006  1.00  0.00     0.120 C 
HETATM   12  N2  UNL     1      20.554  -6.038  19.720  1.00  0.00    -0.294 N 
ATOM     13  H2  UNL     1      21.095  -5.426  19.108  1.00  0.00     0.187 HD
BRANCH  12  14
HETATM   14  N1  UNL     1      19.583  -6.828  19.149  1.00  0.00    -0.344 N 
ATOM     15  H12 UNL     1      18.840  -6.350  18.639  1.00  0.00     0.176 HD
ATOM     16  H11 UNL     1      19.568  -7.846  19.208  1.00  0.00     0.176 HD
ENDBRANCH  12  14
BRANCH  11  17
HETATM   17  C2  UNL     1      20.005  -6.935  21.833  1.00  0.00     0.278 C 
BRANCH  17  18
HETATM   18  N3  UNL     1      18.841  -6.229  22.288  1.00  0.00    -0.148 N 
HETATM   19  O1  UNL     1      17.821  -6.172  21.542  1.00  0.00    -0.536 OA
HETATM   20  O2  UNL     1      18.833  -5.615  23.540  1.00  0.00    -0.536 OA
ENDBRANCH  17  18
ENDBRANCH  11  17
ENDBRANCH   9  11
ENDBRANCH   1   9
BRANCH   2  21
HETATM   21  C5  UNL     1      23.654  -4.329  19.281  1.00  0.00     0.258 C 
BRANCH  21  22
HETATM   22  N5  UNL     1      25.041  -4.069  19.446  1.00  0.00    -0.068 N 
ATOM     23  H53 UNL     1      25.593  -4.769  18.950  1.00  0.00     0.275 HD
ATOM     24  H52 UNL     1      25.307  -3.233  18.925  1.00  0.00     0.275 HD
ATOM     25  H51 UNL     1      25.352  -3.995  20.415  1.00  0.00     0.275 HD
ENDBRANCH  21  22
BRANCH  21  26
HETATM   26  C6  UNL     1      23.353  -4.141  17.767  1.00  0.00     0.203 C 
BRANCH  26  27
HETATM   27  O3  UNL     1      22.285  -4.973  17.385  1.00  0.00    -0.398 OA
ATOM     28  H3  UNL     1      22.015  -4.764  16.498  1.00  0.00     0.209 HD
ENDBRANCH  26  27
ENDBRANCH  21  26
ENDBRANCH   2  21
BRANCH   8  29
HETATM   29  N9  UNL     1      20.452  -3.177  22.708  1.00  0.00    -0.325 N 
HETATM   30  C11 UNL     1      20.838  -3.023  24.102  1.00  0.00     0.481 C 
HETATM   31  N10 UNL     1      21.502  -4.271  24.559  1.00  0.00    -0.033 N 
HETATM   32  N11 UNL     1      19.642  -2.838  24.875  1.00  0.00    -0.033 N 
ATOM     33 3H10 UNL     1      20.925  -5.098  24.405  1.00  0.00     0.278 HD
ATOM     34 2H10 UNL     1      22.289  -4.534  23.965  1.00  0.00     0.278 HD
ATOM     35 1H10 UNL     1      21.773  -4.164  25.536  1.00  0.00     0.278 HD
ATOM     36 3H11 UNL     1      19.069  -2.065  24.536  1.00  0.00     0.278 HD
ATOM     37 2H11 UNL     1      18.961  -3.583  24.735  1.00  0.00     0.278 HD
ATOM     38 1H11 UNL     1      19.913  -2.730  25.853  1.00  0.00     0.278 HD
ATOM     39  H9  UNL     1      19.556  -3.628  22.523  1.00  0.00     0.165 HD
ENDBRANCH   8  29
BRANCH   5  40
HETATM   40  N7  UNL     1      21.839  -0.036  19.816  1.00  0.00    -0.413 NA
BRANCH  40  41
HETATM   41  C8  UNL     1      21.718   1.206  19.354  1.00  0.00     0.247 C 
BRANCH  41  42
HETATM   42  C9  UNL     1      20.401   1.477  18.547  1.00  0.00     0.197 C 
BRANCH  42  43
HETATM   43  O4  UNL     1      20.421   0.655  17.429  1.00  0.00    -0.398 OA
ATOM     44  H4  UNL     1      20.892   1.116  16.744  1.00  0.00     0.209 HD
ENDBRANCH  42  43
ENDBRANCH  41  42
ENDBRANCH  40  41
ENDBRANCH   5  40
TORSDOF 14
ENDMDL
MODEL 5
REMARK VINA RESULT: -4.341905402      4.340      7.700
REMARK  14 active torsions:
REMARK  status: ('A' for Active; 'I' for Inactive)
REMARK    1  A    between atoms: N1_1  and  N2_4 
REMARK    2  A    between atoms: C1_6  and  C2_7 
REMARK    3  A    between atoms: C1_6  and  N4_11 
REMARK    4  A    between atoms: C2_7  and  N3_8 
REMARK    5  A    between atoms: N4_11  and  C3_13 
REMARK    6  A    between atoms: C4_14  and  C5_15 
REMARK    7  A    between atoms: C5_15  and  N5_16 
REMARK    8  A    between atoms: C5_15  and  C6_20 
REMARK    9  A    between atoms: C6_20  and  O3_21 
REMARK   10  A    between atoms: C7_25  and  N7_26 
REMARK   11  A    between atoms: N7_26  and  C8_27 
REMARK   12  A    between atoms: C8_27  and  C9_28 
REMARK   13  A    between atoms: C9_28  and  O4_29 
REMARK   14  A    between atoms: C10_33  and  N9_34 
REMARK       I    between atoms: N9_34  and  C11_36 
REMARK       I    between atoms: C11_36  and  N10_37 
REMARK       I    between atoms: C11_36  and  N11_41 
ROOT
HETATM    1  C3  UNL     1      24.108   5.913  14.685  1.00  0.00     0.103 A 
HETATM    2  C4  UNL     1      23.419   5.426  15.772  1.00  0.00     0.076 A 
HETATM    3  N6  UNL     1      22.827   6.255  16.574  1.00  0.00    -0.316 N 
ATOM      4  H6  UNL     1      22.322   5.887  17.380  1.00  0.00     0.170 HD
HETATM    5  C7  UNL     1      22.857   7.617  16.370  1.00  0.00     0.255 A 
HETATM    6  N8  UNL     1      23.539   8.095  15.270  1.00  0.00    -0.301 N 
ATOM      7  H8  UNL     1      23.564   9.101  15.102  1.00  0.00     0.171 HD
HETATM    8  C10 UNL     1      24.146   7.304  14.445  1.00  0.00     0.136 A 
ENDROOT
BRANCH   1   9
HETATM    9  N4  UNL     1      24.855   5.052  13.816  1.00  0.00    -0.339 N 
ATOM     10  H4  UNL     1      24.339   4.520  13.114  1.00  0.00     0.167 HD
BRANCH   9  11
HETATM   11  C1  UNL     1      26.264   4.888  13.867  1.00  0.00     0.120 C 
HETATM   12  N2  UNL     1      26.806   4.686  15.048  1.00  0.00    -0.294 N 
ATOM     13  H2  UNL     1      26.186   4.634  15.857  1.00  0.00     0.187 HD
BRANCH  12  14
HETATM   14  N1  UNL     1      28.158   4.541  15.260  1.00  0.00    -0.344 N 
ATOM     15  H12 UNL     1      28.598   3.705  14.876  1.00  0.00     0.176 HD
ATOM     16  H11 UNL     1      28.731   5.212  15.772  1.00  0.00     0.176 HD
ENDBRANCH  12  14
BRANCH  11  17
HETATM   17  C2  UNL     1      27.223   4.952  12.740  1.00  0.00     0.278 C 
BRANCH  17  18
HETATM   18  N3  UNL     1      26.575   5.551  11.608  1.00  0.00    -0.148 N 
HETATM   19  O1  UNL     1      25.691   4.897  10.983  1.00  0.00    -0.536 OA
HETATM   20  O2  UNL     1      26.912   6.842  11.203  1.00  0.00    -0.536 OA
ENDBRANCH  17  18
ENDBRANCH  11  17
ENDBRANCH   9  11
ENDBRANCH   1   9
BRANCH   2  21
HETATM   21  C5  UNL     1      23.305   3.948  16.052  1.00  0.00     0.258 C 
BRANCH  21  22
HETATM   22  N5  UNL     1      22.253   3.288  15.359  1.00  0.00    -0.068 N 
ATOM     23  H53 UNL     1      21.996   3.814  14.524  1.00  0.00     0.275 HD
ATOM     24  H52 UNL     1      22.599   2.430  14.929  1.00  0.00     0.275 HD
ATOM     25  H51 UNL     1      21.426   3.092  15.923  1.00  0.00     0.275 HD
ENDBRANCH  21  22
BRANCH  21  26
HETATM   26  C6  UNL     1      22.962   3.842  17.565  1.00  0.00     0.203 C 
BRANCH  26  27
HETATM   27  O3  UNL     1      21.639   3.393  17.725  1.00  0.00    -0.398 OA
ATOM     28  H3  UNL     1      21.473   3.196  18.640  1.00  0.00     0.209 HD
ENDBRANCH  26  27
ENDBRANCH  21  26
ENDBRANCH   2  21
BRANCH   8  29
HETATM   29  N9  UNL     1      24.733   7.721  13.396  1.00  0.00    -0.325 N 
HETATM   30  C11 UNL     1      24.097   8.387  12.271  1.00  0.00     0.481 C 
HETATM   31  N10 UNL     1      23.773   7.376  11.231  1.00  0.00    -0.033 N 
HETATM   32  N11 UNL     1      25.040   9.319  11.718  1.00  0.00    -0.033 N 
ATOM     33 3H10 UNL     1      24.589   6.832  10.950  1.00  0.00     0.278 HD
ATOM     34 2H10 UNL     1      23.210   6.609  11.597  1.00  0.00     0.278 HD
ATOM     35 1H10 UNL     1      23.327   7.843  10.442  1.00  0.00     0.278 HD
ATOM     36 3H11 UNL     1      25.401   9.974  12.412  1.00  0.00     0.278 HD
ATOM     37 2H11 UNL     1      25.926   8.883  11.468  1.00  0.00     0.278 HD
ATOM     38 1H11 UNL     1      24.593   9.786  10.928  1.00  0.00     0.278 HD
ATOM     39  H9  UNL     1      25.741   7.574  13.339  1.00  0.00     0.165 HD
ENDBRANCH   8  29
BRANCH   5  40
HETATM   40  N7  UNL     1      22.404   8.415  17.172  1.00  0.00    -0.413 NA
BRANCH  40  41
HETATM   41  C8  UNL     1      21.920   9.284  18.054  1.00  0.00     0.247 C 
BRANCH  41  42
HETATM   42  C9  UNL     1      21.228   8.633  19.301  1.00  0.00     0.197 C 
BRANCH  42  43
HETATM   43  O4  UNL     1      20.185   7.844  18.834  1.00  0.00    -0.398 OA
ATOM     44  H4  UNL     1      20.444   6.936  18.940  1.00  0.00     0.209 HD
ENDBRANCH  42  43
ENDBRANCH  41  42
ENDBRANCH  40  41
ENDBRANCH   5  40
TORSDOF 14
ENDMDL
