MODEL 1
REMARK VINA RESULT: -4.684106939      0.000      0.000
REMARK  14 active torsions:
REMARK  status: ('A' for Active; 'I' for Inactive)
REMARK    1  A    between atoms: N1_1  and  N2_4 
REMARK       I    between atoms: N2_4  and  C1_6 
REMARK    2  A    between atoms: C1_6  and  C2_8 
REMARK    3  A    between atoms: C3_9  and  C4_10 
REMARK    4  A    between atoms: C4_10  and  N3_11 
REMARK    5  A    between atoms: C4_10  and  C5_15 
REMARK    6  A    between atoms: C5_15  and  C6_17 
REMARK    7  A    between atoms: C6_17  and  O3_18 
REMARK    8  A    between atoms: C7_22  and  C8_23 
REMARK    9  A    between atoms: C9_28  and  N7_29 
REMARK   10  A    between atoms: N7_29  and  C10_30 
REMARK   11  A    between atoms: N7_29  and  N8_34 
REMARK   12  A    between atoms: C10_30  and  C11_31 
REMARK   13  A    between atoms: C11_31  and  O5_32 
REMARK   14  A    between atoms: N8_34  and  N9_35 
ROOT
HETATM    1  C2  UNL     1      24.263   6.140  14.111  1.00  0.00     0.104 A 
HETATM    2  C3  UNL     1      23.733   5.539  15.226  1.00  0.00     0.068 A 
HETATM    3  N4  UNL     1      22.947   6.248  16.106  1.00  0.00    -0.339 N 
ATOM      4  H4  UNL     1      22.565   5.775  16.925  1.00  0.00     0.167 HD
HETATM    5  C7  UNL     1      22.676   7.533  15.910  1.00  0.00     0.173 A 
HETATM    6  N6  UNL     1      23.187   8.135  14.830  1.00  0.00    -0.323 N 
ATOM      7  H6  UNL     1      22.982   9.122  14.676  1.00  0.00     0.169 HD
HETATM    8  C9  UNL     1      23.956   7.492  13.944  1.00  0.00     0.140 A 
ENDROOT
BRANCH   2   9
HETATM    9  C4  UNL     1      24.004   4.136  15.587  1.00  0.00     0.305 C 
BRANCH   9  10
HETATM   10  N3  UNL     1      22.879   3.315  15.125  1.00  0.00    -0.063 N 
ATOM     11  H33 UNL     1      22.645   2.567  15.777  1.00  0.00     0.275 HD
ATOM     12  H32 UNL     1      21.990   3.813  15.160  1.00  0.00     0.275 HD
ATOM     13  H31 UNL     1      23.098   2.968  14.191  1.00  0.00     0.275 HD
ENDBRANCH   9  10
BRANCH   9  14
HETATM   14  C5  UNL     1      23.998   4.070  17.117  1.00  0.00     0.186 C 
HETATM   15  O2  UNL     1      24.765   4.758  17.729  1.00  0.00    -0.293 OA
BRANCH  14  16
HETATM   16  C6  UNL     1      23.053   3.166  17.809  1.00  0.00     0.245 C 
BRANCH  16  17
HETATM   17  O3  UNL     1      21.774   3.660  17.697  1.00  0.00    -0.394 OA
ATOM     18  H3  UNL     1      21.569   4.191  18.457  1.00  0.00     0.209 HD
ENDBRANCH  16  17
ENDBRANCH  14  16
ENDBRANCH   9  14
ENDBRANCH   2   9
BRANCH   1  19
HETATM   19  C1  UNL     1      25.012   5.460  13.071  1.00  0.00     0.275 C 
HETATM   20  N2  UNL     1      26.395   5.175  13.135  1.00  0.00    -0.272 N 
ATOM     21  H2  UNL     1      26.937   5.446  13.955  1.00  0.00     0.189 HD
HETATM   22  O1  UNL     1      24.455   5.053  11.998  1.00  0.00    -0.266 OA
BRANCH  20  23
HETATM   23  N1  UNL     1      27.033   4.501  12.039  1.00  0.00    -0.342 N 
ATOM     24  H12 UNL     1      26.507   3.808  11.507  1.00  0.00     0.176 HD
ATOM     25  H11 UNL     1      28.001   4.721  11.805  1.00  0.00     0.176 HD
ENDBRANCH  20  23
ENDBRANCH   1  19
BRANCH   8  26
HETATM   26  N7  UNL     1      24.516   8.198  12.834  1.00  0.00    -0.258 N 
BRANCH  26  27
HETATM   27  C10 UNL     1      25.920   8.487  12.898  1.00  0.00     0.174 C 
BRANCH  27  28
HETATM   28  C11 UNL     1      26.646   8.446  11.586  1.00  0.00     0.185 C 
BRANCH  28  29
HETATM   29  O5  UNL     1      26.340   7.323  10.838  1.00  0.00    -0.399 OA
ATOM     30  H5  UNL     1      25.414   7.255  10.637  1.00  0.00     0.209 HD
ENDBRANCH  28  29
ENDBRANCH  27  28
ENDBRANCH  26  27
BRANCH  26  31
HETATM   31  N8  UNL     1      23.740   8.601  11.768  1.00  0.00    -0.026 NA
BRANCH  31  32
HETATM   32  N9  UNL     1      23.236   7.540  10.998  1.00  0.00    -0.328 N 
ATOM     33  H92 UNL     1      23.843   6.833  10.584  1.00  0.00     0.174 HD
ATOM     34  H91 UNL     1      22.221   7.548  10.897  1.00  0.00     0.174 HD
ENDBRANCH  31  32
ENDBRANCH  26  31
ENDBRANCH   8  26
BRANCH   5  35
HETATM   35  C8  UNL     1      21.834   8.252  16.871  1.00  0.00     0.298 C 
HETATM   36  N5  UNL     1      21.407   9.556  16.548  1.00  0.00    -0.054 NA
HETATM   37  O4  UNL     1      21.540   7.657  17.935  1.00  0.00    -0.268 OA
ENDBRANCH   5  35
TORSDOF 14
ENDMDL
MODEL 2
REMARK VINA RESULT: -4.594098328      1.366      1.734
REMARK  14 active torsions:
REMARK  status: ('A' for Active; 'I' for Inactive)
REMARK    1  A    between atoms: N1_1  and  N2_4 
REMARK       I    between atoms: N2_4  and  C1_6 
REMARK    2  A    between atoms: C1_6  and  C2_8 
REMARK    3  A    between atoms: C3_9  and  C4_10 
REMARK    4  A    between atoms: C4_10  and  N3_11 
REMARK    5  A    between atoms: C4_10  and  C5_15 
REMARK    6  A    between atoms: C5_15  and  C6_17 
REMARK    7  A    between atoms: C6_17  and  O3_18 
REMARK    8  A    between atoms: C7_22  and  C8_23 
REMARK    9  A    between atoms: C9_28  and  N7_29 
REMARK   10  A    between atoms: N7_29  and  C10_30 
REMARK   11  A    between atoms: N7_29  and  N8_34 
REMARK   12  A    between atoms: C10_30  and  C11_31 
REMARK   13  A    between atoms: C11_31  and  O5_32 
REMARK   14  A    between atoms: N8_34  and  N9_35 
ROOT
HETATM    1  C2  UNL     1      23.901   6.090  14.380  1.00  0.00     0.104 A 
HETATM    2  C3  UNL     1      23.330   5.559  15.510  1.00  0.00     0.068 A 
HETATM    3  N4  UNL     1      22.654   6.359  16.404  1.00  0.00    -0.339 N 
ATOM      4  H4  UNL     1      22.239   5.937  17.235  1.00  0.00     0.167 HD
HETATM    5  C7  UNL     1      22.533   7.666  16.208  1.00  0.00     0.173 A 
HETATM    6  N6  UNL     1      23.086   8.200  15.113  1.00  0.00    -0.323 N 
ATOM      7  H6  UNL     1      22.996   9.204  14.957  1.00  0.00     0.169 HD
HETATM    8  C9  UNL     1      23.752   7.468  14.213  1.00  0.00     0.140 A 
ENDROOT
BRANCH   2   9
HETATM    9  C4  UNL     1      23.441   4.135  15.874  1.00  0.00     0.305 C 
BRANCH   9  10
HETATM   10  N3  UNL     1      22.427   3.387  15.122  1.00  0.00    -0.063 N 
ATOM     11  H33 UNL     1      21.628   3.964  14.859  1.00  0.00     0.275 HD
ATOM     12  H32 UNL     1      22.737   3.143  14.181  1.00  0.00     0.275 HD
ATOM     13  H31 UNL     1      22.159   2.570  15.670  1.00  0.00     0.275 HD
ENDBRANCH   9  10
BRANCH   9  14
HETATM   14  C5  UNL     1      23.059   4.030  17.353  1.00  0.00     0.186 C 
HETATM   15  O2  UNL     1      21.934   3.732  17.641  1.00  0.00    -0.293 OA
BRANCH  14  16
HETATM   16  C6  UNL     1      24.076   4.296  18.394  1.00  0.00     0.245 C 
BRANCH  16  17
HETATM   17  O3  UNL     1      23.820   5.510  18.990  1.00  0.00    -0.394 OA
ATOM     18  H3  UNL     1      23.465   5.370  19.860  1.00  0.00     0.209 HD
ENDBRANCH  16  17
ENDBRANCH  14  16
ENDBRANCH   9  14
ENDBRANCH   2   9
BRANCH   1  19
HETATM   19  C1  UNL     1      24.539   5.322  13.327  1.00  0.00     0.275 C 
HETATM   20  N2  UNL     1      25.931   5.291  13.089  1.00  0.00    -0.272 N 
ATOM     21  H2  UNL     1      26.565   5.829  13.680  1.00  0.00     0.189 HD
HETATM   22  O1  UNL     1      23.866   4.594  12.524  1.00  0.00    -0.266 OA
BRANCH  20  23
HETATM   23  N1  UNL     1      26.451   4.498  12.010  1.00  0.00    -0.342 N 
ATOM     24  H12 UNL     1      26.926   3.621  12.221  1.00  0.00     0.176 HD
ATOM     25  H11 UNL     1      26.339   4.819  11.048  1.00  0.00     0.176 HD
ENDBRANCH  20  23
ENDBRANCH   1  19
BRANCH   8  26
HETATM   26  N7  UNL     1      24.365   8.099  13.085  1.00  0.00    -0.258 N 
BRANCH  26  27
HETATM   27  C10 UNL     1      23.505   8.423  11.984  1.00  0.00     0.174 C 
BRANCH  27  28
HETATM   28  C11 UNL     1      23.731   7.624  10.735  1.00  0.00     0.185 C 
BRANCH  28  29
HETATM   29  O5  UNL     1      24.954   6.978  10.724  1.00  0.00    -0.399 OA
ATOM     30  H5  UNL     1      25.577   7.376  10.127  1.00  0.00     0.209 HD
ENDBRANCH  28  29
ENDBRANCH  27  28
ENDBRANCH  26  27
BRANCH  26  31
HETATM   31  N8  UNL     1      25.718   8.361  13.051  1.00  0.00    -0.026 NA
BRANCH  31  32
HETATM   32  N9  UNL     1      26.045   9.592  12.460  1.00  0.00    -0.328 N 
ATOM     33  H92 UNL     1      25.342  10.303  12.261  1.00  0.00     0.174 HD
ATOM     34  H91 UNL     1      27.038   9.702  12.254  1.00  0.00     0.174 HD
ENDBRANCH  31  32
ENDBRANCH  26  31
ENDBRANCH   8  26
BRANCH   5  35
HETATM   35  C8  UNL     1      21.805   8.483  17.184  1.00  0.00     0.298 C 
HETATM   36  N5  UNL     1      21.803   8.076  18.534  1.00  0.00    -0.054 NA
HETATM   37  O4  UNL     1      21.221   9.506  16.755  1.00  0.00    -0.268 OA
ENDBRANCH   5  35
TORSDOF 14
ENDMDL
MODEL 3
REMARK VINA RESULT: -4.327883155      1.860      4.124
REMARK  14 active torsions:
REMARK  status: ('A' for Active; 'I' for Inactive)
REMARK    1  A    between atoms: N1_1  and  N2_4 
REMARK       I    between atoms: N2_4  and  C1_6 
REMARK    2  A    between atoms: C1_6  and  C2_8 
REMARK    3  A    between atoms: C3_9  and  C4_10 
REMARK    4  A    between atoms: C4_10  and  N3_11 
REMARK    5  A    between atoms: C4_10  and  C5_15 
REMARK    6  A    between atoms: C5_15  and  C6_17 
REMARK    7  A    between atoms: C6_17  and  O3_18 
REMARK    8  A    between atoms: C7_22  and  C8_23 
REMARK    9  A    between atoms: C9_28  and  N7_29 
REMARK   10  A    between atoms: N7_29  and  C10_30 
REMARK   11  A    between atoms: N7_29  and  N8_34 
REMARK   12  A    between atoms: C10_30  and  C11_31 
REMARK   13  A    between atoms: C11_31  and  O5_32 
REMARK   14  A    between atoms: N8_34  and  N9_35 
ROOT
HETATM    1  C2  UNL     1      23.917   6.662  15.081  1.00  0.00     0.104 A 
HETATM    2  C3  UNL     1      23.480   6.960  16.348  1.00  0.00     0.068 A 
HETATM    3  N4  UNL     1      23.092   5.965  17.215  1.00  0.00    -0.339 N 
ATOM      4  H4  UNL     1      22.774   6.215  18.151  1.00  0.00     0.167 HD
HETATM    5  C7  UNL     1      23.125   4.686  16.860  1.00  0.00     0.173 A 
HETATM    6  N6  UNL     1      23.545   4.378  15.627  1.00  0.00    -0.323 N 
ATOM      7  H6  UNL     1      23.572   3.397  15.349  1.00  0.00     0.169 HD
HETATM    8  C9  UNL     1      23.933   5.306  14.746  1.00  0.00     0.140 A 
ENDROOT
BRANCH   2   9
HETATM    9  C4  UNL     1      23.343   8.340  16.846  1.00  0.00     0.305 C 
BRANCH   9  10
HETATM   10  N3  UNL     1      24.375   8.568  17.864  1.00  0.00    -0.063 N 
ATOM     11  H33 UNL     1      24.160   8.111  18.750  1.00  0.00     0.275 HD
ATOM     12  H32 UNL     1      25.243   8.074  17.659  1.00  0.00     0.275 HD
ATOM     13  H31 UNL     1      24.510   9.574  17.964  1.00  0.00     0.275 HD
ENDBRANCH   9  10
BRANCH   9  14
HETATM   14  C5  UNL     1      21.993   8.414  17.564  1.00  0.00     0.186 C 
HETATM   15  O2  UNL     1      20.997   8.150  16.952  1.00  0.00    -0.293 OA
BRANCH  14  16
HETATM   16  C6  UNL     1      21.939   8.808  18.989  1.00  0.00     0.245 C 
BRANCH  16  17
HETATM   17  O3  UNL     1      22.293   7.738  19.778  1.00  0.00    -0.394 OA
ATOM     18  H3  UNL     1      22.516   8.044  20.649  1.00  0.00     0.209 HD
ENDBRANCH  16  17
ENDBRANCH  14  16
ENDBRANCH   9  14
ENDBRANCH   2   9
BRANCH   1  19
HETATM   19  C1  UNL     1      24.445   7.623  14.131  1.00  0.00     0.275 C 
HETATM   20  N2  UNL     1      23.778   8.041  12.958  1.00  0.00    -0.272 N 
ATOM     21  H2  UNL     1      22.857   7.667  12.731  1.00  0.00     0.189 HD
HETATM   22  O1  UNL     1      25.580   8.181  14.300  1.00  0.00    -0.266 OA
BRANCH  20  23
HETATM   23  N1  UNL     1      24.403   8.996  12.086  1.00  0.00    -0.342 N 
ATOM     24  H12 UNL     1      24.399   9.983  12.344  1.00  0.00     0.176 HD
ATOM     25  H11 UNL     1      24.843   8.679  11.222  1.00  0.00     0.176 HD
ENDBRANCH  20  23
ENDBRANCH   1  19
BRANCH   8  26
HETATM   26  N7  UNL     1      24.326   4.923  13.425  1.00  0.00    -0.258 N 
BRANCH  26  27
HETATM   27  C10 UNL     1      25.734   4.921  13.150  1.00  0.00     0.174 C 
BRANCH  27  28
HETATM   28  C11 UNL     1      26.114   5.258  11.738  1.00  0.00     0.185 C 
BRANCH  28  29
HETATM   29  O5  UNL     1      25.289   6.214  11.174  1.00  0.00    -0.399 OA
ATOM     30  H5  UNL     1      24.372   5.968  11.194  1.00  0.00     0.209 HD
ENDBRANCH  28  29
ENDBRANCH  27  28
ENDBRANCH  26  27
BRANCH  26  31
HETATM   31  N8  UNL     1      23.398   4.596  12.461  1.00  0.00    -0.026 NA
BRANCH  31  32
HETATM   32  N9  UNL     1      23.402   3.238  12.104  1.00  0.00    -0.328 N 
ATOM     33  H92 UNL     1      23.825   2.906  11.237  1.00  0.00     0.174 HD
ATOM     34  H91 UNL     1      22.948   2.629  12.785  1.00  0.00     0.174 HD
ENDBRANCH  31  32
ENDBRANCH  26  31
ENDBRANCH   8  26
BRANCH   5  35
HETATM   35  C8  UNL     1      22.704   3.656  17.814  1.00  0.00     0.298 C 
HETATM   36  N5  UNL     1      21.551   2.899  17.522  1.00  0.00    -0.054 NA
HETATM   37  O4  UNL     1      23.403   3.507  18.844  1.00  0.00    -0.268 OA
ENDBRANCH   5  35
TORSDOF 14
ENDMDL
MODEL 4
REMARK VINA RESULT: -4.308837200      7.785     11.611
REMARK  14 active torsions:
REMARK  status: ('A' for Active; 'I' for Inactive)
REMARK    1  A    between atoms: N1_1  and  N2_4 
REMARK       I    between atoms: N2_4  and  C1_6 
REMARK    2  A    between atoms: C1_6  and  C2_8 
REMARK    3  A    between atoms: C3_9  and  C4_10 
REMARK    4  A    between atoms: C4_10  and  N3_11 
REMARK    5  A    between atoms: C4_10  and  C5_15 
REMARK    6  A    between atoms: C5_15  and  C6_17 
REMARK    7  A    between atoms: C6_17  and  O3_18 
REMARK    8  A    between atoms: C7_22  and  C8_23 
REMARK    9  A    between atoms: C9_28  and  N7_29 
REMARK   10  A    between atoms: N7_29  and  C10_30 
REMARK   11  A    between atoms: N7_29  and  N8_34 
REMARK   12  A    between atoms: C10_30  and  C11_31 
REMARK   13  A    between atoms: C11_31  and  O5_32 
REMARK   14  A    between atoms: N8_34  and  N9_35 
ROOT
HETATM    1  C2  UNL     1      22.682  -2.376  20.409  1.00  0.00     0.104 A 
HETATM    2  C3  UNL     1      23.165  -1.651  19.347  1.00  0.00     0.068 A 
HETATM    3  N4  UNL     1      22.508  -0.529  18.898  1.00  0.00    -0.339 N 
ATOM      4  H4  UNL     1      22.891  -0.009  18.108  1.00  0.00     0.167 HD
HETATM    5  C7  UNL     1      21.387  -0.108  19.472  1.00  0.00     0.173 A 
HETATM    6  N6  UNL     1      20.901  -0.804  20.506  1.00  0.00    -0.323 N 
ATOM      7  H6  UNL     1      20.040  -0.486  20.950  1.00  0.00     0.169 HD
HETATM    8  C9  UNL     1      21.501  -1.901  20.982  1.00  0.00     0.140 A 
ENDROOT
BRANCH   2   9
HETATM    9  C4  UNL     1      24.367  -2.043  18.588  1.00  0.00     0.305 C 
BRANCH   9  10
HETATM   10  N3  UNL     1      25.209  -0.854  18.413  1.00  0.00    -0.063 N 
ATOM     11  H33 UNL     1      24.682   0.016  18.493  1.00  0.00     0.275 HD
ATOM     12  H32 UNL     1      25.844  -0.704  19.196  1.00  0.00     0.275 HD
ATOM     13  H31 UNL     1      25.698  -0.936  17.522  1.00  0.00     0.275 HD
ENDBRANCH   9  10
BRANCH   9  14
HETATM   14  C5  UNL     1      23.889  -2.454  17.193  1.00  0.00     0.186 C 
HETATM   15  O2  UNL     1      23.892  -1.637  16.316  1.00  0.00    -0.293 OA
BRANCH  14  16
HETATM   16  C6  UNL     1      23.434  -3.841  16.952  1.00  0.00     0.245 C 
BRANCH  16  17
HETATM   17  O3  UNL     1      22.395  -3.837  16.051  1.00  0.00    -0.394 OA
ATOM     18  H3  UNL     1      21.713  -3.250  16.354  1.00  0.00     0.209 HD
ENDBRANCH  16  17
ENDBRANCH  14  16
ENDBRANCH   9  14
ENDBRANCH   2   9
BRANCH   1  19
HETATM   19  C1  UNL     1      23.352  -3.506  21.023  1.00  0.00     0.275 C 
HETATM   20  N2  UNL     1      24.035  -3.460  22.260  1.00  0.00    -0.272 N 
ATOM     21  H2  UNL     1      24.077  -2.589  22.789  1.00  0.00     0.189 HD
HETATM   22  O1  UNL     1      23.365  -4.659  20.475  1.00  0.00    -0.266 OA
BRANCH  20  23
HETATM   23  N1  UNL     1      24.669  -4.645  22.767  1.00  0.00    -0.342 N 
ATOM     24  H12 UNL     1      25.683  -4.659  22.875  1.00  0.00     0.176 HD
ATOM     25  H11 UNL     1      24.101  -5.456  23.013  1.00  0.00     0.176 HD
ENDBRANCH  20  23
ENDBRANCH   1  19
BRANCH   8  26
HETATM   26  N7  UNL     1      20.910  -2.634  22.058  1.00  0.00    -0.258 N 
BRANCH  26  27
HETATM   27  C10 UNL     1      19.925  -3.615  21.703  1.00  0.00     0.174 C 
BRANCH  27  28
HETATM   28  C11 UNL     1      20.295  -5.037  22.008  1.00  0.00     0.185 C 
BRANCH  28  29
HETATM   29  O5  UNL     1      21.396  -5.139  22.839  1.00  0.00    -0.399 OA
ATOM     30  H5  UNL     1      21.385  -5.925  23.371  1.00  0.00     0.209 HD
ENDBRANCH  28  29
ENDBRANCH  27  28
ENDBRANCH  26  27
BRANCH  26  31
HETATM   31  N8  UNL     1      21.252  -2.391  23.371  1.00  0.00    -0.026 NA
BRANCH  31  32
HETATM   32  N9  UNL     1      20.176  -2.487  24.268  1.00  0.00    -0.328 N 
ATOM     33  H92 UNL     1      19.581  -3.314  24.315  1.00  0.00     0.174 HD
ATOM     34  H91 UNL     1      20.051  -1.663  24.855  1.00  0.00     0.174 HD
ENDBRANCH  31  32
ENDBRANCH  26  31
ENDBRANCH   8  26
BRANCH   5  35
HETATM   35  C8  UNL     1      20.717   1.093  18.964  1.00  0.00     0.298 C 
HETATM   36  N5  UNL     1      21.508   2.118  18.404  1.00  0.00    -0.054 NA
HETATM   37  O4  UNL     1      19.469   1.138  19.058  1.00  0.00    -0.268 OA
ENDBRANCH   5  35
TORSDOF 14
ENDMDL
MODEL 5
REMARK VINA RESULT: -4.293863285      7.887     11.606
REMARK  14 active torsions:
REMARK  status: ('A' for Active; 'I' for Inactive)
REMARK    1  A    between atoms: N1_1  and  N2_4 
REMARK       I    between atoms: N2_4  and  C1_6 
REMARK    2  A    between atoms: C1_6  and  C2_8 
REMARK    3  A    between atoms: C3_9  and  C4_10 
REMARK    4  A    between atoms: C4_10  and  N3_11 
REMARK    5  A    between atoms: C4_10  and  C5_15 
REMARK    6  A    between atoms: C5_15  and  C6_17 
REMARK    7  A    between atoms: C6_17  and  O3_18 
REMARK    8  A    between atoms: C7_22  and  C8_23 
REMARK    9  A    between atoms: C9_28  and  N7_29 
REMARK   10  A    between atoms: N7_29  and  C10_30 
REMARK   11  A    between atoms: N7_29  and  N8_34 
REMARK   12  A    between atoms: C10_30  and  C11_31 
REMARK   13  A    between atoms: C11_31  and  O5_32 
REMARK   14  A    between atoms: N8_34  and  N9_35 
ROOT
HETATM    1  C2  UNL     1      23.014  -2.440  20.407  1.00  0.00     0.104 A 
HETATM    2  C3  UNL     1      23.367  -1.742  19.278  1.00  0.00     0.068 A 
HETATM    3  N4  UNL     1      22.634  -0.655  18.860  1.00  0.00    -0.339 N 
ATOM      4  H4  UNL     1      22.920  -0.155  18.019  1.00  0.00     0.167 HD
HETATM    5  C7  UNL     1      21.564  -0.244  19.530  1.00  0.00     0.173 A 
HETATM    6  N6  UNL     1      21.205  -0.914  20.631  1.00  0.00    -0.323 N 
ATOM      7  H6  UNL     1      20.383  -0.602  21.148  1.00  0.00     0.169 HD
HETATM    8  C9  UNL     1      21.882  -1.976  21.080  1.00  0.00     0.140 A 
ENDROOT
BRANCH   2   9
HETATM    9  C4  UNL     1      24.498  -2.129  18.416  1.00  0.00     0.305 C 
BRANCH   9  10
HETATM   10  N3  UNL     1      25.322  -0.939  18.175  1.00  0.00    -0.063 N 
ATOM     11  H33 UNL     1      25.185  -0.548  17.243  1.00  0.00     0.275 HD
ATOM     12  H32 UNL     1      25.011  -0.131  18.712  1.00  0.00     0.275 HD
ATOM     13  H31 UNL     1      26.296  -1.181  18.360  1.00  0.00     0.275 HD
ENDBRANCH   9  10
BRANCH   9  14
HETATM   14  C5  UNL     1      23.900  -2.531  17.064  1.00  0.00     0.186 C 
HETATM   15  O2  UNL     1      23.876  -1.724  16.179  1.00  0.00    -0.293 OA
BRANCH  14  16
HETATM   16  C6  UNL     1      23.366  -3.898  16.876  1.00  0.00     0.245 C 
BRANCH  16  17
HETATM   17  O3  UNL     1      22.338  -3.870  15.962  1.00  0.00    -0.394 OA
ATOM     18  H3  UNL     1      22.652  -4.173  15.119  1.00  0.00     0.209 HD
ENDBRANCH  16  17
ENDBRANCH  14  16
ENDBRANCH   9  14
ENDBRANCH   2   9
BRANCH   1  19
HETATM   19  C1  UNL     1      23.776  -3.529  20.988  1.00  0.00     0.275 C 
HETATM   20  N2  UNL     1      23.522  -4.899  20.756  1.00  0.00    -0.272 N 
ATOM     21  H2  UNL     1      22.761  -5.182  20.139  1.00  0.00     0.189 HD
HETATM   22  O1  UNL     1      24.765  -3.317  21.767  1.00  0.00    -0.266 OA
BRANCH  20  23
HETATM   23  N1  UNL     1      24.341  -5.892  21.394  1.00  0.00    -0.342 N 
ATOM     24  H12 UNL     1      24.953  -5.615  22.161  1.00  0.00     0.176 HD
ATOM     25  H11 UNL     1      24.302  -6.860  21.074  1.00  0.00     0.176 HD
ENDBRANCH  20  23
ENDBRANCH   1  19
BRANCH   8  26
HETATM   26  N7  UNL     1      21.424  -2.684  22.235  1.00  0.00    -0.258 N 
BRANCH  26  27
HETATM   27  C10 UNL     1      21.779  -2.131  23.510  1.00  0.00     0.174 C 
BRANCH  27  28
HETATM   28  C11 UNL     1      21.177  -2.819  24.700  1.00  0.00     0.185 C 
BRANCH  28  29
HETATM   29  O5  UNL     1      19.806  -2.655  24.778  1.00  0.00    -0.399 OA
ATOM     30  H5  UNL     1      19.325  -3.398  24.434  1.00  0.00     0.209 HD
ENDBRANCH  28  29
ENDBRANCH  27  28
ENDBRANCH  26  27
BRANCH  26  31
HETATM   31  N8  UNL     1      20.699  -3.851  22.126  1.00  0.00    -0.026 NA
BRANCH  31  32
HETATM   32  N9  UNL     1      19.328  -3.651  21.901  1.00  0.00    -0.328 N 
ATOM     33  H92 UNL     1      18.834  -2.830  22.250  1.00  0.00     0.174 HD
ATOM     34  H91 UNL     1      18.883  -4.396  21.364  1.00  0.00     0.174 HD
ENDBRANCH  31  32
ENDBRANCH  26  31
ENDBRANCH   8  26
BRANCH   5  35
HETATM   35  C8  UNL     1      20.811   0.920  19.052  1.00  0.00     0.298 C 
HETATM   36  N5  UNL     1      21.525   2.003  18.499  1.00  0.00    -0.054 NA
HETATM   37  O4  UNL     1      19.563   0.882  19.164  1.00  0.00    -0.268 OA
ENDBRANCH   5  35
TORSDOF 14
ENDMDL
