MODEL 1
REMARK VINA RESULT: -6.491756045      0.000      0.000
REMARK  10 active torsions:
REMARK  status: ('A' for Active; 'I' for Inactive)
REMARK    1  A    between atoms: C2_2  and  O1_3 
REMARK    2  A    between atoms: C2_2  and  C3_5 
REMARK    3  A    between atoms: C3_5  and  O2_6 
REMARK    4  A    between atoms: C3_5  and  C4_8 
REMARK    5  A    between atoms: C4_8  and  O3_9 
REMARK    6  A    between atoms: C4_8  and  C5_11 
REMARK    7  A    between atoms: C5_11  and  O4_12 
REMARK    8  A    between atoms: C7_16  and  N1_17 
REMARK    9  A    between atoms: C10_27  and  N5_28 
REMARK   10  A    between atoms: C12_34  and  O7_35 
ROOT
HETATM    1  C5  UNL     1      23.434   2.342  16.722  1.00  0.00     0.137 C 
HETATM    2  C6  UNL     1      24.404   3.478  16.557  1.00  0.00     0.214 C 
HETATM    3  O5  UNL     1      23.513   4.580  16.534  1.00  0.00    -0.359 OA
HETATM    4  C7  UNL     1      22.584   4.224  15.559  1.00  0.00     0.279 C 
HETATM    5  C12 UNL     1      22.402   2.747  15.644  1.00  0.00     0.208 C 
ENDROOT
BRANCH   4   6
HETATM    6  N1  UNL     1      23.124   4.668  14.279  1.00  0.00    -0.227 N 
HETATM    7  N2  UNL     1      23.107   4.029  13.117  1.00  0.00    -0.236 N 
HETATM    8  N3  UNL     1      23.680   4.712  12.171  1.00  0.00    -0.278 N 
ATOM      9  H2  UNL     1      22.693   3.107  12.982  1.00  0.00     0.208 HD
HETATM   10  C8  UNL     1      24.110   5.869  12.693  1.00  0.00     0.164 A 
ATOM     11  H3  UNL     1      23.784   4.420  11.199  1.00  0.00     0.189 HD
HETATM   12  C9  UNL     1      24.774   6.952  12.155  1.00  0.00     0.291 A 
HETATM   13  C11 UNL     1      23.752   5.831  14.035  1.00  0.00     0.175 A 
HETATM   14  O6  UNL     1      25.073   6.933  10.939  1.00  0.00    -0.265 OA
HETATM   15  N4  UNL     1      25.067   7.976  12.969  1.00  0.00    -0.154 N 
HETATM   16  C10 UNL     1      24.728   7.958  14.268  1.00  0.00     0.680 A 
ATOM     17  H4  UNL     1      25.558   8.788  12.594  1.00  0.00     0.187 HD
HETATM   18  N6  UNL     1      24.083   6.895  14.777  1.00  0.00    -0.173 N 
ATOM     19  H6  UNL     1      23.835   6.900  15.766  1.00  0.00     0.186 HD
BRANCH  16  20
HETATM   20  N5  UNL     1      25.005   8.940  15.067  1.00  0.00    -0.234 N 
ATOM     21  H52 UNL     1      25.811   8.841  15.684  1.00  0.00     0.174 HD
ATOM     22  H51 UNL     1      24.447   9.794  15.092  1.00  0.00     0.174 HD
ENDBRANCH  16  20
ENDBRANCH   4   6
BRANCH   5  23
HETATM   23  O7  UNL     1      21.143   2.357  16.076  1.00  0.00    -0.388 OA
ATOM     24  H7  UNL     1      20.497   2.715  15.479  1.00  0.00     0.210 HD
ENDBRANCH   5  23
BRANCH   1  25
HETATM   25  C4  UNL     1      22.816   2.420  18.084  1.00  0.00     0.188 C 
BRANCH  25  26
HETATM   26  C3  UNL     1      22.728   1.177  18.867  1.00  0.00     0.178 C 
BRANCH  26  27
HETATM   27  C2  UNL     1      21.456   0.423  18.865  1.00  0.00     0.145 C 
HETATM   28  C1  UNL     1      20.224   1.264  18.937  1.00  0.00     0.042 C 
BRANCH  27  29
HETATM   29  O1  UNL     1      21.404  -0.250  17.613  1.00  0.00    -0.393 OA
ATOM     30  H1  UNL     1      21.085  -1.125  17.797  1.00  0.00     0.210 HD
ENDBRANCH  27  29
ENDBRANCH  26  27
BRANCH  26  31
HETATM   31  O2  UNL     1      23.184   1.336  20.173  1.00  0.00    -0.390 OA
ATOM     32  H2  UNL     1      22.470   1.191  20.785  1.00  0.00     0.210 HD
ENDBRANCH  26  31
ENDBRANCH  25  26
BRANCH  25  33
HETATM   33  O3  UNL     1      23.266   3.495  18.841  1.00  0.00    -0.390 OA
ATOM     34  H3  UNL     1      23.433   4.268  18.313  1.00  0.00     0.210 HD
ENDBRANCH  25  33
ENDBRANCH   1  25
BRANCH   1  35
HETATM   35  O4  UNL     1      23.881   1.110  16.361  1.00  0.00    -0.382 OA
ATOM     36  H4  UNL     1      23.442   0.725  15.612  1.00  0.00     0.210 HD
ENDBRANCH   1  35
TORSDOF 10
ENDMDL
MODEL 2
REMARK VINA RESULT: -6.058285863      2.047      2.866
REMARK  10 active torsions:
REMARK  status: ('A' for Active; 'I' for Inactive)
REMARK    1  A    between atoms: C2_2  and  O1_3 
REMARK    2  A    between atoms: C2_2  and  C3_5 
REMARK    3  A    between atoms: C3_5  and  O2_6 
REMARK    4  A    between atoms: C3_5  and  C4_8 
REMARK    5  A    between atoms: C4_8  and  O3_9 
REMARK    6  A    between atoms: C4_8  and  C5_11 
REMARK    7  A    between atoms: C5_11  and  O4_12 
REMARK    8  A    between atoms: C7_16  and  N1_17 
REMARK    9  A    between atoms: C10_27  and  N5_28 
REMARK   10  A    between atoms: C12_34  and  O7_35 
ROOT
HETATM    1  C5  UNL     1      22.077   0.714  18.225  1.00  0.00     0.137 C 
HETATM    2  C6  UNL     1      23.453   1.231  17.911  1.00  0.00     0.214 C 
HETATM    3  O5  UNL     1      23.345   2.564  18.382  1.00  0.00    -0.359 OA
HETATM    4  C7  UNL     1      22.192   3.034  17.757  1.00  0.00     0.279 C 
HETATM    5  C12 UNL     1      21.243   1.888  17.664  1.00  0.00     0.208 C 
ENDROOT
BRANCH   4   6
HETATM    6  N1  UNL     1      22.600   3.556  16.457  1.00  0.00    -0.227 N 
HETATM    7  N2  UNL     1      22.154   3.206  15.258  1.00  0.00    -0.236 N 
HETATM    8  N3  UNL     1      22.735   3.872  14.304  1.00  0.00    -0.278 N 
ATOM      9  H2  UNL     1      21.439   2.496  15.102  1.00  0.00     0.208 HD
HETATM   10  C8  UNL     1      23.615   4.715  14.859  1.00  0.00     0.164 A 
ATOM     11  H3  UNL     1      22.551   3.770  13.305  1.00  0.00     0.189 HD
HETATM   12  C9  UNL     1      24.489   5.642  14.329  1.00  0.00     0.291 A 
HETATM   13  C11 UNL     1      23.522   4.506  16.229  1.00  0.00     0.175 A 
HETATM   14  O6  UNL     1      24.532   5.789  13.086  1.00  0.00    -0.265 OA
HETATM   15  N4  UNL     1      25.254   6.341  15.180  1.00  0.00    -0.154 N 
HETATM   16  C10 UNL     1      25.178   6.154  16.507  1.00  0.00     0.680 A 
ATOM     17  H4  UNL     1      25.908   7.032  14.811  1.00  0.00     0.187 HD
HETATM   18  N6  UNL     1      24.322   5.247  17.007  1.00  0.00    -0.173 N 
ATOM     19  H6  UNL     1      24.279   5.119  18.018  1.00  0.00     0.186 HD
BRANCH  16  20
HETATM   20  N5  UNL     1      25.910   6.822  17.341  1.00  0.00    -0.234 N 
ATOM     21  H52 UNL     1      26.711   7.334  16.970  1.00  0.00     0.174 HD
ATOM     22  H51 UNL     1      25.708   6.849  18.340  1.00  0.00     0.174 HD
ENDBRANCH  16  20
ENDBRANCH   4   6
BRANCH   5  23
HETATM   23  O7  UNL     1      20.107   2.031  18.446  1.00  0.00    -0.388 OA
ATOM     24  H7  UNL     1      19.659   2.826  18.181  1.00  0.00     0.210 HD
ENDBRANCH   5  23
BRANCH   1  25
HETATM   25  C4  UNL     1      21.914   0.629  19.711  1.00  0.00     0.188 C 
BRANCH  25  26
HETATM   26  C3  UNL     1      20.993  -0.389  20.241  1.00  0.00     0.178 C 
BRANCH  26  27
HETATM   27  C2  UNL     1      21.551  -1.662  20.744  1.00  0.00     0.145 C 
HETATM   28  C1  UNL     1      20.537  -2.660  21.199  1.00  0.00     0.042 C 
BRANCH  27  29
HETATM   29  O1  UNL     1      22.223  -2.255  19.640  1.00  0.00    -0.393 OA
ATOM     30  H1  UNL     1      23.140  -2.030  19.736  1.00  0.00     0.210 HD
ENDBRANCH  27  29
ENDBRANCH  26  27
BRANCH  26  31
HETATM   31  O2  UNL     1      19.928  -0.645  19.380  1.00  0.00    -0.390 OA
ATOM     32  H2  UNL     1      20.124  -1.401  18.839  1.00  0.00     0.210 HD
ENDBRANCH  26  31
ENDBRANCH  25  26
BRANCH  25  33
HETATM   33  O3  UNL     1      23.115   0.674  20.409  1.00  0.00    -0.390 OA
ATOM     34  H3  UNL     1      23.793   0.147  20.001  1.00  0.00     0.210 HD
ENDBRANCH  25  33
ENDBRANCH   1  25
BRANCH   1  35
HETATM   35  O4  UNL     1      21.675  -0.387  17.537  1.00  0.00    -0.382 OA
ATOM     36  H4  UNL     1      21.669  -0.292  16.592  1.00  0.00     0.210 HD
ENDBRANCH   1  35
TORSDOF 10
ENDMDL
MODEL 3
REMARK VINA RESULT: -5.935959902      0.640      1.159
REMARK  10 active torsions:
REMARK  status: ('A' for Active; 'I' for Inactive)
REMARK    1  A    between atoms: C2_2  and  O1_3 
REMARK    2  A    between atoms: C2_2  and  C3_5 
REMARK    3  A    between atoms: C3_5  and  O2_6 
REMARK    4  A    between atoms: C3_5  and  C4_8 
REMARK    5  A    between atoms: C4_8  and  O3_9 
REMARK    6  A    between atoms: C4_8  and  C5_11 
REMARK    7  A    between atoms: C5_11  and  O4_12 
REMARK    8  A    between atoms: C7_16  and  N1_17 
REMARK    9  A    between atoms: C10_27  and  N5_28 
REMARK   10  A    between atoms: C12_34  and  O7_35 
ROOT
HETATM    1  C5  UNL     1      23.399   2.404  16.854  1.00  0.00     0.137 C 
HETATM    2  C6  UNL     1      24.362   3.543  16.668  1.00  0.00     0.214 C 
HETATM    3  O5  UNL     1      23.461   4.634  16.581  1.00  0.00    -0.359 OA
HETATM    4  C7  UNL     1      22.559   4.231  15.600  1.00  0.00     0.279 C 
HETATM    5  C12 UNL     1      22.389   2.756  15.738  1.00  0.00     0.208 C 
ENDROOT
BRANCH   4   6
HETATM    6  N1  UNL     1      23.126   4.631  14.316  1.00  0.00    -0.227 N 
HETATM    7  N2  UNL     1      23.127   3.954  13.175  1.00  0.00    -0.236 N 
HETATM    8  N3  UNL     1      23.722   4.604  12.219  1.00  0.00    -0.278 N 
ATOM      9  H2  UNL     1      22.710   3.031  13.061  1.00  0.00     0.208 HD
HETATM   10  C8  UNL     1      24.149   5.774  12.712  1.00  0.00     0.164 A 
ATOM     11  H3  UNL     1      23.842   4.280  11.259  1.00  0.00     0.189 HD
HETATM   12  C9  UNL     1      24.830   6.836  12.152  1.00  0.00     0.291 A 
HETATM   13  C11 UNL     1      23.765   5.781  14.047  1.00  0.00     0.175 A 
HETATM   14  O6  UNL     1      25.151   6.776  10.943  1.00  0.00    -0.265 OA
HETATM   15  N4  UNL     1      25.114   7.884  12.938  1.00  0.00    -0.154 N 
HETATM   16  C10 UNL     1      24.751   7.910  14.230  1.00  0.00     0.680 A 
ATOM     17  H4  UNL     1      25.616   8.680  12.547  1.00  0.00     0.187 HD
HETATM   18  N6  UNL     1      24.089   6.867  14.761  1.00  0.00    -0.173 N 
ATOM     19  H6  UNL     1      23.823   6.905  15.745  1.00  0.00     0.186 HD
BRANCH  16  20
HETATM   20  N5  UNL     1      25.018   8.915  15.003  1.00  0.00    -0.234 N 
ATOM     21  H52 UNL     1      25.918   8.923  15.482  1.00  0.00     0.174 HD
ATOM     22  H51 UNL     1      24.363   9.685  15.139  1.00  0.00     0.174 HD
ENDBRANCH  16  20
ENDBRANCH   4   6
BRANCH   5  23
HETATM   23  O7  UNL     1      21.124   2.371  16.154  1.00  0.00    -0.388 OA
ATOM     24  H7  UNL     1      20.537   3.111  16.055  1.00  0.00     0.210 HD
ENDBRANCH   5  23
BRANCH   1  25
HETATM   25  C4  UNL     1      22.747   2.528  18.197  1.00  0.00     0.188 C 
BRANCH  25  26
HETATM   26  C3  UNL     1      22.226   1.301  18.820  1.00  0.00     0.178 C 
BRANCH  26  27
HETATM   27  C2  UNL     1      23.008   0.665  19.902  1.00  0.00     0.145 C 
HETATM   28  C1  UNL     1      22.381  -0.551  20.502  1.00  0.00     0.042 C 
BRANCH  27  29
HETATM   29  O1  UNL     1      24.221   0.229  19.301  1.00  0.00    -0.393 OA
ATOM     30  H1  UNL     1      24.268   0.662  18.457  1.00  0.00     0.210 HD
ENDBRANCH  27  29
ENDBRANCH  26  27
BRANCH  26  31
HETATM   31  O2  UNL     1      21.849   0.344  17.881  1.00  0.00    -0.390 OA
ATOM     32  H2  UNL     1      21.640   0.766  17.055  1.00  0.00     0.210 HD
ENDBRANCH  26  31
ENDBRANCH  25  26
BRANCH  25  33
HETATM   33  O3  UNL     1      23.458   3.319  19.092  1.00  0.00    -0.390 OA
ATOM     34  H3  UNL     1      23.095   3.292  19.970  1.00  0.00     0.210 HD
ENDBRANCH  25  33
ENDBRANCH   1  25
BRANCH   1  35
HETATM   35  O4  UNL     1      23.866   1.164  16.552  1.00  0.00    -0.382 OA
ATOM     36  H4  UNL     1      24.020   1.005  15.629  1.00  0.00     0.210 HD
ENDBRANCH   1  35
TORSDOF 10
ENDMDL
MODEL 4
REMARK VINA RESULT: -5.818422860      1.362      2.742
REMARK  10 active torsions:
REMARK  status: ('A' for Active; 'I' for Inactive)
REMARK    1  A    between atoms: C2_2  and  O1_3 
REMARK    2  A    between atoms: C2_2  and  C3_5 
REMARK    3  A    between atoms: C3_5  and  O2_6 
REMARK    4  A    between atoms: C3_5  and  C4_8 
REMARK    5  A    between atoms: C4_8  and  O3_9 
REMARK    6  A    between atoms: C4_8  and  C5_11 
REMARK    7  A    between atoms: C5_11  and  O4_12 
REMARK    8  A    between atoms: C7_16  and  N1_17 
REMARK    9  A    between atoms: C10_27  and  N5_28 
REMARK   10  A    between atoms: C12_34  and  O7_35 
ROOT
HETATM    1  C5  UNL     1      23.313   1.959  17.284  1.00  0.00     0.137 C 
HETATM    2  C6  UNL     1      24.278   3.018  17.741  1.00  0.00     0.214 C 
HETATM    3  O5  UNL     1      23.376   4.033  18.151  1.00  0.00    -0.359 OA
HETATM    4  C7  UNL     1      22.541   4.187  17.047  1.00  0.00     0.279 C 
HETATM    5  C12 UNL     1      22.374   2.841  16.430  1.00  0.00     0.208 C 
ENDROOT
BRANCH   4   6
HETATM    6  N1  UNL     1      23.184   5.153  16.163  1.00  0.00    -0.227 N 
HETATM    7  N2  UNL     1      23.683   6.342  16.473  1.00  0.00    -0.236 N 
HETATM    8  N3  UNL     1      24.187   6.949  15.440  1.00  0.00    -0.278 N 
ATOM      9  H2  UNL     1      23.674   6.734  17.414  1.00  0.00     0.208 HD
HETATM   10  C8  UNL     1      24.032   6.155  14.372  1.00  0.00     0.164 A 
ATOM     11  H3  UNL     1      24.624   7.871  15.441  1.00  0.00     0.189 HD
HETATM   12  C9  UNL     1      24.375   6.292  13.042  1.00  0.00     0.291 A 
HETATM   13  C11 UNL     1      23.393   5.014  14.843  1.00  0.00     0.175 A 
HETATM   14  O6  UNL     1      24.949   7.342  12.673  1.00  0.00    -0.265 OA
HETATM   15  N4  UNL     1      24.070   5.287  12.209  1.00  0.00    -0.154 N 
HETATM   16  C10 UNL     1      23.453   4.178  12.645  1.00  0.00     0.680 A 
ATOM     17  H4  UNL     1      24.313   5.367  11.222  1.00  0.00     0.187 HD
HETATM   18  N6  UNL     1      23.126   4.059  13.943  1.00  0.00    -0.173 N 
ATOM     19  H6  UNL     1      22.657   3.209  14.254  1.00  0.00     0.186 HD
BRANCH  16  20
HETATM   20  N5  UNL     1      23.152   3.198  11.852  1.00  0.00    -0.234 N 
ATOM     21  H52 UNL     1      22.661   3.419  10.986  1.00  0.00     0.174 HD
ATOM     22  H51 UNL     1      23.392   2.231  12.068  1.00  0.00     0.174 HD
ENDBRANCH  16  20
ENDBRANCH   4   6
BRANCH   5  23
HETATM   23  O7  UNL     1      21.088   2.331  16.528  1.00  0.00    -0.388 OA
ATOM     24  H7  UNL     1      20.794   2.429  17.425  1.00  0.00     0.210 HD
ENDBRANCH   5  23
BRANCH   1  25
HETATM   25  C4  UNL     1      22.578   1.422  18.473  1.00  0.00     0.188 C 
BRANCH  25  26
HETATM   26  C3  UNL     1      22.148   0.016  18.433  1.00  0.00     0.178 C 
BRANCH  26  27
HETATM   27  C2  UNL     1      23.176  -1.040  18.310  1.00  0.00     0.145 C 
HETATM   28  C1  UNL     1      23.180  -2.048  19.411  1.00  0.00     0.042 C 
BRANCH  27  29
HETATM   29  O1  UNL     1      22.859  -1.754  17.121  1.00  0.00    -0.393 OA
ATOM     30  H1  UNL     1      22.478  -2.577  17.401  1.00  0.00     0.210 HD
ENDBRANCH  27  29
ENDBRANCH  26  27
BRANCH  26  31
HETATM   31  O2  UNL     1      21.129  -0.204  17.509  1.00  0.00    -0.390 OA
ATOM     32  H2  UNL     1      20.938   0.600  17.039  1.00  0.00     0.210 HD
ENDBRANCH  26  31
ENDBRANCH  25  26
BRANCH  25  33
HETATM   33  O3  UNL     1      23.154   1.768  19.690  1.00  0.00    -0.390 OA
ATOM     34  H3  UNL     1      23.288   2.704  19.776  1.00  0.00     0.210 HD
ENDBRANCH  25  33
ENDBRANCH   1  25
BRANCH   1  35
HETATM   35  O4  UNL     1      23.808   1.018  16.438  1.00  0.00    -0.382 OA
ATOM     36  H4  UNL     1      24.668   1.208  16.082  1.00  0.00     0.210 HD
ENDBRANCH   1  35
TORSDOF 10
ENDMDL
MODEL 5
REMARK VINA RESULT: -5.749499622      1.188      2.479
REMARK  10 active torsions:
REMARK  status: ('A' for Active; 'I' for Inactive)
REMARK    1  A    between atoms: C2_2  and  O1_3 
REMARK    2  A    between atoms: C2_2  and  C3_5 
REMARK    3  A    between atoms: C3_5  and  O2_6 
REMARK    4  A    between atoms: C3_5  and  C4_8 
REMARK    5  A    between atoms: C4_8  and  O3_9 
REMARK    6  A    between atoms: C4_8  and  C5_11 
REMARK    7  A    between atoms: C5_11  and  O4_12 
REMARK    8  A    between atoms: C7_16  and  N1_17 
REMARK    9  A    between atoms: C10_27  and  N5_28 
REMARK   10  A    between atoms: C12_34  and  O7_35 
ROOT
HETATM    1  C5  UNL     1      23.434   2.178  17.373  1.00  0.00     0.137 C 
HETATM    2  C6  UNL     1      24.424   3.241  17.759  1.00  0.00     0.214 C 
HETATM    3  O5  UNL     1      23.552   4.331  18.009  1.00  0.00    -0.359 OA
HETATM    4  C7  UNL     1      22.776   4.395  16.854  1.00  0.00     0.279 C 
HETATM    5  C12 UNL     1      22.576   2.995  16.381  1.00  0.00     0.208 C 
ENDROOT
BRANCH   4   6
HETATM    6  N1  UNL     1      23.502   5.229  15.903  1.00  0.00    -0.227 N 
HETATM    7  N2  UNL     1      24.146   6.365  16.134  1.00  0.00    -0.236 N 
HETATM    8  N3  UNL     1      24.687   6.852  15.057  1.00  0.00    -0.278 N 
ATOM      9  H2  UNL     1      24.209   6.806  17.051  1.00  0.00     0.208 HD
HETATM   10  C8  UNL     1      24.410   6.026  14.040  1.00  0.00     0.164 A 
ATOM     11  H3  UNL     1      25.229   7.714  14.997  1.00  0.00     0.189 HD
HETATM   12  C9  UNL     1      24.729   6.050  12.697  1.00  0.00     0.291 A 
HETATM   13  C11 UNL     1      23.656   4.996  14.588  1.00  0.00     0.175 A 
HETATM   14  O6  UNL     1      25.411   7.003  12.256  1.00  0.00    -0.265 OA
HETATM   15  N4  UNL     1      24.285   5.045  11.929  1.00  0.00    -0.154 N 
HETATM   16  C10 UNL     1      23.555   4.041  12.440  1.00  0.00     0.680 A 
ATOM     17  H4  UNL     1      24.507   5.042  10.934  1.00  0.00     0.187 HD
HETATM   18  N6  UNL     1      23.253   4.032  13.750  1.00  0.00    -0.173 N 
ATOM     19  H6  UNL     1      22.697   3.261  14.119  1.00  0.00     0.186 HD
BRANCH  16  20
HETATM   20  N5  UNL     1      23.119   3.063  11.710  1.00  0.00    -0.234 N 
ATOM     21  H52 UNL     1      22.110   2.930  11.644  1.00  0.00     0.174 HD
ATOM     22  H51 UNL     1      23.749   2.436  11.210  1.00  0.00     0.174 HD
ENDBRANCH  16  20
ENDBRANCH   4   6
BRANCH   5  23
HETATM   23  O7  UNL     1      21.264   2.552  16.469  1.00  0.00    -0.388 OA
ATOM     24  H7  UNL     1      21.239   1.807  17.057  1.00  0.00     0.210 HD
ENDBRANCH   5  23
BRANCH   1  25
HETATM   25  C4  UNL     1      22.621   1.808  18.575  1.00  0.00     0.188 C 
BRANCH  25  26
HETATM   26  C3  UNL     1      21.866   0.545  18.528  1.00  0.00     0.178 C 
BRANCH  26  27
HETATM   27  C2  UNL     1      20.594   0.447  19.275  1.00  0.00     0.145 C 
HETATM   28  C1  UNL     1      19.368   0.733  18.473  1.00  0.00     0.042 C 
BRANCH  27  29
HETATM   29  O1  UNL     1      20.489  -0.909  19.689  1.00  0.00    -0.393 OA
ATOM     30  H1  UNL     1      21.347  -1.294  19.552  1.00  0.00     0.210 HD
ENDBRANCH  27  29
ENDBRANCH  26  27
BRANCH  26  31
HETATM   31  O2  UNL     1      22.664  -0.564  18.801  1.00  0.00    -0.390 OA
ATOM     32  H2  UNL     1      23.458  -0.528  18.280  1.00  0.00     0.210 HD
ENDBRANCH  26  31
ENDBRANCH  25  26
BRANCH  25  33
HETATM   33  O3  UNL     1      23.293   1.981  19.779  1.00  0.00    -0.390 OA
ATOM     34  H3  UNL     1      22.975   2.730  20.270  1.00  0.00     0.210 HD
ENDBRANCH  25  33
ENDBRANCH   1  25
BRANCH   1  35
HETATM   35  O4  UNL     1      23.923   1.128  16.662  1.00  0.00    -0.382 OA
ATOM     36  H4  UNL     1      23.959   1.260  15.722  1.00  0.00     0.210 HD
ENDBRANCH   1  35
TORSDOF 10
ENDMDL
