MODEL 1
REMARK VINA RESULT: -7.975891393      0.000      0.000
REMARK  6 active torsions:
REMARK  status: ('A' for Active; 'I' for Inactive)
REMARK    1  A    between atoms: N1_2  and  C2_4 
REMARK    2  A    between atoms: C3_7  and  N3_8 
REMARK    3  A    between atoms: N3_8  and  C4_10 
REMARK    4  A    between atoms: C8_20  and  C9_21 
REMARK    5  A    between atoms: C10_26  and  C11_27 
REMARK    6  A    between atoms: C11_27  and  C12_28 
ROOT
HETATM    1  C2  UNL     1      34.044 -61.584  42.489  1.00  0.00     0.133 A 
HETATM    2  N2  UNL     1      34.696 -60.430  42.194  1.00  0.00    -0.176 N 
ATOM      3  H2  UNL     1      35.631 -60.441  41.787  1.00  0.00     0.186 HD
HETATM    4  C3  UNL     1      34.065 -59.274  42.458  1.00  0.00     0.681 A 
HETATM    5  N5  UNL     1      32.845 -59.250  42.988  1.00  0.00    -0.178 N 
ATOM      6  H5  UNL     1      32.404 -58.347  43.170  1.00  0.00     0.185 HD
HETATM    7  C7  UNL     1      32.162 -60.390  43.298  1.00  0.00     0.148 A 
HETATM    8  N6  UNL     1      30.867 -60.304  43.861  1.00  0.00    -0.081 NA
HETATM    9  C8  UNL     1      32.784 -61.566  43.038  1.00  0.00     0.085 A 
ENDROOT
BRANCH   9  10
HETATM   10  C9  UNL     1      32.086 -62.819  43.355  1.00  0.00     0.108 A 
HETATM   11  N7  UNL     1      31.312 -63.545  42.556  1.00  0.00    -0.292 N 
HETATM   12  N8  UNL     1      30.784 -64.604  42.987  1.00  0.00    -0.297 N 
ATOM     13  H7  UNL     1      31.146 -63.245  41.596  1.00  0.00     0.187 HD
HETATM   14  C10 UNL     1      30.998 -64.999  44.237  1.00  0.00     0.074 A 
ATOM     15  H8  UNL     1      30.189 -65.162  42.373  1.00  0.00     0.187 HD
HETATM   16  S1  UNL     1      32.028 -63.740  44.795  1.00  0.00    -0.055 SA
BRANCH  14  17
HETATM   17  C11 UNL     1      30.475 -66.212  44.946  1.00  0.00     0.124 C 
BRANCH  17  18
HETATM   18  C12 UNL     1      30.802 -66.150  46.377  1.00  0.00     0.031 A 
HETATM   19  C13 UNL     1      30.099 -65.557  47.404  1.00  0.00     0.114 A 
HETATM   20  N9  UNL     1      30.797 -65.766  48.535  1.00  0.00    -0.360 N 
HETATM   21  C14 UNL     1      31.903 -66.463  48.262  1.00  0.00     0.180 A 
ATOM     22  H9  UNL     1      30.523 -65.442  49.462  1.00  0.00     0.166 HD
HETATM   23  N10 UNL     1      31.896 -66.693  46.933  1.00  0.00    -0.354 N 
ATOM     24  H10 UNL     1      32.616 -67.205  46.424  1.00  0.00     0.166 HD
ENDBRANCH  17  18
ENDBRANCH  14  17
ENDBRANCH   9  10
BRANCH   1  25
HETATM   25  N1  UNL     1      34.580 -62.725  42.268  1.00  0.00    -0.379 N 
HETATM   26  C1  UNL     1      36.026 -62.857  42.220  1.00  0.00     0.147 C 
ATOM     27  H1  UNL     1      33.989 -63.545  42.127  1.00  0.00     0.160 HD
ENDBRANCH   1  25
BRANCH   4  28
HETATM   28  N3  UNL     1      34.687 -58.183  42.175  1.00  0.00    -0.218 N 
ATOM     29  H3  UNL     1      35.510 -57.928  42.719  1.00  0.00     0.178 HD
BRANCH  28  30
HETATM   30  C4  UNL     1      34.255 -57.315  41.115  1.00  0.00     0.150 C 
HETATM   31  C5  UNL     1      35.408 -56.780  40.313  1.00  0.00     0.259 C 
HETATM   32  N4  UNL     1      35.018 -57.639  39.212  1.00  0.00    -0.071 N 
HETATM   33  C6  UNL     1      33.813 -58.044  39.870  1.00  0.00     0.259 C 
ATOM     34  H42 UNL     1      34.958 -57.241  38.275  1.00  0.00     0.277 HD
ATOM     35  H41 UNL     1      35.669 -58.356  38.892  1.00  0.00     0.277 HD
ENDBRANCH  28  30
ENDBRANCH   4  28
TORSDOF 6
ENDMDL
MODEL 2
REMARK VINA RESULT: -7.964192294      1.346      2.456
REMARK  6 active torsions:
REMARK  status: ('A' for Active; 'I' for Inactive)
REMARK    1  A    between atoms: N1_2  and  C2_4 
REMARK    2  A    between atoms: C3_7  and  N3_8 
REMARK    3  A    between atoms: N3_8  and  C4_10 
REMARK    4  A    between atoms: C8_20  and  C9_21 
REMARK    5  A    between atoms: C10_26  and  C11_27 
REMARK    6  A    between atoms: C11_27  and  C12_28 
ROOT
HETATM    1  C2  UNL     1      33.354 -61.337  42.581  1.00  0.00     0.133 A 
HETATM    2  N2  UNL     1      34.188 -60.340  42.190  1.00  0.00    -0.176 N 
ATOM      3  H2  UNL     1      33.851 -59.385  42.072  1.00  0.00     0.186 HD
HETATM    4  C3  UNL     1      35.473 -60.658  41.963  1.00  0.00     0.681 A 
HETATM    5  N5  UNL     1      35.922 -61.902  42.113  1.00  0.00    -0.178 N 
ATOM      6  H5  UNL     1      36.907 -62.096  41.930  1.00  0.00     0.185 HD
HETATM    7  C7  UNL     1      35.111 -62.927  42.505  1.00  0.00     0.148 A 
HETATM    8  N6  UNL     1      35.643 -64.230  42.647  1.00  0.00    -0.081 NA
HETATM    9  C8  UNL     1      33.811 -62.624  42.738  1.00  0.00     0.085 A 
ENDROOT
BRANCH   9  10
HETATM   10  C9  UNL     1      32.900 -63.697  43.162  1.00  0.00     0.108 A 
HETATM   11  N7  UNL     1      32.468 -64.728  42.445  1.00  0.00    -0.292 N 
HETATM   12  N8  UNL     1      31.683 -65.566  42.962  1.00  0.00    -0.297 N 
ATOM     13  H7  UNL     1      32.770 -64.841  41.478  1.00  0.00     0.187 HD
HETATM   14  C10 UNL     1      31.286 -65.423  44.222  1.00  0.00     0.074 A 
ATOM     15  H8  UNL     1      31.350 -66.358  42.412  1.00  0.00     0.187 HD
HETATM   16  S1  UNL     1      32.114 -63.981  44.654  1.00  0.00    -0.055 SA
BRANCH  14  17
HETATM   17  C11 UNL     1      30.366 -66.293  45.025  1.00  0.00     0.124 C 
BRANCH  17  18
HETATM   18  C12 UNL     1      30.725 -66.241  46.449  1.00  0.00     0.031 A 
HETATM   19  C13 UNL     1      30.067 -65.619  47.489  1.00  0.00     0.114 A 
HETATM   20  N9  UNL     1      30.779 -65.852  48.606  1.00  0.00    -0.360 N 
HETATM   21  C14 UNL     1      31.852 -66.592  48.312  1.00  0.00     0.180 A 
ATOM     22  H9  UNL     1      30.537 -65.515  49.538  1.00  0.00     0.166 HD
HETATM   23  N10 UNL     1      31.809 -66.824  46.984  1.00  0.00    -0.354 N 
ATOM     24  H10 UNL     1      32.499 -67.364  46.462  1.00  0.00     0.166 HD
ENDBRANCH  17  18
ENDBRANCH  14  17
ENDBRANCH   9  10
BRANCH   1  25
HETATM   25  N1  UNL     1      32.115 -61.114  42.816  1.00  0.00    -0.379 N 
HETATM   26  C1  UNL     1      31.725 -60.228  43.900  1.00  0.00     0.147 C 
ATOM     27  H1  UNL     1      31.400 -61.559  42.240  1.00  0.00     0.160 HD
ENDBRANCH   1  25
BRANCH   4  28
HETATM   28  N3  UNL     1      36.260 -59.709  41.593  1.00  0.00    -0.218 N 
ATOM     29  H3  UNL     1      37.251 -59.771  41.824  1.00  0.00     0.178 HD
BRANCH  28  30
HETATM   30  C4  UNL     1      35.783 -58.566  40.866  1.00  0.00     0.150 C 
HETATM   31  C5  UNL     1      35.930 -57.292  41.649  1.00  0.00     0.259 C 
HETATM   32  N4  UNL     1      37.005 -56.892  40.764  1.00  0.00    -0.071 N 
HETATM   33  C6  UNL     1      36.785 -58.002  39.888  1.00  0.00     0.259 C 
ATOM     34  H42 UNL     1      36.997 -55.949  40.375  1.00  0.00     0.277 HD
ATOM     35  H41 UNL     1      37.937 -56.749  41.153  1.00  0.00     0.277 HD
ENDBRANCH  28  30
ENDBRANCH   4  28
TORSDOF 6
ENDMDL
MODEL 3
REMARK VINA RESULT: -7.884058675      1.512      2.604
REMARK  6 active torsions:
REMARK  status: ('A' for Active; 'I' for Inactive)
REMARK    1  A    between atoms: N1_2  and  C2_4 
REMARK    2  A    between atoms: C3_7  and  N3_8 
REMARK    3  A    between atoms: N3_8  and  C4_10 
REMARK    4  A    between atoms: C8_20  and  C9_21 
REMARK    5  A    between atoms: C10_26  and  C11_27 
REMARK    6  A    between atoms: C11_27  and  C12_28 
ROOT
HETATM    1  C2  UNL     1      32.303 -60.321  43.651  1.00  0.00     0.133 A 
HETATM    2  N2  UNL     1      33.139 -59.609  42.854  1.00  0.00    -0.176 N 
ATOM      3  H2  UNL     1      33.117 -58.589  42.841  1.00  0.00     0.186 HD
HETATM    4  C3  UNL     1      33.998 -60.297  42.082  1.00  0.00     0.681 A 
HETATM    5  N5  UNL     1      34.035 -61.627  42.092  1.00  0.00    -0.178 N 
ATOM      6  H5  UNL     1      34.705 -62.105  41.489  1.00  0.00     0.185 HD
HETATM    7  C7  UNL     1      33.207 -62.373  42.880  1.00  0.00     0.148 A 
HETATM    8  N6  UNL     1      33.290 -63.785  42.849  1.00  0.00    -0.081 NA
HETATM    9  C8  UNL     1      32.335 -61.696  43.665  1.00  0.00     0.085 A 
ENDROOT
BRANCH   9  10
HETATM   10  C9  UNL     1      31.425 -62.458  44.531  1.00  0.00     0.108 A 
HETATM   11  N7  UNL     1      30.444 -63.274  44.163  1.00  0.00    -0.292 N 
HETATM   12  N8  UNL     1      29.750 -63.856  45.039  1.00  0.00    -0.297 N 
ATOM     13  H7  UNL     1      30.252 -63.429  43.174  1.00  0.00     0.187 HD
HETATM   14  C10 UNL     1      29.996 -63.657  46.329  1.00  0.00     0.074 A 
ATOM     15  H8  UNL     1      28.996 -64.482  44.756  1.00  0.00     0.187 HD
HETATM   16  S1  UNL     1      31.314 -62.557  46.235  1.00  0.00    -0.055 SA
BRANCH  14  17
HETATM   17  C11 UNL     1      29.302 -64.241  47.522  1.00  0.00     0.124 C 
BRANCH  17  18
HETATM   18  C12 UNL     1      29.924 -65.515  47.906  1.00  0.00     0.031 A 
HETATM   19  C13 UNL     1      31.263 -65.829  48.016  1.00  0.00     0.114 A 
HETATM   20  N9  UNL     1      31.338 -67.118  48.397  1.00  0.00    -0.360 N 
HETATM   21  C14 UNL     1      30.108 -67.623  48.529  1.00  0.00     0.180 A 
ATOM     22  H9  UNL     1      32.203 -67.632  48.559  1.00  0.00     0.166 HD
HETATM   23  N10 UNL     1      29.248 -66.629  48.224  1.00  0.00    -0.354 N 
ATOM     24  H10 UNL     1      28.232 -66.712  48.235  1.00  0.00     0.166 HD
ENDBRANCH  17  18
ENDBRANCH  14  17
ENDBRANCH   9  10
BRANCH   1  25
HETATM   25  N1  UNL     1      31.455 -59.739  44.414  1.00  0.00    -0.379 N 
HETATM   26  C1  UNL     1      31.914 -58.933  45.533  1.00  0.00     0.147 C 
ATOM     27  H1  UNL     1      30.456 -59.841  44.236  1.00  0.00     0.160 HD
ENDBRANCH   1  25
BRANCH   4  28
HETATM   28  N3  UNL     1      34.790 -59.617  41.329  1.00  0.00    -0.218 N 
ATOM     29  H3  UNL     1      35.593 -60.083  40.908  1.00  0.00     0.178 HD
BRANCH  28  30
HETATM   30  C4  UNL     1      34.576 -58.221  41.065  1.00  0.00     0.150 C 
HETATM   31  C5  UNL     1      35.783 -57.567  40.454  1.00  0.00     0.259 C 
HETATM   32  N4  UNL     1      35.080 -57.492  39.189  1.00  0.00    -0.071 N 
HETATM   33  C6  UNL     1      33.853 -57.948  39.769  1.00  0.00     0.259 C 
ATOM     34  H42 UNL     1      35.083 -56.611  38.675  1.00  0.00     0.277 HD
ATOM     35  H41 UNL     1      35.459 -57.990  38.383  1.00  0.00     0.277 HD
ENDBRANCH  28  30
ENDBRANCH   4  28
TORSDOF 6
ENDMDL
MODEL 4
REMARK VINA RESULT: -7.880337625      0.862      2.297
REMARK  6 active torsions:
REMARK  status: ('A' for Active; 'I' for Inactive)
REMARK    1  A    between atoms: N1_2  and  C2_4 
REMARK    2  A    between atoms: C3_7  and  N3_8 
REMARK    3  A    between atoms: N3_8  and  C4_10 
REMARK    4  A    between atoms: C8_20  and  C9_21 
REMARK    5  A    between atoms: C10_26  and  C11_27 
REMARK    6  A    between atoms: C11_27  and  C12_28 
ROOT
HETATM    1  C2  UNL     1      32.529 -59.943  43.246  1.00  0.00     0.133 A 
HETATM    2  N2  UNL     1      33.178 -58.781  42.976  1.00  0.00    -0.176 N 
ATOM      3  H2  UNL     1      32.774 -57.879  43.228  1.00  0.00     0.186 HD
HETATM    4  C3  UNL     1      34.371 -58.863  42.364  1.00  0.00     0.681 A 
HETATM    5  N5  UNL     1      34.907 -60.035  42.032  1.00  0.00    -0.178 N 
ATOM      6  H5  UNL     1      35.816 -60.047  41.569  1.00  0.00     0.185 HD
HETATM    7  C7  UNL     1      34.282 -61.221  42.288  1.00  0.00     0.148 A 
HETATM    8  N6  UNL     1      34.898 -62.437  41.911  1.00  0.00    -0.081 NA
HETATM    9  C8  UNL     1      33.077 -61.157  42.905  1.00  0.00     0.085 A 
ENDROOT
BRANCH   9  10
HETATM   10  C9  UNL     1      32.367 -62.409  43.200  1.00  0.00     0.108 A 
HETATM   11  N7  UNL     1      31.769 -63.228  42.343  1.00  0.00    -0.292 N 
HETATM   12  N8  UNL     1      31.200 -64.270  42.764  1.00  0.00    -0.297 N 
ATOM     13  H7  UNL     1      31.770 -63.014  41.347  1.00  0.00     0.187 HD
HETATM   14  C10 UNL     1      31.197 -64.554  44.061  1.00  0.00     0.074 A 
ATOM     15  H8  UNL     1      30.740 -64.900  42.106  1.00  0.00     0.187 HD
HETATM   16  S1  UNL     1      32.075 -63.213  44.682  1.00  0.00    -0.055 SA
BRANCH  14  17
HETATM   17  C11 UNL     1      30.587 -65.726  44.769  1.00  0.00     0.124 C 
BRANCH  17  18
HETATM   18  C12 UNL     1      30.586 -65.505  46.222  1.00  0.00     0.031 A 
HETATM   19  C13 UNL     1      31.374 -66.090  47.190  1.00  0.00     0.114 A 
HETATM   20  N9  UNL     1      31.004 -65.566  48.373  1.00  0.00    -0.360 N 
HETATM   21  C14 UNL     1      30.021 -64.681  48.188  1.00  0.00     0.180 A 
ATOM     22  H9  UNL     1      31.412 -65.809  49.276  1.00  0.00     0.166 HD
HETATM   23  N10 UNL     1      29.773 -64.652  46.862  1.00  0.00    -0.354 N 
ATOM     24  H10 UNL     1      29.070 -64.066  46.412  1.00  0.00     0.166 HD
ENDBRANCH  17  18
ENDBRANCH  14  17
ENDBRANCH   9  10
BRANCH   1  25
HETATM   25  N1  UNL     1      31.388 -59.948  43.825  1.00  0.00    -0.379 N 
HETATM   26  C1  UNL     1      31.275 -59.553  45.220  1.00  0.00     0.147 C 
ATOM     27  H1  UNL     1      30.556 -60.229  43.307  1.00  0.00     0.160 HD
ENDBRANCH   1  25
BRANCH   4  28
HETATM   28  N3  UNL     1      34.983 -57.759  42.112  1.00  0.00    -0.218 N 
ATOM     29  H3  UNL     1      35.727 -57.452  42.737  1.00  0.00     0.178 HD
BRANCH  28  30
HETATM   30  C4  UNL     1      34.646 -56.947  40.976  1.00  0.00     0.150 C 
HETATM   31  C5  UNL     1      35.792 -56.815  40.012  1.00  0.00     0.259 C 
HETATM   32  N4  UNL     1      35.088 -57.678  39.084  1.00  0.00    -0.071 N 
HETATM   33  C6  UNL     1      33.906 -57.690  39.891  1.00  0.00     0.259 C 
ATOM     34  H42 UNL     1      35.015 -57.395  38.107  1.00  0.00     0.277 HD
ATOM     35  H41 UNL     1      35.512 -58.567  38.819  1.00  0.00     0.277 HD
ENDBRANCH  28  30
ENDBRANCH   4  28
TORSDOF 6
ENDMDL
MODEL 5
REMARK VINA RESULT: -7.760447652      1.739      2.796
REMARK  6 active torsions:
REMARK  status: ('A' for Active; 'I' for Inactive)
REMARK    1  A    between atoms: N1_2  and  C2_4 
REMARK    2  A    between atoms: C3_7  and  N3_8 
REMARK    3  A    between atoms: N3_8  and  C4_10 
REMARK    4  A    between atoms: C8_20  and  C9_21 
REMARK    5  A    between atoms: C10_26  and  C11_27 
REMARK    6  A    between atoms: C11_27  and  C12_28 
ROOT
HETATM    1  C2  UNL     1      31.979 -60.045  43.946  1.00  0.00     0.133 A 
HETATM    2  N2  UNL     1      32.685 -59.208  43.145  1.00  0.00    -0.176 N 
ATOM      3  H2  UNL     1      32.630 -58.195  43.259  1.00  0.00     0.186 HD
HETATM    4  C3  UNL     1      33.459 -59.760  42.195  1.00  0.00     0.681 A 
HETATM    5  N5  UNL     1      33.538 -61.079  42.038  1.00  0.00    -0.178 N 
ATOM      6  H5  UNL     1      34.140 -61.452  41.304  1.00  0.00     0.185 HD
HETATM    7  C7  UNL     1      32.841 -61.949  42.826  1.00  0.00     0.148 A 
HETATM    8  N6  UNL     1      32.963 -63.342  42.613  1.00  0.00    -0.081 NA
HETATM    9  C8  UNL     1      32.056 -61.409  43.789  1.00  0.00     0.085 A 
ENDROOT
BRANCH   9  10
HETATM   10  C9  UNL     1      31.288 -62.309  44.660  1.00  0.00     0.108 A 
HETATM   11  N7  UNL     1      30.378 -63.208  44.303  1.00  0.00    -0.292 N 
HETATM   12  N8  UNL     1      29.806 -63.905  45.183  1.00  0.00    -0.297 N 
ATOM     13  H7  UNL     1      30.143 -63.334  43.319  1.00  0.00     0.187 HD
HETATM   14  C10 UNL     1      30.109 -63.744  46.466  1.00  0.00     0.074 A 
ATOM     15  H8  UNL     1      29.107 -64.596  44.909  1.00  0.00     0.187 HD
HETATM   16  S1  UNL     1      31.294 -62.504  46.360  1.00  0.00    -0.055 SA
BRANCH  14  17
HETATM   17  C11 UNL     1      29.556 -64.459  47.662  1.00  0.00     0.124 C 
BRANCH  17  18
HETATM   18  C12 UNL     1      30.223 -65.756  47.838  1.00  0.00     0.031 A 
HETATM   19  C13 UNL     1      29.910 -66.978  47.280  1.00  0.00     0.114 A 
HETATM   20  N9  UNL     1      30.809 -67.867  47.740  1.00  0.00    -0.360 N 
HETATM   21  C14 UNL     1      31.670 -67.257  48.559  1.00  0.00     0.180 A 
ATOM     22  H9  UNL     1      30.830 -68.858  47.499  1.00  0.00     0.166 HD
HETATM   23  N10 UNL     1      31.300 -65.961  48.612  1.00  0.00    -0.354 N 
ATOM     24  H10 UNL     1      31.770 -65.241  49.160  1.00  0.00     0.166 HD
ENDBRANCH  17  18
ENDBRANCH  14  17
ENDBRANCH   9  10
BRANCH   1  25
HETATM   25  N1  UNL     1      31.219 -59.596  44.872  1.00  0.00    -0.379 N 
HETATM   26  C1  UNL     1      31.786 -58.861  45.991  1.00  0.00     0.147 C 
ATOM     27  H1  UNL     1      30.212 -59.755  44.825  1.00  0.00     0.160 HD
ENDBRANCH   1  25
BRANCH   4  28
HETATM   28  N3  UNL     1      34.127 -58.961  41.439  1.00  0.00    -0.218 N 
ATOM     29  H3  UNL     1      33.659 -58.145  41.047  1.00  0.00     0.178 HD
BRANCH  28  30
HETATM   30  C4  UNL     1      35.512 -59.185  41.133  1.00  0.00     0.150 C 
HETATM   31  C5  UNL     1      36.061 -58.148  40.193  1.00  0.00     0.259 C 
HETATM   32  N4  UNL     1      36.822 -57.582  41.289  1.00  0.00    -0.071 N 
HETATM   33  C6  UNL     1      36.464 -58.648  42.174  1.00  0.00     0.259 C 
ATOM     34  H42 UNL     1      37.809 -57.371  41.146  1.00  0.00     0.277 HD
ATOM     35  H41 UNL     1      36.633 -56.621  41.575  1.00  0.00     0.277 HD
ENDBRANCH  28  30
ENDBRANCH   4  28
TORSDOF 6
ENDMDL
