MODEL 1
REMARK VINA RESULT: -7.420103569      0.000      0.000
REMARK  12 active torsions:
REMARK  status: ('A' for Active; 'I' for Inactive)
REMARK    1  A    between atoms: C2_2  and  C3_3 
REMARK    2  A    between atoms: C3_3  and  O1_4 
REMARK    3  A    between atoms: C5_9  and  N1_10 
REMARK    4  A    between atoms: C5_9  and  C6_14 
REMARK       I    between atoms: C6_14  and  N2_16 
REMARK    5  A    between atoms: N2_16  and  C7_18 
REMARK    6  A    between atoms: C7_18  and  C8_19 
REMARK    7  A    between atoms: C7_18  and  C10_32 
REMARK    8  A    between atoms: N3_20  and  O5_22 
REMARK    9  A    between atoms: O5_22  and  C9_23 
REMARK   10  A    between atoms: C9_23  and  N4_24 
REMARK   11  A    between atoms: C9_23  and  N5_28 
REMARK   12  A    between atoms: C14_36  and  N6_37 
ROOT
HETATM    1  C6  UNL     1       9.780  11.340  -3.038  1.00  0.00     0.282 C 
HETATM    2  O4  UNL     1      10.648  10.600  -3.558  1.00  0.00    -0.268 OA
HETATM    3  N2  UNL     1      10.102  11.987  -1.840  1.00  0.00    -0.347 N 
ATOM      4  H2  UNL     1       9.403  12.593  -1.410  1.00  0.00     0.163 HD
ENDROOT
BRANCH   1   5
HETATM    5  C5  UNL     1       8.470  11.482  -3.726  1.00  0.00     0.314 C 
HETATM    6  O3  UNL     1       8.516  12.651  -4.510  1.00  0.00    -0.271 OA
HETATM    7  C4  UNL     1       8.329  12.658  -5.877  1.00  0.00     0.298 C 
HETATM    8  C3  UNL     1       8.280  11.374  -6.563  1.00  0.00     0.171 C 
HETATM    9  O2  UNL     1       8.208  13.728  -6.489  1.00  0.00    -0.262 OA
HETATM   10  C14 UNL     1       7.371  10.470  -5.774  1.00  0.00     0.205 C 
HETATM   11  C13 UNL     1       8.038  10.260  -4.435  1.00  0.00     0.115 C 
BRANCH   8  12
HETATM   12  C2  UNL     1       8.013  11.439  -8.022  1.00  0.00     0.046 C 
HETATM   13  C1  UNL     1       9.183  11.289  -8.924  1.00  0.00     0.009 C 
ENDBRANCH   8  12
BRANCH   8  14
HETATM   14  O1  UNL     1       9.577  10.814  -6.426  1.00  0.00    -0.377 OA
ATOM     15  H1  UNL     1      10.147  11.531  -6.175  1.00  0.00     0.211 HD
ENDBRANCH   8  14
BRANCH  10  16
HETATM   16  N6  UNL     1       6.028  10.944  -5.633  1.00  0.00    -0.147 N 
HETATM   17  O6  UNL     1       5.063  10.139  -5.790  1.00  0.00    -0.536 OA
HETATM   18  O7  UNL     1       5.676  12.225  -5.333  1.00  0.00    -0.536 OA
ENDBRANCH  10  16
BRANCH   5  19
HETATM   19  N1  UNL     1       7.489  11.759  -2.664  1.00  0.00    -0.037 N 
ATOM     20  H13 UNL     1       7.752  12.534  -2.055  1.00  0.00     0.278 HD
ATOM     21  H12 UNL     1       6.618  12.165  -3.006  1.00  0.00     0.278 HD
ATOM     22  H11 UNL     1       7.364  10.875  -2.171  1.00  0.00     0.278 HD
ENDBRANCH   5  19
ENDBRANCH   1   5
BRANCH   3  23
HETATM   23  C7  UNL     1      11.380  11.835  -1.187  1.00  0.00     0.128 C 
BRANCH  23  24
HETATM   24  C8  UNL     1      11.267  11.805   0.282  1.00  0.00     0.112 C 
HETATM   25  N3  UNL     1      11.069  10.707   0.918  1.00  0.00    -0.276 N 
ATOM     26  H3  UNL     1      10.993   9.846   0.378  1.00  0.00     0.193 HD
BRANCH  25  27
HETATM   27  O5  UNL     1      10.957  10.626   2.275  1.00  0.00    -0.220 OA
BRANCH  27  28
HETATM   28  C9  UNL     1      11.626   9.633   3.036  1.00  0.00     0.542 C 
BRANCH  28  29
HETATM   29  N4  UNL     1      10.829   8.411   3.109  1.00  0.00    -0.025 N 
ATOM     30  H43 UNL     1       9.859   8.577   2.840  1.00  0.00     0.279 HD
ATOM     31  H42 UNL     1      11.081   7.751   2.373  1.00  0.00     0.279 HD
ATOM     32  H41 UNL     1      10.898   7.989   4.035  1.00  0.00     0.279 HD
ENDBRANCH  28  29
BRANCH  28  33
HETATM   33  N5  UNL     1      12.930   9.301   2.529  1.00  0.00    -0.025 N 
ATOM     34  H53 UNL     1      13.067   8.290   2.520  1.00  0.00     0.279 HD
ATOM     35  H52 UNL     1      12.986   9.489   1.528  1.00  0.00     0.279 HD
ATOM     36  H51 UNL     1      13.691   9.763   3.027  1.00  0.00     0.279 HD
ENDBRANCH  28  33
ENDBRANCH  27  28
ENDBRANCH  25  27
ENDBRANCH  23  24
BRANCH  23  37
HETATM   37  C10 UNL     1      12.348  12.938  -1.617  1.00  0.00     0.005 C 
HETATM   38  C11 UNL     1      12.127  14.201  -0.848  1.00  0.00     0.012 C 
HETATM   39  C12 UNL     1      13.764  12.422  -1.388  1.00  0.00     0.012 C 
ENDBRANCH  23  37
ENDBRANCH   3  23
TORSDOF 12
ENDMDL
MODEL 2
REMARK VINA RESULT: -7.362207033      3.376      5.072
REMARK  12 active torsions:
REMARK  status: ('A' for Active; 'I' for Inactive)
REMARK    1  A    between atoms: C2_2  and  C3_3 
REMARK    2  A    between atoms: C3_3  and  O1_4 
REMARK    3  A    between atoms: C5_9  and  N1_10 
REMARK    4  A    between atoms: C5_9  and  C6_14 
REMARK       I    between atoms: C6_14  and  N2_16 
REMARK    5  A    between atoms: N2_16  and  C7_18 
REMARK    6  A    between atoms: C7_18  and  C8_19 
REMARK    7  A    between atoms: C7_18  and  C10_32 
REMARK    8  A    between atoms: N3_20  and  O5_22 
REMARK    9  A    between atoms: O5_22  and  C9_23 
REMARK   10  A    between atoms: C9_23  and  N4_24 
REMARK   11  A    between atoms: C9_23  and  N5_28 
REMARK   12  A    between atoms: C14_36  and  N6_37 
ROOT
HETATM    1  C6  UNL     1      14.407  11.634  -2.069  1.00  0.00     0.282 C 
HETATM    2  O4  UNL     1      14.970  10.652  -2.609  1.00  0.00    -0.268 OA
HETATM    3  N2  UNL     1      14.790  11.977  -0.768  1.00  0.00    -0.347 N 
ATOM      4  H2  UNL     1      14.338  12.775  -0.321  1.00  0.00     0.163 HD
ENDROOT
BRANCH   1   5
HETATM    5  C5  UNL     1      13.373  12.368  -2.845  1.00  0.00     0.314 C 
HETATM    6  O3  UNL     1      12.558  11.418  -3.490  1.00  0.00    -0.271 OA
HETATM    7  C4  UNL     1      11.196  11.325  -3.292  1.00  0.00     0.298 C 
HETATM    8  C3  UNL     1      10.609  12.115  -2.218  1.00  0.00     0.171 C 
HETATM    9  O2  UNL     1      10.505  10.590  -4.012  1.00  0.00    -0.262 OA
HETATM   10  C14 UNL     1      11.170  13.508  -2.317  1.00  0.00     0.205 C 
HETATM   11  C13 UNL     1      12.654  13.388  -2.054  1.00  0.00     0.115 C 
BRANCH   8  12
HETATM   12  C2  UNL     1       9.133  12.024  -2.091  1.00  0.00     0.046 C 
HETATM   13  C1  UNL     1       8.604  11.143  -1.020  1.00  0.00     0.009 C 
ENDBRANCH   8  12
BRANCH   8  14
HETATM   14  O1  UNL     1      11.139  11.581  -1.014  1.00  0.00    -0.377 OA
ATOM     15  H1  UNL     1      11.870  11.032  -1.270  1.00  0.00     0.211 HD
ENDBRANCH   8  14
BRANCH  10  16
HETATM   16  N6  UNL     1      10.900  14.178  -3.552  1.00  0.00    -0.147 N 
HETATM   17  O6  UNL     1       9.704  14.286  -3.954  1.00  0.00    -0.536 OA
HETATM   18  O7  UNL     1      11.842  14.731  -4.366  1.00  0.00    -0.536 OA
ENDBRANCH  10  16
BRANCH   5  19
HETATM   19  N1  UNL     1      14.099  13.060  -3.922  1.00  0.00    -0.037 N 
ATOM     20  H13 UNL     1      15.110  12.932  -3.883  1.00  0.00     0.278 HD
ATOM     21  H12 UNL     1      13.960  12.645  -4.843  1.00  0.00     0.278 HD
ATOM     22  H11 UNL     1      13.807  14.036  -3.864  1.00  0.00     0.278 HD
ENDBRANCH   5  19
ENDBRANCH   1   5
BRANCH   3  23
HETATM   23  C7  UNL     1      15.796  11.250  -0.031  1.00  0.00     0.128 C 
BRANCH  23  24
HETATM   24  C8  UNL     1      15.282  10.695   1.234  1.00  0.00     0.112 C 
HETATM   25  N3  UNL     1      14.032  10.732   1.525  1.00  0.00    -0.276 N 
ATOM     26  H3  UNL     1      13.395  11.160   0.854  1.00  0.00     0.193 HD
BRANCH  25  27
HETATM   27  O5  UNL     1      13.508  10.233   2.681  1.00  0.00    -0.220 OA
BRANCH  27  28
HETATM   28  C9  UNL     1      12.174   9.756   2.767  1.00  0.00     0.542 C 
BRANCH  28  29
HETATM   29  N4  UNL     1      11.449  10.435   3.838  1.00  0.00    -0.025 N 
ATOM     30  H43 UNL     1      10.894   9.782   4.391  1.00  0.00     0.279 HD
ATOM     31  H42 UNL     1      12.078  10.761   4.572  1.00  0.00     0.279 HD
ATOM     32  H41 UNL     1      10.879  11.194   3.465  1.00  0.00     0.279 HD
ENDBRANCH  28  29
BRANCH  28  33
HETATM   33  N5  UNL     1      11.430   9.902   1.546  1.00  0.00    -0.025 N 
ATOM     34  H53 UNL     1      10.687  10.593   1.656  1.00  0.00     0.279 HD
ATOM     35  H52 UNL     1      11.993  10.370   0.835  1.00  0.00     0.279 HD
ATOM     36  H51 UNL     1      11.055   9.023   1.188  1.00  0.00     0.279 HD
ENDBRANCH  28  33
ENDBRANCH  27  28
ENDBRANCH  25  27
ENDBRANCH  23  24
BRANCH  23  37
HETATM   37  C10 UNL     1      17.017  12.130   0.239  1.00  0.00     0.005 C 
HETATM   38  C11 UNL     1      18.212  11.673  -0.533  1.00  0.00     0.012 C 
HETATM   39  C12 UNL     1      16.650  13.557  -0.152  1.00  0.00     0.012 C 
ENDBRANCH  23  37
ENDBRANCH   3  23
TORSDOF 12
ENDMDL
MODEL 3
REMARK VINA RESULT: -7.360431758      1.373      1.662
REMARK  12 active torsions:
REMARK  status: ('A' for Active; 'I' for Inactive)
REMARK    1  A    between atoms: C2_2  and  C3_3 
REMARK    2  A    between atoms: C3_3  and  O1_4 
REMARK    3  A    between atoms: C5_9  and  N1_10 
REMARK    4  A    between atoms: C5_9  and  C6_14 
REMARK       I    between atoms: C6_14  and  N2_16 
REMARK    5  A    between atoms: N2_16  and  C7_18 
REMARK    6  A    between atoms: C7_18  and  C8_19 
REMARK    7  A    between atoms: C7_18  and  C10_32 
REMARK    8  A    between atoms: N3_20  and  O5_22 
REMARK    9  A    between atoms: O5_22  and  C9_23 
REMARK   10  A    between atoms: C9_23  and  N4_24 
REMARK   11  A    between atoms: C9_23  and  N5_28 
REMARK   12  A    between atoms: C14_36  and  N6_37 
ROOT
HETATM    1  C6  UNL     1       9.546  11.958  -3.909  1.00  0.00     0.282 C 
HETATM    2  O4  UNL     1      10.387  11.956  -4.838  1.00  0.00    -0.268 OA
HETATM    3  N2  UNL     1       9.963  12.395  -2.646  1.00  0.00    -0.347 N 
ATOM      4  H2  UNL     1       9.285  12.401  -1.884  1.00  0.00     0.163 HD
ENDROOT
BRANCH   1   5
HETATM    5  C5  UNL     1       8.164  11.497  -4.206  1.00  0.00     0.314 C 
HETATM    6  O3  UNL     1       7.489  12.545  -4.861  1.00  0.00    -0.271 OA
HETATM    7  C4  UNL     1       6.942  12.427  -6.122  1.00  0.00     0.298 C 
HETATM    8  C3  UNL     1       7.250  11.226  -6.887  1.00  0.00     0.171 C 
HETATM    9  O2  UNL     1       6.212  13.319  -6.577  1.00  0.00    -0.262 OA
HETATM   10  C14 UNL     1       7.071  10.043  -5.973  1.00  0.00     0.205 C 
HETATM   11  C13 UNL     1       8.110  10.187  -4.885  1.00  0.00     0.115 C 
BRANCH   8  12
HETATM   12  C2  UNL     1       6.584  11.122  -8.210  1.00  0.00     0.046 C 
HETATM   13  C1  UNL     1       7.467  11.066  -9.402  1.00  0.00     0.009 C 
ENDBRANCH   8  12
BRANCH   8  14
HETATM   14  O1  UNL     1       8.643  11.287  -7.154  1.00  0.00    -0.377 OA
ATOM     15  H1  UNL     1       8.945  12.109  -6.787  1.00  0.00     0.211 HD
ENDBRANCH   8  14
BRANCH  10  16
HETATM   16  N6  UNL     1       5.753   9.895  -5.436  1.00  0.00    -0.147 N 
HETATM   17  O6  UNL     1       5.523   8.974  -4.598  1.00  0.00    -0.536 OA
HETATM   18  O7  UNL     1       4.685  10.679  -5.751  1.00  0.00    -0.536 OA
ENDBRANCH  10  16
BRANCH   5  19
HETATM   19  N1  UNL     1       7.500  11.357  -2.900  1.00  0.00    -0.037 N 
ATOM     20  H13 UNL     1       6.497  11.539  -2.929  1.00  0.00     0.278 HD
ATOM     21  H12 UNL     1       7.438  10.393  -2.573  1.00  0.00     0.278 HD
ATOM     22  H11 UNL     1       8.010  11.973  -2.267  1.00  0.00     0.278 HD
ENDBRANCH   5  19
ENDBRANCH   1   5
BRANCH   3  23
HETATM   23  C7  UNL     1      11.310  12.838  -2.377  1.00  0.00     0.128 C 
BRANCH  23  24
HETATM   24  C8  UNL     1      11.844  12.295  -1.116  1.00  0.00     0.112 C 
HETATM   25  N3  UNL     1      11.401  11.198  -0.616  1.00  0.00    -0.276 N 
ATOM     26  H3  UNL     1      10.662  10.705  -1.117  1.00  0.00     0.193 HD
BRANCH  25  27
HETATM   27  O5  UNL     1      11.860  10.654   0.547  1.00  0.00    -0.220 OA
BRANCH  27  28
HETATM   28  C9  UNL     1      11.067  10.588   1.722  1.00  0.00     0.542 C 
BRANCH  28  29
HETATM   29  N4  UNL     1       9.660  10.824   1.410  1.00  0.00    -0.025 N 
ATOM     30  H43 UNL     1       9.549  11.480   0.637  1.00  0.00     0.279 HD
ATOM     31  H42 UNL     1       9.226  10.007   0.981  1.00  0.00     0.279 HD
ATOM     32  H41 UNL     1       9.152  11.130   2.241  1.00  0.00     0.279 HD
ENDBRANCH  28  29
BRANCH  28  33
HETATM   33  N5  UNL     1      11.179   9.339   2.423  1.00  0.00    -0.025 N 
ATOM     34  H53 UNL     1      10.771   8.580   1.876  1.00  0.00     0.279 HD
ATOM     35  H52 UNL     1      12.149   9.026   2.450  1.00  0.00     0.279 HD
ATOM     36  H51 UNL     1      10.781   9.360   3.362  1.00  0.00     0.279 HD
ENDBRANCH  28  33
ENDBRANCH  27  28
ENDBRANCH  25  27
ENDBRANCH  23  24
BRANCH  23  37
HETATM   37  C10 UNL     1      11.392  14.365  -2.368  1.00  0.00     0.005 C 
HETATM   38  C11 UNL     1      12.042  14.878  -1.125  1.00  0.00     0.012 C 
HETATM   39  C12 UNL     1      12.190  14.789  -3.596  1.00  0.00     0.012 C 
ENDBRANCH  23  37
ENDBRANCH   3  23
TORSDOF 12
ENDMDL
MODEL 4
REMARK VINA RESULT: -7.342396512      1.392      1.690
REMARK  12 active torsions:
REMARK  status: ('A' for Active; 'I' for Inactive)
REMARK    1  A    between atoms: C2_2  and  C3_3 
REMARK    2  A    between atoms: C3_3  and  O1_4 
REMARK    3  A    between atoms: C5_9  and  N1_10 
REMARK    4  A    between atoms: C5_9  and  C6_14 
REMARK       I    between atoms: C6_14  and  N2_16 
REMARK    5  A    between atoms: N2_16  and  C7_18 
REMARK    6  A    between atoms: C7_18  and  C8_19 
REMARK    7  A    between atoms: C7_18  and  C10_32 
REMARK    8  A    between atoms: N3_20  and  O5_22 
REMARK    9  A    between atoms: O5_22  and  C9_23 
REMARK   10  A    between atoms: C9_23  and  N4_24 
REMARK   11  A    between atoms: C9_23  and  N5_28 
REMARK   12  A    between atoms: C14_36  and  N6_37 
ROOT
HETATM    1  C6  UNL     1       9.579  11.068  -2.937  1.00  0.00     0.282 C 
HETATM    2  O4  UNL     1       9.312  10.040  -2.271  1.00  0.00    -0.268 OA
HETATM    3  N2  UNL     1      10.893  11.549  -2.903  1.00  0.00    -0.347 N 
ATOM      4  H2  UNL     1      11.121  12.385  -3.443  1.00  0.00     0.163 HD
ENDROOT
BRANCH   1   5
HETATM    5  C5  UNL     1       8.487  11.707  -3.717  1.00  0.00     0.314 C 
HETATM    6  O3  UNL     1       8.791  13.075  -3.849  1.00  0.00    -0.271 OA
HETATM    7  C4  UNL     1       8.944  13.707  -5.066  1.00  0.00     0.298 C 
HETATM    8  C3  UNL     1       8.988  12.877  -6.262  1.00  0.00     0.171 C 
HETATM    9  O2  UNL     1       9.038  14.941  -5.127  1.00  0.00    -0.262 OA
HETATM   10  C14 UNL     1       7.863  11.881  -6.169  1.00  0.00     0.205 C 
HETATM   11  C13 UNL     1       8.171  11.004  -4.977  1.00  0.00     0.115 C 
BRANCH   8  12
HETATM   12  C2  UNL     1       9.090  13.612  -7.547  1.00  0.00     0.046 C 
HETATM   13  C1  UNL     1       9.032  12.802  -8.790  1.00  0.00     0.009 C 
ENDBRANCH   8  12
BRANCH   8  14
HETATM   14  O1  UNL     1      10.178  12.110  -6.154  1.00  0.00    -0.377 OA
ATOM     15  H1  UNL     1       9.905  11.200  -6.149  1.00  0.00     0.211 HD
ENDBRANCH   8  14
BRANCH  10  16
HETATM   16  N6  UNL     1       6.556  12.458  -6.083  1.00  0.00    -0.147 N 
HETATM   17  O6  UNL     1       5.688  11.925  -5.331  1.00  0.00    -0.536 OA
HETATM   18  O7  UNL     1       6.143  13.566  -6.759  1.00  0.00    -0.536 OA
ENDBRANCH  10  16
BRANCH   5  19
HETATM   19  N1  UNL     1       7.295  11.650  -2.856  1.00  0.00    -0.037 N 
ATOM     20  H13 UNL     1       6.782  12.530  -2.807  1.00  0.00     0.278 HD
ATOM     21  H12 UNL     1       6.536  11.089  -3.243  1.00  0.00     0.278 HD
ATOM     22  H11 UNL     1       7.628  11.318  -1.950  1.00  0.00     0.278 HD
ENDBRANCH   5  19
ENDBRANCH   1   5
BRANCH   3  23
HETATM   23  C7  UNL     1      11.940  10.915  -2.138  1.00  0.00     0.128 C 
BRANCH  23  24
HETATM   24  C8  UNL     1      11.925  11.310  -0.719  1.00  0.00     0.112 C 
HETATM   25  N3  UNL     1      11.325  10.603   0.169  1.00  0.00    -0.276 N 
ATOM     26  H3  UNL     1      10.854   9.751  -0.133  1.00  0.00     0.193 HD
BRANCH  25  27
HETATM   27  O5  UNL     1      11.282  10.926   1.493  1.00  0.00    -0.220 OA
BRANCH  27  28
HETATM   28  C9  UNL     1      11.765  10.055   2.505  1.00  0.00     0.542 C 
BRANCH  28  29
HETATM   29  N4  UNL     1      10.874   8.909   2.670  1.00  0.00    -0.025 N 
ATOM     30  H43 UNL     1      10.008   9.169   3.142  1.00  0.00     0.279 HD
ATOM     31  H42 UNL     1      10.479   8.606   1.780  1.00  0.00     0.279 HD
ATOM     32  H41 UNL     1      11.352   8.146   3.151  1.00  0.00     0.279 HD
ENDBRANCH  28  29
BRANCH  28  33
HETATM   33  N5  UNL     1      13.096   9.570   2.260  1.00  0.00    -0.025 N 
ATOM     34  H53 UNL     1      13.186   9.232   1.302  1.00  0.00     0.279 HD
ATOM     35  H52 UNL     1      13.761  10.343   2.230  1.00  0.00     0.279 HD
ATOM     36  H51 UNL     1      13.400   8.858   2.925  1.00  0.00     0.279 HD
ENDBRANCH  28  33
ENDBRANCH  27  28
ENDBRANCH  25  27
ENDBRANCH  23  24
BRANCH  23  37
HETATM   37  C10 UNL     1      13.312  11.200  -2.749  1.00  0.00     0.005 C 
HETATM   38  C11 UNL     1      14.382  11.258  -1.708  1.00  0.00     0.012 C 
HETATM   39  C12 UNL     1      13.610  10.090  -3.750  1.00  0.00     0.012 C 
ENDBRANCH  23  37
ENDBRANCH   3  23
TORSDOF 12
ENDMDL
MODEL 5
REMARK VINA RESULT: -7.291675074      1.302      1.560
REMARK  12 active torsions:
REMARK  status: ('A' for Active; 'I' for Inactive)
REMARK    1  A    between atoms: C2_2  and  C3_3 
REMARK    2  A    between atoms: C3_3  and  O1_4 
REMARK    3  A    between atoms: C5_9  and  N1_10 
REMARK    4  A    between atoms: C5_9  and  C6_14 
REMARK       I    between atoms: C6_14  and  N2_16 
REMARK    5  A    between atoms: N2_16  and  C7_18 
REMARK    6  A    between atoms: C7_18  and  C8_19 
REMARK    7  A    between atoms: C7_18  and  C10_32 
REMARK    8  A    between atoms: N3_20  and  O5_22 
REMARK    9  A    between atoms: O5_22  and  C9_23 
REMARK   10  A    between atoms: C9_23  and  N4_24 
REMARK   11  A    between atoms: C9_23  and  N5_28 
REMARK   12  A    between atoms: C14_36  and  N6_37 
ROOT
HETATM    1  C6  UNL     1      10.809  12.296  -3.136  1.00  0.00     0.282 C 
HETATM    2  O4  UNL     1      11.648  11.623  -3.781  1.00  0.00    -0.268 OA
HETATM    3  N2  UNL     1      11.261  13.018  -2.025  1.00  0.00    -0.347 N 
ATOM      4  H2  UNL     1      10.586  13.570  -1.495  1.00  0.00     0.163 HD
ENDROOT
BRANCH   1   5
HETATM    5  C5  UNL     1       9.395  12.285  -3.592  1.00  0.00     0.314 C 
HETATM    6  O3  UNL     1       9.112  13.542  -4.159  1.00  0.00    -0.271 OA
HETATM    7  C4  UNL     1       8.692  13.712  -5.463  1.00  0.00     0.298 C 
HETATM    8  C3  UNL     1       8.736  12.555  -6.347  1.00  0.00     0.171 C 
HETATM    9  O2  UNL     1       8.293  14.816  -5.856  1.00  0.00    -0.262 OA
HETATM   10  C14 UNL     1       8.139  11.390  -5.605  1.00  0.00     0.205 C 
HETATM   11  C13 UNL     1       9.053  11.119  -4.432  1.00  0.00     0.115 C 
BRANCH   8  12
HETATM   12  C2  UNL     1       8.214  12.779  -7.719  1.00  0.00     0.046 C 
HETATM   13  C1  UNL     1       8.146  11.595  -8.611  1.00  0.00     0.009 C 
ENDBRANCH   8  12
BRANCH   8  14
HETATM   14  O1  UNL     1      10.112  12.238  -6.498  1.00  0.00    -0.377 OA
ATOM     15  H1  UNL     1      10.548  13.056  -6.704  1.00  0.00     0.211 HD
ENDBRANCH   8  14
BRANCH  10  16
HETATM   16  N6  UNL     1       6.781  11.574  -5.190  1.00  0.00    -0.147 N 
HETATM   17  O6  UNL     1       6.331  10.904  -4.215  1.00  0.00    -0.536 OA
HETATM   18  O7  UNL     1       5.896  12.434  -5.767  1.00  0.00    -0.536 OA
ENDBRANCH  10  16
BRANCH   5  19
HETATM   19  N1  UNL     1       8.581  12.213  -2.368  1.00  0.00    -0.037 N 
ATOM     20  H13 UNL     1       7.649  12.613  -2.471  1.00  0.00     0.278 HD
ATOM     21  H12 UNL     1       8.281  11.268  -2.130  1.00  0.00     0.278 HD
ATOM     22  H11 UNL     1       9.141  12.661  -1.642  1.00  0.00     0.278 HD
ENDBRANCH   5  19
ENDBRANCH   1   5
BRANCH   3  23
HETATM   23  C7  UNL     1      12.640  13.015  -1.598  1.00  0.00     0.128 C 
BRANCH  23  24
HETATM   24  C8  UNL     1      12.821  12.398  -0.272  1.00  0.00     0.112 C 
HETATM   25  N3  UNL     1      12.182  11.336   0.068  1.00  0.00    -0.276 N 
ATOM     26  H3  UNL     1      11.539  10.926  -0.608  1.00  0.00     0.193 HD
BRANCH  25  27
HETATM   27  O5  UNL     1      12.314  10.728   1.281  1.00  0.00    -0.220 OA
BRANCH  27  28
HETATM   28  C9  UNL     1      11.208  10.493   2.138  1.00  0.00     0.542 C 
BRANCH  28  29
HETATM   29  N4  UNL     1       9.957  10.869   1.485  1.00  0.00    -0.025 N 
ATOM     30  H43 UNL     1      10.100  11.107   0.504  1.00  0.00     0.279 HD
ATOM     31  H42 UNL     1       9.341  10.066   1.359  1.00  0.00     0.279 HD
ATOM     32  H41 UNL     1       9.496  11.623   1.994  1.00  0.00     0.279 HD
ENDBRANCH  28  29
BRANCH  28  33
HETATM   33  N5  UNL     1      11.103   9.129   2.582  1.00  0.00    -0.025 N 
ATOM     34  H53 UNL     1      10.162   8.933   2.925  1.00  0.00     0.279 HD
ATOM     35  H52 UNL     1      11.131   8.489   1.788  1.00  0.00     0.279 HD
ATOM     36  H51 UNL     1      11.802   8.871   3.279  1.00  0.00     0.279 HD
ENDBRANCH  28  33
ENDBRANCH  27  28
ENDBRANCH  25  27
ENDBRANCH  23  24
BRANCH  23  37
HETATM   37  C10 UNL     1      13.215  14.432  -1.601  1.00  0.00     0.005 C 
HETATM   38  C11 UNL     1      12.234  15.430  -1.078  1.00  0.00     0.012 C 
HETATM   39  C12 UNL     1      14.469  14.420  -0.734  1.00  0.00     0.012 C 
ENDBRANCH  23  37
ENDBRANCH   3  23
TORSDOF 12
ENDMDL
