MODEL 1
REMARK VINA RESULT: -7.468962330      0.000      0.000
REMARK  5 active torsions:
REMARK  status: ('A' for Active; 'I' for Inactive)
REMARK    1  A    between atoms: C1_2  and  C2_3 
REMARK       I    between atoms: C1_2  and  N1_9 
REMARK    2  A    between atoms: C11_13  and  C12_14 
REMARK    3  A    between atoms: C12_14  and  N2_15 
REMARK    4  A    between atoms: N2_15  and  C13_18 
REMARK    5  A    between atoms: C14_19  and  O2_20 
ROOT
HETATM    1  C12 UNL     1      32.857  -9.584  -5.655  1.00  0.00     0.239 C 
ENDROOT
BRANCH   1   2
HETATM    2  C11 UNL     1      32.456  -8.604  -4.538  1.00  0.00     0.029 C 
HETATM    3  C10 UNL     1      32.498  -7.196  -5.015  1.00  0.00     0.009 C 
HETATM    4  C9  UNL     1      31.173  -6.508  -5.116  1.00  0.00     0.020 C 
HETATM    5  C8  UNL     1      30.500  -6.693  -3.746  1.00  0.00     0.126 C 
HETATM    6  N1  UNL     1      30.167  -8.113  -3.699  1.00  0.00    -0.351 N 
HETATM    7  C1  UNL     1      28.835  -8.531  -3.426  1.00  0.00     0.224 C 
HETATM    8  C21 UNL     1      31.196  -9.081  -3.927  1.00  0.00     0.132 C 
HETATM    9  O1  UNL     1      28.556  -9.744  -3.405  1.00  0.00    -0.273 OA
BRANCH   7  10
HETATM   10  C2  UNL     1      27.790  -7.539  -3.170  1.00  0.00     0.078 C 
HETATM   11  C3  UNL     1      26.446  -8.014  -3.703  1.00  0.00     0.014 C 
HETATM   12  C4  UNL     1      25.319  -7.356  -2.950  1.00  0.00     0.001 C 
HETATM   13  C5  UNL     1      25.701  -5.992  -2.405  1.00  0.00     0.000 C 
HETATM   14  C6  UNL     1      26.857  -6.057  -1.459  1.00  0.00     0.001 C 
HETATM   15  C7  UNL     1      27.569  -7.373  -1.658  1.00  0.00     0.014 C 
ENDBRANCH   7  10
ENDBRANCH   1   2
BRANCH   1  16
HETATM   16  N2  UNL     1      31.704 -10.074  -6.345  1.00  0.00    -0.068 N 
ATOM     17  H22 UNL     1      31.689 -11.094  -6.349  1.00  0.00     0.277 HD
ATOM     18  H21 UNL     1      30.855  -9.897  -5.807  1.00  0.00     0.277 HD
BRANCH  16  19
HETATM   19  C13 UNL     1      31.582  -9.550  -7.690  1.00  0.00     0.220 C 
HETATM   20  C14 UNL     1      31.747 -10.657  -8.658  1.00  0.00     0.166 C 
HETATM   21  C15 UNL     1      31.332 -10.376 -10.064  1.00  0.00     0.150 C 
HETATM   22  N3  UNL     1      30.401  -9.327 -10.246  1.00  0.00    -0.410 N 
HETATM   23  C16 UNL     1      29.077  -9.605  -9.754  1.00  0.00     0.117 C 
HETATM   24  C20 UNL     1      30.872  -8.012  -9.991  1.00  0.00     0.117 C 
HETATM   25  C17 UNL     1      29.125  -9.624  -8.245  1.00  0.00     0.026 C 
HETATM   26  C18 UNL     1      30.281  -8.815  -7.775  1.00  0.00     0.022 C 
HETATM   27  C19 UNL     1      30.380  -7.554  -8.638  1.00  0.00     0.026 C 
BRANCH  20  28
HETATM   28  O2  UNL     1      31.172 -11.855  -8.172  1.00  0.00    -0.392 OA
ATOM     29  H2  UNL     1      31.829 -12.531  -8.057  1.00  0.00     0.210 HD
ENDBRANCH  20  28
ENDBRANCH  16  19
ENDBRANCH   1  16
TORSDOF 5
ENDMDL
MODEL 2
REMARK VINA RESULT: -7.244862534      4.835      6.058
REMARK  5 active torsions:
REMARK  status: ('A' for Active; 'I' for Inactive)
REMARK    1  A    between atoms: C1_2  and  C2_3 
REMARK       I    between atoms: C1_2  and  N1_9 
REMARK    2  A    between atoms: C11_13  and  C12_14 
REMARK    3  A    between atoms: C12_14  and  N2_15 
REMARK    4  A    between atoms: N2_15  and  C13_18 
REMARK    5  A    between atoms: C14_19  and  O2_20 
ROOT
HETATM    1  C12 UNL     1      30.510  -6.184 -10.033  1.00  0.00     0.239 C 
ENDROOT
BRANCH   1   2
HETATM    2  C11 UNL     1      29.479  -5.967  -8.911  1.00  0.00     0.029 C 
HETATM    3  C10 UNL     1      30.133  -5.495  -7.662  1.00  0.00     0.009 C 
HETATM    4  C9  UNL     1      29.812  -4.092  -7.254  1.00  0.00     0.020 C 
HETATM    5  C8  UNL     1      28.278  -4.001  -7.239  1.00  0.00     0.126 C 
HETATM    6  N1  UNL     1      27.901  -4.062  -8.648  1.00  0.00    -0.351 N 
HETATM    7  C1  UNL     1      27.078  -3.052  -9.217  1.00  0.00     0.224 C 
HETATM    8  C21 UNL     1      28.367  -5.152  -9.449  1.00  0.00     0.132 C 
HETATM    9  O1  UNL     1      26.776  -3.103 -10.423  1.00  0.00    -0.273 OA
BRANCH   7  10
HETATM   10  C2  UNL     1      26.584  -1.952  -8.389  1.00  0.00     0.078 C 
HETATM   11  C3  UNL     1      27.160  -0.621  -8.852  1.00  0.00     0.014 C 
HETATM   12  C4  UNL     1      26.248   0.512  -8.458  1.00  0.00     0.001 C 
HETATM   13  C5  UNL     1      25.441   0.204  -7.210  1.00  0.00     0.000 C 
HETATM   14  C6  UNL     1      24.569  -0.999  -7.375  1.00  0.00     0.001 C 
HETATM   15  C7  UNL     1      25.064  -1.794  -8.558  1.00  0.00     0.014 C 
ENDBRANCH   7  10
ENDBRANCH   1   2
BRANCH   1  16
HETATM   16  N2  UNL     1      30.435  -7.516 -10.548  1.00  0.00    -0.068 N 
ATOM     17  H22 UNL     1      29.518  -7.697 -10.956  1.00  0.00     0.277 HD
ATOM     18  H21 UNL     1      31.012  -7.616 -11.383  1.00  0.00     0.277 HD
BRANCH  16  19
HETATM   19  C13 UNL     1      30.771  -8.525  -9.564  1.00  0.00     0.220 C 
HETATM   20  C14 UNL     1      29.656  -9.494  -9.464  1.00  0.00     0.166 C 
HETATM   21  C15 UNL     1      29.952 -10.772  -8.753  1.00  0.00     0.150 C 
HETATM   22  N3  UNL     1      31.312 -11.154  -8.685  1.00  0.00    -0.410 N 
HETATM   23  C16 UNL     1      31.890 -11.548  -9.943  1.00  0.00     0.117 C 
HETATM   24  C20 UNL     1      32.152 -10.358  -7.862  1.00  0.00     0.117 C 
HETATM   25  C17 UNL     1      32.028 -10.319 -10.809  1.00  0.00     0.026 C 
HETATM   26  C18 UNL     1      32.094  -9.109  -9.946  1.00  0.00     0.022 C 
HETATM   27  C19 UNL     1      32.966  -9.424  -8.728  1.00  0.00     0.026 C 
BRANCH  20  28
HETATM   28  O2  UNL     1      29.060  -9.723 -10.726  1.00  0.00    -0.392 OA
ATOM     29  H2  UNL     1      28.772  -8.910 -11.124  1.00  0.00     0.210 HD
ENDBRANCH  20  28
ENDBRANCH  16  19
ENDBRANCH   1  16
TORSDOF 5
ENDMDL
MODEL 3
REMARK VINA RESULT: -7.164427824      5.307      6.439
REMARK  5 active torsions:
REMARK  status: ('A' for Active; 'I' for Inactive)
REMARK    1  A    between atoms: C1_2  and  C2_3 
REMARK       I    between atoms: C1_2  and  N1_9 
REMARK    2  A    between atoms: C11_13  and  C12_14 
REMARK    3  A    between atoms: C12_14  and  N2_15 
REMARK    4  A    between atoms: N2_15  and  C13_18 
REMARK    5  A    between atoms: C14_19  and  O2_20 
ROOT
HETATM    1  C12 UNL     1      29.747  -6.253  -9.312  1.00  0.00     0.239 C 
ENDROOT
BRANCH   1   2
HETATM    2  C11 UNL     1      28.812  -5.631  -8.259  1.00  0.00     0.029 C 
HETATM    3  C10 UNL     1      29.578  -5.128  -7.088  1.00  0.00     0.009 C 
HETATM    4  C9  UNL     1      29.593  -3.642  -6.914  1.00  0.00     0.020 C 
HETATM    5  C8  UNL     1      28.121  -3.203  -6.945  1.00  0.00     0.126 C 
HETATM    6  N1  UNL     1      27.715  -3.401  -8.333  1.00  0.00    -0.351 N 
HETATM    7  C1  UNL     1      27.134  -2.333  -9.072  1.00  0.00     0.224 C 
HETATM    8  C21 UNL     1      27.906  -4.681  -8.941  1.00  0.00     0.132 C 
HETATM    9  O1  UNL     1      26.808  -2.505 -10.260  1.00  0.00    -0.273 OA
BRANCH   7  10
HETATM   10  C2  UNL     1      26.918  -1.032  -8.439  1.00  0.00     0.078 C 
HETATM   11  C3  UNL     1      28.111  -0.112  -8.664  1.00  0.00     0.014 C 
HETATM   12  C4  UNL     1      27.686   1.330  -8.579  1.00  0.00     0.001 C 
HETATM   13  C5  UNL     1      26.483   1.532  -7.676  1.00  0.00     0.000 C 
HETATM   14  C6  UNL     1      25.284   0.767  -8.140  1.00  0.00     0.001 C 
HETATM   15  C7  UNL     1      25.739  -0.302  -9.102  1.00  0.00     0.014 C 
ENDBRANCH   7  10
ENDBRANCH   1   2
BRANCH   1  16
HETATM   16  N2  UNL     1      29.266  -7.532  -9.734  1.00  0.00    -0.068 N 
ATOM     17  H22 UNL     1      28.278  -7.643  -9.504  1.00  0.00     0.277 HD
ATOM     18  H21 UNL     1      29.206  -7.581 -10.751  1.00  0.00     0.277 HD
BRANCH  16  19
HETATM   19  C13 UNL     1      30.045  -8.634  -9.208  1.00  0.00     0.220 C 
HETATM   20  C14 UNL     1      29.281  -9.891  -9.374  1.00  0.00     0.166 C 
HETATM   21  C15 UNL     1      30.046 -11.160  -9.196  1.00  0.00     0.150 C 
HETATM   22  N3  UNL     1      31.446 -11.081  -9.378  1.00  0.00    -0.410 N 
HETATM   23  C16 UNL     1      31.864 -10.847 -10.737  1.00  0.00     0.117 C 
HETATM   24  C20 UNL     1      32.172 -10.360  -8.395  1.00  0.00     0.117 C 
HETATM   25  C17 UNL     1      31.492  -9.432 -11.111  1.00  0.00     0.026 C 
HETATM   26  C18 UNL     1      31.383  -8.605  -9.879  1.00  0.00     0.022 C 
HETATM   27  C19 UNL     1      32.520  -8.989  -8.929  1.00  0.00     0.026 C 
BRANCH  20  28
HETATM   28  O2  UNL     1      28.545  -9.889 -10.582  1.00  0.00    -0.392 OA
ATOM     29  H2  UNL     1      27.631 -10.096 -10.429  1.00  0.00     0.210 HD
ENDBRANCH  20  28
ENDBRANCH  16  19
ENDBRANCH   1  16
TORSDOF 5
ENDMDL
MODEL 4
REMARK VINA RESULT: -7.088121032      2.484      8.260
REMARK  5 active torsions:
REMARK  status: ('A' for Active; 'I' for Inactive)
REMARK    1  A    between atoms: C1_2  and  C2_3 
REMARK       I    between atoms: C1_2  and  N1_9 
REMARK    2  A    between atoms: C11_13  and  C12_14 
REMARK    3  A    between atoms: C12_14  and  N2_15 
REMARK    4  A    between atoms: N2_15  and  C13_18 
REMARK    5  A    between atoms: C14_19  and  O2_20 
ROOT
HETATM    1  C12 UNL     1      29.039  -8.202  -6.582  1.00  0.00     0.239 C 
ENDROOT
BRANCH   1   2
HETATM    2  C11 UNL     1      29.881  -9.134  -7.471  1.00  0.00     0.029 C 
HETATM    3  C10 UNL     1      29.018 -10.059  -8.253  1.00  0.00     0.009 C 
HETATM    4  C9  UNL     1      29.003  -9.834  -9.732  1.00  0.00     0.020 C 
HETATM    5  C8  UNL     1      30.476  -9.821 -10.169  1.00  0.00     0.126 C 
HETATM    6  N1  UNL     1      31.003  -8.576  -9.619  1.00  0.00    -0.351 N 
HETATM    7  C1  UNL     1      31.660  -7.638 -10.463  1.00  0.00     0.224 C 
HETATM    8  C21 UNL     1      30.855  -8.311  -8.221  1.00  0.00     0.132 C 
HETATM    9  O1  UNL     1      32.090  -6.571  -9.989  1.00  0.00    -0.273 OA
BRANCH   7  10
HETATM   10  C2  UNL     1      31.831  -7.923 -11.888  1.00  0.00     0.078 C 
HETATM   11  C3  UNL     1      31.777  -6.643 -12.710  1.00  0.00     0.014 C 
HETATM   12  C4  UNL     1      32.526  -6.817 -14.005  1.00  0.00     0.001 C 
HETATM   13  C5  UNL     1      32.539  -8.258 -14.482  1.00  0.00     0.000 C 
HETATM   14  C6  UNL     1      33.180  -9.182 -13.497  1.00  0.00     0.001 C 
HETATM   15  C7  UNL     1      33.233  -8.494 -12.155  1.00  0.00     0.014 C 
ENDBRANCH   7  10
ENDBRANCH   1   2
BRANCH   1  16
HETATM   16  N2  UNL     1      29.615  -8.078  -5.279  1.00  0.00    -0.068 N 
ATOM     17  H22 UNL     1      30.497  -8.586  -5.221  1.00  0.00     0.277 HD
ATOM     18  H21 UNL     1      29.959  -7.130  -5.122  1.00  0.00     0.277 HD
BRANCH  16  19
HETATM   19  C13 UNL     1      28.715  -8.482  -4.219  1.00  0.00     0.220 C 
HETATM   20  C14 UNL     1      29.375  -8.262  -2.912  1.00  0.00     0.166 C 
HETATM   21  C15 UNL     1      28.493  -8.309  -1.708  1.00  0.00     0.150 C 
HETATM   22  N3  UNL     1      27.118  -8.065  -1.926  1.00  0.00    -0.410 N 
HETATM   23  C16 UNL     1      26.797  -6.709  -2.290  1.00  0.00     0.117 C 
HETATM   24  C20 UNL     1      26.404  -9.063  -2.641  1.00  0.00     0.117 C 
HETATM   25  C17 UNL     1      27.311  -6.458  -3.688  1.00  0.00     0.026 C 
HETATM   26  C18 UNL     1      27.424  -7.752  -4.415  1.00  0.00     0.022 C 
HETATM   27  C19 UNL     1      26.207  -8.614  -4.071  1.00  0.00     0.026 C 
BRANCH  20  28
HETATM   28  O2  UNL     1      30.173  -7.095  -2.930  1.00  0.00    -0.392 OA
ATOM     29  H2  UNL     1      30.976  -7.219  -2.439  1.00  0.00     0.210 HD
ENDBRANCH  20  28
ENDBRANCH  16  19
ENDBRANCH   1  16
TORSDOF 5
ENDMDL
MODEL 5
REMARK VINA RESULT: -7.081667592      5.906      6.908
REMARK  5 active torsions:
REMARK  status: ('A' for Active; 'I' for Inactive)
REMARK    1  A    between atoms: C1_2  and  C2_3 
REMARK       I    between atoms: C1_2  and  N1_9 
REMARK    2  A    between atoms: C11_13  and  C12_14 
REMARK    3  A    between atoms: C12_14  and  N2_15 
REMARK    4  A    between atoms: N2_15  and  C13_18 
REMARK    5  A    between atoms: C14_19  and  O2_20 
ROOT
HETATM    1  C12 UNL     1      33.086  -6.565 -10.969  1.00  0.00     0.239 C 
ENDROOT
BRANCH   1   2
HETATM    2  C11 UNL     1      32.676  -5.190 -10.413  1.00  0.00     0.029 C 
HETATM    3  C10 UNL     1      32.761  -4.138 -11.461  1.00  0.00     0.009 C 
HETATM    4  C9  UNL     1      31.454  -3.555 -11.900  1.00  0.00     0.020 C 
HETATM    5  C8  UNL     1      30.740  -3.112 -10.613  1.00  0.00     0.126 C 
HETATM    6  N1  UNL     1      30.376  -4.363  -9.956  1.00  0.00    -0.351 N 
HETATM    7  C1  UNL     1      29.028  -4.607  -9.572  1.00  0.00     0.224 C 
HETATM    8  C21 UNL     1      31.389  -5.339  -9.699  1.00  0.00     0.132 C 
HETATM    9  O1  UNL     1      28.723  -5.684  -9.028  1.00  0.00    -0.273 OA
BRANCH   7  10
HETATM   10  C2  UNL     1      27.998  -3.597  -9.815  1.00  0.00     0.078 C 
HETATM   11  C3  UNL     1      26.681  -4.247 -10.215  1.00  0.00     0.014 C 
HETATM   12  C4  UNL     1      25.524  -3.343  -9.878  1.00  0.00     0.001 C 
HETATM   13  C5  UNL     1      25.908  -1.874  -9.896  1.00  0.00     0.000 C 
HETATM   14  C6  UNL     1      26.992  -1.553  -8.917  1.00  0.00     0.001 C 
HETATM   15  C7  UNL     1      27.675  -2.838  -8.518  1.00  0.00     0.014 C 
ENDBRANCH   7  10
ENDBRANCH   1   2
BRANCH   1  16
HETATM   16  N2  UNL     1      32.002  -7.177 -11.674  1.00  0.00    -0.068 N 
ATOM     17  H22 UNL     1      31.558  -7.897 -11.104  1.00  0.00     0.277 HD
ATOM     18  H21 UNL     1      31.218  -6.532 -11.767  1.00  0.00     0.277 HD
BRANCH  16  19
HETATM   19  C13 UNL     1      32.391  -7.707 -12.964  1.00  0.00     0.220 C 
HETATM   20  C14 UNL     1      31.860  -9.082 -13.104  1.00  0.00     0.166 C 
HETATM   21  C15 UNL     1      31.876  -9.662 -14.478  1.00  0.00     0.150 C 
HETATM   22  N3  UNL     1      31.914  -8.741 -15.550  1.00  0.00    -0.410 N 
HETATM   23  C16 UNL     1      30.708  -7.974 -15.728  1.00  0.00     0.117 C 
HETATM   24  C20 UNL     1      33.120  -8.008 -15.711  1.00  0.00     0.117 C 
HETATM   25  C17 UNL     1      30.588  -7.003 -14.578  1.00  0.00     0.026 C 
HETATM   26  C18 UNL     1      31.938  -6.737 -14.010  1.00  0.00     0.022 C 
HETATM   27  C19 UNL     1      32.938  -6.612 -15.162  1.00  0.00     0.026 C 
BRANCH  20  28
HETATM   28  O2  UNL     1      30.587  -9.204 -12.499  1.00  0.00    -0.392 OA
ATOM     29  H2  UNL     1      30.372 -10.114 -12.328  1.00  0.00     0.210 HD
ENDBRANCH  20  28
ENDBRANCH  16  19
ENDBRANCH   1  16
TORSDOF 5
ENDMDL
