MODEL 1
REMARK VINA RESULT: -5.942048254      0.000      0.000
REMARK  6 active torsions:
REMARK  status: ('A' for Active; 'I' for Inactive)
REMARK    1  A    between atoms: O1_1  and  C1_3 
REMARK    2  A    between atoms: C1_3  and  C2_4 
REMARK    3  A    between atoms: C1_3  and  C10_13 
REMARK    4  A    between atoms: C2_4  and  O2_5 
REMARK    5  A    between atoms: O2_5  and  C3_6 
REMARK    6  A    between atoms: C3_6  and  C4_7 
ROOT
HETATM    1  C2  UNL     1      -1.084  -1.726  -7.229  1.00  0.00     0.199 C 
ENDROOT
BRANCH   1   2
HETATM    2  C1  UNL     1      -0.282  -1.545  -8.468  1.00  0.00     0.146 C 
BRANCH   2   3
HETATM    3  O1  UNL     1      -0.312  -2.787  -9.206  1.00  0.00    -0.393 OA
ATOM      4  H1  UNL     1       0.271  -3.400  -8.774  1.00  0.00     0.210 HD
ENDBRANCH   2   3
BRANCH   2   5
HETATM    5  C10 UNL     1      -0.794  -0.559  -9.469  1.00  0.00     0.016 C 
HETATM    6  C11 UNL     1       0.315   0.321 -10.058  1.00  0.00     0.007 C 
HETATM    7  C12 UNL     1       0.525   1.445  -9.098  1.00  0.00     0.000 C 
HETATM    8  C13 UNL     1      -0.735   1.575  -8.309  1.00  0.00     0.000 C 
HETATM    9  C14 UNL     1      -1.651   0.443  -8.673  1.00  0.00     0.007 C 
ENDBRANCH   2   5
ENDBRANCH   1   2
BRANCH   1  10
HETATM   10  O2  UNL     1      -0.563  -1.321  -6.087  1.00  0.00    -0.388 OA
BRANCH  10  11
HETATM   11  C3  UNL     1       0.614  -0.728  -5.896  1.00  0.00     0.172 C 
BRANCH  11  12
HETATM   12  C4  UNL     1       0.471   0.090  -4.574  1.00  0.00     0.009 C 
HETATM   13  C5  UNL     1       0.287  -0.939  -3.477  1.00  0.00     0.007 C 
HETATM   14  C6  UNL     1       0.221  -0.157  -2.160  1.00  0.00     0.000 C 
HETATM   15  C7  UNL     1      -0.966   0.763  -2.191  1.00  0.00     0.000 C 
HETATM   16  C8  UNL     1      -0.873   1.709  -3.362  1.00  0.00     0.000 C 
HETATM   17  C9  UNL     1      -0.816   0.897  -4.638  1.00  0.00     0.007 C 
ENDBRANCH  11  12
ENDBRANCH  10  11
ENDBRANCH   1  10
TORSDOF 6
ENDMDL
MODEL 2
REMARK VINA RESULT: -5.918815063      2.112      6.127
REMARK  6 active torsions:
REMARK  status: ('A' for Active; 'I' for Inactive)
REMARK    1  A    between atoms: O1_1  and  C1_3 
REMARK    2  A    between atoms: C1_3  and  C2_4 
REMARK    3  A    between atoms: C1_3  and  C10_13 
REMARK    4  A    between atoms: C2_4  and  O2_5 
REMARK    5  A    between atoms: O2_5  and  C3_6 
REMARK    6  A    between atoms: C3_6  and  C4_7 
ROOT
HETATM    1  C2  UNL     1      -0.771   0.675  -5.103  1.00  0.00     0.199 C 
ENDROOT
BRANCH   1   2
HETATM    2  C1  UNL     1      -1.171   0.735  -3.672  1.00  0.00     0.146 C 
BRANCH   2   3
HETATM    3  O1  UNL     1      -0.024   0.374  -2.871  1.00  0.00    -0.393 OA
ATOM      4  H1  UNL     1       0.208   1.122  -2.335  1.00  0.00     0.210 HD
ENDBRANCH   2   3
BRANCH   2   5
HETATM    5  C10 UNL     1      -1.539   2.078  -3.127  1.00  0.00     0.016 C 
HETATM    6  C11 UNL     1      -1.522   2.122  -1.594  1.00  0.00     0.007 C 
HETATM    7  C12 UNL     1      -2.845   1.603  -1.136  1.00  0.00     0.000 C 
HETATM    8  C13 UNL     1      -3.795   1.794  -2.272  1.00  0.00     0.000 C 
HETATM    9  C14 UNL     1      -3.027   2.279  -3.466  1.00  0.00     0.007 C 
ENDBRANCH   2   5
ENDBRANCH   1   2
BRANCH   1  10
HETATM   10  O2  UNL     1       0.508   0.800  -5.396  1.00  0.00    -0.388 OA
BRANCH  10  11
HETATM   11  C3  UNL     1       1.045   1.446  -6.429  1.00  0.00     0.172 C 
BRANCH  11  12
HETATM   12  C4  UNL     1       0.259   0.966  -7.690  1.00  0.00     0.009 C 
HETATM   13  C5  UNL     1       1.078  -0.168  -8.272  1.00  0.00     0.007 C 
HETATM   14  C6  UNL     1       0.283  -0.704  -9.469  1.00  0.00     0.000 C 
HETATM   15  C7  UNL     1       0.136   0.388 -10.491  1.00  0.00     0.000 C 
HETATM   16  C8  UNL     1      -0.556   1.586  -9.892  1.00  0.00     0.000 C 
HETATM   17  C9  UNL     1       0.264   2.084  -8.721  1.00  0.00     0.007 C 
ENDBRANCH  11  12
ENDBRANCH  10  11
ENDBRANCH   1  10
TORSDOF 6
ENDMDL
MODEL 3
REMARK VINA RESULT: -5.909465411      1.999      6.420
REMARK  6 active torsions:
REMARK  status: ('A' for Active; 'I' for Inactive)
REMARK    1  A    between atoms: O1_1  and  C1_3 
REMARK    2  A    between atoms: C1_3  and  C2_4 
REMARK    3  A    between atoms: C1_3  and  C10_13 
REMARK    4  A    between atoms: C2_4  and  O2_5 
REMARK    5  A    between atoms: O2_5  and  C3_6 
REMARK    6  A    between atoms: C3_6  and  C4_7 
ROOT
HETATM    1  C2  UNL     1       0.713  -0.743  -5.069  1.00  0.00     0.199 C 
ENDROOT
BRANCH   1   2
HETATM    2  C1  UNL     1       1.143  -0.774  -3.646  1.00  0.00     0.146 C 
BRANCH   2   3
HETATM    3  O1  UNL     1       0.017  -0.378  -2.830  1.00  0.00    -0.393 OA
ATOM      4  H1  UNL     1       0.253  -0.509  -1.920  1.00  0.00     0.210 HD
ENDBRANCH   2   3
BRANCH   2   5
HETATM    5  C10 UNL     1       1.505  -2.107  -3.076  1.00  0.00     0.016 C 
HETATM    6  C11 UNL     1       1.508  -2.117  -1.542  1.00  0.00     0.007 C 
HETATM    7  C12 UNL     1       2.841  -1.600  -1.113  1.00  0.00     0.000 C 
HETATM    8  C13 UNL     1       3.774  -1.824  -2.256  1.00  0.00     0.000 C 
HETATM    9  C14 UNL     1       2.987  -2.328  -3.430  1.00  0.00     0.007 C 
ENDBRANCH   2   5
ENDBRANCH   1   2
BRANCH   1  10
HETATM   10  O2  UNL     1      -0.563  -0.941  -5.337  1.00  0.00    -0.388 OA
BRANCH  10  11
HETATM   11  C3  UNL     1      -1.084  -1.571  -6.388  1.00  0.00     0.172 C 
BRANCH  11  12
HETATM   12  C4  UNL     1      -0.312  -1.035  -7.635  1.00  0.00     0.009 C 
HETATM   13  C5  UNL     1      -1.203   0.031  -8.238  1.00  0.00     0.007 C 
HETATM   14  C6  UNL     1      -0.427   0.623  -9.420  1.00  0.00     0.000 C 
HETATM   15  C7  UNL     1      -0.177  -0.457 -10.435  1.00  0.00     0.000 C 
HETATM   16  C8  UNL     1       0.592  -1.597  -9.818  1.00  0.00     0.000 C 
HETATM   17  C9  UNL     1      -0.211  -2.153  -8.661  1.00  0.00     0.007 C 
ENDBRANCH  11  12
ENDBRANCH  10  11
ENDBRANCH   1  10
TORSDOF 6
ENDMDL
MODEL 4
REMARK VINA RESULT: -5.899443343      2.348      6.420
REMARK  6 active torsions:
REMARK  status: ('A' for Active; 'I' for Inactive)
REMARK    1  A    between atoms: O1_1  and  C1_3 
REMARK    2  A    between atoms: C1_3  and  C2_4 
REMARK    3  A    between atoms: C1_3  and  C10_13 
REMARK    4  A    between atoms: C2_4  and  O2_5 
REMARK    5  A    between atoms: O2_5  and  C3_6 
REMARK    6  A    between atoms: C3_6  and  C4_7 
ROOT
HETATM    1  C2  UNL     1       0.353  -0.829  -4.337  1.00  0.00     0.199 C 
ENDROOT
BRANCH   1   2
HETATM    2  C1  UNL     1       1.160  -0.862  -3.089  1.00  0.00     0.146 C 
BRANCH   2   3
HETATM    3  O1  UNL     1       0.311  -0.446  -1.996  1.00  0.00    -0.393 OA
ATOM      4  H1  UNL     1       0.771   0.222  -1.503  1.00  0.00     0.210 HD
ENDBRANCH   2   3
BRANCH   2   5
HETATM    5  C10 UNL     1       1.646  -2.200  -2.632  1.00  0.00     0.016 C 
HETATM    6  C11 UNL     1       1.810  -2.285  -1.110  1.00  0.00     0.007 C 
HETATM    7  C12 UNL     1       3.154  -1.717  -0.791  1.00  0.00     0.000 C 
HETATM    8  C13 UNL     1       3.972  -1.832  -2.034  1.00  0.00     0.000 C 
HETATM    9  C14 UNL     1       3.092  -2.321  -3.147  1.00  0.00     0.007 C 
ENDBRANCH   2   5
ENDBRANCH   1   2
BRANCH   1  10
HETATM   10  O2  UNL     1      -0.265   0.294  -4.648  1.00  0.00    -0.388 OA
BRANCH  10  11
HETATM   11  C3  UNL     1      -0.697   0.679  -5.847  1.00  0.00     0.172 C 
BRANCH  11  12
HETATM   12  C4  UNL     1      -0.070  -0.322  -6.869  1.00  0.00     0.009 C 
HETATM   13  C5  UNL     1       0.750   0.527  -7.819  1.00  0.00     0.007 C 
HETATM   14  C6  UNL     1       1.436  -0.446  -8.785  1.00  0.00     0.000 C 
HETATM   15  C7  UNL     1       0.386  -1.194  -9.557  1.00  0.00     0.000 C 
HETATM   16  C8  UNL     1      -0.532  -1.939  -8.621  1.00  0.00     0.000 C 
HETATM   17  C9  UNL     1      -1.189  -0.941  -7.691  1.00  0.00     0.007 C 
ENDBRANCH  11  12
ENDBRANCH  10  11
ENDBRANCH   1  10
TORSDOF 6
ENDMDL
MODEL 5
REMARK VINA RESULT: -5.898399928      1.975      6.127
REMARK  6 active torsions:
REMARK  status: ('A' for Active; 'I' for Inactive)
REMARK    1  A    between atoms: O1_1  and  C1_3 
REMARK    2  A    between atoms: C1_3  and  C2_4 
REMARK    3  A    between atoms: C1_3  and  C10_13 
REMARK    4  A    between atoms: C2_4  and  O2_5 
REMARK    5  A    between atoms: O2_5  and  C3_6 
REMARK    6  A    between atoms: C3_6  and  C4_7 
ROOT
HETATM    1  C2  UNL     1      -0.086   0.803  -4.165  1.00  0.00     0.199 C 
ENDROOT
BRANCH   1   2
HETATM    2  C1  UNL     1      -1.026   0.846  -3.014  1.00  0.00     0.146 C 
BRANCH   2   3
HETATM    3  O1  UNL     1      -0.309   0.415  -1.835  1.00  0.00    -0.393 OA
ATOM      4  H1  UNL     1      -0.868   0.561  -1.082  1.00  0.00     0.210 HD
ENDBRANCH   2   3
BRANCH   2   5
HETATM    5  C10 UNL     1      -1.541   2.190  -2.610  1.00  0.00     0.016 C 
HETATM    6  C11 UNL     1      -1.795   2.300  -1.101  1.00  0.00     0.007 C 
HETATM    7  C12 UNL     1      -3.155   1.733  -0.854  1.00  0.00     0.000 C 
HETATM    8  C13 UNL     1      -3.897   1.826  -2.145  1.00  0.00     0.000 C 
HETATM    9  C14 UNL     1      -2.954   2.299  -3.211  1.00  0.00     0.007 C 
ENDBRANCH   2   5
ENDBRANCH   1   2
BRANCH   1  10
HETATM   10  O2  UNL     1       0.145  -0.363  -4.735  1.00  0.00    -0.388 OA
BRANCH  10  11
HETATM   11  C3  UNL     1       0.698  -0.590  -5.926  1.00  0.00     0.172 C 
BRANCH  11  12
HETATM   12  C4  UNL     1       0.062   0.451  -6.899  1.00  0.00     0.009 C 
HETATM   13  C5  UNL     1      -0.765  -0.358  -7.877  1.00  0.00     0.007 C 
HETATM   14  C6  UNL     1      -1.460   0.654  -8.795  1.00  0.00     0.000 C 
HETATM   15  C7  UNL     1      -0.417   1.436  -9.544  1.00  0.00     0.000 C 
HETATM   16  C8  UNL     1       0.507   2.141  -8.585  1.00  0.00     0.000 C 
HETATM   17  C9  UNL     1       1.174   1.107  -7.703  1.00  0.00     0.007 C 
ENDBRANCH  11  12
ENDBRANCH  10  11
ENDBRANCH   1  10
TORSDOF 6
ENDMDL
