MODEL 1
REMARK VINA RESULT: -6.785592257      0.000      0.000
REMARK  7 active torsions:
REMARK  status: ('A' for Active; 'I' for Inactive)
REMARK    1  A    between atoms: N1_1  and  C1_4 
REMARK    2  A    between atoms: N3_8  and  C3_10 
REMARK    3  A    between atoms: C3_10  and  C4_11 
REMARK    4  A    between atoms: C4_11  and  N4_12 
REMARK    5  A    between atoms: N6_22  and  C12_23 
REMARK    6  A    between atoms: C12_23  and  C13_24 
REMARK    7  A    between atoms: C13_24  and  C14_25 
ROOT
HETATM    1  C1  UNL     1      17.432   1.545  11.962  1.00  0.00     0.679 A 
HETATM    2  N2  UNL     1      17.450   2.725  11.325  1.00  0.00    -0.175 N 
ATOM      3  H2  UNL     1      17.748   2.774  10.351  1.00  0.00     0.186 HD
HETATM    4  C2  UNL     1      17.073   3.845  11.972  1.00  0.00     0.147 A 
HETATM    5  N3  UNL     1      17.061   5.008  11.454  1.00  0.00    -0.372 N 
ATOM      6  H3  UNL     1      16.754   5.779  12.047  1.00  0.00     0.161 HD
HETATM    7  C10 UNL     1      16.679   3.696  13.298  1.00  0.00     0.123 A 
HETATM    8  N5  UNL     1      16.274   4.652  14.159  1.00  0.00    -0.346 N 
ATOM      9  H5  UNL     1      16.185   5.649  13.963  1.00  0.00     0.167 HD
HETATM   10  C11 UNL     1      16.014   4.047  15.311  1.00  0.00     0.185 A 
HETATM   11  N6  UNL     1      16.236   2.715  15.231  1.00  0.00    -0.327 N 
HETATM   12  C15 UNL     1      16.653   2.502  13.966  1.00  0.00     0.155 A 
HETATM   13  N7  UNL     1      17.048   1.416  13.243  1.00  0.00    -0.174 N 
ATOM     14  H7  UNL     1      17.052   0.495  13.679  1.00  0.00     0.186 HD
ENDROOT
BRANCH   5  15
HETATM   15  C3  UNL     1      17.443   5.333  10.101  1.00  0.00     0.140 C 
BRANCH  15  16
HETATM   16  C4  UNL     1      17.348   6.829   9.904  1.00  0.00     0.136 C 
BRANCH  16  17
HETATM   17  N4  UNL     1      16.027   7.265  10.186  1.00  0.00    -0.411 N 
HETATM   18  C5  UNL     1      15.116   7.214   9.087  1.00  0.00     0.117 C 
HETATM   19  C6  UNL     1      14.307   8.511   8.969  1.00  0.00     0.019 C 
HETATM   20  C7  UNL     1      13.604   8.821  10.268  1.00  0.00     0.003 C 
HETATM   21  C8  UNL     1      14.422   8.438  11.478  1.00  0.00     0.019 C 
HETATM   22  C9  UNL     1      15.887   8.409  11.018  1.00  0.00     0.117 C 
ENDBRANCH  16  17
ENDBRANCH  15  16
ENDBRANCH   5  15
BRANCH   1  23
HETATM   23  N1  UNL     1      17.811   0.503  11.272  1.00  0.00    -0.234 N 
ATOM     24  H12 UNL     1      17.589   0.427  10.279  1.00  0.00     0.174 HD
ATOM     25  H11 UNL     1      18.331  -0.214  11.777  1.00  0.00     0.174 HD
ENDBRANCH   1  23
BRANCH  11  26
HETATM   26  C12 UNL     1      16.068   1.709  16.217  1.00  0.00     0.134 C 
BRANCH  26  27
HETATM   27  C13 UNL     1      15.497   2.050  17.522  1.00  0.00     0.051 C 
BRANCH  27  28
HETATM   28  C14 UNL     1      14.027   1.859  17.729  1.00  0.00     0.224 C 
HETATM   29  F1  UNL     1      13.264   1.876  16.604  1.00  0.00    -0.255 F 
ENDBRANCH  27  28
ENDBRANCH  26  27
ENDBRANCH  11  26
TORSDOF 7
ENDMDL
MODEL 2
REMARK VINA RESULT: -6.609067235      0.286      1.055
REMARK  7 active torsions:
REMARK  status: ('A' for Active; 'I' for Inactive)
REMARK    1  A    between atoms: N1_1  and  C1_4 
REMARK    2  A    between atoms: N3_8  and  C3_10 
REMARK    3  A    between atoms: C3_10  and  C4_11 
REMARK    4  A    between atoms: C4_11  and  N4_12 
REMARK    5  A    between atoms: N6_22  and  C12_23 
REMARK    6  A    between atoms: C12_23  and  C13_24 
REMARK    7  A    between atoms: C13_24  and  C14_25 
ROOT
HETATM    1  C1  UNL     1      17.398   1.790  11.952  1.00  0.00     0.679 A 
HETATM    2  N2  UNL     1      17.392   2.992  11.360  1.00  0.00    -0.175 N 
ATOM      3  H2  UNL     1      17.678   3.082  10.385  1.00  0.00     0.186 HD
HETATM    4  C2  UNL     1      17.008   4.082  12.054  1.00  0.00     0.147 A 
HETATM    5  N3  UNL     1      16.974   5.264  11.579  1.00  0.00    -0.372 N 
ATOM      6  H3  UNL     1      16.664   6.007  12.205  1.00  0.00     0.161 HD
HETATM    7  C10 UNL     1      16.632   3.878  13.378  1.00  0.00     0.123 A 
HETATM    8  N5  UNL     1      16.225   4.795  14.279  1.00  0.00    -0.346 N 
ATOM      9  H5  UNL     1      16.120   5.797  14.121  1.00  0.00     0.167 HD
HETATM   10  C11 UNL     1      15.988   4.144  15.410  1.00  0.00     0.185 A 
HETATM   11  N6  UNL     1      16.227   2.819  15.278  1.00  0.00    -0.327 N 
HETATM   12  C15 UNL     1      16.631   2.660  14.000  1.00  0.00     0.155 A 
HETATM   13  N7  UNL     1      17.031   1.607  13.232  1.00  0.00    -0.174 N 
ATOM     14  H7  UNL     1      17.054   0.670  13.634  1.00  0.00     0.186 HD
ENDROOT
BRANCH   5  15
HETATM   15  C3  UNL     1      17.335   5.644  10.235  1.00  0.00     0.140 C 
BRANCH  15  16
HETATM   16  C4  UNL     1      17.620   7.128  10.200  1.00  0.00     0.136 C 
BRANCH  16  17
HETATM   17  N4  UNL     1      16.415   7.841   9.968  1.00  0.00    -0.411 N 
HETATM   18  C5  UNL     1      16.001   8.710  11.023  1.00  0.00     0.117 C 
HETATM   19  C6  UNL     1      14.512   8.538  11.340  1.00  0.00     0.019 C 
HETATM   20  C7  UNL     1      13.677   8.729  10.096  1.00  0.00     0.003 C 
HETATM   21  C8  UNL     1      14.349   8.189   8.856  1.00  0.00     0.019 C 
HETATM   22  C9  UNL     1      15.356   7.134   9.336  1.00  0.00     0.117 C 
ENDBRANCH  16  17
ENDBRANCH  15  16
ENDBRANCH   5  15
BRANCH   1  23
HETATM   23  N1  UNL     1      17.783   0.779  11.219  1.00  0.00    -0.234 N 
ATOM     24  H12 UNL     1      17.816   0.856  10.202  1.00  0.00     0.174 HD
ATOM     25  H11 UNL     1      18.042  -0.073  11.717  1.00  0.00     0.174 HD
ENDBRANCH   1  23
BRANCH  11  26
HETATM   26  C12 UNL     1      16.085   1.775  16.227  1.00  0.00     0.134 C 
BRANCH  26  27
HETATM   27  C13 UNL     1      15.509   2.055  17.544  1.00  0.00     0.051 C 
BRANCH  27  28
HETATM   28  C14 UNL     1      14.041   1.843  17.740  1.00  0.00     0.224 C 
HETATM   29  F1  UNL     1      13.283   1.875  16.613  1.00  0.00    -0.255 F 
ENDBRANCH  27  28
ENDBRANCH  26  27
ENDBRANCH  11  26
TORSDOF 7
ENDMDL
MODEL 3
REMARK VINA RESULT: -6.595956055      4.324      7.383
REMARK  7 active torsions:
REMARK  status: ('A' for Active; 'I' for Inactive)
REMARK    1  A    between atoms: N1_1  and  C1_4 
REMARK    2  A    between atoms: N3_8  and  C3_10 
REMARK    3  A    between atoms: C3_10  and  C4_11 
REMARK    4  A    between atoms: C4_11  and  N4_12 
REMARK    5  A    between atoms: N6_22  and  C12_23 
REMARK    6  A    between atoms: C12_23  and  C13_24 
REMARK    7  A    between atoms: C13_24  and  C14_25 
ROOT
HETATM    1  C1  UNL     1      19.391   2.826  11.344  1.00  0.00     0.679 A 
HETATM    2  N2  UNL     1      18.393   3.161  12.174  1.00  0.00    -0.175 N 
ATOM      3  H2  UNL     1      17.630   2.505  12.344  1.00  0.00     0.186 HD
HETATM    4  C2  UNL     1      18.397   4.363  12.782  1.00  0.00     0.147 A 
HETATM    5  N3  UNL     1      17.492   4.770  13.581  1.00  0.00    -0.372 N 
ATOM      6  H3  UNL     1      17.609   5.702  13.979  1.00  0.00     0.161 HD
HETATM    7  C10 UNL     1      19.471   5.201  12.498  1.00  0.00     0.123 A 
HETATM    8  N5  UNL     1      19.701   6.446  12.963  1.00  0.00    -0.346 N 
ATOM      9  H5  UNL     1      19.115   6.970  13.612  1.00  0.00     0.167 HD
HETATM   10  C11 UNL     1      20.835   6.858  12.412  1.00  0.00     0.185 A 
HETATM   11  N6  UNL     1      21.361   5.916  11.596  1.00  0.00    -0.327 N 
HETATM   12  C15 UNL     1      20.499   4.879  11.656  1.00  0.00     0.155 A 
HETATM   13  N7  UNL     1      20.423   3.646  11.080  1.00  0.00    -0.174 N 
ATOM     14  H7  UNL     1      21.157   3.342  10.441  1.00  0.00     0.186 HD
ENDROOT
BRANCH   5  15
HETATM   15  C3  UNL     1      16.318   4.030  13.973  1.00  0.00     0.140 C 
BRANCH  15  16
HETATM   16  C4  UNL     1      15.658   4.731  15.140  1.00  0.00     0.136 C 
BRANCH  16  17
HETATM   17  N4  UNL     1      15.655   3.875  16.272  1.00  0.00    -0.411 N 
HETATM   18  C5  UNL     1      16.254   2.593  16.075  1.00  0.00     0.117 C 
HETATM   19  C6  UNL     1      15.375   1.471  16.637  1.00  0.00     0.019 C 
HETATM   20  C7  UNL     1      15.053   1.723  18.091  1.00  0.00     0.003 C 
HETATM   21  C8  UNL     1      14.859   3.189  18.397  1.00  0.00     0.019 C 
HETATM   22  C9  UNL     1      14.479   3.861  17.070  1.00  0.00     0.117 C 
ENDBRANCH  16  17
ENDBRANCH  15  16
ENDBRANCH   5  15
BRANCH   1  23
HETATM   23  N1  UNL     1      19.319   1.646  10.789  1.00  0.00    -0.234 N 
ATOM     24  H12 UNL     1      19.094   1.548   9.799  1.00  0.00     0.174 HD
ATOM     25  H11 UNL     1      19.499   0.846  11.396  1.00  0.00     0.174 HD
ENDBRANCH   1  23
BRANCH  11  26
HETATM   26  C12 UNL     1      22.557   5.943  10.835  1.00  0.00     0.134 C 
BRANCH  26  27
HETATM   27  C13 UNL     1      23.812   5.473  11.427  1.00  0.00     0.051 C 
BRANCH  27  28
HETATM   28  C14 UNL     1      24.580   6.409  12.306  1.00  0.00     0.224 C 
HETATM   29  F1  UNL     1      25.331   5.827  13.278  1.00  0.00    -0.255 F 
ENDBRANCH  27  28
ENDBRANCH  26  27
ENDBRANCH  11  26
TORSDOF 7
ENDMDL
MODEL 4
REMARK VINA RESULT: -6.582967013      1.151      1.156
REMARK  7 active torsions:
REMARK  status: ('A' for Active; 'I' for Inactive)
REMARK    1  A    between atoms: N1_1  and  C1_4 
REMARK    2  A    between atoms: N3_8  and  C3_10 
REMARK    3  A    between atoms: C3_10  and  C4_11 
REMARK    4  A    between atoms: C4_11  and  N4_12 
REMARK    5  A    between atoms: N6_22  and  C12_23 
REMARK    6  A    between atoms: C12_23  and  C13_24 
REMARK    7  A    between atoms: C13_24  and  C14_25 
ROOT
HETATM    1  C1  UNL     1      17.013   2.046  12.301  1.00  0.00     0.679 A 
HETATM    2  N2  UNL     1      17.170   3.066  11.445  1.00  0.00    -0.175 N 
ATOM      3  H2  UNL     1      17.327   2.881  10.455  1.00  0.00     0.186 HD
HETATM    4  C2  UNL     1      17.119   4.336  11.894  1.00  0.00     0.147 A 
HETATM    5  N3  UNL     1      17.261   5.367  11.160  1.00  0.00    -0.372 N 
ATOM      6  H3  UNL     1      17.201   6.276  11.618  1.00  0.00     0.161 HD
HETATM    7  C10 UNL     1      16.901   4.506  13.258  1.00  0.00     0.123 A 
HETATM    8  N5  UNL     1      16.822   5.661  13.951  1.00  0.00    -0.346 N 
ATOM      9  H5  UNL     1      16.904   6.604  13.571  1.00  0.00     0.167 HD
HETATM   10  C11 UNL     1      16.619   5.333  15.220  1.00  0.00     0.185 A 
HETATM   11  N6  UNL     1      16.561   3.992  15.383  1.00  0.00    -0.327 N 
HETATM   12  C15 UNL     1      16.738   3.480  14.148  1.00  0.00     0.155 A 
HETATM   13  N7  UNL     1      16.802   2.226  13.616  1.00  0.00    -0.174 N 
ATOM     14  H7  UNL     1      16.689   1.415  14.223  1.00  0.00     0.186 HD
ENDROOT
BRANCH   5  15
HETATM   15  C3  UNL     1      17.498   5.363   9.736  1.00  0.00     0.140 C 
BRANCH  15  16
HETATM   16  C4  UNL     1      17.180   6.732   9.178  1.00  0.00     0.136 C 
BRANCH  16  17
HETATM   17  N4  UNL     1      15.985   7.222   9.765  1.00  0.00    -0.411 N 
HETATM   18  C5  UNL     1      14.806   7.080   8.970  1.00  0.00     0.117 C 
HETATM   19  C6  UNL     1      13.987   8.375   8.945  1.00  0.00     0.019 C 
HETATM   20  C7  UNL     1      13.667   8.830  10.349  1.00  0.00     0.003 C 
HETATM   21  C8  UNL     1      14.789   8.553  11.321  1.00  0.00     0.019 C 
HETATM   22  C9  UNL     1      16.071   8.447  10.481  1.00  0.00     0.117 C 
ENDBRANCH  16  17
ENDBRANCH  15  16
ENDBRANCH   5  15
BRANCH   1  23
HETATM   23  N1  UNL     1      17.075   0.844  11.794  1.00  0.00    -0.234 N 
ATOM     24  H12 UNL     1      17.090   0.704  10.784  1.00  0.00     0.174 HD
ATOM     25  H11 UNL     1      17.107   0.070  12.459  1.00  0.00     0.174 HD
ENDBRANCH   1  23
BRANCH  11  26
HETATM   26  C12 UNL     1      16.344   3.232  16.560  1.00  0.00     0.134 C 
BRANCH  26  27
HETATM   27  C13 UNL     1      15.028   3.237  17.204  1.00  0.00     0.051 C 
BRANCH  27  28
HETATM   28  C14 UNL     1      14.846   2.447  18.461  1.00  0.00     0.224 C 
HETATM   29  F1  UNL     1      14.902   3.157  19.619  1.00  0.00    -0.255 F 
ENDBRANCH  27  28
ENDBRANCH  26  27
ENDBRANCH  11  26
TORSDOF 7
ENDMDL
MODEL 5
REMARK VINA RESULT: -6.579633377      4.359      7.473
REMARK  7 active torsions:
REMARK  status: ('A' for Active; 'I' for Inactive)
REMARK    1  A    between atoms: N1_1  and  C1_4 
REMARK    2  A    between atoms: N3_8  and  C3_10 
REMARK    3  A    between atoms: C3_10  and  C4_11 
REMARK    4  A    between atoms: C4_11  and  N4_12 
REMARK    5  A    between atoms: N6_22  and  C12_23 
REMARK    6  A    between atoms: C12_23  and  C13_24 
REMARK    7  A    between atoms: C13_24  and  C14_25 
ROOT
HETATM    1  C1  UNL     1      19.558   2.986  11.409  1.00  0.00     0.679 A 
HETATM    2  N2  UNL     1      18.526   3.356  12.181  1.00  0.00    -0.175 N 
ATOM      3  H2  UNL     1      17.735   2.726  12.312  1.00  0.00     0.186 HD
HETATM    4  C2  UNL     1      18.535   4.562  12.784  1.00  0.00     0.147 A 
HETATM    5  N3  UNL     1      17.601   5.002  13.530  1.00  0.00    -0.372 N 
ATOM      6  H3  UNL     1      17.725   5.932  13.930  1.00  0.00     0.161 HD
HETATM    7  C10 UNL     1      19.649   5.364  12.557  1.00  0.00     0.123 A 
HETATM    8  N5  UNL     1      19.892   6.604  13.028  1.00  0.00    -0.346 N 
ATOM      9  H5  UNL     1      19.288   7.150  13.642  1.00  0.00     0.167 HD
HETATM   10  C11 UNL     1      21.068   6.977  12.539  1.00  0.00     0.185 A 
HETATM   11  N6  UNL     1      21.607   6.014  11.758  1.00  0.00    -0.327 N 
HETATM   12  C15 UNL     1      20.712   5.005  11.774  1.00  0.00     0.155 A 
HETATM   13  N7  UNL     1      20.628   3.771  11.200  1.00  0.00    -0.174 N 
ATOM     14  H7  UNL     1      21.386   3.440  10.604  1.00  0.00     0.186 HD
ENDROOT
BRANCH   5  15
HETATM   15  C3  UNL     1      16.383   4.301  13.860  1.00  0.00     0.140 C 
BRANCH  15  16
HETATM   16  C4  UNL     1      15.886   4.779  15.205  1.00  0.00     0.136 C 
BRANCH  16  17
HETATM   17  N4  UNL     1      15.389   3.678  15.949  1.00  0.00    -0.411 N 
HETATM   18  C5  UNL     1      14.542   4.011  17.050  1.00  0.00     0.117 C 
HETATM   19  C6  UNL     1      14.933   3.236  18.313  1.00  0.00     0.019 C 
HETATM   20  C7  UNL     1      14.945   1.750  18.043  1.00  0.00     0.003 C 
HETATM   21  C8  UNL     1      15.435   1.415  16.655  1.00  0.00     0.019 C 
HETATM   22  C9  UNL     1      16.289   2.606  16.199  1.00  0.00     0.117 C 
ENDBRANCH  16  17
ENDBRANCH  15  16
ENDBRANCH   5  15
BRANCH   1  23
HETATM   23  N1  UNL     1      19.480   1.805  10.857  1.00  0.00    -0.234 N 
ATOM     24  H12 UNL     1      18.581   1.431  10.552  1.00  0.00     0.174 HD
ATOM     25  H11 UNL     1      20.355   1.292  10.752  1.00  0.00     0.174 HD
ENDBRANCH   1  23
BRANCH  11  26
HETATM   26  C12 UNL     1      22.844   5.998  11.064  1.00  0.00     0.134 C 
BRANCH  26  27
HETATM   27  C13 UNL     1      24.084   5.701  11.785  1.00  0.00     0.051 C 
BRANCH  27  28
HETATM   28  C14 UNL     1      24.718   6.789  12.593  1.00  0.00     0.224 C 
HETATM   29  F1  UNL     1      25.400   6.385  13.697  1.00  0.00    -0.255 F 
ENDBRANCH  27  28
ENDBRANCH  26  27
ENDBRANCH  11  26
TORSDOF 7
ENDMDL
