MODEL 1
REMARK VINA RESULT: -6.333498716      0.000      0.000
REMARK  2 active torsions:
REMARK  status: ('A' for Active; 'I' for Inactive)
REMARK    1  A    between atoms: C6_6  and  C7_7 
REMARK       I    between atoms: C7_7  and  N1_9 
REMARK    2  A    between atoms: N1_9  and  C8_11 
ROOT
HETATM    1  C7  UNL     1      -4.752   4.120  13.032  1.00  0.00     0.258 C 
HETATM    2  O1  UNL     1      -5.287   3.948  11.907  1.00  0.00    -0.267 OA
HETATM    3  N1  UNL     1      -3.643   5.006  13.102  1.00  0.00    -0.303 N 
ATOM      4  H1  UNL     1      -3.526   5.679  13.860  1.00  0.00     0.171 HD
ENDROOT
BRANCH   1   5
HETATM    5  C6  UNL     1      -5.281   3.413  14.200  1.00  0.00     0.044 A 
HETATM    6  C4  UNL     1      -6.192   3.991  15.060  1.00  0.00    -0.045 A 
HETATM    7  C3  UNL     1      -6.672   3.299  16.152  1.00  0.00     0.014 A 
HETATM    8  C5  UNL     1      -6.671   5.373  14.815  1.00  0.00     0.049 C 
HETATM    9  C2  UNL     1      -6.216   2.021  16.358  1.00  0.00    -0.061 A 
HETATM   10  C1  UNL     1      -6.710   1.253  17.520  1.00  0.00     0.048 C 
HETATM   11  C14 UNL     1      -5.308   1.456  15.496  1.00  0.00     0.014 A 
HETATM   12  C12 UNL     1      -4.810   2.126  14.393  1.00  0.00    -0.045 A 
HETATM   13  C13 UNL     1      -3.827   1.497  13.470  1.00  0.00     0.049 C 
ENDBRANCH   1   5
BRANCH   3  14
HETATM   14  C8  UNL     1      -2.775   4.895  12.111  1.00  0.00     0.151 A 
HETATM   15  N2  UNL     1      -2.979   5.176  10.826  1.00  0.00    -0.340 N 
HETATM   16  C9  UNL     1      -1.988   5.001   9.980  1.00  0.00     0.014 A 
ATOM     17  H2  UNL     1      -3.885   5.519  10.505  1.00  0.00     0.167 HD
HETATM   18  C10 UNL     1      -2.117   5.293   8.483  1.00  0.00     0.068 C 
HETATM   19  C11 UNL     1      -0.801   4.539  10.487  1.00  0.00     0.077 A 
HETATM   20  S1  UNL     1      -1.155   4.375  12.144  1.00  0.00    -0.064 SA
ENDBRANCH   3  14
TORSDOF 2
ENDMDL
MODEL 2
REMARK VINA RESULT: -6.333075014      0.127      2.012
REMARK  2 active torsions:
REMARK  status: ('A' for Active; 'I' for Inactive)
REMARK    1  A    between atoms: C6_6  and  C7_7 
REMARK       I    between atoms: C7_7  and  N1_9 
REMARK    2  A    between atoms: N1_9  and  C8_11 
ROOT
HETATM    1  C7  UNL     1      -4.770   4.075  13.069  1.00  0.00     0.258 C 
HETATM    2  O1  UNL     1      -5.306   3.902  11.944  1.00  0.00    -0.267 OA
HETATM    3  N1  UNL     1      -3.673   4.975  13.140  1.00  0.00    -0.303 N 
ATOM      4  H1  UNL     1      -3.562   5.646  13.901  1.00  0.00     0.171 HD
ENDROOT
BRANCH   1   5
HETATM    5  C6  UNL     1      -5.288   3.357  14.235  1.00  0.00     0.044 A 
HETATM    6  C4  UNL     1      -4.888   2.075  14.549  1.00  0.00    -0.045 A 
HETATM    7  C3  UNL     1      -5.394   1.426  15.655  1.00  0.00     0.014 A 
HETATM    8  C5  UNL     1      -3.897   1.377  13.693  1.00  0.00     0.049 C 
HETATM    9  C2  UNL     1      -6.308   2.091  16.432  1.00  0.00    -0.061 A 
HETATM   10  C1  UNL     1      -6.871   1.422  17.624  1.00  0.00     0.048 C 
HETATM   11  C14 UNL     1      -6.701   3.367  16.109  1.00  0.00     0.014 A 
HETATM   12  C12 UNL     1      -6.210   4.043  15.008  1.00  0.00    -0.045 A 
HETATM   13  C13 UNL     1      -6.647   5.425  14.674  1.00  0.00     0.049 C 
ENDBRANCH   1   5
BRANCH   3  14
HETATM   14  C8  UNL     1      -2.806   4.879  12.147  1.00  0.00     0.151 A 
HETATM   15  N2  UNL     1      -3.010   5.184  10.868  1.00  0.00    -0.340 N 
HETATM   16  C9  UNL     1      -2.019   5.022  10.018  1.00  0.00     0.014 A 
ATOM     17  H2  UNL     1      -3.914   5.536  10.553  1.00  0.00     0.167 HD
HETATM   18  C10 UNL     1      -2.148   5.341   8.527  1.00  0.00     0.068 C 
HETATM   19  C11 UNL     1      -0.834   4.546  10.515  1.00  0.00     0.077 A 
HETATM   20  S1  UNL     1      -1.188   4.353  12.169  1.00  0.00    -0.064 SA
ENDBRANCH   3  14
TORSDOF 2
ENDMDL
MODEL 3
REMARK VINA RESULT: -6.272289892      1.815      2.803
REMARK  2 active torsions:
REMARK  status: ('A' for Active; 'I' for Inactive)
REMARK    1  A    between atoms: C6_6  and  C7_7 
REMARK       I    between atoms: C7_7  and  N1_9 
REMARK    2  A    between atoms: N1_9  and  C8_11 
ROOT
HETATM    1  C7  UNL     1      -3.179   3.225  14.275  1.00  0.00     0.258 C 
HETATM    2  O1  UNL     1      -2.215   3.800  14.841  1.00  0.00    -0.267 OA
HETATM    3  N1  UNL     1      -2.965   2.725  12.962  1.00  0.00    -0.303 N 
ATOM      4  H1  UNL     1      -3.313   1.815  12.658  1.00  0.00     0.171 HD
ENDROOT
BRANCH   1   5
HETATM    5  C6  UNL     1      -4.458   3.095  14.978  1.00  0.00     0.044 A 
HETATM    6  C4  UNL     1      -4.793   1.967  15.697  1.00  0.00    -0.045 A 
HETATM    7  C3  UNL     1      -6.005   1.876  16.347  1.00  0.00     0.014 A 
HETATM    8  C5  UNL     1      -3.842   0.831  15.781  1.00  0.00     0.049 C 
HETATM    9  C2  UNL     1      -6.868   2.939  16.257  1.00  0.00    -0.061 A 
HETATM   10  C1  UNL     1      -8.176   2.872  16.941  1.00  0.00     0.048 C 
HETATM   11  C14 UNL     1      -6.525   4.057  15.536  1.00  0.00     0.014 A 
HETATM   12  C12 UNL     1      -5.317   4.177  14.874  1.00  0.00    -0.045 A 
HETATM   13  C13 UNL     1      -4.962   5.396  14.099  1.00  0.00     0.049 C 
ENDBRANCH   1   5
BRANCH   3  14
HETATM   14  C8  UNL     1      -2.281   3.526  12.164  1.00  0.00     0.151 A 
HETATM   15  N2  UNL     1      -0.964   3.719  12.152  1.00  0.00    -0.340 N 
HETATM   16  C9  UNL     1      -0.461   4.562  11.278  1.00  0.00     0.014 A 
ATOM     17  H2  UNL     1      -0.358   3.223  12.807  1.00  0.00     0.167 HD
HETATM   18  C10 UNL     1       1.038   4.856  11.180  1.00  0.00     0.068 C 
HETATM   19  C11 UNL     1      -1.337   5.189  10.430  1.00  0.00     0.077 A 
HETATM   20  S1  UNL     1      -2.835   4.547  10.921  1.00  0.00    -0.064 SA
ENDBRANCH   3  14
TORSDOF 2
ENDMDL
MODEL 4
REMARK VINA RESULT: -6.239716476      2.568      6.003
REMARK  2 active torsions:
REMARK  status: ('A' for Active; 'I' for Inactive)
REMARK    1  A    between atoms: C6_6  and  C7_7 
REMARK       I    between atoms: C7_7  and  N1_9 
REMARK    2  A    between atoms: N1_9  and  C8_11 
ROOT
HETATM    1  C7  UNL     1      -4.736   3.650  12.890  1.00  0.00     0.258 C 
HETATM    2  O1  UNL     1      -5.352   2.664  12.411  1.00  0.00    -0.267 OA
HETATM    3  N1  UNL     1      -3.977   3.437  14.073  1.00  0.00    -0.303 N 
ATOM      4  H1  UNL     1      -3.049   3.836  14.209  1.00  0.00     0.171 HD
ENDROOT
BRANCH   1   5
HETATM    5  C6  UNL     1      -4.823   4.952  12.224  1.00  0.00     0.044 A 
HETATM    6  C4  UNL     1      -5.775   5.891  12.564  1.00  0.00    -0.045 A 
HETATM    7  C3  UNL     1      -5.831   7.107  11.917  1.00  0.00     0.014 A 
HETATM    8  C5  UNL     1      -6.755   5.599  13.638  1.00  0.00     0.049 C 
HETATM    9  C2  UNL     1      -4.914   7.356  10.928  1.00  0.00    -0.061 A 
HETATM   10  C1  UNL     1      -4.948   8.650  10.215  1.00  0.00     0.048 C 
HETATM   11  C14 UNL     1      -3.970   6.413  10.598  1.00  0.00     0.014 A 
HETATM   12  C12 UNL     1      -3.890   5.185  11.228  1.00  0.00    -0.045 A 
HETATM   13  C13 UNL     1      -2.862   4.176  10.857  1.00  0.00     0.049 C 
ENDBRANCH   1   5
BRANCH   3  14
HETATM   14  C8  UNL     1      -4.565   2.682  14.985  1.00  0.00     0.151 A 
HETATM   15  N2  UNL     1      -5.814   2.785  15.433  1.00  0.00    -0.340 N 
HETATM   16  C9  UNL     1      -6.225   1.936  16.350  1.00  0.00     0.014 A 
ATOM     17  H2  UNL     1      -6.440   3.505  15.071  1.00  0.00     0.167 HD
HETATM   18  C10 UNL     1      -7.640   1.968  16.932  1.00  0.00     0.068 C 
HETATM   19  C11 UNL     1      -5.327   0.995  16.785  1.00  0.00     0.077 A 
HETATM   20  S1  UNL     1      -3.943   1.365  15.866  1.00  0.00    -0.064 SA
ENDBRANCH   3  14
TORSDOF 2
ENDMDL
MODEL 5
REMARK VINA RESULT: -6.228780625      1.156      2.440
REMARK  2 active torsions:
REMARK  status: ('A' for Active; 'I' for Inactive)
REMARK    1  A    between atoms: C6_6  and  C7_7 
REMARK       I    between atoms: C7_7  and  N1_9 
REMARK    2  A    between atoms: N1_9  and  C8_11 
ROOT
HETATM    1  C7  UNL     1      -4.765   4.379  13.355  1.00  0.00     0.258 C 
HETATM    2  O1  UNL     1      -5.158   4.213  12.172  1.00  0.00    -0.267 OA
HETATM    3  N1  UNL     1      -3.785   5.382  13.586  1.00  0.00    -0.303 N 
ATOM      4  H1  UNL     1      -3.828   6.018  14.382  1.00  0.00     0.171 HD
ENDROOT
BRANCH   1   5
HETATM    5  C6  UNL     1      -5.321   3.549  14.426  1.00  0.00     0.044 A 
HETATM    6  C4  UNL     1      -4.893   2.258  14.655  1.00  0.00    -0.045 A 
HETATM    7  C3  UNL     1      -5.438   1.502  15.671  1.00  0.00     0.014 A 
HETATM    8  C5  UNL     1      -3.832   1.665  13.804  1.00  0.00     0.049 C 
HETATM    9  C2  UNL     1      -6.417   2.070  16.446  1.00  0.00    -0.061 A 
HETATM   10  C1  UNL     1      -7.022   1.285  17.543  1.00  0.00     0.048 C 
HETATM   11  C14 UNL     1      -6.836   3.356  16.208  1.00  0.00     0.014 A 
HETATM   12  C12 UNL     1      -6.309   4.138  15.197  1.00  0.00    -0.045 A 
HETATM   13  C13 UNL     1      -6.776   5.530  14.954  1.00  0.00     0.049 C 
ENDBRANCH   1   5
BRANCH   3  14
HETATM   14  C8  UNL     1      -2.813   5.431  12.691  1.00  0.00     0.151 A 
HETATM   15  N2  UNL     1      -1.854   4.529  12.494  1.00  0.00    -0.340 N 
HETATM   16  C9  UNL     1      -0.967   4.751  11.549  1.00  0.00     0.014 A 
ATOM     17  H2  UNL     1      -1.808   3.684  13.064  1.00  0.00     0.167 HD
HETATM   18  C10 UNL     1       0.175   3.780  11.241  1.00  0.00     0.068 C 
HETATM   19  C11 UNL     1      -1.095   5.908  10.825  1.00  0.00     0.077 A 
HETATM   20  S1  UNL     1      -2.472   6.623  11.526  1.00  0.00    -0.064 SA
ENDBRANCH   3  14
TORSDOF 2
ENDMDL
