MODEL 1
REMARK VINA RESULT: -5.467403137      0.000      0.000
REMARK  4 active torsions:
REMARK  status: ('A' for Active; 'I' for Inactive)
REMARK    1  A    between atoms: N1_1  and  N2_4 
REMARK    2  A    between atoms: N2_4  and  N3_5 
REMARK    3  A    between atoms: N3_5  and  C1_6 
REMARK    4  A    between atoms: C3_8  and  C4_9 
ROOT
HETATM    1  C1  UNL     1      -3.905 -23.704  12.035  1.00  0.00     0.110 A 
HETATM    2  C2  UNL     1      -2.984 -22.712  12.636  1.00  0.00     0.039 A 
HETATM    3  C3  UNL     1      -4.344 -22.254  12.109  1.00  0.00     0.097 A 
ENDROOT
BRANCH   1   4
HETATM    4  N3  UNL     1      -3.625 -24.279  10.733  1.00  0.00    -0.121 NA
BRANCH   4   5
HETATM    5  N2  UNL     1      -2.304 -24.696  10.617  1.00  0.00    -0.038 NA
BRANCH   5   6
HETATM    6  N1  UNL     1      -2.140 -25.735   9.695  1.00  0.00    -0.332 N 
ATOM      7  H12 UNL     1      -2.815 -25.927   8.954  1.00  0.00     0.173 HD
ATOM      8  H11 UNL     1      -1.283 -26.268   9.846  1.00  0.00     0.173 HD
ENDBRANCH   5   6
ENDBRANCH   4   5
ENDBRANCH   1   4
BRANCH   3   9
HETATM    9  C4  UNL     1      -5.287 -21.845  13.179  1.00  0.00     0.237 C 
HETATM   10  N4  UNL     1      -4.918 -21.107  14.320  1.00  0.00    -0.062 NA
HETATM   11  O1  UNL     1      -6.495 -22.181  13.063  1.00  0.00    -0.276 OA
ENDBRANCH   3   9
TORSDOF 4
ENDMDL
MODEL 2
REMARK VINA RESULT: -5.183446812      1.135      1.135
REMARK  4 active torsions:
REMARK  status: ('A' for Active; 'I' for Inactive)
REMARK    1  A    between atoms: N1_1  and  N2_4 
REMARK    2  A    between atoms: N2_4  and  N3_5 
REMARK    3  A    between atoms: N3_5  and  C1_6 
REMARK    4  A    between atoms: C3_8  and  C4_9 
ROOT
HETATM    1  C1  UNL     1      -3.685 -23.902  11.811  1.00  0.00     0.110 A 
HETATM    2  C2  UNL     1      -2.750 -22.825  12.216  1.00  0.00     0.039 A 
HETATM    3  C3  UNL     1      -4.119 -22.458  11.642  1.00  0.00     0.097 A 
ENDROOT
BRANCH   1   4
HETATM    4  N3  UNL     1      -3.431 -24.694  10.623  1.00  0.00    -0.121 NA
BRANCH   4   5
HETATM    5  N2  UNL     1      -2.079 -24.975  10.461  1.00  0.00    -0.038 NA
BRANCH   5   6
HETATM    6  N1  UNL     1      -1.841 -25.963   9.499  1.00  0.00    -0.332 N 
ATOM      7  H12 UNL     1      -2.591 -26.497   9.060  1.00  0.00     0.173 HD
ATOM      8  H11 UNL     1      -0.849 -26.085   9.292  1.00  0.00     0.173 HD
ENDBRANCH   5   6
ENDBRANCH   4   5
ENDBRANCH   1   4
BRANCH   3   9
HETATM    9  C4  UNL     1      -5.041 -21.865  12.642  1.00  0.00     0.237 C 
HETATM   10  N4  UNL     1      -6.174 -22.520  13.159  1.00  0.00    -0.062 NA
HETATM   11  O1  UNL     1      -4.796 -20.701  13.056  1.00  0.00    -0.276 OA
ENDBRANCH   3   9
TORSDOF 4
ENDMDL
MODEL 3
REMARK VINA RESULT: -5.089136615      1.405      4.726
REMARK  4 active torsions:
REMARK  status: ('A' for Active; 'I' for Inactive)
REMARK    1  A    between atoms: N1_1  and  N2_4 
REMARK    2  A    between atoms: N2_4  and  N3_5 
REMARK    3  A    between atoms: N3_5  and  C1_6 
REMARK    4  A    between atoms: C3_8  and  C4_9 
ROOT
HETATM    1  C1  UNL     1      -4.821 -21.641  13.140  1.00  0.00     0.110 A 
HETATM    2  C2  UNL     1      -3.357 -21.712  12.918  1.00  0.00     0.039 A 
HETATM    3  C3  UNL     1      -4.192 -22.990  12.849  1.00  0.00     0.097 A 
ENDROOT
BRANCH   1   4
HETATM    4  N3  UNL     1      -5.357 -21.397  14.466  1.00  0.00    -0.121 NA
BRANCH   4   5
HETATM    5  N2  UNL     1      -4.454 -20.722  15.280  1.00  0.00    -0.038 NA
BRANCH   5   6
HETATM    6  N1  UNL     1      -5.080 -19.975  16.283  1.00  0.00    -0.332 N 
ATOM      7  H12 UNL     1      -5.930 -20.286  16.754  1.00  0.00     0.173 HD
ATOM      8  H11 UNL     1      -4.597 -19.099  16.486  1.00  0.00     0.173 HD
ENDBRANCH   5   6
ENDBRANCH   4   5
ENDBRANCH   1   4
BRANCH   3   9
HETATM    9  C4  UNL     1      -4.303 -23.551  11.479  1.00  0.00     0.237 C 
HETATM   10  N4  UNL     1      -3.406 -24.488  10.932  1.00  0.00    -0.062 NA
HETATM   11  O1  UNL     1      -5.259 -23.163  10.757  1.00  0.00    -0.276 OA
ENDBRANCH   3   9
TORSDOF 4
ENDMDL
MODEL 4
REMARK VINA RESULT: -4.850199247      0.951      1.226
REMARK  4 active torsions:
REMARK  status: ('A' for Active; 'I' for Inactive)
REMARK    1  A    between atoms: N1_1  and  N2_4 
REMARK    2  A    between atoms: N2_4  and  N3_5 
REMARK    3  A    between atoms: N3_5  and  C1_6 
REMARK    4  A    between atoms: C3_8  and  C4_9 
ROOT
HETATM    1  C1  UNL     1      -3.275 -22.625  11.617  1.00  0.00     0.110 A 
HETATM    2  C2  UNL     1      -4.544 -23.183  11.094  1.00  0.00     0.039 A 
HETATM    3  C3  UNL     1      -4.337 -23.070  12.604  1.00  0.00     0.097 A 
ENDROOT
BRANCH   1   4
HETATM    4  N3  UNL     1      -2.043 -23.385  11.533  1.00  0.00    -0.121 NA
BRANCH   4   5
HETATM    5  N2  UNL     1      -2.229 -24.619  10.919  1.00  0.00    -0.038 NA
BRANCH   5   6
HETATM    6  N1  UNL     1      -1.220 -24.927  10.000  1.00  0.00    -0.332 N 
ATOM      7  H12 UNL     1      -0.229 -24.814  10.211  1.00  0.00     0.173 HD
ATOM      8  H11 UNL     1      -1.585 -25.271   9.111  1.00  0.00     0.173 HD
ENDBRANCH   5   6
ENDBRANCH   4   5
ENDBRANCH   1   4
BRANCH   3   9
HETATM    9  C4  UNL     1      -5.195 -22.042  13.244  1.00  0.00     0.237 C 
HETATM   10  N4  UNL     1      -4.770 -21.191  14.282  1.00  0.00    -0.062 NA
HETATM   11  O1  UNL     1      -6.380 -21.923  12.836  1.00  0.00    -0.276 OA
ENDBRANCH   3   9
TORSDOF 4
ENDMDL
MODEL 5
REMARK VINA RESULT: -4.796719724      1.328      1.529
REMARK  4 active torsions:
REMARK  status: ('A' for Active; 'I' for Inactive)
REMARK    1  A    between atoms: N1_1  and  N2_4 
REMARK    2  A    between atoms: N2_4  and  N3_5 
REMARK    3  A    between atoms: N3_5  and  C1_6 
REMARK    4  A    between atoms: C3_8  and  C4_9 
ROOT
HETATM    1  C1  UNL     1      -2.737 -23.139  11.698  1.00  0.00     0.110 A 
HETATM    2  C2  UNL     1      -3.613 -22.335  10.812  1.00  0.00     0.039 A 
HETATM    3  C3  UNL     1      -4.241 -23.233  11.878  1.00  0.00     0.097 A 
ENDROOT
BRANCH   1   4
HETATM    4  N3  UNL     1      -2.026 -24.294  11.185  1.00  0.00    -0.121 NA
BRANCH   4   5
HETATM    5  N2  UNL     1      -2.814 -25.056  10.329  1.00  0.00    -0.038 NA
BRANCH   5   6
HETATM    6  N1  UNL     1      -2.061 -25.893   9.497  1.00  0.00    -0.332 N 
ATOM      7  H12 UNL     1      -1.737 -26.815   9.791  1.00  0.00     0.173 HD
ATOM      8  H11 UNL     1      -1.879 -25.482   8.582  1.00  0.00     0.173 HD
ENDBRANCH   5   6
ENDBRANCH   4   5
ENDBRANCH   1   4
BRANCH   3   9
HETATM    9  C4  UNL     1      -4.877 -22.479  12.987  1.00  0.00     0.237 C 
HETATM   10  N4  UNL     1      -6.190 -21.973  12.948  1.00  0.00    -0.062 NA
HETATM   11  O1  UNL     1      -4.201 -22.277  14.030  1.00  0.00    -0.276 OA
ENDBRANCH   3   9
TORSDOF 4
ENDMDL
