MODEL 1
REMARK VINA RESULT: -4.972363372      0.000      0.000
REMARK  2 active torsions:
REMARK  status: ('A' for Active; 'I' for Inactive)
REMARK    1  A    between atoms: C2_2  and  N1_3 
REMARK    2  A    between atoms: C2_2  and  C4_8 
REMARK       I    between atoms: N1_3  and  C3_5 
ROOT
HETATM    1  C1  UNL     1      -1.793 -23.550  11.628  1.00  0.00     0.041 C 
HETATM    2  C2  UNL     1      -2.718 -24.047  10.856  1.00  0.00     0.041 C 
ENDROOT
BRANCH   2   3
HETATM    3  N1  UNL     1      -2.652 -25.211  10.117  1.00  0.00    -0.313 N 
HETATM    4  C3  UNL     1      -1.521 -25.765   9.494  1.00  0.00     0.333 C 
HETATM    5  N2  UNL     1      -1.606 -27.002   8.747  1.00  0.00    -0.040 NA
HETATM    6  O1  UNL     1      -0.364 -25.280   9.511  1.00  0.00    -0.251 OA
ATOM      7  H1  UNL     1      -3.524 -25.729  10.011  1.00  0.00     0.170 HD
ENDBRANCH   2   3
BRANCH   2   8
HETATM    8  C4  UNL     1      -3.992 -23.221  10.787  1.00  0.00     0.255 C 
HETATM    9  N3  UNL     1      -4.998 -23.680  11.727  1.00  0.00    -0.101 NA
HETATM   10  N4  UNL     1      -5.242 -22.336  12.039  1.00  0.00    -0.036 NA
HETATM   11  N5  UNL     1      -3.903 -22.096  11.698  1.00  0.00    -0.101 NA
ENDBRANCH   2   8
TORSDOF 2
ENDMDL
MODEL 2
REMARK VINA RESULT: -4.864392106      1.240      1.292
REMARK  2 active torsions:
REMARK  status: ('A' for Active; 'I' for Inactive)
REMARK    1  A    between atoms: C2_2  and  N1_3 
REMARK    2  A    between atoms: C2_2  and  C4_8 
REMARK       I    between atoms: N1_3  and  C3_5 
ROOT
HETATM    1  C1  UNL     1      -2.532 -22.710  12.311  1.00  0.00     0.041 C 
HETATM    2  C2  UNL     1      -3.411 -23.424  11.667  1.00  0.00     0.041 C 
ENDROOT
BRANCH   2   3
HETATM    3  N1  UNL     1      -3.177 -24.557  10.914  1.00  0.00    -0.313 N 
HETATM    4  C3  UNL     1      -1.986 -24.917  10.259  1.00  0.00     0.333 C 
HETATM    5  N2  UNL     1      -1.889 -26.145   9.500  1.00  0.00    -0.040 NA
HETATM    6  O1  UNL     1      -0.923 -24.251  10.254  1.00  0.00    -0.251 OA
ATOM      7  H1  UNL     1      -3.956 -25.208  10.822  1.00  0.00     0.170 HD
ENDBRANCH   2   3
BRANCH   2   8
HETATM    8  C4  UNL     1      -4.839 -22.917  11.781  1.00  0.00     0.255 C 
HETATM    9  N3  UNL     1      -5.450 -23.269  13.050  1.00  0.00    -0.101 NA
HETATM   10  N4  UNL     1      -5.963 -21.965  13.102  1.00  0.00    -0.036 NA
HETATM   11  N5  UNL     1      -4.848 -21.581  12.344  1.00  0.00    -0.101 NA
ENDBRANCH   2   8
TORSDOF 2
ENDMDL
MODEL 3
REMARK VINA RESULT: -4.793849725      1.920      2.301
REMARK  2 active torsions:
REMARK  status: ('A' for Active; 'I' for Inactive)
REMARK    1  A    between atoms: C2_2  and  N1_3 
REMARK    2  A    between atoms: C2_2  and  C4_8 
REMARK       I    between atoms: N1_3  and  C3_5 
ROOT
HETATM    1  C1  UNL     1      -2.905 -22.203  13.776  1.00  0.00     0.041 C 
HETATM    2  C2  UNL     1      -3.150 -22.611  12.562  1.00  0.00     0.041 C 
ENDROOT
BRANCH   2   3
HETATM    3  N1  UNL     1      -2.262 -23.193  11.681  1.00  0.00    -0.313 N 
HETATM    4  C3  UNL     1      -2.480 -24.317  10.865  1.00  0.00     0.333 C 
HETATM    5  N2  UNL     1      -1.446 -24.817   9.985  1.00  0.00    -0.040 NA
HETATM    6  O1  UNL     1      -3.540 -24.985  10.807  1.00  0.00    -0.251 OA
ATOM      7  H1  UNL     1      -1.342 -22.758  11.613  1.00  0.00     0.170 HD
ENDBRANCH   2   3
BRANCH   2   8
HETATM    8  C4  UNL     1      -4.585 -22.399  12.106  1.00  0.00     0.255 C 
HETATM    9  N3  UNL     1      -5.537 -23.122  12.928  1.00  0.00    -0.101 NA
HETATM   10  N4  UNL     1      -6.339 -21.972  12.913  1.00  0.00    -0.036 NA
HETATM   11  N5  UNL     1      -5.151 -21.242  12.771  1.00  0.00    -0.101 NA
ENDBRANCH   2   8
TORSDOF 2
ENDMDL
MODEL 4
REMARK VINA RESULT: -4.468072686      1.650      2.242
REMARK  2 active torsions:
REMARK  status: ('A' for Active; 'I' for Inactive)
REMARK    1  A    between atoms: C2_2  and  N1_3 
REMARK    2  A    between atoms: C2_2  and  C4_8 
REMARK       I    between atoms: N1_3  and  C3_5 
ROOT
HETATM    1  C1  UNL     1      -2.127 -22.206  12.742  1.00  0.00     0.041 C 
HETATM    2  C2  UNL     1      -3.273 -22.777  12.494  1.00  0.00     0.041 C 
ENDROOT
BRANCH   2   3
HETATM    3  N1  UNL     1      -3.544 -23.718  11.522  1.00  0.00    -0.313 N 
HETATM    4  C3  UNL     1      -2.621 -24.407  10.717  1.00  0.00     0.333 C 
HETATM    5  N2  UNL     1      -3.058 -25.372   9.732  1.00  0.00    -0.040 NA
HETATM    6  O1  UNL     1      -1.374 -24.273  10.755  1.00  0.00    -0.251 OA
ATOM      7  H1  UNL     1      -4.528 -23.939  11.369  1.00  0.00     0.170 HD
ENDBRANCH   2   3
BRANCH   2   8
HETATM    8  C4  UNL     1      -4.409 -22.324  13.397  1.00  0.00     0.255 C 
HETATM    9  N3  UNL     1      -5.196 -21.260  12.802  1.00  0.00    -0.101 NA
HETATM   10  N4  UNL     1      -6.342 -21.933  13.248  1.00  0.00    -0.036 NA
HETATM   11  N5  UNL     1      -5.595 -23.115  13.135  1.00  0.00    -0.101 NA
ENDBRANCH   2   8
TORSDOF 2
ENDMDL
MODEL 5
REMARK VINA RESULT: -4.446679203      1.121      1.420
REMARK  2 active torsions:
REMARK  status: ('A' for Active; 'I' for Inactive)
REMARK    1  A    between atoms: C2_2  and  N1_3 
REMARK    2  A    between atoms: C2_2  and  C4_8 
REMARK       I    between atoms: N1_3  and  C3_5 
ROOT
HETATM    1  C1  UNL     1      -3.211 -22.570  10.607  1.00  0.00     0.041 C 
HETATM    2  C2  UNL     1      -3.399 -23.799  10.998  1.00  0.00     0.041 C 
ENDROOT
BRANCH   2   3
HETATM    3  N1  UNL     1      -2.993 -24.951  10.355  1.00  0.00    -0.313 N 
HETATM    4  C3  UNL     1      -1.695 -25.278   9.927  1.00  0.00     0.333 C 
HETATM    5  N2  UNL     1      -1.419 -26.533   9.261  1.00  0.00    -0.040 NA
HETATM    6  O1  UNL     1      -0.676 -24.560  10.063  1.00  0.00    -0.251 OA
ATOM      7  H1  UNL     1      -3.717 -25.645  10.170  1.00  0.00     0.170 HD
ENDBRANCH   2   3
BRANCH   2   8
HETATM    8  C4  UNL     1      -4.158 -23.933  12.308  1.00  0.00     0.255 C 
HETATM    9  N3  UNL     1      -3.848 -22.862  13.237  1.00  0.00    -0.101 NA
HETATM   10  N4  UNL     1      -5.219 -22.786  13.520  1.00  0.00    -0.036 NA
HETATM   11  N5  UNL     1      -5.434 -23.252  12.215  1.00  0.00    -0.101 NA
ENDBRANCH   2   8
TORSDOF 2
ENDMDL
