MODEL 1
REMARK VINA RESULT: -6.972144980      0.000      0.000
REMARK  9 active torsions:
REMARK  status: ('A' for Active; 'I' for Inactive)
REMARK    1  A    between atoms: O1_2  and  N1_3 
REMARK    2  A    between atoms: C2_5  and  C3_6 
REMARK    3  A    between atoms: C2_5  and  C9_16 
REMARK    4  A    between atoms: C3_6  and  N2_7 
REMARK    5  A    between atoms: C3_6  and  C6_13 
REMARK    6  A    between atoms: N2_7  and  C4_9 
REMARK    7  A    between atoms: C4_9  and  C5_10 
REMARK    8  A    between atoms: C9_16  and  C12_19 
REMARK    9  A    between atoms: C13_20  and  C14_21 
ROOT
HETATM    1  N1  UNL     1       5.755  51.834  20.269  1.00  0.00    -0.272 N 
ATOM      2  H1  UNL     1       5.473  52.771  20.558  1.00  0.00     0.193 HD
HETATM    3  C2  UNL     1       7.009  51.736  20.127  1.00  0.00     0.052 C 
ENDROOT
BRANCH   3   4
HETATM    4  C3  UNL     1       7.818  52.946  20.392  1.00  0.00     0.130 C 
BRANCH   4   5
HETATM    5  N2  UNL     1       7.609  53.482  21.722  1.00  0.00    -0.402 N 
ATOM      6  H2  UNL     1       6.891  54.178  21.921  1.00  0.00     0.154 HD
BRANCH   5   7
HETATM    7  C4  UNL     1       8.469  52.976  22.728  1.00  0.00     0.228 C 
BRANCH   7   8
HETATM    8  C5  UNL     1       8.655  53.922  23.863  1.00  0.00     0.190 C 
HETATM    9  O2  UNL     1       7.761  54.720  24.234  1.00  0.00    -0.647 OA
HETATM   10  O3  UNL     1       9.856  53.939  24.552  1.00  0.00    -0.647 OA
ENDBRANCH   7   8
ENDBRANCH   5   7
ENDBRANCH   4   5
BRANCH   4  11
HETATM   11  C6  UNL     1       7.677  54.073  19.438  1.00  0.00     0.014 A 
HETATM   12  C7  UNL     1       7.902  55.435  20.034  1.00  0.00     0.007 A 
HETATM   13  C8  UNL     1       8.636  54.913  18.776  1.00  0.00     0.007 A 
ENDBRANCH   4  11
ENDBRANCH   3   4
BRANCH   3  14
HETATM   14  C9  UNL     1       7.578  50.446  19.731  1.00  0.00     0.059 C 
HETATM   15  C10 UNL     1       6.550  49.566  18.986  1.00  0.00     0.035 C 
HETATM   16  C11 UNL     1       8.770  50.700  18.795  1.00  0.00     0.035 C 
BRANCH  14  17
HETATM   17  C12 UNL     1       8.018  49.674  20.889  1.00  0.00    -0.091 C 
HETATM   18  C13 UNL     1       8.413  48.990  21.833  1.00  0.00    -0.101 C 
BRANCH  18  19
HETATM   19  C14 UNL     1       8.896  48.165  22.935  1.00  0.00     0.065 C 
HETATM   20  C15 UNL     1       9.019  48.934  24.219  1.00  0.00     0.017 C 
HETATM   21  C16 UNL     1       8.692  47.894  25.299  1.00  0.00     0.001 C 
HETATM   22  C17 UNL     1       7.718  46.941  24.662  1.00  0.00     0.001 C 
HETATM   23  C18 UNL     1       7.982  47.014  23.182  1.00  0.00     0.017 C 
ENDBRANCH  18  19
ENDBRANCH  14  17
ENDBRANCH   3  14
BRANCH   1  24
HETATM   24  O1  UNL     1       4.725  51.025  20.136  1.00  0.00    -0.285 OA
HETATM   25  C1  UNL     1       3.364  51.324  20.181  1.00  0.00     0.237 C 
ENDBRANCH   1  24
TORSDOF 9
ENDMDL
MODEL 2
REMARK VINA RESULT: -6.779028245      3.115      5.471
REMARK  9 active torsions:
REMARK  status: ('A' for Active; 'I' for Inactive)
REMARK    1  A    between atoms: O1_2  and  N1_3 
REMARK    2  A    between atoms: C2_5  and  C3_6 
REMARK    3  A    between atoms: C2_5  and  C9_16 
REMARK    4  A    between atoms: C3_6  and  N2_7 
REMARK    5  A    between atoms: C3_6  and  C6_13 
REMARK    6  A    between atoms: N2_7  and  C4_9 
REMARK    7  A    between atoms: C4_9  and  C5_10 
REMARK    8  A    between atoms: C9_16  and  C12_19 
REMARK    9  A    between atoms: C13_20  and  C14_21 
ROOT
HETATM    1  N1  UNL     1       5.303  50.961  20.418  1.00  0.00    -0.272 N 
ATOM      2  H1  UNL     1       5.596  51.145  21.378  1.00  0.00     0.193 HD
HETATM    3  C2  UNL     1       6.158  50.280  19.781  1.00  0.00     0.052 C 
ENDROOT
BRANCH   3   4
HETATM    4  C3  UNL     1       7.386  49.883  20.506  1.00  0.00     0.130 C 
BRANCH   4   5
HETATM    5  N2  UNL     1       7.108  49.140  21.718  1.00  0.00    -0.402 N 
ATOM      6  H2  UNL     1       6.176  48.791  21.940  1.00  0.00     0.154 HD
BRANCH   5   7
HETATM    7  C4  UNL     1       8.217  48.929  22.574  1.00  0.00     0.228 C 
BRANCH   7   8
HETATM    8  C5  UNL     1       7.830  48.367  23.898  1.00  0.00     0.190 C 
HETATM    9  O2  UNL     1       7.133  47.331  24.017  1.00  0.00    -0.647 OA
HETATM   10  O3  UNL     1       8.244  48.998  25.059  1.00  0.00    -0.647 OA
ENDBRANCH   7   8
ENDBRANCH   5   7
ENDBRANCH   4   5
BRANCH   4  11
HETATM   11  C6  UNL     1       8.337  50.965  20.862  1.00  0.00     0.014 A 
HETATM   12  C7  UNL     1       8.496  52.033  19.816  1.00  0.00     0.007 A 
HETATM   13  C8  UNL     1       8.150  52.320  21.297  1.00  0.00     0.007 A 
ENDBRANCH   4  11
ENDBRANCH   3   4
BRANCH   3  14
HETATM   14  C9  UNL     1       5.880  49.915  18.390  1.00  0.00     0.059 C 
HETATM   15  C10 UNL     1       5.829  51.152  17.467  1.00  0.00     0.035 C 
HETATM   16  C11 UNL     1       6.995  48.982  17.892  1.00  0.00     0.035 C 
BRANCH  14  17
HETATM   17  C12 UNL     1       4.587  49.249  18.257  1.00  0.00    -0.091 C 
HETATM   18  C13 UNL     1       3.475  48.734  18.138  1.00  0.00    -0.101 C 
BRANCH  18  19
HETATM   19  C14 UNL     1       2.147  48.148  17.988  1.00  0.00     0.065 C 
HETATM   20  C15 UNL     1       2.164  46.650  18.100  1.00  0.00     0.017 C 
HETATM   21  C16 UNL     1       0.814  46.319  18.749  1.00  0.00     0.001 C 
HETATM   22  C17 UNL     1       0.486  47.496  19.626  1.00  0.00     0.001 C 
HETATM   23  C18 UNL     1       1.213  48.669  19.026  1.00  0.00     0.017 C 
ENDBRANCH  18  19
ENDBRANCH  14  17
ENDBRANCH   3  14
BRANCH   1  24
HETATM   24  O1  UNL     1       4.128  51.491  20.147  1.00  0.00    -0.285 OA
HETATM   25  C1  UNL     1       3.767  52.835  20.087  1.00  0.00     0.237 C 
ENDBRANCH   1  24
TORSDOF 9
ENDMDL
MODEL 3
REMARK VINA RESULT: -6.636553936      2.512      5.710
REMARK  9 active torsions:
REMARK  status: ('A' for Active; 'I' for Inactive)
REMARK    1  A    between atoms: O1_2  and  N1_3 
REMARK    2  A    between atoms: C2_5  and  C3_6 
REMARK    3  A    between atoms: C2_5  and  C9_16 
REMARK    4  A    between atoms: C3_6  and  N2_7 
REMARK    5  A    between atoms: C3_6  and  C6_13 
REMARK    6  A    between atoms: N2_7  and  C4_9 
REMARK    7  A    between atoms: C4_9  and  C5_10 
REMARK    8  A    between atoms: C9_16  and  C12_19 
REMARK    9  A    between atoms: C13_20  and  C14_21 
ROOT
HETATM    1  N1  UNL     1       8.532  52.340  22.493  1.00  0.00    -0.272 N 
ATOM      2  H1  UNL     1       9.009  51.628  23.048  1.00  0.00     0.193 HD
HETATM    3  C2  UNL     1       7.849  51.834  21.555  1.00  0.00     0.052 C 
ENDROOT
BRANCH   3   4
HETATM    4  C3  UNL     1       7.858  50.360  21.428  1.00  0.00     0.130 C 
BRANCH   4   5
HETATM    5  N2  UNL     1       8.188  49.690  22.669  1.00  0.00    -0.402 N 
ATOM      6  H2  UNL     1       8.714  50.151  23.413  1.00  0.00     0.154 HD
BRANCH   5   7
HETATM    7  C4  UNL     1       7.733  48.354  22.784  1.00  0.00     0.228 C 
BRANCH   7   8
HETATM    8  C5  UNL     1       7.776  47.842  24.182  1.00  0.00     0.190 C 
HETATM    9  O2  UNL     1       7.630  46.628  24.464  1.00  0.00    -0.647 OA
HETATM   10  O3  UNL     1       7.985  48.723  25.229  1.00  0.00    -0.647 OA
ENDBRANCH   7   8
ENDBRANCH   5   7
ENDBRANCH   4   5
BRANCH   4  11
HETATM   11  C6  UNL     1       8.724  49.780  20.372  1.00  0.00     0.014 A 
HETATM   12  C7  UNL     1       7.988  49.051  19.284  1.00  0.00     0.007 A 
HETATM   13  C8  UNL     1       9.014  50.179  19.023  1.00  0.00     0.007 A 
ENDBRANCH   4  11
ENDBRANCH   3   4
BRANCH   3  14
HETATM   14  C9  UNL     1       7.088  52.723  20.675  1.00  0.00     0.059 C 
HETATM   15  C10 UNL     1       6.441  53.891  21.453  1.00  0.00     0.035 C 
HETATM   16  C11 UNL     1       8.043  53.310  19.623  1.00  0.00     0.035 C 
BRANCH  14  17
HETATM   17  C12 UNL     1       5.998  52.018  20.010  1.00  0.00    -0.091 C 
HETATM   18  C13 UNL     1       5.075  51.461  19.414  1.00  0.00    -0.101 C 
BRANCH  18  19
HETATM   19  C14 UNL     1       3.985  50.818  18.687  1.00  0.00     0.065 C 
HETATM   20  C15 UNL     1       4.282  49.384  18.354  1.00  0.00     0.017 C 
HETATM   21  C16 UNL     1       2.907  48.705  18.416  1.00  0.00     0.001 C 
HETATM   22  C17 UNL     1       2.124  49.467  19.449  1.00  0.00     0.001 C 
HETATM   23  C18 UNL     1       2.724  50.847  19.481  1.00  0.00     0.017 C 
ENDBRANCH  18  19
ENDBRANCH  14  17
ENDBRANCH   3  14
BRANCH   1  24
HETATM   24  O1  UNL     1       8.780  53.557  22.930  1.00  0.00    -0.285 OA
HETATM   25  C1  UNL     1       9.339  53.956  24.142  1.00  0.00     0.237 C 
ENDBRANCH   1  24
TORSDOF 9
ENDMDL
MODEL 4
REMARK VINA RESULT: -6.635174340      2.576      3.501
REMARK  9 active torsions:
REMARK  status: ('A' for Active; 'I' for Inactive)
REMARK    1  A    between atoms: O1_2  and  N1_3 
REMARK    2  A    between atoms: C2_5  and  C3_6 
REMARK    3  A    between atoms: C2_5  and  C9_16 
REMARK    4  A    between atoms: C3_6  and  N2_7 
REMARK    5  A    between atoms: C3_6  and  C6_13 
REMARK    6  A    between atoms: N2_7  and  C4_9 
REMARK    7  A    between atoms: C4_9  and  C5_10 
REMARK    8  A    between atoms: C9_16  and  C12_19 
REMARK    9  A    between atoms: C13_20  and  C14_21 
ROOT
HETATM    1  N1  UNL     1       8.508  51.876  18.819  1.00  0.00    -0.272 N 
ATOM      2  H1  UNL     1       8.948  52.793  18.736  1.00  0.00     0.193 HD
HETATM    3  C2  UNL     1       7.518  51.893  19.608  1.00  0.00     0.052 C 
ENDROOT
BRANCH   3   4
HETATM    4  C3  UNL     1       7.184  53.183  20.249  1.00  0.00     0.130 C 
BRANCH   4   5
HETATM    5  N2  UNL     1       7.142  54.285  19.309  1.00  0.00    -0.402 N 
ATOM      6  H2  UNL     1       6.446  54.339  18.565  1.00  0.00     0.154 HD
BRANCH   5   7
HETATM    7  C4  UNL     1       8.132  55.282  19.490  1.00  0.00     0.228 C 
BRANCH   7   8
HETATM    8  C5  UNL     1       8.923  55.547  18.257  1.00  0.00     0.190 C 
HETATM    9  O2  UNL     1       9.311  56.696  17.934  1.00  0.00    -0.647 OA
HETATM   10  O3  UNL     1       9.256  54.499  17.416  1.00  0.00    -0.647 OA
ENDBRANCH   7   8
ENDBRANCH   5   7
ENDBRANCH   4   5
BRANCH   4  11
HETATM   11  C6  UNL     1       8.033  53.610  21.389  1.00  0.00     0.014 A 
HETATM   12  C7  UNL     1       7.274  54.057  22.607  1.00  0.00     0.007 A 
HETATM   13  C8  UNL     1       8.384  52.979  22.630  1.00  0.00     0.007 A 
ENDBRANCH   4  11
ENDBRANCH   3   4
BRANCH   3  14
HETATM   14  C9  UNL     1       6.764  50.656  19.823  1.00  0.00     0.059 C 
HETATM   15  C10 UNL     1       5.347  50.932  20.373  1.00  0.00     0.035 C 
HETATM   16  C11 UNL     1       6.630  49.921  18.480  1.00  0.00     0.035 C 
BRANCH  14  17
HETATM   17  C12 UNL     1       7.421  49.788  20.795  1.00  0.00    -0.091 C 
HETATM   18  C13 UNL     1       7.961  49.089  21.653  1.00  0.00    -0.101 C 
BRANCH  18  19
HETATM   19  C14 UNL     1       8.590  48.275  22.688  1.00  0.00     0.065 C 
HETATM   20  C15 UNL     1       8.811  49.037  23.964  1.00  0.00     0.017 C 
HETATM   21  C16 UNL     1       8.641  47.973  25.056  1.00  0.00     0.001 C 
HETATM   22  C17 UNL     1       7.648  46.984  24.509  1.00  0.00     0.001 C 
HETATM   23  C18 UNL     1       7.756  47.083  23.011  1.00  0.00     0.017 C 
ENDBRANCH  18  19
ENDBRANCH  14  17
ENDBRANCH   3  14
BRANCH   1  24
HETATM   24  O1  UNL     1       9.109  50.968  18.079  1.00  0.00    -0.285 OA
HETATM   25  C1  UNL     1       9.489  51.041  16.740  1.00  0.00     0.237 C 
ENDBRANCH   1  24
TORSDOF 9
ENDMDL
MODEL 5
REMARK VINA RESULT: -6.586578614      2.114      3.316
REMARK  9 active torsions:
REMARK  status: ('A' for Active; 'I' for Inactive)
REMARK    1  A    between atoms: O1_2  and  N1_3 
REMARK    2  A    between atoms: C2_5  and  C3_6 
REMARK    3  A    between atoms: C2_5  and  C9_16 
REMARK    4  A    between atoms: C3_6  and  N2_7 
REMARK    5  A    between atoms: C3_6  and  C6_13 
REMARK    6  A    between atoms: N2_7  and  C4_9 
REMARK    7  A    between atoms: C4_9  and  C5_10 
REMARK    8  A    between atoms: C9_16  and  C12_19 
REMARK    9  A    between atoms: C13_20  and  C14_21 
ROOT
HETATM    1  N1  UNL     1       8.535  51.833  18.892  1.00  0.00    -0.272 N 
ATOM      2  H1  UNL     1       8.965  52.758  18.897  1.00  0.00     0.193 HD
HETATM    3  C2  UNL     1       7.618  51.730  19.758  1.00  0.00     0.052 C 
ENDROOT
BRANCH   3   4
HETATM    4  C3  UNL     1       7.339  52.917  20.596  1.00  0.00     0.130 C 
BRANCH   4   5
HETATM    5  N2  UNL     1       7.195  54.132  19.820  1.00  0.00    -0.402 N 
ATOM      6  H2  UNL     1       7.973  54.773  19.665  1.00  0.00     0.154 HD
BRANCH   5   7
HETATM    7  C4  UNL     1       5.903  54.371  19.290  1.00  0.00     0.228 C 
BRANCH   7   8
HETATM    8  C5  UNL     1       4.866  54.546  20.344  1.00  0.00     0.190 C 
HETATM    9  O2  UNL     1       3.841  53.825  20.412  1.00  0.00    -0.647 OA
HETATM   10  O3  UNL     1       5.016  55.537  21.298  1.00  0.00    -0.647 OA
ENDBRANCH   7   8
ENDBRANCH   5   7
ENDBRANCH   4   5
BRANCH   4  11
HETATM   11  C6  UNL     1       8.294  53.207  21.693  1.00  0.00     0.014 A 
HETATM   12  C7  UNL     1       7.703  53.935  22.867  1.00  0.00     0.007 A 
HETATM   13  C8  UNL     1       8.501  52.615  22.985  1.00  0.00     0.007 A 
ENDBRANCH   4  11
ENDBRANCH   3   4
BRANCH   3  14
HETATM   14  C9  UNL     1       6.887  50.466  19.867  1.00  0.00     0.059 C 
HETATM   15  C10 UNL     1       5.411  50.684  20.268  1.00  0.00     0.035 C 
HETATM   16  C11 UNL     1       6.920  49.758  18.503  1.00  0.00     0.035 C 
BRANCH  14  17
HETATM   17  C12 UNL     1       7.466  49.595  20.886  1.00  0.00    -0.091 C 
HETATM   18  C13 UNL     1       7.985  48.901  21.760  1.00  0.00    -0.101 C 
BRANCH  18  19
HETATM   19  C14 UNL     1       8.613  48.099  22.806  1.00  0.00     0.065 C 
HETATM   20  C15 UNL     1       8.885  48.891  24.052  1.00  0.00     0.017 C 
HETATM   21  C16 UNL     1       8.708  47.866  25.180  1.00  0.00     0.001 C 
HETATM   22  C17 UNL     1       7.674  46.893  24.685  1.00  0.00     0.001 C 
HETATM   23  C18 UNL     1       7.750  46.944  23.183  1.00  0.00     0.017 C 
ENDBRANCH  18  19
ENDBRANCH  14  17
ENDBRANCH   3  14
BRANCH   1  24
HETATM   24  O1  UNL     1       9.070  51.042  17.986  1.00  0.00    -0.285 OA
HETATM   25  C1  UNL     1       9.586  51.368  16.733  1.00  0.00     0.237 C 
ENDBRANCH   1  24
TORSDOF 9
ENDMDL
