MODEL 1
REMARK VINA RESULT: -7.206302039      0.000      0.000
REMARK  9 active torsions:
REMARK  status: ('A' for Active; 'I' for Inactive)
REMARK    1  A    between atoms: C2_2  and  C3_3 
REMARK    2  A    between atoms: C5_5  and  C6_6 
REMARK    3  A    between atoms: C6_6  and  C8_8 
REMARK    4  A    between atoms: C6_6  and  C10_11 
REMARK    5  A    between atoms: C10_11  and  O3_13 
REMARK    6  A    between atoms: O3_13  and  C11_14 
REMARK    7  A    between atoms: C11_14  and  C12_15 
REMARK    8  A    between atoms: C13_16  and  O4_17 
REMARK    9  A    between atoms: C15_20  and  O5_21 
ROOT
HETATM    1  C10 UNL     1       8.642  50.829  19.757  1.00  0.00     0.278 C 
HETATM    2  O2  UNL     1       9.261  50.243  18.861  1.00  0.00    -0.264 OA
ENDROOT
BRANCH   1   3
HETATM    3  C6  UNL     1       7.749  51.982  19.343  1.00  0.00     0.122 C 
HETATM    4  C7  UNL     1       8.289  52.158  17.854  1.00  0.00     0.039 C 
BRANCH   3   5
HETATM    5  C5  UNL     1       8.168  53.206  19.993  1.00  0.00     0.003 C 
HETATM    6  C3  UNL     1       7.640  53.870  21.151  1.00  0.00    -0.086 C 
HETATM    7  C4  UNL     1       8.050  53.415  22.536  1.00  0.00     0.043 C 
BRANCH   6   8
HETATM    8  C2  UNL     1       6.210  54.357  21.160  1.00  0.00     0.029 C 
HETATM    9  C1  UNL     1       5.968  55.237  19.903  1.00  0.00     0.010 C 
ENDBRANCH   6   8
ENDBRANCH   3   5
BRANCH   3  10
HETATM   10  C8  UNL     1       6.373  51.584  19.200  1.00  0.00     0.144 C 
HETATM   11  C9  UNL     1       5.480  50.848  20.120  1.00  0.00     0.092 C 
HETATM   12  O1  UNL     1       5.774  51.881  18.135  1.00  0.00    -0.297 OA
ENDBRANCH   3  10
ENDBRANCH   1   3
BRANCH   1  13
HETATM   13  O3  UNL     1       8.784  50.417  21.059  1.00  0.00    -0.320 OA
BRANCH  13  14
HETATM   14  C11 UNL     1       8.959  49.034  21.299  1.00  0.00     0.186 C 
BRANCH  14  15
HETATM   15  C12 UNL     1       8.211  48.574  22.500  1.00  0.00     0.045 C 
HETATM   16  C13 UNL     1       8.106  47.053  22.521  1.00  0.00     0.127 C 
HETATM   17  C14 UNL     1       7.667  46.839  23.975  1.00  0.00     0.064 C 
HETATM   18  C15 UNL     1       8.515  47.828  24.748  1.00  0.00     0.124 C 
HETATM   19  C16 UNL     1       9.031  48.829  23.743  1.00  0.00     0.019 C 
HETATM   20  C17 UNL     1       8.893  50.232  24.241  1.00  0.00     0.013 C 
BRANCH  16  21
HETATM   21  O4  UNL     1       9.384  46.540  22.418  1.00  0.00    -0.395 OA
ATOM     22  H4  UNL     1       9.636  46.570  21.503  1.00  0.00     0.210 HD
ENDBRANCH  16  21
BRANCH  18  23
HETATM   23  O5  UNL     1       7.693  48.463  25.667  1.00  0.00    -0.395 OA
ATOM     24  H5  UNL     1       7.885  49.392  25.633  1.00  0.00     0.210 HD
ENDBRANCH  18  23
ENDBRANCH  14  15
ENDBRANCH  13  14
ENDBRANCH   1  13
TORSDOF 9
ENDMDL
MODEL 2
REMARK VINA RESULT: -7.172076399      1.157      2.308
REMARK  9 active torsions:
REMARK  status: ('A' for Active; 'I' for Inactive)
REMARK    1  A    between atoms: C2_2  and  C3_3 
REMARK    2  A    between atoms: C5_5  and  C6_6 
REMARK    3  A    between atoms: C6_6  and  C8_8 
REMARK    4  A    between atoms: C6_6  and  C10_11 
REMARK    5  A    between atoms: C10_11  and  O3_13 
REMARK    6  A    between atoms: O3_13  and  C11_14 
REMARK    7  A    between atoms: C11_14  and  C12_15 
REMARK    8  A    between atoms: C13_16  and  O4_17 
REMARK    9  A    between atoms: C15_20  and  O5_21 
ROOT
HETATM    1  C10 UNL     1       8.346  50.263  19.723  1.00  0.00     0.278 C 
HETATM    2  O2  UNL     1       9.364  50.359  19.028  1.00  0.00    -0.264 OA
ENDROOT
BRANCH   1   3
HETATM    3  C6  UNL     1       7.484  51.501  19.867  1.00  0.00     0.122 C 
HETATM    4  C7  UNL     1       8.233  52.149  21.115  1.00  0.00     0.039 C 
BRANCH   3   5
HETATM    5  C5  UNL     1       6.185  51.154  20.406  1.00  0.00     0.003 C 
HETATM    6  C3  UNL     1       4.888  51.186  19.792  1.00  0.00    -0.086 C 
HETATM    7  C4  UNL     1       4.436  50.035  18.919  1.00  0.00     0.043 C 
BRANCH   6   8
HETATM    8  C2  UNL     1       4.324  52.489  19.276  1.00  0.00     0.029 C 
HETATM    9  C1  UNL     1       4.473  53.575  20.376  1.00  0.00     0.010 C 
ENDBRANCH   6   8
ENDBRANCH   3   5
BRANCH   3  10
HETATM   10  C8  UNL     1       7.679  52.431  18.786  1.00  0.00     0.144 C 
HETATM   11  C9  UNL     1       8.208  53.812  18.783  1.00  0.00     0.092 C 
HETATM   12  O1  UNL     1       7.364  52.069  17.624  1.00  0.00    -0.297 OA
ENDBRANCH   3  10
ENDBRANCH   1   3
BRANCH   1  13
HETATM   13  O3  UNL     1       8.045  49.063  20.320  1.00  0.00    -0.320 OA
BRANCH  13  14
HETATM   14  C11 UNL     1       8.919  48.586  21.324  1.00  0.00     0.186 C 
BRANCH  14  15
HETATM   15  C12 UNL     1       8.197  48.236  22.577  1.00  0.00     0.045 C 
HETATM   16  C13 UNL     1       8.168  46.725  22.779  1.00  0.00     0.127 C 
HETATM   17  C14 UNL     1       7.742  46.665  24.252  1.00  0.00     0.064 C 
HETATM   18  C15 UNL     1       8.543  47.778  24.895  1.00  0.00     0.124 C 
HETATM   19  C16 UNL     1       9.006  48.677  23.775  1.00  0.00     0.019 C 
HETATM   20  C17 UNL     1       8.801  50.121  24.103  1.00  0.00     0.013 C 
BRANCH  16  21
HETATM   21  O4  UNL     1       9.469  46.267  22.727  1.00  0.00    -0.395 OA
ATOM     22  H4  UNL     1       9.682  46.100  21.817  1.00  0.00     0.210 HD
ENDBRANCH  16  21
BRANCH  18  23
HETATM   23  O5  UNL     1       7.692  48.477  25.738  1.00  0.00    -0.395 OA
ATOM     24  H5  UNL     1       7.243  47.844  26.285  1.00  0.00     0.210 HD
ENDBRANCH  18  23
ENDBRANCH  14  15
ENDBRANCH  13  14
ENDBRANCH   1  13
TORSDOF 9
ENDMDL
MODEL 3
REMARK VINA RESULT: -7.151287695      1.987      3.554
REMARK  9 active torsions:
REMARK  status: ('A' for Active; 'I' for Inactive)
REMARK    1  A    between atoms: C2_2  and  C3_3 
REMARK    2  A    between atoms: C5_5  and  C6_6 
REMARK    3  A    between atoms: C6_6  and  C8_8 
REMARK    4  A    between atoms: C6_6  and  C10_11 
REMARK    5  A    between atoms: C10_11  and  O3_13 
REMARK    6  A    between atoms: O3_13  and  C11_14 
REMARK    7  A    between atoms: C11_14  and  C12_15 
REMARK    8  A    between atoms: C13_16  and  O4_17 
REMARK    9  A    between atoms: C15_20  and  O5_21 
ROOT
HETATM    1  C10 UNL     1       7.895  49.590  19.396  1.00  0.00     0.278 C 
HETATM    2  O2  UNL     1       8.582  48.996  18.558  1.00  0.00    -0.264 OA
ENDROOT
BRANCH   1   3
HETATM    3  C6  UNL     1       6.533  50.087  18.952  1.00  0.00     0.122 C 
HETATM    4  C7  UNL     1       6.030  50.642  20.358  1.00  0.00     0.039 C 
BRANCH   3   5
HETATM    5  C5  UNL     1       5.645  48.971  18.701  1.00  0.00     0.003 C 
HETATM    6  C3  UNL     1       4.410  48.915  17.972  1.00  0.00    -0.086 C 
HETATM    7  C4  UNL     1       4.428  48.777  16.464  1.00  0.00     0.043 C 
BRANCH   6   8
HETATM    8  C2  UNL     1       3.231  49.753  18.408  1.00  0.00     0.029 C 
HETATM    9  C1  UNL     1       2.149  48.823  19.021  1.00  0.00     0.010 C 
ENDBRANCH   6   8
ENDBRANCH   3   5
BRANCH   3  10
HETATM   10  C8  UNL     1       6.624  51.244  18.101  1.00  0.00     0.144 C 
HETATM   11  C9  UNL     1       7.009  51.369  16.679  1.00  0.00     0.092 C 
HETATM   12  O1  UNL     1       6.341  52.367  18.590  1.00  0.00    -0.297 OA
ENDBRANCH   3  10
ENDBRANCH   1   3
BRANCH   1  13
HETATM   13  O3  UNL     1       8.382  49.768  20.667  1.00  0.00    -0.320 OA
BRANCH  13  14
HETATM   14  C11 UNL     1       8.949  48.649  21.321  1.00  0.00     0.186 C 
BRANCH  14  15
HETATM   15  C12 UNL     1       8.208  48.287  22.559  1.00  0.00     0.045 C 
HETATM   16  C13 UNL     1       8.140  46.772  22.723  1.00  0.00     0.127 C 
HETATM   17  C14 UNL     1       7.701  46.687  24.191  1.00  0.00     0.064 C 
HETATM   18  C15 UNL     1       8.523  47.764  24.867  1.00  0.00     0.124 C 
HETATM   19  C16 UNL     1       9.018  48.678  23.773  1.00  0.00     0.019 C 
HETATM   20  C17 UNL     1       8.845  50.118  24.135  1.00  0.00     0.013 C 
BRANCH  16  21
HETATM   21  O4  UNL     1       9.430  46.283  22.671  1.00  0.00    -0.395 OA
ATOM     22  H4  UNL     1       9.775  46.467  21.805  1.00  0.00     0.210 HD
ENDBRANCH  16  21
BRANCH  18  23
HETATM   23  O5  UNL     1       7.682  48.463  25.721  1.00  0.00    -0.395 OA
ATOM     24  H5  UNL     1       7.361  49.223  25.251  1.00  0.00     0.210 HD
ENDBRANCH  18  23
ENDBRANCH  14  15
ENDBRANCH  13  14
ENDBRANCH   1  13
TORSDOF 9
ENDMDL
MODEL 4
REMARK VINA RESULT: -7.028573602      1.174      1.730
REMARK  9 active torsions:
REMARK  status: ('A' for Active; 'I' for Inactive)
REMARK    1  A    between atoms: C2_2  and  C3_3 
REMARK    2  A    between atoms: C5_5  and  C6_6 
REMARK    3  A    between atoms: C6_6  and  C8_8 
REMARK    4  A    between atoms: C6_6  and  C10_11 
REMARK    5  A    between atoms: C10_11  and  O3_13 
REMARK    6  A    between atoms: O3_13  and  C11_14 
REMARK    7  A    between atoms: C11_14  and  C12_15 
REMARK    8  A    between atoms: C13_16  and  O4_17 
REMARK    9  A    between atoms: C15_20  and  O5_21 
ROOT
HETATM    1  C10 UNL     1       8.272  49.829  19.471  1.00  0.00     0.278 C 
HETATM    2  O2  UNL     1       9.398  50.100  19.040  1.00  0.00    -0.264 OA
ENDROOT
BRANCH   1   3
HETATM    3  C6  UNL     1       7.125  50.711  19.019  1.00  0.00     0.122 C 
HETATM    4  C7  UNL     1       7.987  51.857  18.325  1.00  0.00     0.039 C 
BRANCH   3   5
HETATM    5  C5  UNL     1       6.529  51.387  20.153  1.00  0.00     0.003 C 
HETATM    6  C3  UNL     1       7.021  52.477  20.946  1.00  0.00    -0.086 C 
HETATM    7  C4  UNL     1       6.850  53.901  20.462  1.00  0.00     0.043 C 
BRANCH   6   8
HETATM    8  C2  UNL     1       8.314  52.335  21.714  1.00  0.00     0.029 C 
HETATM    9  C1  UNL     1       8.305  53.326  22.908  1.00  0.00     0.010 C 
ENDBRANCH   6   8
ENDBRANCH   3   5
BRANCH   3  10
HETATM   10  C8  UNL     1       6.364  50.114  17.954  1.00  0.00     0.144 C 
HETATM   11  C9  UNL     1       5.599  48.850  17.903  1.00  0.00     0.092 C 
HETATM   12  O1  UNL     1       6.301  50.722  16.854  1.00  0.00    -0.297 OA
ENDBRANCH   3  10
ENDBRANCH   1   3
BRANCH   1  13
HETATM   13  O3  UNL     1       8.111  48.761  20.320  1.00  0.00    -0.320 OA
BRANCH  13  14
HETATM   14  C11 UNL     1       8.933  48.701  21.469  1.00  0.00     0.186 C 
BRANCH  14  15
HETATM   15  C12 UNL     1       8.178  48.270  22.677  1.00  0.00     0.045 C 
HETATM   16  C13 UNL     1       8.076  46.750  22.736  1.00  0.00     0.127 C 
HETATM   17  C14 UNL     1       7.628  46.573  24.192  1.00  0.00     0.064 C 
HETATM   18  C15 UNL     1       8.471  47.581  24.945  1.00  0.00     0.124 C 
HETATM   19  C16 UNL     1       8.991  48.558  23.918  1.00  0.00     0.019 C 
HETATM   20  C17 UNL     1       8.849  49.972  24.379  1.00  0.00     0.013 C 
BRANCH  16  21
HETATM   21  O4  UNL     1       9.354  46.237  22.653  1.00  0.00    -0.395 OA
ATOM     22  H4  UNL     1       9.405  45.709  21.865  1.00  0.00     0.210 HD
ENDBRANCH  16  21
BRANCH  18  23
HETATM   23  O5  UNL     1       7.642  48.238  25.842  1.00  0.00    -0.395 OA
ATOM     24  H5  UNL     1       8.005  48.117  26.712  1.00  0.00     0.210 HD
ENDBRANCH  18  23
ENDBRANCH  14  15
ENDBRANCH  13  14
ENDBRANCH   1  13
TORSDOF 9
ENDMDL
MODEL 5
REMARK VINA RESULT: -6.996477415      1.526      2.124
REMARK  9 active torsions:
REMARK  status: ('A' for Active; 'I' for Inactive)
REMARK    1  A    between atoms: C2_2  and  C3_3 
REMARK    2  A    between atoms: C5_5  and  C6_6 
REMARK    3  A    between atoms: C6_6  and  C8_8 
REMARK    4  A    between atoms: C6_6  and  C10_11 
REMARK    5  A    between atoms: C10_11  and  O3_13 
REMARK    6  A    between atoms: O3_13  and  C11_14 
REMARK    7  A    between atoms: C11_14  and  C12_15 
REMARK    8  A    between atoms: C13_16  and  O4_17 
REMARK    9  A    between atoms: C15_20  and  O5_21 
ROOT
HETATM    1  C10 UNL     1       8.505  49.782  19.098  1.00  0.00     0.278 C 
HETATM    2  O2  UNL     1       9.717  50.009  19.002  1.00  0.00    -0.264 OA
ENDROOT
BRANCH   1   3
HETATM    3  C6  UNL     1       7.606  50.344  18.015  1.00  0.00     0.122 C 
HETATM    4  C7  UNL     1       8.744  50.889  17.041  1.00  0.00     0.039 C 
BRANCH   3   5
HETATM    5  C5  UNL     1       6.956  51.554  18.473  1.00  0.00     0.003 C 
HETATM    6  C3  UNL     1       6.386  51.875  19.750  1.00  0.00    -0.086 C 
HETATM    7  C4  UNL     1       7.278  52.353  20.877  1.00  0.00     0.043 C 
BRANCH   6   8
HETATM    8  C2  UNL     1       5.241  51.056  20.298  1.00  0.00     0.029 C 
HETATM    9  C1  UNL     1       3.955  51.382  19.491  1.00  0.00     0.010 C 
ENDBRANCH   6   8
ENDBRANCH   3   5
BRANCH   3  10
HETATM   10  C8  UNL     1       6.936  49.310  17.270  1.00  0.00     0.144 C 
HETATM   11  C9  UNL     1       5.609  48.688  17.460  1.00  0.00     0.092 C 
HETATM   12  O1  UNL     1       7.528  48.812  16.279  1.00  0.00    -0.297 OA
ENDBRANCH   3  10
ENDBRANCH   1   3
BRANCH   1  13
HETATM   13  O3  UNL     1       8.037  49.044  20.157  1.00  0.00    -0.320 OA
BRANCH  13  14
HETATM   14  C11 UNL     1       8.909  48.828  21.249  1.00  0.00     0.186 C 
BRANCH  14  15
HETATM   15  C12 UNL     1       8.178  48.430  22.482  1.00  0.00     0.045 C 
HETATM   16  C13 UNL     1       8.090  46.912  22.592  1.00  0.00     0.127 C 
HETATM   17  C14 UNL     1       7.667  46.779  24.061  1.00  0.00     0.064 C 
HETATM   18  C15 UNL     1       8.512  47.819  24.766  1.00  0.00     0.124 C 
HETATM   19  C16 UNL     1       9.007  48.766  23.699  1.00  0.00     0.019 C 
HETATM   20  C17 UNL     1       8.859  50.194  24.116  1.00  0.00     0.013 C 
BRANCH  16  21
HETATM   21  O4  UNL     1       9.372  46.408  22.506  1.00  0.00    -0.395 OA
ATOM     22  H4  UNL     1       9.450  45.953  21.675  1.00  0.00     0.210 HD
ENDBRANCH  16  21
BRANCH  18  23
HETATM   23  O5  UNL     1       7.692  48.498  25.654  1.00  0.00    -0.395 OA
ATOM     24  H5  UNL     1       7.957  48.257  26.534  1.00  0.00     0.210 HD
ENDBRANCH  18  23
ENDBRANCH  14  15
ENDBRANCH  13  14
ENDBRANCH   1  13
TORSDOF 9
ENDMDL
