MODEL 1
REMARK VINA RESULT: -5.684408348      0.000      0.000
REMARK  3 active torsions:
REMARK  status: ('A' for Active; 'I' for Inactive)
REMARK    1  A    between atoms: C2_2  and  O2_4 
REMARK    2  A    between atoms: O2_4  and  C3_5 
REMARK    3  A    between atoms: C3_5  and  C5_7 
ROOT
HETATM    1  C3  UNL     1       8.358  14.346 -16.582  1.00  0.00     0.132 C 
HETATM    2  C4  UNL     1       7.027  14.153 -17.271  1.00  0.00     0.040 C 
ENDROOT
BRANCH   1   3
HETATM    3  O2  UNL     1       8.097  14.447 -15.194  1.00  0.00    -0.316 OA
BRANCH   3   4
HETATM    4  C2  UNL     1       8.040  13.306 -14.431  1.00  0.00     0.255 C 
HETATM    5  C1  UNL     1       8.434  11.956 -14.969  1.00  0.00     0.126 C 
HETATM    6  O1  UNL     1       7.642  13.409 -13.240  1.00  0.00    -0.266 OA
ENDBRANCH   3   4
ENDBRANCH   1   3
BRANCH   1   7
HETATM    7  C5  UNL     1       9.003  15.603 -17.124  1.00  0.00     0.015 C 
HETATM    8  C6  UNL     1       8.581  16.762 -16.263  1.00  0.00     0.007 C 
HETATM    9  C7  UNL     1       7.695  17.616 -17.177  1.00  0.00     0.000 C 
HETATM   10  C8  UNL     1       8.430  17.415 -18.507  1.00  0.00     0.000 C 
HETATM   11  C9  UNL     1       8.500  15.894 -18.526  1.00  0.00     0.007 C 
ENDBRANCH   1   7
TORSDOF 3
ENDMDL
MODEL 2
REMARK VINA RESULT: -5.663849357      1.313      2.145
REMARK  3 active torsions:
REMARK  status: ('A' for Active; 'I' for Inactive)
REMARK    1  A    between atoms: C2_2  and  O2_4 
REMARK    2  A    between atoms: O2_4  and  C3_5 
REMARK    3  A    between atoms: C3_5  and  C5_7 
ROOT
HETATM    1  C3  UNL     1       8.240  15.884 -15.975  1.00  0.00     0.132 C 
HETATM    2  C4  UNL     1       8.957  17.003 -15.257  1.00  0.00     0.040 C 
ENDROOT
BRANCH   1   3
HETATM    3  O2  UNL     1       8.792  14.668 -15.504  1.00  0.00    -0.316 OA
BRANCH   3   4
HETATM    4  C2  UNL     1       7.983  13.760 -14.865  1.00  0.00     0.255 C 
HETATM    5  C1  UNL     1       7.146  12.758 -15.615  1.00  0.00     0.126 C 
HETATM    6  O1  UNL     1       7.951  13.778 -13.606  1.00  0.00    -0.266 OA
ENDBRANCH   3   4
ENDBRANCH   1   3
BRANCH   1   7
HETATM    7  C5  UNL     1       8.448  16.054 -17.463  1.00  0.00     0.015 C 
HETATM    8  C6  UNL     1       7.100  16.130 -18.127  1.00  0.00     0.007 C 
HETATM    9  C7  UNL     1       7.008  14.845 -18.956  1.00  0.00     0.000 C 
HETATM   10  C8  UNL     1       8.470  14.720 -19.398  1.00  0.00     0.000 C 
HETATM   11  C9  UNL     1       9.152  14.840 -18.042  1.00  0.00     0.007 C 
ENDBRANCH   1   7
TORSDOF 3
ENDMDL
MODEL 3
REMARK VINA RESULT: -5.585455714      1.973      4.622
REMARK  3 active torsions:
REMARK  status: ('A' for Active; 'I' for Inactive)
REMARK    1  A    between atoms: C2_2  and  O2_4 
REMARK    2  A    between atoms: O2_4  and  C3_5 
REMARK    3  A    between atoms: C3_5  and  C5_7 
ROOT
HETATM    1  C3  UNL     1       8.996  14.622 -16.476  1.00  0.00     0.132 C 
HETATM    2  C4  UNL     1       8.651  15.937 -15.816  1.00  0.00     0.040 C 
ENDROOT
BRANCH   1   3
HETATM    3  O2  UNL     1       7.909  14.282 -17.317  1.00  0.00    -0.316 OA
BRANCH   3   4
HETATM    4  C2  UNL     1       7.829  14.832 -18.574  1.00  0.00     0.255 C 
HETATM    5  C1  UNL     1       9.041  15.043 -19.441  1.00  0.00     0.126 C 
HETATM    6  O1  UNL     1       6.692  15.166 -19.002  1.00  0.00    -0.266 OA
ENDBRANCH   3   4
ENDBRANCH   1   3
BRANCH   1   7
HETATM    7  C5  UNL     1       9.215  13.584 -15.398  1.00  0.00     0.015 C 
HETATM    8  C6  UNL     1       8.834  12.238 -15.949  1.00  0.00     0.007 C 
HETATM    9  C7  UNL     1       7.585  11.838 -15.156  1.00  0.00     0.000 C 
HETATM   10  C8  UNL     1       7.949  12.428 -13.790  1.00  0.00     0.000 C 
HETATM   11  C9  UNL     1       8.299  13.847 -14.216  1.00  0.00     0.007 C 
ENDBRANCH   1   7
TORSDOF 3
ENDMDL
MODEL 4
REMARK VINA RESULT: -5.518301584      2.206      4.602
REMARK  3 active torsions:
REMARK  status: ('A' for Active; 'I' for Inactive)
REMARK    1  A    between atoms: C2_2  and  O2_4 
REMARK    2  A    between atoms: O2_4  and  C3_5 
REMARK    3  A    between atoms: C3_5  and  C5_7 
ROOT
HETATM    1  C3  UNL     1       9.078  15.011 -17.161  1.00  0.00     0.132 C 
HETATM    2  C4  UNL     1       8.427  16.227 -16.543  1.00  0.00     0.040 C 
ENDROOT
BRANCH   1   3
HETATM    3  O2  UNL     1       8.197  14.531 -18.160  1.00  0.00    -0.316 OA
BRANCH   3   4
HETATM    4  C2  UNL     1       8.448  14.821 -19.480  1.00  0.00     0.255 C 
HETATM    5  C1  UNL     1       7.462  14.512 -20.575  1.00  0.00     0.126 C 
HETATM    6  O1  UNL     1       9.548  15.364 -19.768  1.00  0.00    -0.266 OA
ENDBRANCH   3   4
ENDBRANCH   1   3
BRANCH   1   7
HETATM    7  C5  UNL     1       9.307  13.983 -16.076  1.00  0.00     0.015 C 
HETATM    8  C6  UNL     1       8.377  12.825 -16.314  1.00  0.00     0.007 C 
HETATM    9  C7  UNL     1       7.392  12.875 -15.141  1.00  0.00     0.000 C 
HETATM   10  C8  UNL     1       8.339  13.343 -14.031  1.00  0.00     0.000 C 
HETATM   11  C9  UNL     1       8.948  14.558 -14.717  1.00  0.00     0.007 C 
ENDBRANCH   1   7
TORSDOF 3
ENDMDL
MODEL 5
REMARK VINA RESULT: -5.503140977      1.007      1.744
REMARK  3 active torsions:
REMARK  status: ('A' for Active; 'I' for Inactive)
REMARK    1  A    between atoms: C2_2  and  O2_4 
REMARK    2  A    between atoms: O2_4  and  C3_5 
REMARK    3  A    between atoms: C3_5  and  C5_7 
ROOT
HETATM    1  C3  UNL     1       8.266  15.253 -15.602  1.00  0.00     0.132 C 
HETATM    2  C4  UNL     1       8.992  16.515 -15.195  1.00  0.00     0.040 C 
ENDROOT
BRANCH   1   3
HETATM    3  O2  UNL     1       8.904  14.176 -14.939  1.00  0.00    -0.316 OA
BRANCH   3   4
HETATM    4  C2  UNL     1       8.143  13.182 -14.374  1.00  0.00     0.255 C 
HETATM    5  C1  UNL     1       7.883  11.872 -15.068  1.00  0.00     0.126 C 
HETATM    6  O1  UNL     1       7.651  13.390 -13.232  1.00  0.00    -0.266 OA
ENDBRANCH   3   4
ENDBRANCH   1   3
BRANCH   1   7
HETATM    7  C5  UNL     1       8.348  15.113 -17.105  1.00  0.00     0.015 C 
HETATM    8  C6  UNL     1       8.538  16.481 -17.701  1.00  0.00     0.007 C 
HETATM    9  C7  UNL     1       7.235  16.753 -18.459  1.00  0.00     0.000 C 
HETATM   10  C8  UNL     1       6.935  15.340 -18.969  1.00  0.00     0.000 C 
HETATM   11  C9  UNL     1       7.042  14.573 -17.659  1.00  0.00     0.007 C 
ENDBRANCH   1   7
TORSDOF 3
ENDMDL
