MODEL 1
REMARK VINA RESULT: -5.227215261      0.000      0.000
REMARK  3 active torsions:
REMARK  status: ('A' for Active; 'I' for Inactive)
REMARK    1  A    between atoms: C2_2  and  O1_4 
REMARK    2  A    between atoms: O1_4  and  C4_5 
REMARK    3  A    between atoms: C4_5  and  C6_7 
ROOT
HETATM    1  C4  UNL     1       8.465  14.181 -15.820  1.00  0.00     0.154 C 
HETATM    2  C5  UNL     1       9.176  14.999 -14.762  1.00  0.00     0.042 C 
ENDROOT
BRANCH   1   3
HETATM    3  O1  UNL     1       7.383  13.564 -15.249  1.00  0.00    -0.379 OA
BRANCH   3   4
HETATM    4  C2  UNL     1       7.556  12.208 -15.042  1.00  0.00     0.114 C 
HETATM    5  C1  UNL     1       8.692  11.627 -15.846  1.00  0.00     0.039 C 
HETATM    6  C3  UNL     1       7.839  12.004 -13.567  1.00  0.00     0.039 C 
ENDBRANCH   3   4
ENDBRANCH   1   3
BRANCH   1   7
HETATM    7  C6  UNL     1       8.033  15.114 -16.929  1.00  0.00     0.109 A 
HETATM    8  C7  UNL     1       8.475  16.545 -16.842  1.00  0.00     0.051 C 
HETATM    9  O2  UNL     1       8.395  14.567 -18.246  1.00  0.00    -0.367 OA
HETATM   10  C8  UNL     1       7.055  14.704 -17.860  1.00  0.00     0.155 A 
HETATM   11  C9  UNL     1       6.186  15.695 -18.604  1.00  0.00     0.042 C 
ENDBRANCH   1   7
TORSDOF 3
ENDMDL
MODEL 2
REMARK VINA RESULT: -4.966561721      0.560      1.183
REMARK  3 active torsions:
REMARK  status: ('A' for Active; 'I' for Inactive)
REMARK    1  A    between atoms: C2_2  and  O1_4 
REMARK    2  A    between atoms: O1_4  and  C4_5 
REMARK    3  A    between atoms: C4_5  and  C6_7 
ROOT
HETATM    1  C4  UNL     1       8.738  14.642 -16.124  1.00  0.00     0.154 C 
HETATM    2  C5  UNL     1       9.004  15.626 -15.004  1.00  0.00     0.042 C 
ENDROOT
BRANCH   1   3
HETATM    3  O1  UNL     1       7.900  13.661 -15.661  1.00  0.00    -0.379 OA
BRANCH   3   4
HETATM    4  C2  UNL     1       8.540  12.669 -14.941  1.00  0.00     0.114 C 
HETATM    5  C1  UNL     1       7.779  12.248 -13.710  1.00  0.00     0.039 C 
HETATM    6  C3  UNL     1       8.702  11.474 -15.858  1.00  0.00     0.039 C 
ENDBRANCH   3   4
ENDBRANCH   1   3
BRANCH   1   7
HETATM    7  C6  UNL     1       8.109  15.393 -17.276  1.00  0.00     0.109 A 
HETATM    8  C7  UNL     1       8.398  16.861 -17.385  1.00  0.00     0.051 C 
HETATM    9  O2  UNL     1       8.409  14.736 -18.558  1.00  0.00    -0.367 OA
HETATM   10  C8  UNL     1       7.102  14.783 -18.054  1.00  0.00     0.155 A 
HETATM   11  C9  UNL     1       6.067  15.591 -18.807  1.00  0.00     0.042 C 
ENDBRANCH   1   7
TORSDOF 3
ENDMDL
MODEL 3
REMARK VINA RESULT: -4.933245952      1.663      1.980
REMARK  3 active torsions:
REMARK  status: ('A' for Active; 'I' for Inactive)
REMARK    1  A    between atoms: C2_2  and  O1_4 
REMARK    2  A    between atoms: O1_4  and  C4_5 
REMARK    3  A    between atoms: C4_5  and  C6_7 
ROOT
HETATM    1  C4  UNL     1       9.085  15.244 -16.908  1.00  0.00     0.154 C 
HETATM    2  C5  UNL     1       8.535  16.199 -15.870  1.00  0.00     0.042 C 
ENDROOT
BRANCH   1   3
HETATM    3  O1  UNL     1       8.954  13.962 -16.443  1.00  0.00    -0.379 OA
BRANCH   3   4
HETATM    4  C2  UNL     1       8.030  13.827 -15.424  1.00  0.00     0.114 C 
HETATM    5  C1  UNL     1       6.951  12.820 -15.734  1.00  0.00     0.039 C 
HETATM    6  C3  UNL     1       8.780  13.383 -14.185  1.00  0.00     0.039 C 
ENDBRANCH   3   4
ENDBRANCH   1   3
BRANCH   1   7
HETATM    7  C6  UNL     1       8.307  15.437 -18.190  1.00  0.00     0.109 A 
HETATM    8  C7  UNL     1       6.950  16.068 -18.088  1.00  0.00     0.051 C 
HETATM    9  O2  UNL     1       9.111  16.159 -19.189  1.00  0.00    -0.367 OA
HETATM   10  C8  UNL     1       8.741  14.821 -19.383  1.00  0.00     0.155 A 
HETATM   11  C9  UNL     1       7.788  14.491 -20.512  1.00  0.00     0.042 C 
ENDBRANCH   1   7
TORSDOF 3
ENDMDL
MODEL 4
REMARK VINA RESULT: -4.932582697      1.508      4.512
REMARK  3 active torsions:
REMARK  status: ('A' for Active; 'I' for Inactive)
REMARK    1  A    between atoms: C2_2  and  O1_4 
REMARK    2  A    between atoms: O1_4  and  C4_5 
REMARK    3  A    between atoms: C4_5  and  C6_7 
ROOT
HETATM    1  C4  UNL     1       8.257  14.633 -17.691  1.00  0.00     0.154 C 
HETATM    2  C5  UNL     1       6.830  14.877 -18.135  1.00  0.00     0.042 C 
ENDROOT
BRANCH   1   3
HETATM    3  O1  UNL     1       8.892  15.841 -17.560  1.00  0.00    -0.379 OA
BRANCH   3   4
HETATM    4  C2  UNL     1       8.034  16.905 -17.350  1.00  0.00     0.114 C 
HETATM    5  C1  UNL     1       8.282  17.614 -16.042  1.00  0.00     0.039 C 
HETATM    6  C3  UNL     1       8.236  17.884 -18.489  1.00  0.00     0.039 C 
ENDBRANCH   3   4
ENDBRANCH   1   3
BRANCH   1   7
HETATM    7  C6  UNL     1       8.223  13.894 -16.372  1.00  0.00     0.109 A 
HETATM    8  C7  UNL     1       6.953  13.184 -16.009  1.00  0.00     0.051 C 
HETATM    9  O2  UNL     1       9.356  12.962 -16.263  1.00  0.00    -0.367 OA
HETATM   10  C8  UNL     1       9.254  14.082 -15.427  1.00  0.00     0.155 A 
HETATM   11  C9  UNL     1       9.039  13.861 -13.946  1.00  0.00     0.042 C 
ENDBRANCH   1   7
TORSDOF 3
ENDMDL
MODEL 5
REMARK VINA RESULT: -4.922545928      1.351      4.012
REMARK  3 active torsions:
REMARK  status: ('A' for Active; 'I' for Inactive)
REMARK    1  A    between atoms: C2_2  and  O1_4 
REMARK    2  A    between atoms: O1_4  and  C4_5 
REMARK    3  A    between atoms: C4_5  and  C6_7 
ROOT
HETATM    1  C4  UNL     1       8.304  15.339 -16.403  1.00  0.00     0.154 C 
HETATM    2  C5  UNL     1       8.765  16.503 -15.551  1.00  0.00     0.042 C 
ENDROOT
BRANCH   1   3
HETATM    3  O1  UNL     1       9.108  15.255 -17.509  1.00  0.00    -0.379 OA
BRANCH   3   4
HETATM    4  C2  UNL     1       8.545  15.788 -18.654  1.00  0.00     0.114 C 
HETATM    5  C1  UNL     1       9.127  15.214 -19.921  1.00  0.00     0.039 C 
HETATM    6  C3  UNL     1       7.060  15.491 -18.612  1.00  0.00     0.039 C 
ENDBRANCH   3   4
ENDBRANCH   1   3
BRANCH   1   7
HETATM    7  C6  UNL     1       8.391  14.079 -15.572  1.00  0.00     0.109 A 
HETATM    8  C7  UNL     1       9.075  14.174 -14.240  1.00  0.00     0.051 C 
HETATM    9  O2  UNL     1       7.063  13.469 -15.401  1.00  0.00    -0.367 OA
HETATM   10  C8  UNL     1       8.067  12.830 -16.143  1.00  0.00     0.155 A 
HETATM   11  C9  UNL     1       8.638  11.531 -15.616  1.00  0.00     0.042 C 
ENDBRANCH   1   7
TORSDOF 3
ENDMDL
