MODEL 1
REMARK VINA RESULT: -7.327047779      0.000      0.000
REMARK  7 active torsions:
REMARK  status: ('A' for Active; 'I' for Inactive)
REMARK    1  A    between atoms: C2_2  and  C3_3 
REMARK    2  A    between atoms: C3_3  and  C4_4 
REMARK    3  A    between atoms: C4_4  and  C5_5 
REMARK    4  A    between atoms: C5_5  and  C6_6 
REMARK    5  A    between atoms: C7_9  and  C8_10 
REMARK    6  A    between atoms: C14_24  and  C15_25 
REMARK    7  A    between atoms: C15_25  and  C16_26 
ROOT
HETATM    1  C8  UNL     1       1.901  75.202   6.261  1.00  0.00     0.059 A 
HETATM    2  C9  UNL     1       2.287  74.427   7.335  1.00  0.00     0.143 A 
HETATM    3  C10 UNL     1       1.643  74.411   8.624  1.00  0.00     0.120 C 
HETATM    4  N2  UNL     1       1.136  74.405   9.669  1.00  0.00    -0.190 NA
HETATM    5  N3  UNL     1       3.370  73.703   6.938  1.00  0.00    -0.290 N 
ATOM      6  H3  UNL     1       3.873  73.038   7.525  1.00  0.00     0.188 HD
HETATM    7  N4  UNL     1       3.679  73.984   5.683  1.00  0.00    -0.303 N 
ATOM      8  H4  UNL     1       4.446  73.581   5.145  1.00  0.00     0.186 HD
HETATM    9  C11 UNL     1       2.792  74.901   5.244  1.00  0.00     0.037 A 
HETATM   10  C12 UNL     1       2.731  75.525   3.886  1.00  0.00     0.070 C 
ENDROOT
BRANCH   1  11
HETATM   11  C7  UNL     1       0.788  76.147   6.183  1.00  0.00     0.116 A 
HETATM   12  N1  UNL     1      -0.483  75.740   6.003  1.00  0.00    -0.353 N 
HETATM   13  C6  UNL     1      -1.529  76.625   5.934  1.00  0.00     0.032 A 
ATOM     14  H1  UNL     1      -0.674  74.742   5.916  1.00  0.00     0.166 HD
HETATM   15  C14 UNL     1      -1.244  77.959   6.052  1.00  0.00     0.035 A 
HETATM   16  N5  UNL     1       0.040  78.394   6.236  1.00  0.00    -0.323 N 
HETATM   17  C13 UNL     1       1.012  77.502   6.297  1.00  0.00     0.273 A 
ATOM     18  H5  UNL     1       0.242  79.390   6.325  1.00  0.00     0.169 HD
HETATM   19  O1  UNL     1       2.202  77.927   6.469  1.00  0.00    -0.266 OA
BRANCH  13  20
HETATM   20  C5  UNL     1      -2.911  76.117   5.793  1.00  0.00     0.059 C 
BRANCH  20  21
HETATM   21  C4  UNL     1      -2.983  74.625   5.587  1.00  0.00     0.006 C 
BRANCH  21  22
HETATM   22  C3  UNL     1      -3.887  74.231   4.465  1.00  0.00     0.000 C 
BRANCH  22  23
HETATM   23  C2  UNL     1      -4.292  75.379   3.574  1.00  0.00    -0.005 C 
HETATM   24  C1  UNL     1      -5.828  75.356   3.523  1.00  0.00     0.005 C 
ENDBRANCH  22  23
ENDBRANCH  21  22
ENDBRANCH  20  21
ENDBRANCH  13  20
BRANCH  15  25
HETATM   25  C15 UNL     1      -2.258  79.014   5.925  1.00  0.00     0.073 C 
BRANCH  25  26
HETATM   26  C16 UNL     1      -1.675  80.368   5.517  1.00  0.00     0.130 C 
HETATM   27  C17 UNL     1      -2.784  81.356   5.529  1.00  0.00     0.059 C 
HETATM   28  N6  UNL     1      -3.652  82.115   5.545  1.00  0.00    -0.197 NA
ENDBRANCH  25  26
ENDBRANCH  15  25
ENDBRANCH   1  11
TORSDOF 7
ENDMDL
MODEL 2
REMARK VINA RESULT: -7.263671410      2.219      4.319
REMARK  7 active torsions:
REMARK  status: ('A' for Active; 'I' for Inactive)
REMARK    1  A    between atoms: C2_2  and  C3_3 
REMARK    2  A    between atoms: C3_3  and  C4_4 
REMARK    3  A    between atoms: C4_4  and  C5_5 
REMARK    4  A    between atoms: C5_5  and  C6_6 
REMARK    5  A    between atoms: C7_9  and  C8_10 
REMARK    6  A    between atoms: C14_24  and  C15_25 
REMARK    7  A    between atoms: C15_25  and  C16_26 
ROOT
HETATM    1  C8  UNL     1       1.654  77.099   6.615  1.00  0.00     0.059 A 
HETATM    2  C9  UNL     1       2.394  77.352   7.751  1.00  0.00     0.143 A 
HETATM    3  C10 UNL     1       1.863  77.435   9.089  1.00  0.00     0.120 C 
HETATM    4  N2  UNL     1       1.438  77.517  10.166  1.00  0.00    -0.190 NA
HETATM    5  N3  UNL     1       3.690  77.504   7.360  1.00  0.00    -0.290 N 
ATOM      6  H3  UNL     1       4.468  77.700   7.989  1.00  0.00     0.188 HD
HETATM    7  N4  UNL     1       3.797  77.361   6.050  1.00  0.00    -0.303 N 
ATOM      8  H4  UNL     1       4.656  77.427   5.504  1.00  0.00     0.186 HD
HETATM    9  C11 UNL     1       2.562  77.111   5.568  1.00  0.00     0.037 A 
HETATM   10  C12 UNL     1       2.176  76.875   4.142  1.00  0.00     0.070 C 
ENDROOT
BRANCH   1  11
HETATM   11  C7  UNL     1       0.216  76.860   6.508  1.00  0.00     0.116 A 
HETATM   12  N1  UNL     1      -0.653  77.847   6.219  1.00  0.00    -0.353 N 
HETATM   13  C6  UNL     1      -2.003  77.622   6.113  1.00  0.00     0.032 A 
ATOM     14  H1  UNL     1      -0.297  78.791   6.075  1.00  0.00     0.166 HD
HETATM   15  C14 UNL     1      -2.455  76.345   6.315  1.00  0.00     0.035 A 
HETATM   16  N5  UNL     1      -1.589  75.327   6.608  1.00  0.00    -0.323 N 
HETATM   17  C13 UNL     1      -0.298  75.595   6.698  1.00  0.00     0.273 A 
ATOM     18  H5  UNL     1      -1.934  74.379   6.754  1.00  0.00     0.169 HD
HETATM   19  O1  UNL     1       0.494  74.633   6.972  1.00  0.00    -0.266 OA
BRANCH  13  20
HETATM   20  C5  UNL     1      -2.903  78.734   5.737  1.00  0.00     0.059 C 
BRANCH  20  21
HETATM   21  C4  UNL     1      -2.185  80.042   5.526  1.00  0.00     0.006 C 
BRANCH  21  22
HETATM   22  C3  UNL     1      -3.103  81.221   5.511  1.00  0.00     0.000 C 
BRANCH  22  23
HETATM   23  C2  UNL     1      -2.428  82.516   5.136  1.00  0.00    -0.005 C 
HETATM   24  C1  UNL     1      -1.217  82.129   4.273  1.00  0.00     0.005 C 
ENDBRANCH  22  23
ENDBRANCH  21  22
ENDBRANCH  20  21
ENDBRANCH  13  20
BRANCH  15  25
HETATM   25  C15 UNL     1      -3.877  75.983   6.302  1.00  0.00     0.073 C 
BRANCH  25  26
HETATM   26  C16 UNL     1      -4.229  74.949   5.232  1.00  0.00     0.130 C 
HETATM   27  C17 UNL     1      -4.633  75.689   4.009  1.00  0.00     0.059 C 
HETATM   28  N6  UNL     1      -4.943  76.274   3.064  1.00  0.00    -0.197 NA
ENDBRANCH  25  26
ENDBRANCH  15  25
ENDBRANCH   1  11
TORSDOF 7
ENDMDL
MODEL 3
REMARK VINA RESULT: -7.196791318      2.318      4.772
REMARK  7 active torsions:
REMARK  status: ('A' for Active; 'I' for Inactive)
REMARK    1  A    between atoms: C2_2  and  C3_3 
REMARK    2  A    between atoms: C3_3  and  C4_4 
REMARK    3  A    between atoms: C4_4  and  C5_5 
REMARK    4  A    between atoms: C5_5  and  C6_6 
REMARK    5  A    between atoms: C7_9  and  C8_10 
REMARK    6  A    between atoms: C14_24  and  C15_25 
REMARK    7  A    between atoms: C15_25  and  C16_26 
ROOT
HETATM    1  C8  UNL     1       1.487  77.054   7.165  1.00  0.00     0.059 A 
HETATM    2  C9  UNL     1       2.523  77.094   6.257  1.00  0.00     0.143 A 
HETATM    3  C10 UNL     1       2.391  76.899   4.834  1.00  0.00     0.120 C 
HETATM    4  N2  UNL     1       2.292  76.729   3.690  1.00  0.00    -0.190 NA
HETATM    5  N3  UNL     1       3.663  77.347   6.958  1.00  0.00    -0.290 N 
ATOM      6  H3  UNL     1       4.592  77.433   6.547  1.00  0.00     0.188 HD
HETATM    7  N4  UNL     1       3.395  77.465   8.248  1.00  0.00    -0.303 N 
ATOM      8  H4  UNL     1       4.069  77.654   8.990  1.00  0.00     0.186 HD
HETATM    9  C11 UNL     1       2.066  77.290   8.402  1.00  0.00     0.037 A 
HETATM   10  C12 UNL     1       1.288  77.335   9.679  1.00  0.00     0.070 C 
ENDROOT
BRANCH   1  11
HETATM   11  C7  UNL     1       0.068  76.819   6.907  1.00  0.00     0.116 A 
HETATM   12  N1  UNL     1      -0.744  77.787   6.442  1.00  0.00    -0.353 N 
HETATM   13  C6  UNL     1      -2.075  77.567   6.194  1.00  0.00     0.032 A 
ATOM     14  H1  UNL     1      -0.356  78.714   6.267  1.00  0.00     0.166 HD
HETATM   15  C14 UNL     1      -2.571  76.314   6.440  1.00  0.00     0.035 A 
HETATM   16  N5  UNL     1      -1.764  75.315   6.913  1.00  0.00    -0.323 N 
HETATM   17  C13 UNL     1      -0.488  75.578   7.134  1.00  0.00     0.273 A 
ATOM     18  H5  UNL     1      -2.141  74.385   7.091  1.00  0.00     0.169 HD
HETATM   19  O1  UNL     1       0.248  74.634   7.574  1.00  0.00    -0.266 OA
BRANCH  13  20
HETATM   20  C5  UNL     1      -2.905  78.653   5.628  1.00  0.00     0.059 C 
BRANCH  20  21
HETATM   21  C4  UNL     1      -2.185  79.974   5.542  1.00  0.00     0.006 C 
BRANCH  21  22
HETATM   22  C3  UNL     1      -3.111  81.147   5.529  1.00  0.00     0.000 C 
BRANCH  22  23
HETATM   23  C2  UNL     1      -2.450  82.442   5.126  1.00  0.00    -0.005 C 
HETATM   24  C1  UNL     1      -1.272  82.053   4.218  1.00  0.00     0.005 C 
ENDBRANCH  22  23
ENDBRANCH  21  22
ENDBRANCH  20  21
ENDBRANCH  13  20
BRANCH  15  25
HETATM   25  C15 UNL     1      -3.988  75.964   6.287  1.00  0.00     0.073 C 
BRANCH  25  26
HETATM   26  C16 UNL     1      -4.243  74.943   5.178  1.00  0.00     0.130 C 
HETATM   27  C17 UNL     1      -4.599  75.696   3.948  1.00  0.00     0.059 C 
HETATM   28  N6  UNL     1      -4.871  76.290   2.998  1.00  0.00    -0.197 NA
ENDBRANCH  25  26
ENDBRANCH  15  25
ENDBRANCH   1  11
TORSDOF 7
ENDMDL
MODEL 4
REMARK VINA RESULT: -7.086325563      1.620      1.849
REMARK  7 active torsions:
REMARK  status: ('A' for Active; 'I' for Inactive)
REMARK    1  A    between atoms: C2_2  and  C3_3 
REMARK    2  A    between atoms: C3_3  and  C4_4 
REMARK    3  A    between atoms: C4_4  and  C5_5 
REMARK    4  A    between atoms: C5_5  and  C6_6 
REMARK    5  A    between atoms: C7_9  and  C8_10 
REMARK    6  A    between atoms: C14_24  and  C15_25 
REMARK    7  A    between atoms: C15_25  and  C16_26 
ROOT
HETATM    1  C8  UNL     1       1.672  76.616   7.589  1.00  0.00     0.059 A 
HETATM    2  C9  UNL     1       2.207  76.601   8.860  1.00  0.00     0.143 A 
HETATM    3  C10 UNL     1       1.802  77.461   9.944  1.00  0.00     0.120 C 
HETATM    4  N2  UNL     1       1.489  78.160  10.816  1.00  0.00    -0.190 NA
HETATM    5  N3  UNL     1       3.168  75.637   8.878  1.00  0.00    -0.290 N 
ATOM      6  H3  UNL     1       3.737  75.397   9.691  1.00  0.00     0.188 HD
HETATM    7  N4  UNL     1       3.262  75.054   7.695  1.00  0.00    -0.303 N 
ATOM      8  H4  UNL     1       3.902  74.302   7.441  1.00  0.00     0.186 HD
HETATM    9  C11 UNL     1       2.354  75.636   6.885  1.00  0.00     0.037 A 
HETATM   10  C12 UNL     1       2.080  75.315   5.450  1.00  0.00     0.070 C 
ENDROOT
BRANCH   1  11
HETATM   11  C7  UNL     1       0.606  77.471   7.068  1.00  0.00     0.116 A 
HETATM   12  N1  UNL     1      -0.646  77.014   6.875  1.00  0.00    -0.353 N 
HETATM   13  C6  UNL     1      -1.648  77.816   6.390  1.00  0.00     0.032 A 
ATOM     14  H1  UNL     1      -0.856  76.041   7.096  1.00  0.00     0.166 HD
HETATM   15  C14 UNL     1      -1.338  79.118   6.099  1.00  0.00     0.035 A 
HETATM   16  N5  UNL     1      -0.073  79.603   6.288  1.00  0.00    -0.323 N 
HETATM   17  C13 UNL     1       0.857  78.790   6.758  1.00  0.00     0.273 A 
ATOM     18  H5  UNL     1       0.148  80.574   6.070  1.00  0.00     0.169 HD
HETATM   19  O1  UNL     1       2.030  79.260   6.928  1.00  0.00    -0.266 OA
BRANCH  13  20
HETATM   20  C5  UNL     1      -3.018  77.276   6.254  1.00  0.00     0.059 C 
BRANCH  20  21
HETATM   21  C4  UNL     1      -3.058  75.777   6.094  1.00  0.00     0.006 C 
BRANCH  21  22
HETATM   22  C3  UNL     1      -3.210  75.342   4.672  1.00  0.00     0.000 C 
BRANCH  22  23
HETATM   23  C2  UNL     1      -4.447  74.517   4.416  1.00  0.00    -0.005 C 
HETATM   24  C1  UNL     1      -5.402  75.421   3.619  1.00  0.00     0.005 C 
ENDBRANCH  22  23
ENDBRANCH  21  22
ENDBRANCH  20  21
ENDBRANCH  13  20
BRANCH  15  25
HETATM   25  C15 UNL     1      -2.296  80.061   5.508  1.00  0.00     0.073 C 
BRANCH  25  26
HETATM   26  C16 UNL     1      -1.672  81.410   5.146  1.00  0.00     0.130 C 
HETATM   27  C17 UNL     1      -2.611  82.472   5.591  1.00  0.00     0.059 C 
HETATM   28  N6  UNL     1      -3.345  83.288   5.943  1.00  0.00    -0.197 NA
ENDBRANCH  25  26
ENDBRANCH  15  25
ENDBRANCH   1  11
TORSDOF 7
ENDMDL
MODEL 5
REMARK VINA RESULT: -7.074015210      0.715      2.146
REMARK  7 active torsions:
REMARK  status: ('A' for Active; 'I' for Inactive)
REMARK    1  A    between atoms: C2_2  and  C3_3 
REMARK    2  A    between atoms: C3_3  and  C4_4 
REMARK    3  A    between atoms: C4_4  and  C5_5 
REMARK    4  A    between atoms: C5_5  and  C6_6 
REMARK    5  A    between atoms: C7_9  and  C8_10 
REMARK    6  A    between atoms: C14_24  and  C15_25 
REMARK    7  A    between atoms: C15_25  and  C16_26 
ROOT
HETATM    1  C8  UNL     1       1.738  75.124   6.919  1.00  0.00     0.059 A 
HETATM    2  C9  UNL     1       2.696  74.658   6.044  1.00  0.00     0.143 A 
HETATM    3  C10 UNL     1       2.806  75.030   4.655  1.00  0.00     0.120 C 
HETATM    4  N2  UNL     1       2.891  75.317   3.533  1.00  0.00    -0.190 NA
HETATM    5  N3  UNL     1       3.490  73.798   6.739  1.00  0.00    -0.290 N 
ATOM      6  H3  UNL     1       4.288  73.297   6.348  1.00  0.00     0.188 HD
HETATM    7  N4  UNL     1       3.081  73.703   7.993  1.00  0.00    -0.303 N 
ATOM      8  H4  UNL     1       3.502  73.127   8.723  1.00  0.00     0.186 HD
HETATM    9  C11 UNL     1       2.007  74.507   8.131  1.00  0.00     0.037 A 
HETATM   10  C12 UNL     1       1.200  74.737   9.368  1.00  0.00     0.070 C 
ENDROOT
BRANCH   1  11
HETATM   11  C7  UNL     1       0.657  76.073   6.655  1.00  0.00     0.116 A 
HETATM   12  N1  UNL     1      -0.587  75.668   6.336  1.00  0.00    -0.353 N 
HETATM   13  C6  UNL     1      -1.603  76.557   6.093  1.00  0.00     0.032 A 
ATOM     14  H1  UNL     1      -0.780  74.669   6.274  1.00  0.00     0.166 HD
HETATM   15  C14 UNL     1      -1.316  77.894   6.181  1.00  0.00     0.035 A 
HETATM   16  N5  UNL     1      -0.059  78.326   6.505  1.00  0.00    -0.323 N 
HETATM   17  C13 UNL     1       0.885  77.430   6.731  1.00  0.00     0.273 A 
ATOM     18  H5  UNL     1       0.145  79.323   6.571  1.00  0.00     0.169 HD
HETATM   19  O1  UNL     1       2.050  77.853   7.031  1.00  0.00    -0.266 OA
BRANCH  13  20
HETATM   20  C5  UNL     1      -2.964  76.054   5.804  1.00  0.00     0.059 C 
BRANCH  20  21
HETATM   21  C4  UNL     1      -3.004  74.580   5.492  1.00  0.00     0.006 C 
BRANCH  21  22
HETATM   22  C3  UNL     1      -3.896  74.248   4.341  1.00  0.00     0.000 C 
BRANCH  22  23
HETATM   23  C2  UNL     1      -4.360  75.453   3.560  1.00  0.00    -0.005 C 
HETATM   24  C1  UNL     1      -5.890  75.339   3.472  1.00  0.00     0.005 C 
ENDBRANCH  22  23
ENDBRANCH  21  22
ENDBRANCH  20  21
ENDBRANCH  13  20
BRANCH  15  25
HETATM   25  C15 UNL     1      -2.290  78.949   5.877  1.00  0.00     0.073 C 
BRANCH  25  26
HETATM   26  C16 UNL     1      -1.642  80.295   5.552  1.00  0.00     0.130 C 
HETATM   27  C17 UNL     1      -2.721  81.316   5.515  1.00  0.00     0.059 C 
HETATM   28  N6  UNL     1      -3.565  82.100   5.493  1.00  0.00    -0.197 NA
ENDBRANCH  25  26
ENDBRANCH  15  25
ENDBRANCH   1  11
TORSDOF 7
ENDMDL
