MODEL 1
REMARK VINA RESULT: -4.901044006      0.000      0.000
REMARK  3 active torsions:
REMARK  status: ('A' for Active; 'I' for Inactive)
REMARK    1  A    between atoms: C6_6  and  N1_7 
REMARK    2  A    between atoms: N1_7  and  C7_10 
REMARK    3  A    between atoms: C9_12  and  N2_13 
ROOT
HETATM    1  N1  UNL     1      11.600  14.469  46.375  1.00  0.00    -0.064 N 
ATOM      2  H11 UNL     1      12.243  15.077  46.883  1.00  0.00     0.278 HD
ATOM      3  H12 UNL     1      11.835  13.605  46.862  1.00  0.00     0.278 HD
ENDROOT
BRANCH   1   4
HETATM    4  C6  UNL     1      11.856  14.419  44.962  1.00  0.00     0.194 C 
HETATM    5  C2  UNL     1      13.080  15.113  44.470  1.00  0.00    -0.019 C 
HETATM    6  C1  UNL     1      14.282  15.101  45.361  1.00  0.00     0.017 C 
HETATM    7  C3  UNL     1      12.736  16.464  43.879  1.00  0.00     0.017 C 
HETATM    8  C4  UNL     1      13.185  14.004  43.440  1.00  0.00     0.013 C 
HETATM    9  C5  UNL     1      12.482  13.132  44.464  1.00  0.00     0.034 C 
ENDBRANCH   1   4
BRANCH   1  10
HETATM   10  C7  UNL     1      10.185  14.858  46.519  1.00  0.00     0.218 A 
HETATM   11  C8  UNL     1       9.589  14.866  47.880  1.00  0.00     0.070 A 
HETATM   12  C9  UNL     1       9.177  13.812  46.851  1.00  0.00     0.216 A 
BRANCH  12  13
HETATM   13  N2  UNL     1       7.857  13.984  46.241  1.00  0.00    -0.073 N 
ATOM     14  H23 UNL     1       7.552  14.952  46.340  1.00  0.00     0.274 HD
ATOM     15  H22 UNL     1       7.933  13.920  45.226  1.00  0.00     0.274 HD
ATOM     16  H21 UNL     1       7.128  13.354  46.576  1.00  0.00     0.274 HD
ENDBRANCH  12  13
ENDBRANCH   1  10
TORSDOF 3
ENDMDL
MODEL 2
REMARK VINA RESULT: -4.831277521      1.162      1.325
REMARK  3 active torsions:
REMARK  status: ('A' for Active; 'I' for Inactive)
REMARK    1  A    between atoms: C6_6  and  N1_7 
REMARK    2  A    between atoms: N1_7  and  C7_10 
REMARK    3  A    between atoms: C9_12  and  N2_13 
ROOT
HETATM    1  N1  UNL     1      12.021  13.366  45.206  1.00  0.00    -0.064 N 
ATOM      2  H11 UNL     1      12.604  13.519  46.028  1.00  0.00     0.278 HD
ATOM      3  H12 UNL     1      12.267  12.387  45.060  1.00  0.00     0.278 HD
ENDROOT
BRANCH   1   4
HETATM    4  C6  UNL     1      12.360  14.214  44.097  1.00  0.00     0.194 C 
HETATM    5  C2  UNL     1      13.278  15.356  44.373  1.00  0.00    -0.019 C 
HETATM    6  C1  UNL     1      14.349  15.145  45.397  1.00  0.00     0.017 C 
HETATM    7  C3  UNL     1      12.505  16.650  44.513  1.00  0.00     0.017 C 
HETATM    8  C4  UNL     1      13.837  15.125  42.981  1.00  0.00     0.013 C 
HETATM    9  C5  UNL     1      13.437  13.674  43.176  1.00  0.00     0.034 C 
ENDBRANCH   1   4
BRANCH   1  10
HETATM   10  C7  UNL     1      10.584  13.579  45.456  1.00  0.00     0.218 A 
HETATM   11  C8  UNL     1      10.168  14.103  46.783  1.00  0.00     0.070 A 
HETATM   12  C9  UNL     1       9.866  12.658  46.383  1.00  0.00     0.216 A 
BRANCH  12  13
HETATM   13  N2  UNL     1       8.476  12.360  46.033  1.00  0.00    -0.073 N 
ATOM     14  H23 UNL     1       7.949  13.227  45.934  1.00  0.00     0.274 HD
ATOM     15  H22 UNL     1       8.427  12.006  45.078  1.00  0.00     0.274 HD
ATOM     16  H21 UNL     1       7.986  11.725  46.664  1.00  0.00     0.274 HD
ENDBRANCH  12  13
ENDBRANCH   1  10
TORSDOF 3
ENDMDL
MODEL 3
REMARK VINA RESULT: -4.815997419      0.826      1.110
REMARK  3 active torsions:
REMARK  status: ('A' for Active; 'I' for Inactive)
REMARK    1  A    between atoms: C6_6  and  N1_7 
REMARK    2  A    between atoms: N1_7  and  C7_10 
REMARK    3  A    between atoms: C9_12  and  N2_13 
ROOT
HETATM    1  N1  UNL     1      11.567  14.174  46.110  1.00  0.00    -0.064 N 
ATOM      2  H11 UNL     1      12.154  14.758  46.705  1.00  0.00     0.278 HD
ATOM      3  H12 UNL     1      11.792  13.282  46.550  1.00  0.00     0.278 HD
ENDROOT
BRANCH   1   4
HETATM    4  C6  UNL     1      11.924  14.233  44.720  1.00  0.00     0.194 C 
HETATM    5  C2  UNL     1      13.135  15.026  44.363  1.00  0.00    -0.019 C 
HETATM    6  C1  UNL     1      14.270  15.022  45.339  1.00  0.00     0.017 C 
HETATM    7  C3  UNL     1      12.751  16.392  43.834  1.00  0.00     0.017 C 
HETATM    8  C4  UNL     1      13.380  13.995  43.277  1.00  0.00     0.013 C 
HETATM    9  C5  UNL     1      12.661  13.018  44.189  1.00  0.00     0.034 C 
ENDBRANCH   1   4
BRANCH   1  10
HETATM   10  C7  UNL     1      10.135  14.518  46.177  1.00  0.00     0.218 A 
HETATM   11  C8  UNL     1       9.713  15.875  45.744  1.00  0.00     0.070 A 
HETATM   12  C9  UNL     1       9.668  15.476  47.220  1.00  0.00     0.216 A 
BRANCH  12  13
HETATM   13  N2  UNL     1       8.342  15.211  47.779  1.00  0.00    -0.073 N 
ATOM     14  H23 UNL     1       7.801  16.075  47.815  1.00  0.00     0.274 HD
ATOM     15  H22 UNL     1       7.785  14.675  47.113  1.00  0.00     0.274 HD
ATOM     16  H21 UNL     1       8.328  14.753  48.691  1.00  0.00     0.274 HD
ENDBRANCH  12  13
ENDBRANCH   1  10
TORSDOF 3
ENDMDL
MODEL 4
REMARK VINA RESULT: -4.785819782      1.073      1.929
REMARK  3 active torsions:
REMARK  status: ('A' for Active; 'I' for Inactive)
REMARK    1  A    between atoms: C6_6  and  N1_7 
REMARK    2  A    between atoms: N1_7  and  C7_10 
REMARK    3  A    between atoms: C9_12  and  N2_13 
ROOT
HETATM    1  N1  UNL     1      10.826  15.671  45.332  1.00  0.00    -0.064 N 
ATOM      2  H11 UNL     1      10.648  15.808  44.337  1.00  0.00     0.278 HD
ATOM      3  H12 UNL     1      10.852  16.657  45.590  1.00  0.00     0.278 HD
ENDROOT
BRANCH   1   4
HETATM    4  C6  UNL     1      12.052  14.975  45.605  1.00  0.00     0.194 C 
HETATM    5  C2  UNL     1      12.980  14.761  44.458  1.00  0.00    -0.019 C 
HETATM    6  C1  UNL     1      13.046  15.835  43.418  1.00  0.00     0.017 C 
HETATM    7  C3  UNL     1      12.855  13.353  43.915  1.00  0.00     0.017 C 
HETATM    8  C4  UNL     1      14.109  14.934  45.456  1.00  0.00     0.013 C 
HETATM    9  C5  UNL     1      13.147  15.815  46.231  1.00  0.00     0.034 C 
ENDBRANCH   1   4
BRANCH   1  10
HETATM   10  C7  UNL     1       9.765  14.912  46.019  1.00  0.00     0.218 A 
HETATM   11  C8  UNL     1       9.918  14.640  47.472  1.00  0.00     0.070 A 
HETATM   12  C9  UNL     1      10.039  13.510  46.448  1.00  0.00     0.216 A 
BRANCH  12  13
HETATM   13  N2  UNL     1       8.907  12.587  46.366  1.00  0.00    -0.073 N 
ATOM     14  H23 UNL     1       9.042  11.939  45.590  1.00  0.00     0.274 HD
ATOM     15  H22 UNL     1       8.930  11.937  47.151  1.00  0.00     0.274 HD
ATOM     16  H21 UNL     1       7.985  13.020  46.300  1.00  0.00     0.274 HD
ENDBRANCH  12  13
ENDBRANCH   1  10
TORSDOF 3
ENDMDL
MODEL 5
REMARK VINA RESULT: -4.689390732      0.885      1.747
REMARK  3 active torsions:
REMARK  status: ('A' for Active; 'I' for Inactive)
REMARK    1  A    between atoms: C6_6  and  N1_7 
REMARK    2  A    between atoms: N1_7  and  C7_10 
REMARK    3  A    between atoms: C9_12  and  N2_13 
ROOT
HETATM    1  N1  UNL     1      11.531  14.850  47.056  1.00  0.00    -0.064 N 
ATOM      2  H11 UNL     1      11.873  14.947  48.012  1.00  0.00     0.278 HD
ATOM      3  H12 UNL     1      11.765  13.865  46.941  1.00  0.00     0.278 HD
ENDROOT
BRANCH   1   4
HETATM    4  C6  UNL     1      12.200  15.711  46.120  1.00  0.00     0.194 C 
HETATM    5  C2  UNL     1      13.097  15.061  45.122  1.00  0.00    -0.019 C 
HETATM    6  C1  UNL     1      12.693  13.714  44.611  1.00  0.00     0.017 C 
HETATM    7  C3  UNL     1      14.547  15.178  45.540  1.00  0.00     0.017 C 
HETATM    8  C4  UNL     1      12.650  16.140  44.153  1.00  0.00     0.013 C 
HETATM    9  C5  UNL     1      11.357  16.169  44.946  1.00  0.00     0.034 C 
ENDBRANCH   1   4
BRANCH   1  10
HETATM   10  C7  UNL     1      10.092  15.134  46.914  1.00  0.00     0.218 A 
HETATM   11  C8  UNL     1       9.248  15.136  48.137  1.00  0.00     0.070 A 
HETATM   12  C9  UNL     1       9.114  14.024  47.095  1.00  0.00     0.216 A 
BRANCH  12  13
HETATM   13  N2  UNL     1       7.926  14.077  46.240  1.00  0.00    -0.073 N 
ATOM     14  H23 UNL     1       7.724  15.044  45.985  1.00  0.00     0.274 HD
ATOM     15  H22 UNL     1       8.141  13.688  45.323  1.00  0.00     0.274 HD
ATOM     16  H21 UNL     1       7.088  13.635  46.618  1.00  0.00     0.274 HD
ENDBRANCH  12  13
ENDBRANCH   1  10
TORSDOF 3
ENDMDL
