MODEL 1
REMARK VINA RESULT: -5.453610557      0.000      0.000
REMARK  2 active torsions:
REMARK  status: ('A' for Active; 'I' for Inactive)
REMARK    1  A    between atoms: C4_4  and  N1_5 
REMARK    2  A    between atoms: N1_5  and  C5_8 
ROOT
HETATM    1  N1  UNL     1      12.147  14.076  45.164  1.00  0.00    -0.042 N 
ATOM      2  H11 UNL     1      12.126  15.069  45.395  1.00  0.00     0.280 HD
ATOM      3  H12 UNL     1      12.442  13.710  46.069  1.00  0.00     0.280 HD
ENDROOT
BRANCH   1   4
HETATM    4  C4  UNL     1      13.109  13.795  44.147  1.00  0.00     0.188 C 
HETATM    5  C3  UNL     1      12.727  12.590  43.290  1.00  0.00     0.033 C 
HETATM    6  C2  UNL     1      13.326  12.867  41.914  1.00  0.00     0.002 C 
HETATM    7  C1  UNL     1      14.119  14.157  42.087  1.00  0.00     0.002 C 
HETATM    8  C8  UNL     1      13.226  14.874  43.095  1.00  0.00     0.033 C 
ENDBRANCH   1   4
BRANCH   1   9
HETATM    9  C5  UNL     1      10.842  13.591  44.798  1.00  0.00     0.384 C 
HETATM   10  C6  UNL     1      10.183  12.665  45.784  1.00  0.00     0.090 C 
HETATM   11  C7  UNL     1       9.518  13.903  46.336  1.00  0.00     0.238 C 
HETATM   12  N2  UNL     1       9.776  14.541  45.058  1.00  0.00    -0.046 N 
ATOM     13  H22 UNL     1       9.964  15.542  45.016  1.00  0.00     0.279 HD
ATOM     14  H21 UNL     1       9.019  14.655  44.383  1.00  0.00     0.279 HD
ENDBRANCH   1   9
TORSDOF 2
ENDMDL
MODEL 2
REMARK VINA RESULT: -5.128778603      0.798      1.495
REMARK  2 active torsions:
REMARK  status: ('A' for Active; 'I' for Inactive)
REMARK    1  A    between atoms: C4_4  and  N1_5 
REMARK    2  A    between atoms: N1_5  and  C5_8 
ROOT
HETATM    1  N1  UNL     1      12.058  13.293  44.469  1.00  0.00    -0.042 N 
ATOM      2  H11 UNL     1      12.484  14.100  44.925  1.00  0.00     0.280 HD
ATOM      3  H12 UNL     1      12.500  12.553  45.015  1.00  0.00     0.280 HD
ENDROOT
BRANCH   1   4
HETATM    4  C4  UNL     1      12.423  13.217  43.091  1.00  0.00     0.188 C 
HETATM    5  C3  UNL     1      13.510  14.219  42.712  1.00  0.00     0.033 C 
HETATM    6  C2  UNL     1      14.290  13.560  41.578  1.00  0.00     0.002 C 
HETATM    7  C1  UNL     1      13.536  12.269  41.287  1.00  0.00     0.002 C 
HETATM    8  C8  UNL     1      13.081  11.914  42.699  1.00  0.00     0.033 C 
ENDBRANCH   1   4
BRANCH   1   9
HETATM    9  C5  UNL     1      10.629  13.288  44.633  1.00  0.00     0.384 C 
HETATM   10  C6  UNL     1      10.115  12.718  45.927  1.00  0.00     0.090 C 
HETATM   11  C7  UNL     1      10.122  14.141  46.431  1.00  0.00     0.238 C 
HETATM   12  N2  UNL     1      10.086  14.570  45.044  1.00  0.00    -0.046 N 
ATOM     13  H22 UNL     1      10.552  15.433  44.765  1.00  0.00     0.279 HD
ATOM     14  H21 UNL     1       9.214  14.909  44.637  1.00  0.00     0.279 HD
ENDBRANCH   1   9
TORSDOF 2
ENDMDL
MODEL 3
REMARK VINA RESULT: -5.082468775      2.079      2.635
REMARK  2 active torsions:
REMARK  status: ('A' for Active; 'I' for Inactive)
REMARK    1  A    between atoms: C4_4  and  N1_5 
REMARK    2  A    between atoms: N1_5  and  C5_8 
ROOT
HETATM    1  N1  UNL     1      12.884  13.481  44.372  1.00  0.00    -0.042 N 
ATOM      2  H11 UNL     1      13.620  12.968  44.856  1.00  0.00     0.280 HD
ATOM      3  H12 UNL     1      12.082  13.147  44.907  1.00  0.00     0.280 HD
ENDROOT
BRANCH   1   4
HETATM    4  C4  UNL     1      12.794  13.099  43.000  1.00  0.00     0.188 C 
HETATM    5  C3  UNL     1      13.850  13.775  42.129  1.00  0.00     0.033 C 
HETATM    6  C2  UNL     1      14.139  12.786  41.002  1.00  0.00     0.002 C 
HETATM    7  C1  UNL     1      13.148  11.649  41.220  1.00  0.00     0.002 C 
HETATM    8  C8  UNL     1      13.098  11.641  42.745  1.00  0.00     0.033 C 
ENDBRANCH   1   4
BRANCH   1   9
HETATM    9  C5  UNL     1      13.055  14.903  44.509  1.00  0.00     0.384 C 
HETATM   10  C6  UNL     1      11.797  15.727  44.458  1.00  0.00     0.090 C 
HETATM   11  C7  UNL     1      11.800  15.627  45.964  1.00  0.00     0.238 C 
HETATM   12  N2  UNL     1      13.221  15.339  45.884  1.00  0.00    -0.046 N 
ATOM     13  H22 UNL     1      13.654  14.718  46.567  1.00  0.00     0.279 HD
ATOM     14  H21 UNL     1      13.902  16.063  46.111  1.00  0.00     0.279 HD
ENDBRANCH   1   9
TORSDOF 2
ENDMDL
MODEL 4
REMARK VINA RESULT: -5.044888629      2.638      4.785
REMARK  2 active torsions:
REMARK  status: ('A' for Active; 'I' for Inactive)
REMARK    1  A    between atoms: C4_4  and  N1_5 
REMARK    2  A    between atoms: N1_5  and  C5_8 
ROOT
HETATM    1  N1  UNL     1      13.302  11.963  42.486  1.00  0.00    -0.042 N 
ATOM      2  H11 UNL     1      12.978  11.240  43.127  1.00  0.00     0.280 HD
ATOM      3  H12 UNL     1      14.297  11.940  42.714  1.00  0.00     0.280 HD
ENDROOT
BRANCH   1   4
HETATM    4  C4  UNL     1      12.724  13.232  42.791  1.00  0.00     0.188 C 
HETATM    5  C3  UNL     1      12.058  13.261  44.164  1.00  0.00     0.033 C 
HETATM    6  C2  UNL     1      12.193  14.702  44.649  1.00  0.00     0.002 C 
HETATM    7  C1  UNL     1      12.823  15.448  43.478  1.00  0.00     0.002 C 
HETATM    8  C8  UNL     1      13.731  14.350  42.933  1.00  0.00     0.033 C 
ENDBRANCH   1   4
BRANCH   1   9
HETATM    9  C5  UNL     1      13.067  11.596  41.115  1.00  0.00     0.384 C 
HETATM   10  C6  UNL     1      14.102  12.050  40.122  1.00  0.00     0.090 C 
HETATM   11  C7  UNL     1      14.735  10.696  40.328  1.00  0.00     0.238 C 
HETATM   12  N2  UNL     1      13.446  10.230  40.805  1.00  0.00    -0.046 N 
ATOM     13  H22 UNL     1      13.398   9.511  41.527  1.00  0.00     0.279 HD
ATOM     14  H21 UNL     1      12.853   9.661  40.200  1.00  0.00     0.279 HD
ENDBRANCH   1   9
TORSDOF 2
ENDMDL
MODEL 5
REMARK VINA RESULT: -4.993546733      1.265      1.325
REMARK  2 active torsions:
REMARK  status: ('A' for Active; 'I' for Inactive)
REMARK    1  A    between atoms: C4_4  and  N1_5 
REMARK    2  A    between atoms: N1_5  and  C5_8 
ROOT
HETATM    1  N1  UNL     1      11.706  13.530  44.767  1.00  0.00    -0.042 N 
ATOM      2  H11 UNL     1      11.795  12.909  45.572  1.00  0.00     0.280 HD
ATOM      3  H12 UNL     1      10.922  13.072  44.302  1.00  0.00     0.280 HD
ENDROOT
BRANCH   1   4
HETATM    4  C4  UNL     1      12.881  13.509  43.957  1.00  0.00     0.188 C 
HETATM    5  C3  UNL     1      12.820  12.454  42.856  1.00  0.00     0.033 C 
HETATM    6  C2  UNL     1      13.654  13.017  41.709  1.00  0.00     0.002 C 
HETATM    7  C1  UNL     1      14.246  14.310  42.258  1.00  0.00     0.002 C 
HETATM    8  C8  UNL     1      13.091  14.765  43.144  1.00  0.00     0.033 C 
ENDBRANCH   1   4
BRANCH   1   9
HETATM    9  C5  UNL     1      11.371  14.870  45.169  1.00  0.00     0.384 C 
HETATM   10  C6  UNL     1       9.921  15.123  45.482  1.00  0.00     0.090 C 
HETATM   11  C7  UNL     1      10.292  14.834  46.916  1.00  0.00     0.238 C 
HETATM   12  N2  UNL     1      11.665  15.150  46.563  1.00  0.00    -0.046 N 
ATOM     13  H22 UNL     1      12.434  14.669  47.028  1.00  0.00     0.279 HD
ATOM     14  H21 UNL     1      12.066  16.049  46.830  1.00  0.00     0.279 HD
ENDBRANCH   1   9
TORSDOF 2
ENDMDL
