MODEL 1
REMARK VINA RESULT: -5.379974972      0.000      0.000
REMARK  3 active torsions:
REMARK  status: ('A' for Active; 'I' for Inactive)
REMARK    1  A    between atoms: C2_2  and  N1_3 
REMARK    2  A    between atoms: N1_3  and  C3_5 
REMARK    3  A    between atoms: C5_9  and  C6_10 
ROOT
HETATM    1  C3  UNL     1      14.895  14.181  41.807  1.00  0.00     0.685 C 
HETATM    2  N2  UNL     1      13.916  13.670  42.465  1.00  0.00    -0.224 N 
ATOM      3  H2  UNL     1      13.486  14.243  43.191  1.00  0.00     0.177 HD
HETATM    4  C4  UNL     1      13.379  12.354  42.256  1.00  0.00     0.161 C 
HETATM    5  C5  UNL     1      14.292  11.562  41.387  1.00  0.00     0.121 C 
HETATM    6  N3  UNL     1      14.704  12.352  40.260  1.00  0.00    -0.119 NA
HETATM    7  N4  UNL     1      15.512  13.398  40.780  1.00  0.00    -0.136 N 
ATOM      8  H4  UNL     1      16.460  13.578  40.447  1.00  0.00     0.201 HD
ENDROOT
BRANCH   1   9
HETATM    9  N1  UNL     1      15.357  15.501  42.088  1.00  0.00    -0.226 N 
ATOM     10  H1  UNL     1      15.413  15.795  43.063  1.00  0.00     0.177 HD
BRANCH   9  11
HETATM   11  C2  UNL     1      15.749  16.447  41.063  1.00  0.00     0.133 C 
HETATM   12  C1  UNL     1      15.212  17.819  41.363  1.00  0.00     0.027 C 
ENDBRANCH   9  11
ENDBRANCH   1   9
BRANCH   5  13
HETATM   13  C6  UNL     1      13.719  10.223  40.989  1.00  0.00     0.000 C 
HETATM   14  C7  UNL     1      14.768   9.208  40.640  1.00  0.00     0.011 C 
HETATM   15  C8  UNL     1      12.834   9.725  42.078  1.00  0.00     0.011 C 
ENDBRANCH   5  13
TORSDOF 3
ENDMDL
MODEL 2
REMARK VINA RESULT: -5.372872891      3.065      3.952
REMARK  3 active torsions:
REMARK  status: ('A' for Active; 'I' for Inactive)
REMARK    1  A    between atoms: C2_2  and  N1_3 
REMARK    2  A    between atoms: N1_3  and  C3_5 
REMARK    3  A    between atoms: C5_9  and  C6_10 
ROOT
HETATM    1  C3  UNL     1      13.909  15.189  44.809  1.00  0.00     0.685 C 
HETATM    2  N2  UNL     1      14.510  15.334  43.681  1.00  0.00    -0.224 N 
ATOM      3  H2  UNL     1      15.075  16.173  43.553  1.00  0.00     0.177 HD
HETATM    4  C4  UNL     1      14.446  14.405  42.587  1.00  0.00     0.161 C 
HETATM    5  C5  UNL     1      13.365  13.410  42.825  1.00  0.00     0.121 C 
HETATM    6  N3  UNL     1      13.437  12.920  44.173  1.00  0.00    -0.119 NA
HETATM    7  N4  UNL     1      13.113  14.018  45.014  1.00  0.00    -0.136 N 
ATOM      8  H4  UNL     1      12.369  13.975  45.711  1.00  0.00     0.201 HD
ENDROOT
BRANCH   1   9
HETATM    9  N1  UNL     1      14.036  16.169  45.838  1.00  0.00    -0.226 N 
ATOM     10  H1  UNL     1      13.982  17.153  45.575  1.00  0.00     0.177 HD
BRANCH   9  11
HETATM   11  C2  UNL     1      14.237  15.842  47.235  1.00  0.00     0.133 C 
HETATM   12  C1  UNL     1      15.553  15.145  47.440  1.00  0.00     0.027 C 
ENDBRANCH   9  11
ENDBRANCH   1   9
BRANCH   5  13
HETATM   13  C6  UNL     1      13.342  12.303  41.798  1.00  0.00     0.000 C 
HETATM   14  C7  UNL     1      14.449  12.404  40.788  1.00  0.00     0.011 C 
HETATM   15  C8  UNL     1      13.373  10.988  42.496  1.00  0.00     0.011 C 
ENDBRANCH   5  13
TORSDOF 3
ENDMDL
MODEL 3
REMARK VINA RESULT: -5.362870902      4.647      5.815
REMARK  3 active torsions:
REMARK  status: ('A' for Active; 'I' for Inactive)
REMARK    1  A    between atoms: C2_2  and  N1_3 
REMARK    2  A    between atoms: N1_3  and  C3_5 
REMARK    3  A    between atoms: C5_9  and  C6_10 
ROOT
HETATM    1  C3  UNL     1      13.500  15.590  46.771  1.00  0.00     0.685 C 
HETATM    2  N2  UNL     1      14.542  15.952  46.112  1.00  0.00    -0.224 N 
ATOM      3  H2  UNL     1      15.237  16.516  46.601  1.00  0.00     0.177 HD
HETATM    4  C4  UNL     1      14.805  15.622  44.738  1.00  0.00     0.161 C 
HETATM    5  C5  UNL     1      13.581  15.063  44.104  1.00  0.00     0.121 C 
HETATM    6  N3  UNL     1      12.983  14.085  44.970  1.00  0.00    -0.119 NA
HETATM    7  N4  UNL     1      12.512  14.794  46.107  1.00  0.00    -0.136 N 
ATOM      8  H4  UNL     1      11.545  14.740  46.427  1.00  0.00     0.201 HD
ENDROOT
BRANCH   1   9
HETATM    9  N1  UNL     1      13.329  15.966  48.137  1.00  0.00    -0.226 N 
ATOM     10  H1  UNL     1      13.747  15.376  48.855  1.00  0.00     0.177 HD
BRANCH   9  11
HETATM   11  C2  UNL     1      12.592  17.141  48.557  1.00  0.00     0.133 C 
HETATM   12  C1  UNL     1      11.244  16.764  49.102  1.00  0.00     0.027 C 
ENDBRANCH   9  11
ENDBRANCH   1   9
BRANCH   5  13
HETATM   13  C6  UNL     1      13.821  14.542  42.707  1.00  0.00     0.000 C 
HETATM   14  C7  UNL     1      15.219  14.782  42.215  1.00  0.00     0.011 C 
HETATM   15  C8  UNL     1      13.479  13.094  42.659  1.00  0.00     0.011 C 
ENDBRANCH   5  13
TORSDOF 3
ENDMDL
MODEL 4
REMARK VINA RESULT: -5.273570603      1.129      1.745
REMARK  3 active torsions:
REMARK  status: ('A' for Active; 'I' for Inactive)
REMARK    1  A    between atoms: C2_2  and  N1_3 
REMARK    2  A    between atoms: N1_3  and  C3_5 
REMARK    3  A    between atoms: C5_9  and  C6_10 
ROOT
HETATM    1  C3  UNL     1      14.514  14.689  42.556  1.00  0.00     0.685 C 
HETATM    2  N2  UNL     1      15.126  14.091  41.596  1.00  0.00    -0.224 N 
ATOM      3  H2  UNL     1      15.880  14.596  41.131  1.00  0.00     0.177 HD
HETATM    4  C4  UNL     1      14.830  12.765  41.129  1.00  0.00     0.161 C 
HETATM    5  C5  UNL     1      13.539  12.297  41.703  1.00  0.00     0.121 C 
HETATM    6  N3  UNL     1      13.495  12.583  43.110  1.00  0.00    -0.119 NA
HETATM    7  N4  UNL     1      13.455  13.999  43.228  1.00  0.00    -0.136 N 
ATOM      8  H4  UNL     1      12.727  14.486  43.751  1.00  0.00     0.201 HD
ENDROOT
BRANCH   1   9
HETATM    9  N1  UNL     1      14.883  16.010  42.950  1.00  0.00    -0.226 N 
ATOM     10  H1  UNL     1      15.570  16.116  43.696  1.00  0.00     0.177 HD
BRANCH   9  11
HETATM   11  C2  UNL     1      14.333  17.208  42.347  1.00  0.00     0.133 C 
HETATM   12  C1  UNL     1      15.202  17.690  41.220  1.00  0.00     0.027 C 
ENDBRANCH   9  11
ENDBRANCH   1   9
BRANCH   5  13
HETATM   13  C6  UNL     1      13.239  10.851  41.388  1.00  0.00     0.000 C 
HETATM   14  C7  UNL     1      14.234  10.227  40.452  1.00  0.00     0.011 C 
HETATM   15  C8  UNL     1      13.147  10.083  42.660  1.00  0.00     0.011 C 
ENDBRANCH   5  13
TORSDOF 3
ENDMDL
MODEL 5
REMARK VINA RESULT: -5.248936649      2.114      5.934
REMARK  3 active torsions:
REMARK  status: ('A' for Active; 'I' for Inactive)
REMARK    1  A    between atoms: C2_2  and  N1_3 
REMARK    2  A    between atoms: N1_3  and  C3_5 
REMARK    3  A    between atoms: C5_9  and  C6_10 
ROOT
HETATM    1  C3  UNL     1      15.837  15.222  41.079  1.00  0.00     0.685 C 
HETATM    2  N2  UNL     1      15.449  15.011  42.287  1.00  0.00    -0.224 N 
ATOM      3  H2  UNL     1      15.418  14.044  42.609  1.00  0.00     0.177 HD
HETATM    4  C4  UNL     1      15.058  16.033  43.217  1.00  0.00     0.161 C 
HETATM    5  C5  UNL     1      14.880  17.329  42.508  1.00  0.00     0.121 C 
HETATM    6  N3  UNL     1      15.987  17.559  41.621  1.00  0.00    -0.119 NA
HETATM    7  N4  UNL     1      15.894  16.571  40.604  1.00  0.00    -0.136 N 
ATOM      8  H4  UNL     1      15.870  16.805  39.611  1.00  0.00     0.201 HD
ENDROOT
BRANCH   1   9
HETATM    9  N1  UNL     1      16.208  14.138  40.229  1.00  0.00    -0.226 N 
ATOM     10  H1  UNL     1      16.667  14.354  39.344  1.00  0.00     0.177 HD
BRANCH   9  11
HETATM   11  C2  UNL     1      15.968  12.746  40.555  1.00  0.00     0.133 C 
HETATM   12  C1  UNL     1      14.552  12.356  40.234  1.00  0.00     0.027 C 
ENDBRANCH   9  11
ENDBRANCH   1   9
BRANCH   5  13
HETATM   13  C6  UNL     1      14.626  18.487  43.443  1.00  0.00     0.000 C 
HETATM   14  C7  UNL     1      14.834  19.828  42.799  1.00  0.00     0.011 C 
HETATM   15  C8  UNL     1      13.252  18.371  44.005  1.00  0.00     0.011 C 
ENDBRANCH   5  13
TORSDOF 3
ENDMDL
