MODEL 1
REMARK VINA RESULT: -6.127882611      0.000      0.000
REMARK  11 active torsions:
REMARK  status: ('A' for Active; 'I' for Inactive)
REMARK    1  A    between atoms: C2_2  and  O1_3 
REMARK    2  A    between atoms: O1_3  and  C3_4 
REMARK    3  A    between atoms: C3_4  and  O2_5 
REMARK    4  A    between atoms: C3_4  and  C4_7 
REMARK    5  A    between atoms: C4_7  and  C5_9 
REMARK    6  A    between atoms: C5_9  and  S2_11 
REMARK    7  A    between atoms: C5_9  and  C8_13 
REMARK    8  A    between atoms: C8_13  and  O4_15 
REMARK    9  A    between atoms: O4_15  and  N1_16 
REMARK   10  A    between atoms: N1_16  and  C9_18 
REMARK   11  A    between atoms: C10_21  and  O5_23 
ROOT
HETATM    1  C8  UNL     1     112.436  96.184  23.519  1.00  0.00     0.300 C 
HETATM    2  O3  UNL     1     113.248  96.800  22.789  1.00  0.00    -0.261 OA
ENDROOT
BRANCH   1   3
HETATM    3  C5  UNL     1     111.529  95.191  22.897  1.00  0.00     0.111 C 
HETATM    4  C6  UNL     1     110.167  95.325  23.567  1.00  0.00     0.039 C 
BRANCH   3   5
HETATM    5  C4  UNL     1     111.992  93.792  23.124  1.00  0.00     0.141 C 
HETATM    6  S1  UNL     1     112.804  93.060  21.673  1.00  0.00    -0.085 SA
BRANCH   5   7
HETATM    7  C3  UNL     1     110.965  92.840  23.612  1.00  0.00     0.273 C 
BRANCH   7   8
HETATM    8  O1  UNL     1     110.644  91.803  22.784  1.00  0.00    -0.361 OA
BRANCH   8   9
HETATM    9  C2  UNL     1     109.408  91.846  22.199  1.00  0.00     0.166 C 
HETATM   10  C1  UNL     1     108.249  91.867  23.147  1.00  0.00     0.033 C 
ENDBRANCH   8   9
ENDBRANCH   7   8
BRANCH   7  11
HETATM   11  O2  UNL     1     111.362  92.267  24.846  1.00  0.00    -0.370 OA
ATOM     12  H2  UNL     1     112.292  92.436  24.938  1.00  0.00     0.212 HD
ENDBRANCH   7  11
ENDBRANCH   5   7
ENDBRANCH   3   5
BRANCH   3  13
HETATM   13  S2  UNL     1     111.304  95.649  21.181  1.00  0.00    -0.152 SA
HETATM   14  C7  UNL     1     109.734  95.181  20.472  1.00  0.00     0.091 C 
ENDBRANCH   3  13
ENDBRANCH   1   3
BRANCH   1  15
HETATM   15  O4  UNL     1     112.455  96.484  24.854  1.00  0.00    -0.195 OA
BRANCH  15  16
HETATM   16  N1  UNL     1     113.145  95.878  25.842  1.00  0.00    -0.227 N 
ATOM     17  H1  UNL     1     114.119  96.149  25.973  1.00  0.00     0.198 HD
BRANCH  16  18
HETATM   18  C9  UNL     1     112.616  94.894  26.711  1.00  0.00     0.198 C 
HETATM   19  N2  UNL     1     113.326  94.109  27.443  1.00  0.00    -0.328 N 
HETATM   20  C10 UNL     1     112.486  93.218  28.217  1.00  0.00     0.146 C 
ATOM     21  H2  UNL     1     114.346  94.112  27.473  1.00  0.00     0.165 HD
HETATM   22  C11 UNL     1     112.991  93.088  29.640  1.00  0.00     0.072 C 
HETATM   23  C12 UNL     1     111.138  93.894  28.145  1.00  0.00     0.183 C 
HETATM   24  N3  UNL     1     111.231  94.631  26.900  1.00  0.00    -0.356 N 
ATOM     25  H3  UNL     1     110.463  94.904  26.287  1.00  0.00     0.162 HD
BRANCH  20  26
HETATM   26  O5  UNL     1     112.456  91.992  27.568  1.00  0.00    -0.369 OA
ATOM     27  H5  UNL     1     111.575  91.642  27.647  1.00  0.00     0.212 HD
ENDBRANCH  20  26
ENDBRANCH  16  18
ENDBRANCH  15  16
ENDBRANCH   1  15
TORSDOF 11
ENDMDL
MODEL 2
REMARK VINA RESULT: -6.105358762      1.655      2.001
REMARK  11 active torsions:
REMARK  status: ('A' for Active; 'I' for Inactive)
REMARK    1  A    between atoms: C2_2  and  O1_3 
REMARK    2  A    between atoms: O1_3  and  C3_4 
REMARK    3  A    between atoms: C3_4  and  O2_5 
REMARK    4  A    between atoms: C3_4  and  C4_7 
REMARK    5  A    between atoms: C4_7  and  C5_9 
REMARK    6  A    between atoms: C5_9  and  S2_11 
REMARK    7  A    between atoms: C5_9  and  C8_13 
REMARK    8  A    between atoms: C8_13  and  O4_15 
REMARK    9  A    between atoms: O4_15  and  N1_16 
REMARK   10  A    between atoms: N1_16  and  C9_18 
REMARK   11  A    between atoms: C10_21  and  O5_23 
ROOT
HETATM    1  C8  UNL     1     111.917  95.872  22.948  1.00  0.00     0.300 C 
HETATM    2  O3  UNL     1     111.095  96.702  23.404  1.00  0.00    -0.261 OA
ENDROOT
BRANCH   1   3
HETATM    3  C5  UNL     1     111.436  94.835  22.007  1.00  0.00     0.111 C 
HETATM    4  C6  UNL     1     110.026  95.220  21.576  1.00  0.00     0.039 C 
BRANCH   3   5
HETATM    5  C4  UNL     1     111.344  93.494  22.652  1.00  0.00     0.141 C 
HETATM    6  S1  UNL     1     111.671  92.122  21.505  1.00  0.00    -0.085 SA
BRANCH   5   7
HETATM    7  C3  UNL     1     110.081  93.205  23.373  1.00  0.00     0.273 C 
BRANCH   7   8
HETATM    8  O1  UNL     1     109.839  91.901  23.695  1.00  0.00    -0.361 OA
BRANCH   8   9
HETATM    9  C2  UNL     1     109.942  91.567  25.018  1.00  0.00     0.166 C 
HETATM   10  C1  UNL     1     111.073  90.649  25.362  1.00  0.00     0.033 C 
ENDBRANCH   8   9
ENDBRANCH   7   8
BRANCH   7  11
HETATM   11  O2  UNL     1     110.017  93.942  24.583  1.00  0.00    -0.370 OA
ATOM     12  H2  UNL     1     110.907  94.200  24.791  1.00  0.00     0.212 HD
ENDBRANCH   7  11
ENDBRANCH   5   7
ENDBRANCH   3   5
BRANCH   3  13
HETATM   13  S2  UNL     1     112.457  94.905  20.538  1.00  0.00    -0.152 SA
HETATM   14  C7  UNL     1     112.088  96.248  19.422  1.00  0.00     0.091 C 
ENDBRANCH   3  13
ENDBRANCH   1   3
BRANCH   1  15
HETATM   15  O4  UNL     1     113.214  95.995  23.365  1.00  0.00    -0.195 OA
BRANCH  15  16
HETATM   16  N1  UNL     1     113.830  95.373  24.392  1.00  0.00    -0.227 N 
ATOM     17  H1  UNL     1     114.787  95.051  24.244  1.00  0.00     0.198 HD
BRANCH  16  18
HETATM   18  C9  UNL     1     113.247  95.135  25.659  1.00  0.00     0.198 C 
HETATM   19  N2  UNL     1     112.636  94.051  25.989  1.00  0.00    -0.328 N 
HETATM   20  C10 UNL     1     112.155  94.121  27.354  1.00  0.00     0.146 C 
ATOM     21  H2  UNL     1     112.507  93.250  25.372  1.00  0.00     0.165 HD
HETATM   22  C11 UNL     1     112.402  92.819  28.089  1.00  0.00     0.072 C 
HETATM   23  C12 UNL     1     112.955  95.265  27.926  1.00  0.00     0.183 C 
HETATM   24  N3  UNL     1     113.251  96.053  26.745  1.00  0.00    -0.356 N 
ATOM     25  H3  UNL     1     113.424  97.058  26.702  1.00  0.00     0.162 HD
BRANCH  20  26
HETATM   26  O5  UNL     1     110.804  94.438  27.312  1.00  0.00    -0.369 OA
ATOM     27  H5  UNL     1     110.421  94.189  28.146  1.00  0.00     0.212 HD
ENDBRANCH  20  26
ENDBRANCH  16  18
ENDBRANCH  15  16
ENDBRANCH   1  15
TORSDOF 11
ENDMDL
MODEL 3
REMARK VINA RESULT: -6.091197525      1.868      2.285
REMARK  11 active torsions:
REMARK  status: ('A' for Active; 'I' for Inactive)
REMARK    1  A    between atoms: C2_2  and  O1_3 
REMARK    2  A    between atoms: O1_3  and  C3_4 
REMARK    3  A    between atoms: C3_4  and  O2_5 
REMARK    4  A    between atoms: C3_4  and  C4_7 
REMARK    5  A    between atoms: C4_7  and  C5_9 
REMARK    6  A    between atoms: C5_9  and  S2_11 
REMARK    7  A    between atoms: C5_9  and  C8_13 
REMARK    8  A    between atoms: C8_13  and  O4_15 
REMARK    9  A    between atoms: O4_15  and  N1_16 
REMARK   10  A    between atoms: N1_16  and  C9_18 
REMARK   11  A    between atoms: C10_21  and  O5_23 
ROOT
HETATM    1  C8  UNL     1     111.656  95.536  23.140  1.00  0.00     0.300 C 
HETATM    2  O3  UNL     1     111.548  96.741  23.472  1.00  0.00    -0.261 OA
ENDROOT
BRANCH   1   3
HETATM    3  C5  UNL     1     110.564  94.912  22.358  1.00  0.00     0.111 C 
HETATM    4  C6  UNL     1     109.591  96.015  21.960  1.00  0.00     0.039 C 
BRANCH   3   5
HETATM    5  C4  UNL     1     109.794  93.922  23.165  1.00  0.00     0.141 C 
HETATM    6  S1  UNL     1     109.052  94.638  24.662  1.00  0.00    -0.085 SA
BRANCH   5   7
HETATM    7  C3  UNL     1     110.525  92.691  23.552  1.00  0.00     0.273 C 
BRANCH   7   8
HETATM    8  O1  UNL     1     110.515  92.358  24.875  1.00  0.00    -0.361 OA
BRANCH   8   9
HETATM    9  C2  UNL     1     110.221  91.057  25.178  1.00  0.00     0.166 C 
HETATM   10  C1  UNL     1     111.298  90.306  25.897  1.00  0.00     0.033 C 
ENDBRANCH   8   9
ENDBRANCH   7   8
BRANCH   7  11
HETATM   11  O2  UNL     1     110.022  91.569  22.847  1.00  0.00    -0.370 OA
ATOM     12  H2  UNL     1     110.331  91.649  21.952  1.00  0.00     0.212 HD
ENDBRANCH   7  11
ENDBRANCH   5   7
ENDBRANCH   3   5
BRANCH   3  13
HETATM   13  S2  UNL     1     111.266  94.275  20.840  1.00  0.00    -0.152 SA
HETATM   14  C7  UNL     1     112.390  95.381  20.003  1.00  0.00     0.091 C 
ENDBRANCH   3  13
ENDBRANCH   1   3
BRANCH   1  15
HETATM   15  O4  UNL     1     112.793  94.887  23.534  1.00  0.00    -0.195 OA
BRANCH  15  16
HETATM   16  N1  UNL     1     113.494  95.037  24.677  1.00  0.00    -0.227 N 
ATOM     17  H1  UNL     1     114.465  95.339  24.600  1.00  0.00     0.198 HD
BRANCH  16  18
HETATM   18  C9  UNL     1     112.981  94.805  25.975  1.00  0.00     0.198 C 
HETATM   19  N2  UNL     1     112.581  93.661  26.409  1.00  0.00    -0.328 N 
HETATM   20  C10 UNL     1     112.113  93.758  27.777  1.00  0.00     0.146 C 
ATOM     21  H2  UNL     1     112.591  92.800  25.862  1.00  0.00     0.165 HD
HETATM   22  C11 UNL     1     112.603  92.588  28.607  1.00  0.00     0.072 C 
HETATM   23  C12 UNL     1     112.700  95.072  28.231  1.00  0.00     0.183 C 
HETATM   24  N3  UNL     1     112.832  95.797  26.984  1.00  0.00    -0.356 N 
ATOM     25  H3  UNL     1     112.820  96.809  26.855  1.00  0.00     0.162 HD
BRANCH  20  26
HETATM   26  O5  UNL     1     110.727  93.823  27.748  1.00  0.00    -0.369 OA
ATOM     27  H5  UNL     1     110.396  93.274  28.449  1.00  0.00     0.212 HD
ENDBRANCH  20  26
ENDBRANCH  16  18
ENDBRANCH  15  16
ENDBRANCH   1  15
TORSDOF 11
ENDMDL
MODEL 4
REMARK VINA RESULT: -6.049404111      1.977      2.516
REMARK  11 active torsions:
REMARK  status: ('A' for Active; 'I' for Inactive)
REMARK    1  A    between atoms: C2_2  and  O1_3 
REMARK    2  A    between atoms: O1_3  and  C3_4 
REMARK    3  A    between atoms: C3_4  and  O2_5 
REMARK    4  A    between atoms: C3_4  and  C4_7 
REMARK    5  A    between atoms: C4_7  and  C5_9 
REMARK    6  A    between atoms: C5_9  and  S2_11 
REMARK    7  A    between atoms: C5_9  and  C8_13 
REMARK    8  A    between atoms: C8_13  and  O4_15 
REMARK    9  A    between atoms: O4_15  and  N1_16 
REMARK   10  A    between atoms: N1_16  and  C9_18 
REMARK   11  A    between atoms: C10_21  and  O5_23 
ROOT
HETATM    1  C8  UNL     1     110.546  94.489  24.507  1.00  0.00     0.300 C 
HETATM    2  O3  UNL     1     109.599  94.522  25.328  1.00  0.00    -0.261 OA
ENDROOT
BRANCH   1   3
HETATM    3  C5  UNL     1     110.237  94.307  23.069  1.00  0.00     0.111 C 
HETATM    4  C6  UNL     1     108.916  95.013  22.787  1.00  0.00     0.039 C 
BRANCH   3   5
HETATM    5  C4  UNL     1     110.048  92.871  22.716  1.00  0.00     0.141 C 
HETATM    6  S1  UNL     1     108.396  92.240  23.136  1.00  0.00    -0.085 SA
BRANCH   5   7
HETATM    7  C3  UNL     1     111.057  91.930  23.260  1.00  0.00     0.273 C 
BRANCH   7   8
HETATM    8  O1  UNL     1     110.615  91.008  24.164  1.00  0.00    -0.361 OA
BRANCH   8   9
HETATM    9  C2  UNL     1     111.231  91.003  25.386  1.00  0.00     0.166 C 
HETATM   10  C1  UNL     1     111.387  89.657  26.020  1.00  0.00     0.033 C 
ENDBRANCH   8   9
ENDBRANCH   7   8
BRANCH   7  11
HETATM   11  O2  UNL     1     111.680  91.206  22.212  1.00  0.00    -0.370 OA
ATOM     12  H2  UNL     1     112.543  91.586  22.094  1.00  0.00     0.212 HD
ENDBRANCH   7  11
ENDBRANCH   5   7
ENDBRANCH   3   5
BRANCH   3  13
HETATM   13  S2  UNL     1     111.490  95.166  22.122  1.00  0.00    -0.152 SA
HETATM   14  C7  UNL     1     111.321  96.942  22.078  1.00  0.00     0.091 C 
ENDBRANCH   3  13
ENDBRANCH   1   3
BRANCH   1  15
HETATM   15  O4  UNL     1     111.808  94.627  25.014  1.00  0.00    -0.195 OA
BRANCH  15  16
HETATM   16  N1  UNL     1     112.180  95.031  26.247  1.00  0.00    -0.227 N 
ATOM     17  H1  UNL     1     112.434  96.011  26.366  1.00  0.00     0.198 HD
BRANCH  16  18
HETATM   18  C9  UNL     1     112.243  94.195  27.386  1.00  0.00     0.198 C 
HETATM   19  N2  UNL     1     113.309  93.977  28.075  1.00  0.00    -0.328 N 
HETATM   20  C10 UNL     1     113.042  93.077  29.177  1.00  0.00     0.146 C 
ATOM     21  H2  UNL     1     114.221  94.385  27.871  1.00  0.00     0.165 HD
HETATM   22  C11 UNL     1     113.728  93.544  30.445  1.00  0.00     0.072 C 
HETATM   23  C12 UNL     1     111.537  93.127  29.284  1.00  0.00     0.183 C 
HETATM   24  N3  UNL     1     111.145  93.475  27.933  1.00  0.00    -0.356 N 
ATOM     25  H3  UNL     1     110.263  93.250  27.470  1.00  0.00     0.162 HD
BRANCH  20  26
HETATM   26  O5  UNL     1     113.465  91.809  28.802  1.00  0.00    -0.369 OA
ATOM     27  H5  UNL     1     113.061  91.181  29.390  1.00  0.00     0.212 HD
ENDBRANCH  20  26
ENDBRANCH  16  18
ENDBRANCH  15  16
ENDBRANCH   1  15
TORSDOF 11
ENDMDL
MODEL 5
REMARK VINA RESULT: -6.046866798      2.301      3.439
REMARK  11 active torsions:
REMARK  status: ('A' for Active; 'I' for Inactive)
REMARK    1  A    between atoms: C2_2  and  O1_3 
REMARK    2  A    between atoms: O1_3  and  C3_4 
REMARK    3  A    between atoms: C3_4  and  O2_5 
REMARK    4  A    between atoms: C3_4  and  C4_7 
REMARK    5  A    between atoms: C4_7  and  C5_9 
REMARK    6  A    between atoms: C5_9  and  S2_11 
REMARK    7  A    between atoms: C5_9  and  C8_13 
REMARK    8  A    between atoms: C8_13  and  O4_15 
REMARK    9  A    between atoms: O4_15  and  N1_16 
REMARK   10  A    between atoms: N1_16  and  C9_18 
REMARK   11  A    between atoms: C10_21  and  O5_23 
ROOT
HETATM    1  C8  UNL     1     112.256  94.984  20.522  1.00  0.00     0.300 C 
HETATM    2  O3  UNL     1     113.365  94.433  20.325  1.00  0.00    -0.261 OA
ENDROOT
BRANCH   1   3
HETATM    3  C5  UNL     1     111.022  94.262  20.136  1.00  0.00     0.111 C 
HETATM    4  C6  UNL     1     109.971  95.303  19.773  1.00  0.00     0.039 C 
BRANCH   3   5
HETATM    5  C4  UNL     1     110.469  93.458  21.263  1.00  0.00     0.141 C 
HETATM    6  S1  UNL     1     109.261  94.370  22.269  1.00  0.00    -0.085 SA
BRANCH   5   7
HETATM    7  C3  UNL     1     111.466  92.846  22.175  1.00  0.00     0.273 C 
BRANCH   7   8
HETATM    8  O1  UNL     1     111.192  92.898  23.511  1.00  0.00    -0.361 OA
BRANCH   8   9
HETATM    9  C2  UNL     1     111.049  91.699  24.154  1.00  0.00     0.166 C 
HETATM   10  C1  UNL     1     109.684  91.424  24.704  1.00  0.00     0.033 C 
ENDBRANCH   8   9
ENDBRANCH   7   8
BRANCH   7  11
HETATM   11  O2  UNL     1     111.665  91.480  21.853  1.00  0.00    -0.370 OA
ATOM     12  H2  UNL     1     111.496  91.392  20.922  1.00  0.00     0.212 HD
ENDBRANCH   7  11
ENDBRANCH   5   7
ENDBRANCH   3   5
BRANCH   3  13
HETATM   13  S2  UNL     1     111.368  93.340  18.641  1.00  0.00    -0.152 SA
HETATM   14  C7  UNL     1     110.225  92.015  18.287  1.00  0.00     0.091 C 
ENDBRANCH   3  13
ENDBRANCH   1   3
BRANCH   1  15
HETATM   15  O4  UNL     1     112.278  96.230  21.087  1.00  0.00    -0.195 OA
BRANCH  15  16
HETATM   16  N1  UNL     1     111.933  96.591  22.340  1.00  0.00    -0.227 N 
ATOM     17  H1  UNL     1     111.133  97.214  22.449  1.00  0.00     0.198 HD
BRANCH  16  18
HETATM   18  C9  UNL     1     112.600  96.170  23.514  1.00  0.00     0.198 C 
HETATM   19  N2  UNL     1     112.012  95.850  24.614  1.00  0.00    -0.328 N 
HETATM   20  C10 UNL     1     112.974  95.463  25.625  1.00  0.00     0.146 C 
ATOM     21  H2  UNL     1     111.002  95.866  24.754  1.00  0.00     0.165 HD
HETATM   22  C11 UNL     1     112.508  94.238  26.385  1.00  0.00     0.072 C 
HETATM   23  C12 UNL     1     114.217  95.197  24.811  1.00  0.00     0.183 C 
HETATM   24  N3  UNL     1     114.011  96.041  23.651  1.00  0.00    -0.356 N 
ATOM     25  H3  UNL     1     114.728  96.457  23.056  1.00  0.00     0.162 HD
BRANCH  20  26
HETATM   26  O5  UNL     1     113.163  96.550  26.468  1.00  0.00    -0.369 OA
ATOM     27  H5  UNL     1     114.071  96.821  26.395  1.00  0.00     0.212 HD
ENDBRANCH  20  26
ENDBRANCH  16  18
ENDBRANCH  15  16
ENDBRANCH   1  15
TORSDOF 11
ENDMDL
