MODEL 1
REMARK VINA RESULT: -8.211543397      0.000      0.000
REMARK  9 active torsions:
REMARK  status: ('A' for Active; 'I' for Inactive)
REMARK    1  A    between atoms: C2_2  and  O1_3 
REMARK    2  A    between atoms: O1_3  and  C3_4 
REMARK       I    between atoms: C3_4  and  N1_6 
REMARK       I    between atoms: N1_6  and  C4_8 
REMARK       I    between atoms: C4_8  and  N6_20 
REMARK    3  A    between atoms: N2_9  and  O3_11 
REMARK    4  A    between atoms: O3_11  and  C5_12 
REMARK    5  A    between atoms: N4_14  and  N5_16 
REMARK    6  A    between atoms: N5_16  and  O4_18 
REMARK    7  A    between atoms: N6_20  and  N7_22 
REMARK    8  A    between atoms: N8_24  and  C6_26 
REMARK    9  A    between atoms: C9_29  and  N9_30 
ROOT
HETATM    1  C3  UNL     1     112.072  93.106  26.464  1.00  0.00     0.379 C 
HETATM    2  O2  UNL     1     111.572  93.651  25.448  1.00  0.00    -0.238 OA
HETATM    3  N1  UNL     1     111.977  91.727  26.723  1.00  0.00    -0.132 N 
ATOM      4  H1  UNL     1     112.401  91.333  27.564  1.00  0.00     0.190 HD
HETATM    5  C4  UNL     1     111.296  90.893  25.818  1.00  0.00     0.722 C 
HETATM    6  N2  UNL     1     111.203  89.631  26.046  1.00  0.00    -0.086 N 
ATOM      7  H2  UNL     1     110.707  89.029  25.388  1.00  0.00     0.214 HD
HETATM    8  N6  UNL     1     110.699  91.404  24.649  1.00  0.00    -0.116 N 
ATOM      9  H6  UNL     1     111.278  91.762  23.890  1.00  0.00     0.207 HD
ENDROOT
BRANCH   6  10
HETATM   10  O3  UNL     1     111.762  89.104  27.158  1.00  0.00    -0.188 OA
BRANCH  10  11
HETATM   11  C5  UNL     1     112.411  87.882  27.184  1.00  0.00     0.272 C 
HETATM   12  N3  UNL     1     113.331  87.566  28.221  1.00  0.00    -0.053 NA
HETATM   13  N4  UNL     1     112.173  87.035  26.257  1.00  0.00    -0.246 N 
ATOM     14  H4  UNL     1     111.511  87.274  25.519  1.00  0.00     0.192 HD
BRANCH  13  15
HETATM   15  N5  UNL     1     112.803  85.787  26.239  1.00  0.00    -0.207 N 
ATOM     16  H5  UNL     1     112.357  84.993  26.698  1.00  0.00     0.215 HD
BRANCH  15  17
HETATM   17  O4  UNL     1     113.911  85.628  25.666  1.00  0.00    -0.274 OA
ATOM     18  H4  UNL     1     114.726  85.673  26.152  1.00  0.00     0.246 HD
ENDBRANCH  15  17
ENDBRANCH  13  15
ENDBRANCH  10  11
ENDBRANCH   6  10
BRANCH   8  19
HETATM   19  N7  UNL     1     109.318  91.415  24.542  1.00  0.00    -0.228 N 
HETATM   20  N8  UNL     1     108.742  91.815  23.498  1.00  0.00    -0.286 N 
ATOM     21  H8  UNL     1     107.723  91.805  23.464  1.00  0.00     0.188 HD
ATOM     22  H7  UNL     1     108.755  91.091  25.329  1.00  0.00     0.209 HD
BRANCH  20  23
HETATM   23  C6  UNL     1     109.459  92.280  22.366  1.00  0.00     0.049 A 
HETATM   24  C7  UNL     1     109.714  93.641  22.244  1.00  0.00     0.033 A 
HETATM   25  C8  UNL     1     110.408  94.148  21.160  1.00  0.00     0.038 A 
HETATM   26  C9  UNL     1     110.871  93.314  20.166  1.00  0.00     0.103 A 
HETATM   27  C10 UNL     1     110.612  91.965  20.300  1.00  0.00     0.038 A 
HETATM   28  C11 UNL     1     109.925  91.462  21.372  1.00  0.00     0.033 A 
BRANCH  26  29
HETATM   29  N9  UNL     1     111.579  93.834  19.062  1.00  0.00    -0.116 N 
HETATM   30  O5  UNL     1     111.706  95.060  18.897  1.00  0.00    -0.532 OA
HETATM   31  O6  UNL     1     112.143  92.981  18.146  1.00  0.00    -0.532 OA
ENDBRANCH  26  29
ENDBRANCH  20  23
ENDBRANCH   8  19
BRANCH   1  32
HETATM   32  O1  UNL     1     112.741  93.914  27.356  1.00  0.00    -0.304 OA
BRANCH  32  33
HETATM   33  C2  UNL     1     112.773  95.321  27.263  1.00  0.00     0.176 C 
HETATM   34  C1  UNL     1     113.944  95.809  26.435  1.00  0.00     0.034 C 
ENDBRANCH  32  33
ENDBRANCH   1  32
TORSDOF 9
ENDMDL
MODEL 2
REMARK VINA RESULT: -8.165840065      1.332      1.466
REMARK  9 active torsions:
REMARK  status: ('A' for Active; 'I' for Inactive)
REMARK    1  A    between atoms: C2_2  and  O1_3 
REMARK    2  A    between atoms: O1_3  and  C3_4 
REMARK       I    between atoms: C3_4  and  N1_6 
REMARK       I    between atoms: N1_6  and  C4_8 
REMARK       I    between atoms: C4_8  and  N6_20 
REMARK    3  A    between atoms: N2_9  and  O3_11 
REMARK    4  A    between atoms: O3_11  and  C5_12 
REMARK    5  A    between atoms: N4_14  and  N5_16 
REMARK    6  A    between atoms: N5_16  and  O4_18 
REMARK    7  A    between atoms: N6_20  and  N7_22 
REMARK    8  A    between atoms: N8_24  and  C6_26 
REMARK    9  A    between atoms: C9_29  and  N9_30 
ROOT
HETATM    1  C3  UNL     1     111.418  93.710  26.346  1.00  0.00     0.379 C 
HETATM    2  O2  UNL     1     110.939  94.195  25.290  1.00  0.00    -0.238 OA
HETATM    3  N1  UNL     1     111.532  92.327  26.576  1.00  0.00    -0.132 N 
ATOM      4  H1  UNL     1     111.929  91.984  27.451  1.00  0.00     0.190 HD
HETATM    5  C4  UNL     1     111.095  91.419  25.594  1.00  0.00     0.722 C 
HETATM    6  N2  UNL     1     111.194  90.154  25.794  1.00  0.00    -0.086 N 
ATOM      7  H2  UNL     1     110.876  89.497  25.080  1.00  0.00     0.214 HD
HETATM    8  N6  UNL     1     110.543  91.859  24.376  1.00  0.00    -0.116 N 
ATOM      9  H6  UNL     1     111.127  92.331  23.685  1.00  0.00     0.207 HD
ENDROOT
BRANCH   6  10
HETATM   10  O3  UNL     1     111.719  89.693  26.951  1.00  0.00    -0.188 OA
BRANCH  10  11
HETATM   11  C5  UNL     1     112.176  88.398  27.124  1.00  0.00     0.272 C 
HETATM   12  N3  UNL     1     112.872  88.022  28.305  1.00  0.00    -0.053 NA
HETATM   13  N4  UNL     1     111.964  87.539  26.203  1.00  0.00    -0.246 N 
ATOM     14  H4  UNL     1     111.463  87.822  25.361  1.00  0.00     0.192 HD
BRANCH  13  15
HETATM   15  N5  UNL     1     112.406  86.219  26.330  1.00  0.00    -0.207 N 
ATOM     16  H5  UNL     1     111.767  85.508  26.686  1.00  0.00     0.215 HD
BRANCH  15  17
HETATM   17  O4  UNL     1     113.578  85.893  26.013  1.00  0.00    -0.274 OA
ATOM     18  H4  UNL     1     113.776  85.020  25.696  1.00  0.00     0.246 HD
ENDBRANCH  15  17
ENDBRANCH  13  15
ENDBRANCH  10  11
ENDBRANCH   6  10
BRANCH   8  19
HETATM   19  N7  UNL     1     109.198  91.644  24.125  1.00  0.00    -0.228 N 
HETATM   20  N8  UNL     1     108.585  92.282  23.230  1.00  0.00    -0.286 N 
ATOM     21  H8  UNL     1     107.594  92.089  23.080  1.00  0.00     0.188 HD
ATOM     22  H7  UNL     1     108.692  90.952  24.678  1.00  0.00     0.209 HD
BRANCH  20  23
HETATM   23  C6  UNL     1     109.221  93.258  22.422  1.00  0.00     0.049 A 
HETATM   24  C7  UNL     1     108.875  94.594  22.584  1.00  0.00     0.033 A 
HETATM   25  C8  UNL     1     109.464  95.587  21.823  1.00  0.00     0.038 A 
HETATM   26  C9  UNL     1     110.418  95.279  20.877  1.00  0.00     0.103 A 
HETATM   27  C10 UNL     1     110.752  93.949  20.727  1.00  0.00     0.038 A 
HETATM   28  C11 UNL     1     110.170  92.965  21.479  1.00  0.00     0.033 A 
BRANCH  26  29
HETATM   29  N9  UNL     1     111.017  96.294  20.102  1.00  0.00    -0.116 N 
HETATM   30  O5  UNL     1     110.404  96.839  19.168  1.00  0.00    -0.532 OA
HETATM   31  O6  UNL     1     112.301  96.697  20.375  1.00  0.00    -0.532 OA
ENDBRANCH  26  29
ENDBRANCH  20  23
ENDBRANCH   8  19
BRANCH   1  32
HETATM   32  O1  UNL     1     111.849  94.590  27.313  1.00  0.00    -0.304 OA
BRANCH  32  33
HETATM   33  C2  UNL     1     113.204  94.929  27.514  1.00  0.00     0.176 C 
HETATM   34  C1  UNL     1     113.697  95.928  26.487  1.00  0.00     0.034 C 
ENDBRANCH  32  33
ENDBRANCH   1  32
TORSDOF 9
ENDMDL
MODEL 3
REMARK VINA RESULT: -8.127453308      2.419      3.056
REMARK  9 active torsions:
REMARK  status: ('A' for Active; 'I' for Inactive)
REMARK    1  A    between atoms: C2_2  and  O1_3 
REMARK    2  A    between atoms: O1_3  and  C3_4 
REMARK       I    between atoms: C3_4  and  N1_6 
REMARK       I    between atoms: N1_6  and  C4_8 
REMARK       I    between atoms: C4_8  and  N6_20 
REMARK    3  A    between atoms: N2_9  and  O3_11 
REMARK    4  A    between atoms: O3_11  and  C5_12 
REMARK    5  A    between atoms: N4_14  and  N5_16 
REMARK    6  A    between atoms: N5_16  and  O4_18 
REMARK    7  A    between atoms: N6_20  and  N7_22 
REMARK    8  A    between atoms: N8_24  and  C6_26 
REMARK    9  A    between atoms: C9_29  and  N9_30 
ROOT
HETATM    1  C3  UNL     1     112.691  94.531  29.010  1.00  0.00     0.379 C 
HETATM    2  O2  UNL     1     112.332  95.598  28.453  1.00  0.00    -0.238 OA
HETATM    3  N1  UNL     1     112.494  93.260  28.440  1.00  0.00    -0.132 N 
ATOM      4  H1  UNL     1     112.805  92.423  28.933  1.00  0.00     0.190 HD
HETATM    5  C4  UNL     1     111.866  93.149  27.185  1.00  0.00     0.722 C 
HETATM    6  N2  UNL     1     111.680  91.993  26.656  1.00  0.00    -0.086 N 
ATOM      7  H2  UNL     1     111.224  91.915  25.746  1.00  0.00     0.214 HD
HETATM    8  N6  UNL     1     111.425  94.283  26.478  1.00  0.00    -0.116 N 
ATOM      9  H6  UNL     1     112.099  94.941  26.086  1.00  0.00     0.207 HD
ENDROOT
BRANCH   6  10
HETATM   10  O3  UNL     1     112.090  90.880  27.305  1.00  0.00    -0.188 OA
BRANCH  10  11
HETATM   11  C5  UNL     1     111.820  89.595  26.870  1.00  0.00     0.272 C 
HETATM   12  N3  UNL     1     111.129  89.368  25.648  1.00  0.00    -0.053 NA
HETATM   13  N4  UNL     1     112.201  88.606  27.584  1.00  0.00    -0.246 N 
ATOM     14  H4  UNL     1     112.695  88.782  28.458  1.00  0.00     0.192 HD
BRANCH  13  15
HETATM   15  N5  UNL     1     111.951  87.289  27.188  1.00  0.00    -0.207 N 
ATOM     16  H5  UNL     1     111.196  86.766  27.631  1.00  0.00     0.215 HD
BRANCH  15  17
HETATM   17  O4  UNL     1     112.644  86.738  26.294  1.00  0.00    -0.274 OA
ATOM     18  H4  UNL     1     113.504  86.383  26.489  1.00  0.00     0.246 HD
ENDBRANCH  15  17
ENDBRANCH  13  15
ENDBRANCH  10  11
ENDBRANCH   6  10
BRANCH   8  19
HETATM   19  N7  UNL     1     110.066  94.497  26.319  1.00  0.00    -0.228 N 
HETATM   20  N8  UNL     1     109.562  94.718  25.188  1.00  0.00    -0.286 N 
ATOM     21  H8  UNL     1     108.556  94.869  25.119  1.00  0.00     0.188 HD
ATOM     22  H7  UNL     1     109.458  94.475  27.138  1.00  0.00     0.209 HD
BRANCH  20  23
HETATM   23  C6  UNL     1     110.342  94.764  24.005  1.00  0.00     0.049 A 
HETATM   24  C7  UNL     1     110.671  96.002  23.464  1.00  0.00     0.033 A 
HETATM   25  C8  UNL     1     111.430  96.104  22.312  1.00  0.00     0.038 A 
HETATM   26  C9  UNL     1     111.885  94.977  21.664  1.00  0.00     0.103 A 
HETATM   27  C10 UNL     1     111.553  93.755  22.212  1.00  0.00     0.038 A 
HETATM   28  C11 UNL     1     110.802  93.652  23.352  1.00  0.00     0.033 A 
BRANCH  26  29
HETATM   29  N9  UNL     1     112.660  95.085  20.489  1.00  0.00    -0.116 N 
HETATM   30  O5  UNL     1     113.285  94.111  20.037  1.00  0.00    -0.532 OA
HETATM   31  O6  UNL     1     112.730  96.284  19.824  1.00  0.00    -0.532 OA
ENDBRANCH  26  29
ENDBRANCH  20  23
ENDBRANCH   8  19
BRANCH   1  32
HETATM   32  O1  UNL     1     113.307  94.629  30.237  1.00  0.00    -0.304 OA
BRANCH  32  33
HETATM   33  C2  UNL     1     113.976  93.555  30.863  1.00  0.00     0.176 C 
HETATM   34  C1  UNL     1     114.953  94.033  31.917  1.00  0.00     0.034 C 
ENDBRANCH  32  33
ENDBRANCH   1  32
TORSDOF 9
ENDMDL
MODEL 4
REMARK VINA RESULT: -8.075456031      1.601      2.048
REMARK  9 active torsions:
REMARK  status: ('A' for Active; 'I' for Inactive)
REMARK    1  A    between atoms: C2_2  and  O1_3 
REMARK    2  A    between atoms: O1_3  and  C3_4 
REMARK       I    between atoms: C3_4  and  N1_6 
REMARK       I    between atoms: N1_6  and  C4_8 
REMARK       I    between atoms: C4_8  and  N6_20 
REMARK    3  A    between atoms: N2_9  and  O3_11 
REMARK    4  A    between atoms: O3_11  and  C5_12 
REMARK    5  A    between atoms: N4_14  and  N5_16 
REMARK    6  A    between atoms: N5_16  and  O4_18 
REMARK    7  A    between atoms: N6_20  and  N7_22 
REMARK    8  A    between atoms: N8_24  and  C6_26 
REMARK    9  A    between atoms: C9_29  and  N9_30 
ROOT
HETATM    1  C3  UNL     1     112.320  94.062  26.458  1.00  0.00     0.379 C 
HETATM    2  O2  UNL     1     111.826  94.643  25.459  1.00  0.00    -0.238 OA
HETATM    3  N1  UNL     1     112.163  92.686  26.705  1.00  0.00    -0.132 N 
ATOM      4  H1  UNL     1     112.585  92.262  27.531  1.00  0.00     0.190 HD
HETATM    5  C4  UNL     1     111.420  91.898  25.806  1.00  0.00     0.722 C 
HETATM    6  N2  UNL     1     111.270  90.640  26.023  1.00  0.00    -0.086 N 
ATOM      7  H2  UNL     1     110.730  90.070  25.370  1.00  0.00     0.214 HD
HETATM    8  N6  UNL     1     110.825  92.451  24.657  1.00  0.00    -0.116 N 
ATOM      9  H6  UNL     1     111.404  92.789  23.888  1.00  0.00     0.207 HD
ENDROOT
BRANCH   6  10
HETATM   10  O3  UNL     1     111.826  90.073  27.116  1.00  0.00    -0.188 OA
BRANCH  10  11
HETATM   11  C5  UNL     1     112.088  88.719  27.228  1.00  0.00     0.272 C 
HETATM   12  N3  UNL     1     112.670  88.183  28.409  1.00  0.00    -0.053 NA
HETATM   13  N4  UNL     1     111.799  87.950  26.250  1.00  0.00    -0.246 N 
ATOM     14  H4  UNL     1     111.382  88.346  25.408  1.00  0.00     0.192 HD
BRANCH  13  15
HETATM   15  N5  UNL     1     112.045  86.575  26.314  1.00  0.00    -0.207 N 
ATOM     16  H5  UNL     1     111.271  85.935  26.491  1.00  0.00     0.215 HD
BRANCH  15  17
HETATM   17  O4  UNL     1     113.205  86.114  26.157  1.00  0.00    -0.274 OA
ATOM     18  H4  UNL     1     113.421  85.575  25.405  1.00  0.00     0.246 HD
ENDBRANCH  15  17
ENDBRANCH  13  15
ENDBRANCH  10  11
ENDBRANCH   6  10
BRANCH   8  19
HETATM   19  N7  UNL     1     109.444  92.533  24.581  1.00  0.00    -0.228 N 
HETATM   20  N8  UNL     1     108.874  93.300  23.763  1.00  0.00    -0.286 N 
ATOM     21  H8  UNL     1     107.855  93.326  23.742  1.00  0.00     0.188 HD
ATOM     22  H7  UNL     1     108.876  91.957  25.202  1.00  0.00     0.209 HD
BRANCH  20  23
HETATM   23  C6  UNL     1     109.597  94.129  22.869  1.00  0.00     0.049 A 
HETATM   24  C7  UNL     1     109.642  95.497  23.108  1.00  0.00     0.033 A 
HETATM   25  C8  UNL     1     110.333  96.352  22.268  1.00  0.00     0.038 A 
HETATM   26  C9  UNL     1     111.001  95.869  21.164  1.00  0.00     0.103 A 
HETATM   27  C10 UNL     1     110.949  94.509  20.938  1.00  0.00     0.038 A 
HETATM   28  C11 UNL     1     110.266  93.662  21.769  1.00  0.00     0.033 A 
BRANCH  26  29
HETATM   29  N9  UNL     1     111.705  96.744  20.309  1.00  0.00    -0.116 N 
HETATM   30  O5  UNL     1     112.656  96.342  19.616  1.00  0.00    -0.532 OA
HETATM   31  O6  UNL     1     111.342  98.065  20.232  1.00  0.00    -0.532 OA
ENDBRANCH  26  29
ENDBRANCH  20  23
ENDBRANCH   8  19
BRANCH   1  32
HETATM   32  O1  UNL     1     113.049  94.825  27.343  1.00  0.00    -0.304 OA
BRANCH  32  33
HETATM   33  C2  UNL     1     112.962  94.691  28.745  1.00  0.00     0.176 C 
HETATM   34  C1  UNL     1     111.938  95.634  29.343  1.00  0.00     0.034 C 
ENDBRANCH  32  33
ENDBRANCH   1  32
TORSDOF 9
ENDMDL
MODEL 5
REMARK VINA RESULT: -8.050494943      2.624      3.365
REMARK  9 active torsions:
REMARK  status: ('A' for Active; 'I' for Inactive)
REMARK    1  A    between atoms: C2_2  and  O1_3 
REMARK    2  A    between atoms: O1_3  and  C3_4 
REMARK       I    between atoms: C3_4  and  N1_6 
REMARK       I    between atoms: N1_6  and  C4_8 
REMARK       I    between atoms: C4_8  and  N6_20 
REMARK    3  A    between atoms: N2_9  and  O3_11 
REMARK    4  A    between atoms: O3_11  and  C5_12 
REMARK    5  A    between atoms: N4_14  and  N5_16 
REMARK    6  A    between atoms: N5_16  and  O4_18 
REMARK    7  A    between atoms: N6_20  and  N7_22 
REMARK    8  A    between atoms: N8_24  and  C6_26 
REMARK    9  A    between atoms: C9_29  and  N9_30 
ROOT
HETATM    1  C3  UNL     1     113.498  93.542  29.514  1.00  0.00     0.379 C 
HETATM    2  O2  UNL     1     113.309  94.726  29.140  1.00  0.00    -0.238 OA
HETATM    3  N1  UNL     1     112.956  92.427  28.846  1.00  0.00    -0.132 N 
ATOM      4  H1  UNL     1     113.139  91.485  29.190  1.00  0.00     0.190 HD
HETATM    5  C4  UNL     1     112.160  92.620  27.702  1.00  0.00     0.722 C 
HETATM    6  N2  UNL     1     111.660  91.610  27.086  1.00  0.00    -0.086 N 
ATOM      7  H2  UNL     1     111.082  91.752  26.256  1.00  0.00     0.214 HD
HETATM    8  N6  UNL     1     111.887  93.907  27.201  1.00  0.00    -0.116 N 
ATOM      9  H6  UNL     1     112.632  94.465  26.782  1.00  0.00     0.207 HD
ENDROOT
BRANCH   6  10
HETATM   10  O3  UNL     1     111.899  90.358  27.537  1.00  0.00    -0.188 OA
BRANCH  10  11
HETATM   11  C5  UNL     1     111.767  89.223  26.757  1.00  0.00     0.272 C 
HETATM   12  N3  UNL     1     111.191  89.292  25.460  1.00  0.00    -0.053 NA
HETATM   13  N4  UNL     1     112.173  88.104  27.219  1.00  0.00    -0.246 N 
ATOM     14  H4  UNL     1     112.585  88.067  28.152  1.00  0.00     0.192 HD
BRANCH  13  15
HETATM   15  N5  UNL     1     112.062  86.928  26.470  1.00  0.00    -0.207 N 
ATOM     16  H5  UNL     1     111.148  86.643  26.118  1.00  0.00     0.215 HD
BRANCH  15  17
HETATM   17  O4  UNL     1     113.070  86.218  26.224  1.00  0.00    -0.274 OA
ATOM     18  H4  UNL     1     113.717  86.489  25.583  1.00  0.00     0.246 HD
ENDBRANCH  15  17
ENDBRANCH  13  15
ENDBRANCH  10  11
ENDBRANCH   6  10
BRANCH   8  19
HETATM   19  N7  UNL     1     110.599  94.408  27.282  1.00  0.00    -0.228 N 
HETATM   20  N8  UNL     1     109.834  94.422  26.284  1.00  0.00    -0.286 N 
ATOM     21  H8  UNL     1     108.892  94.799  26.391  1.00  0.00     0.188 HD
ATOM     22  H7  UNL     1     110.261  94.773  28.173  1.00  0.00     0.209 HD
BRANCH  20  23
HETATM   23  C6  UNL     1     110.233  93.931  25.015  1.00  0.00     0.049 A 
HETATM   24  C7  UNL     1     109.748  92.701  24.587  1.00  0.00     0.033 A 
HETATM   25  C8  UNL     1     110.105  92.176  23.358  1.00  0.00     0.038 A 
HETATM   26  C9  UNL     1     110.955  92.861  22.517  1.00  0.00     0.103 A 
HETATM   27  C10 UNL     1     111.428  94.082  22.954  1.00  0.00     0.038 A 
HETATM   28  C11 UNL     1     111.076  94.603  24.170  1.00  0.00     0.033 A 
BRANCH  26  29
HETATM   29  N9  UNL     1     111.317  92.323  21.264  1.00  0.00    -0.116 N 
HETATM   30  O5  UNL     1     110.936  91.193  20.914  1.00  0.00    -0.532 OA
HETATM   31  O6  UNL     1     112.104  93.051  20.407  1.00  0.00    -0.532 OA
ENDBRANCH  26  29
ENDBRANCH  20  23
ENDBRANCH   8  19
BRANCH   1  32
HETATM   32  O1  UNL     1     114.276  93.342  30.632  1.00  0.00    -0.304 OA
BRANCH  32  33
HETATM   33  C2  UNL     1     114.106  94.055  31.838  1.00  0.00     0.176 C 
HETATM   34  C1  UNL     1     115.423  94.289  32.550  1.00  0.00     0.034 C 
ENDBRANCH  32  33
ENDBRANCH   1  32
TORSDOF 9
ENDMDL
