MODEL 1
REMARK VINA RESULT: -9.136816766      0.000      0.000
REMARK  11 active torsions:
REMARK  status: ('A' for Active; 'I' for Inactive)
REMARK    1  A    between atoms: C2_2  and  C3_7 
REMARK    2  A    between atoms: N1_3  and  O1_5 
REMARK    3  A    between atoms: C3_7  and  N2_8 
REMARK    4  A    between atoms: C3_7  and  C16_32 
REMARK    5  A    between atoms: N2_8  and  C4_10 
REMARK    6  A    between atoms: C4_10  and  C5_11 
REMARK    7  A    between atoms: C8_14  and  C9_15 
REMARK    8  A    between atoms: C10_19  and  C11_20 
REMARK    9  A    between atoms: C11_20  and  O3_21 
REMARK   10  A    between atoms: O3_21  and  C12_22 
REMARK   11  A    between atoms: C12_22  and  C13_24 
ROOT
HETATM    1  C5  UNL     1      14.430  14.939  28.605  1.00  0.00    -0.021 A 
HETATM    2  C6  UNL     1      14.178  15.930  27.693  1.00  0.00     0.014 A 
HETATM    3  C7  UNL     1      15.029  16.212  26.648  1.00  0.00     0.016 A 
HETATM    4  C8  UNL     1      16.175  15.479  26.502  1.00  0.00     0.010 A 
HETATM    5  C14 UNL     1      16.452  14.478  27.405  1.00  0.00     0.016 A 
HETATM    6  C15 UNL     1      15.576  14.201  28.466  1.00  0.00     0.014 A 
ENDROOT
BRANCH   4   7
HETATM    7  C9  UNL     1      17.074  15.789  25.386  1.00  0.00     0.137 A 
HETATM    8  N3  UNL     1      17.557  14.903  24.504  1.00  0.00    -0.242 N 
HETATM    9  O2  UNL     1      18.304  15.522  23.675  1.00  0.00    -0.220 OA
ATOM     10  H3  UNL     1      17.361  13.903  24.496  1.00  0.00     0.196 HD
HETATM   11  C10 UNL     1      18.351  16.783  23.953  1.00  0.00     0.172 A 
HETATM   12  N4  UNL     1      17.575  16.997  25.045  1.00  0.00    -0.321 N 
ATOM     13  H4  UNL     1      17.405  17.887  25.512  1.00  0.00     0.169 HD
BRANCH  11  14
HETATM   14  C11 UNL     1      19.131  17.784  23.183  1.00  0.00     0.265 C 
BRANCH  14  15
HETATM   15  O3  UNL     1      18.750  19.106  23.405  1.00  0.00    -0.310 OA
BRANCH  15  16
HETATM   16  C12 UNL     1      19.380  19.968  24.281  1.00  0.00     0.314 C 
HETATM   17  O4  UNL     1      20.589  19.791  24.569  1.00  0.00    -0.260 OA
BRANCH  16  18
HETATM   18  C13 UNL     1      18.588  21.096  24.860  1.00  0.00     0.276 C 
HETATM   19 CL1  UNL     1      17.268  20.361  25.829  1.00  0.00    -0.073 Cl
HETATM   20 CL2  UNL     1      19.609  22.055  25.926  1.00  0.00    -0.073 Cl
HETATM   21 CL3  UNL     1      17.882  22.086  23.577  1.00  0.00    -0.073 Cl
ENDBRANCH  16  18
ENDBRANCH  15  16
ENDBRANCH  14  15
ENDBRANCH  11  14
ENDBRANCH   4   7
BRANCH   1  22
HETATM   22  C4  UNL     1      13.445  14.712  29.708  1.00  0.00     0.099 C 
BRANCH  22  23
HETATM   23  N2  UNL     1      13.168  13.355  29.927  1.00  0.00    -0.365 N 
ATOM     24  H2  UNL     1      13.764  12.824  30.562  1.00  0.00     0.165 HD
BRANCH  23  25
HETATM   25  C3  UNL     1      12.092  12.710  29.295  1.00  0.00     0.056 C 
BRANCH  25  26
HETATM   26  C2  UNL     1      10.793  12.692  29.955  1.00  0.00     0.052 C 
HETATM   27  C1  UNL     1      10.242  11.696  30.882  1.00  0.00     0.072 C 
HETATM   28  N1  UNL     1       9.979  13.703  29.703  1.00  0.00    -0.272 N 
ATOM     29  H1  UNL     1       9.064  13.717  30.154  1.00  0.00     0.194 HD
BRANCH  28  30
HETATM   30  O1  UNL     1      10.306  14.720  28.874  1.00  0.00    -0.290 OA
ATOM     31  H1  UNL     1       9.939  15.592  28.958  1.00  0.00     0.244 HD
ENDBRANCH  28  30
ENDBRANCH  25  26
BRANCH  25  32
HETATM   32  C16 UNL     1      12.523  11.468  28.585  1.00  0.00     0.074 C 
HETATM   33  C17 UNL     1      12.987  11.771  27.158  1.00  0.00     0.039 C 
HETATM   34  C18 UNL     1      11.593  10.311  28.626  1.00  0.00     0.039 C 
HETATM   35 CL4  UNL     1      14.020  10.923  29.441  1.00  0.00    -0.113 Cl
ENDBRANCH  25  32
ENDBRANCH  23  25
ENDBRANCH  22  23
ENDBRANCH   1  22
TORSDOF 11
ENDMDL
MODEL 2
REMARK VINA RESULT: -9.037394569      2.075      2.666
REMARK  11 active torsions:
REMARK  status: ('A' for Active; 'I' for Inactive)
REMARK    1  A    between atoms: C2_2  and  C3_7 
REMARK    2  A    between atoms: N1_3  and  O1_5 
REMARK    3  A    between atoms: C3_7  and  N2_8 
REMARK    4  A    between atoms: C3_7  and  C16_32 
REMARK    5  A    between atoms: N2_8  and  C4_10 
REMARK    6  A    between atoms: C4_10  and  C5_11 
REMARK    7  A    between atoms: C8_14  and  C9_15 
REMARK    8  A    between atoms: C10_19  and  C11_20 
REMARK    9  A    between atoms: C11_20  and  O3_21 
REMARK   10  A    between atoms: O3_21  and  C12_22 
REMARK   11  A    between atoms: C12_22  and  C13_24 
ROOT
HETATM    1  C5  UNL     1      14.599  14.836  28.268  1.00  0.00    -0.021 A 
HETATM    2  C6  UNL     1      14.141  15.840  27.456  1.00  0.00     0.014 A 
HETATM    3  C7  UNL     1      14.938  16.458  26.518  1.00  0.00     0.016 A 
HETATM    4  C8  UNL     1      16.240  16.061  26.380  1.00  0.00     0.010 A 
HETATM    5  C14 UNL     1      16.724  15.053  27.184  1.00  0.00     0.016 A 
HETATM    6  C15 UNL     1      15.901  14.432  28.136  1.00  0.00     0.014 A 
ENDROOT
BRANCH   4   7
HETATM    7  C9  UNL     1      17.079  16.726  25.378  1.00  0.00     0.137 A 
HETATM    8  N3  UNL     1      17.748  16.116  24.391  1.00  0.00    -0.242 N 
HETATM    9  O2  UNL     1      18.370  17.000  23.714  1.00  0.00    -0.220 OA
ATOM     10  H3  UNL     1      17.758  15.112  24.210  1.00  0.00     0.196 HD
HETATM   11  C10 UNL     1      18.155  18.180  24.196  1.00  0.00     0.172 A 
HETATM   12  N4  UNL     1      17.331  18.049  25.265  1.00  0.00    -0.321 N 
ATOM     13  H4  UNL     1      16.976  18.795  25.862  1.00  0.00     0.169 HD
BRANCH  11  14
HETATM   14  C11 UNL     1      18.731  19.431  23.642  1.00  0.00     0.265 C 
BRANCH  14  15
HETATM   15  O3  UNL     1      17.867  20.524  23.668  1.00  0.00    -0.310 OA
BRANCH  15  16
HETATM   16  C12 UNL     1      18.236  21.808  24.017  1.00  0.00     0.314 C 
HETATM   17  O4  UNL     1      19.164  21.988  24.844  1.00  0.00    -0.260 OA
BRANCH  16  18
HETATM   18  C13 UNL     1      17.507  22.952  23.389  1.00  0.00     0.276 C 
HETATM   19 CL1  UNL     1      15.809  22.421  23.154  1.00  0.00    -0.073 Cl
HETATM   20 CL2  UNL     1      17.524  24.338  24.475  1.00  0.00    -0.073 Cl
HETATM   21 CL3  UNL     1      18.211  23.352  21.818  1.00  0.00    -0.073 Cl
ENDBRANCH  16  18
ENDBRANCH  15  16
ENDBRANCH  14  15
ENDBRANCH  11  14
ENDBRANCH   4   7
BRANCH   1  22
HETATM   22  C4  UNL     1      13.656  14.229  29.259  1.00  0.00     0.099 C 
BRANCH  22  23
HETATM   23  N2  UNL     1      13.136  12.997  28.841  1.00  0.00    -0.365 N 
ATOM     24  H2  UNL     1      12.540  12.964  28.014  1.00  0.00     0.165 HD
BRANCH  23  25
HETATM   25  C3  UNL     1      13.415  11.805  29.532  1.00  0.00     0.056 C 
BRANCH  25  26
HETATM   26  C2  UNL     1      14.660  11.102  29.251  1.00  0.00     0.052 C 
HETATM   27  C1  UNL     1      15.699  10.653  30.186  1.00  0.00     0.072 C 
HETATM   28  N1  UNL     1      14.913  10.815  27.985  1.00  0.00    -0.272 N 
ATOM     29  H1  UNL     1      15.777  10.322  27.760  1.00  0.00     0.194 HD
BRANCH  28  30
HETATM   30  O1  UNL     1      14.078  11.147  26.976  1.00  0.00    -0.290 OA
ATOM     31  H1  UNL     1      14.164  11.952  26.477  1.00  0.00     0.244 HD
ENDBRANCH  28  30
ENDBRANCH  25  26
BRANCH  25  32
HETATM   32  C16 UNL     1      12.188  10.979  29.742  1.00  0.00     0.074 C 
HETATM   33  C17 UNL     1      12.478   9.760  30.621  1.00  0.00     0.039 C 
HETATM   34  C18 UNL     1      11.407  10.612  28.533  1.00  0.00     0.039 C 
HETATM   35 CL4  UNL     1      11.085  12.006  30.743  1.00  0.00    -0.113 Cl
ENDBRANCH  25  32
ENDBRANCH  23  25
ENDBRANCH  22  23
ENDBRANCH   1  22
TORSDOF 11
ENDMDL
MODEL 3
REMARK VINA RESULT: -9.022750910      1.975      2.426
REMARK  11 active torsions:
REMARK  status: ('A' for Active; 'I' for Inactive)
REMARK    1  A    between atoms: C2_2  and  C3_7 
REMARK    2  A    between atoms: N1_3  and  O1_5 
REMARK    3  A    between atoms: C3_7  and  N2_8 
REMARK    4  A    between atoms: C3_7  and  C16_32 
REMARK    5  A    between atoms: N2_8  and  C4_10 
REMARK    6  A    between atoms: C4_10  and  C5_11 
REMARK    7  A    between atoms: C8_14  and  C9_15 
REMARK    8  A    between atoms: C10_19  and  C11_20 
REMARK    9  A    between atoms: C11_20  and  O3_21 
REMARK   10  A    between atoms: O3_21  and  C12_22 
REMARK   11  A    between atoms: C12_22  and  C13_24 
ROOT
HETATM    1  C5  UNL     1      14.575  14.907  28.232  1.00  0.00    -0.021 A 
HETATM    2  C6  UNL     1      14.102  15.815  27.322  1.00  0.00     0.014 A 
HETATM    3  C7  UNL     1      14.917  16.443  26.407  1.00  0.00     0.016 A 
HETATM    4  C8  UNL     1      16.255  16.156  26.395  1.00  0.00     0.010 A 
HETATM    5  C14 UNL     1      16.755  15.248  27.300  1.00  0.00     0.016 A 
HETATM    6  C15 UNL     1      15.913  14.615  28.228  1.00  0.00     0.014 A 
ENDROOT
BRANCH   4   7
HETATM    7  C9  UNL     1      17.113  16.831  25.416  1.00  0.00     0.137 A 
HETATM    8  N3  UNL     1      17.781  16.234  24.420  1.00  0.00    -0.242 N 
HETATM    9  O2  UNL     1      18.423  17.124  23.770  1.00  0.00    -0.220 OA
ATOM     10  H3  UNL     1      17.777  15.235  24.215  1.00  0.00     0.196 HD
HETATM   11  C10 UNL     1      18.222  18.296  24.278  1.00  0.00     0.172 A 
HETATM   12  N4  UNL     1      17.387  18.152  25.337  1.00  0.00    -0.321 N 
ATOM     13  H4  UNL     1      17.038  18.890  25.948  1.00  0.00     0.169 HD
BRANCH  11  14
HETATM   14  C11 UNL     1      18.823  19.550  23.759  1.00  0.00     0.265 C 
BRANCH  14  15
HETATM   15  O3  UNL     1      17.928  20.612  23.642  1.00  0.00    -0.310 OA
BRANCH  15  16
HETATM   16  C12 UNL     1      18.196  21.909  24.031  1.00  0.00     0.314 C 
HETATM   17  O4  UNL     1      19.081  22.133  24.892  1.00  0.00    -0.260 OA
BRANCH  16  18
HETATM   18  C13 UNL     1      17.410  23.015  23.402  1.00  0.00     0.276 C 
HETATM   19 CL1  UNL     1      17.490  24.414  24.523  1.00  0.00    -0.073 Cl
HETATM   20 CL2  UNL     1      18.147  23.472  21.869  1.00  0.00    -0.073 Cl
HETATM   21 CL3  UNL     1      15.721  22.538  23.191  1.00  0.00    -0.073 Cl
ENDBRANCH  16  18
ENDBRANCH  15  16
ENDBRANCH  14  15
ENDBRANCH  11  14
ENDBRANCH   4   7
BRANCH   1  22
HETATM   22  C4  UNL     1      13.610  14.281  29.189  1.00  0.00     0.099 C 
BRANCH  22  23
HETATM   23  N2  UNL     1      14.097  13.102  29.769  1.00  0.00    -0.365 N 
ATOM     24  H2  UNL     1      14.600  13.155  30.655  1.00  0.00     0.165 HD
BRANCH  23  25
HETATM   25  C3  UNL     1      13.911  11.848  29.160  1.00  0.00     0.056 C 
BRANCH  25  26
HETATM   26  C2  UNL     1      12.605  11.209  29.246  1.00  0.00     0.052 C 
HETATM   27  C1  UNL     1      11.979  10.535  30.390  1.00  0.00     0.072 C 
HETATM   28  N1  UNL     1      11.858  11.226  28.155  1.00  0.00    -0.272 N 
ATOM     29  H1  UNL     1      10.937  10.787  28.187  1.00  0.00     0.194 HD
BRANCH  28  30
HETATM   30  O1  UNL     1      12.259  11.799  26.998  1.00  0.00    -0.290 OA
ATOM     31  H1  UNL     1      13.126  12.171  26.880  1.00  0.00     0.244 HD
ENDBRANCH  28  30
ENDBRANCH  25  26
BRANCH  25  32
HETATM   32  C16 UNL     1      15.117  10.976  29.296  1.00  0.00     0.074 C 
HETATM   33  C17 UNL     1      14.754   9.495  29.153  1.00  0.00     0.039 C 
HETATM   34  C18 UNL     1      15.995  11.216  30.469  1.00  0.00     0.039 C 
HETATM   35 CL4  UNL     1      16.133  11.335  27.843  1.00  0.00    -0.113 Cl
ENDBRANCH  25  32
ENDBRANCH  23  25
ENDBRANCH  22  23
ENDBRANCH   1  22
TORSDOF 11
ENDMDL
MODEL 4
REMARK VINA RESULT: -8.928130240      1.944      2.407
REMARK  11 active torsions:
REMARK  status: ('A' for Active; 'I' for Inactive)
REMARK    1  A    between atoms: C2_2  and  C3_7 
REMARK    2  A    between atoms: N1_3  and  O1_5 
REMARK    3  A    between atoms: C3_7  and  N2_8 
REMARK    4  A    between atoms: C3_7  and  C16_32 
REMARK    5  A    between atoms: N2_8  and  C4_10 
REMARK    6  A    between atoms: C4_10  and  C5_11 
REMARK    7  A    between atoms: C8_14  and  C9_15 
REMARK    8  A    between atoms: C10_19  and  C11_20 
REMARK    9  A    between atoms: C11_20  and  O3_21 
REMARK   10  A    between atoms: O3_21  and  C12_22 
REMARK   11  A    between atoms: C12_22  and  C13_24 
ROOT
HETATM    1  C5  UNL     1      14.649  14.936  28.286  1.00  0.00    -0.021 A 
HETATM    2  C6  UNL     1      14.143  15.784  27.336  1.00  0.00     0.014 A 
HETATM    3  C7  UNL     1      14.936  16.411  26.401  1.00  0.00     0.016 A 
HETATM    4  C8  UNL     1      16.285  16.185  26.410  1.00  0.00     0.010 A 
HETATM    5  C14 UNL     1      16.819  15.338  27.354  1.00  0.00     0.016 A 
HETATM    6  C15 UNL     1      15.999  14.706  28.302  1.00  0.00     0.014 A 
ENDROOT
BRANCH   4   7
HETATM    7  C9  UNL     1      17.120  16.859  25.410  1.00  0.00     0.137 A 
HETATM    8  N3  UNL     1      17.749  16.262  24.388  1.00  0.00    -0.242 N 
HETATM    9  O2  UNL     1      18.381  17.150  23.725  1.00  0.00    -0.220 OA
ATOM     10  H3  UNL     1      17.725  15.265  24.175  1.00  0.00     0.196 HD
HETATM   11  C10 UNL     1      18.211  18.320  24.250  1.00  0.00     0.172 A 
HETATM   12  N4  UNL     1      17.409  18.177  25.334  1.00  0.00    -0.321 N 
ATOM     13  H4  UNL     1      17.089  18.913  25.962  1.00  0.00     0.169 HD
BRANCH  11  14
HETATM   14  C11 UNL     1      18.811  19.571  23.722  1.00  0.00     0.265 C 
BRANCH  14  15
HETATM   15  O3  UNL     1      17.925  20.644  23.640  1.00  0.00    -0.310 OA
BRANCH  15  16
HETATM   16  C12 UNL     1      18.222  21.937  24.024  1.00  0.00     0.314 C 
HETATM   17  O4  UNL     1      19.146  22.147  24.846  1.00  0.00    -0.260 OA
BRANCH  16  18
HETATM   18  C13 UNL     1      17.419  23.053  23.436  1.00  0.00     0.276 C 
HETATM   19 CL1  UNL     1      18.192  23.483  21.874  1.00  0.00    -0.073 Cl
HETATM   20 CL2  UNL     1      15.775  22.505  23.125  1.00  0.00    -0.073 Cl
HETATM   21 CL3  UNL     1      17.441  24.464  24.500  1.00  0.00    -0.073 Cl
ENDBRANCH  16  18
ENDBRANCH  15  16
ENDBRANCH  14  15
ENDBRANCH  11  14
ENDBRANCH   4   7
BRANCH   1  22
HETATM   22  C4  UNL     1      13.705  14.306  29.261  1.00  0.00     0.099 C 
BRANCH  22  23
HETATM   23  N2  UNL     1      14.165  13.078  29.757  1.00  0.00    -0.365 N 
ATOM     24  H2  UNL     1      14.686  13.061  30.633  1.00  0.00     0.165 HD
BRANCH  23  25
HETATM   25  C3  UNL     1      13.926  11.872  29.076  1.00  0.00     0.056 C 
BRANCH  25  26
HETATM   26  C2  UNL     1      12.608  11.257  29.171  1.00  0.00     0.052 C 
HETATM   27  C1  UNL     1      11.970  10.612  30.325  1.00  0.00     0.072 C 
HETATM   28  N1  UNL     1      11.861  11.271  28.080  1.00  0.00    -0.272 N 
ATOM     29  H1  UNL     1      10.933  10.850  28.119  1.00  0.00     0.194 HD
BRANCH  28  30
HETATM   30  O1  UNL     1      12.273  11.820  26.915  1.00  0.00    -0.290 OA
ATOM     31  H1  UNL     1      13.165  11.746  26.597  1.00  0.00     0.244 HD
ENDBRANCH  28  30
ENDBRANCH  25  26
BRANCH  25  32
HETATM   32  C16 UNL     1      15.113  10.966  29.109  1.00  0.00     0.074 C 
HETATM   33  C17 UNL     1      16.111  11.311  28.000  1.00  0.00     0.039 C 
HETATM   34  C18 UNL     1      14.847   9.507  29.174  1.00  0.00     0.039 C 
HETATM   35 CL4  UNL     1      15.984  11.372  30.642  1.00  0.00    -0.113 Cl
ENDBRANCH  25  32
ENDBRANCH  23  25
ENDBRANCH  22  23
ENDBRANCH   1  22
TORSDOF 11
ENDMDL
MODEL 5
REMARK VINA RESULT: -8.833916752      2.095      2.879
REMARK  11 active torsions:
REMARK  status: ('A' for Active; 'I' for Inactive)
REMARK    1  A    between atoms: C2_2  and  C3_7 
REMARK    2  A    between atoms: N1_3  and  O1_5 
REMARK    3  A    between atoms: C3_7  and  N2_8 
REMARK    4  A    between atoms: C3_7  and  C16_32 
REMARK    5  A    between atoms: N2_8  and  C4_10 
REMARK    6  A    between atoms: C4_10  and  C5_11 
REMARK    7  A    between atoms: C8_14  and  C9_15 
REMARK    8  A    between atoms: C10_19  and  C11_20 
REMARK    9  A    between atoms: C11_20  and  O3_21 
REMARK   10  A    between atoms: O3_21  and  C12_22 
REMARK   11  A    between atoms: C12_22  and  C13_24 
ROOT
HETATM    1  C5  UNL     1      14.515  14.788  28.420  1.00  0.00    -0.021 A 
HETATM    2  C6  UNL     1      15.865  14.574  28.315  1.00  0.00     0.014 A 
HETATM    3  C7  UNL     1      16.643  15.193  27.363  1.00  0.00     0.016 A 
HETATM    4  C8  UNL     1      16.058  16.059  26.481  1.00  0.00     0.010 A 
HETATM    5  C14 UNL     1      14.703  16.291  26.564  1.00  0.00     0.016 A 
HETATM    6  C15 UNL     1      13.922  15.653  27.540  1.00  0.00     0.014 A 
ENDROOT
BRANCH   4   7
HETATM    7  C9  UNL     1      16.896  16.712  25.470  1.00  0.00     0.137 A 
HETATM    8  N3  UNL     1      17.657  16.084  24.563  1.00  0.00    -0.242 N 
HETATM    9  O2  UNL     1      18.247  16.962  23.850  1.00  0.00    -0.220 OA
ATOM     10  H3  UNL     1      17.749  15.074  24.460  1.00  0.00     0.196 HD
HETATM   11  C10 UNL     1      17.923  18.154  24.231  1.00  0.00     0.172 A 
HETATM   12  N4  UNL     1      17.058  18.039  25.268  1.00  0.00    -0.321 N 
ATOM     13  H4  UNL     1      16.619  18.797  25.790  1.00  0.00     0.169 HD
BRANCH  11  14
HETATM   14  C11 UNL     1      18.435  19.402  23.610  1.00  0.00     0.265 C 
BRANCH  14  15
HETATM   15  O3  UNL     1      17.622  20.517  23.805  1.00  0.00    -0.310 OA
BRANCH  15  16
HETATM   16  C12 UNL     1      18.088  21.798  24.026  1.00  0.00     0.314 C 
HETATM   17  O4  UNL     1      19.083  21.980  24.771  1.00  0.00    -0.260 OA
BRANCH  16  18
HETATM   18  C13 UNL     1      17.382  22.935  23.362  1.00  0.00     0.276 C 
HETATM   19 CL1  UNL     1      17.507  24.344  24.467  1.00  0.00    -0.073 Cl
HETATM   20 CL2  UNL     1      18.184  23.330  21.845  1.00  0.00    -0.073 Cl
HETATM   21 CL3  UNL     1      15.676  22.548  23.110  1.00  0.00    -0.073 Cl
ENDBRANCH  16  18
ENDBRANCH  15  16
ENDBRANCH  14  15
ENDBRANCH  11  14
ENDBRANCH   4   7
BRANCH   1  22
HETATM   22  C4  UNL     1      13.755  14.065  29.488  1.00  0.00     0.099 C 
BRANCH  22  23
HETATM   23  N2  UNL     1      13.121  12.905  29.021  1.00  0.00    -0.365 N 
ATOM     24  H2  UNL     1      12.473  12.975  28.237  1.00  0.00     0.165 HD
BRANCH  23  25
HETATM   25  C3  UNL     1      13.356  11.650  29.607  1.00  0.00     0.056 C 
BRANCH  25  26
HETATM   26  C2  UNL     1      14.568  10.922  29.254  1.00  0.00     0.052 C 
HETATM   27  C1  UNL     1      15.591  10.347  30.135  1.00  0.00     0.072 C 
HETATM   28  N1  UNL     1      14.802  10.738  27.965  1.00  0.00    -0.272 N 
ATOM     29  H1  UNL     1      15.643  10.230  27.689  1.00  0.00     0.194 HD
BRANCH  28  30
HETATM   30  O1  UNL     1      13.976  11.194  26.997  1.00  0.00    -0.290 OA
ATOM     31  H1  UNL     1      14.281  11.437  26.130  1.00  0.00     0.244 HD
ENDBRANCH  28  30
ENDBRANCH  25  26
BRANCH  25  32
HETATM   32  C16 UNL     1      12.097  10.860  29.762  1.00  0.00     0.074 C 
HETATM   33  C17 UNL     1      12.308   9.643  30.667  1.00  0.00     0.039 C 
HETATM   34  C18 UNL     1      11.369  10.501  28.519  1.00  0.00     0.039 C 
HETATM   35 CL4  UNL     1      10.974  11.928  30.695  1.00  0.00    -0.113 Cl
ENDBRANCH  25  32
ENDBRANCH  23  25
ENDBRANCH  22  23
ENDBRANCH   1  22
TORSDOF 11
ENDMDL
