MODEL 1
REMARK VINA RESULT: -5.536613282      0.000      0.000
REMARK  3 active torsions:
REMARK  status: ('A' for Active; 'I' for Inactive)
REMARK    1  A    between atoms: C3_3  and  C4_4 
REMARK    2  A    between atoms: C3_3  and  N1_6 
REMARK    3  A    between atoms: C7_8  and  N2_9 
ROOT
HETATM    1  C1  UNL     1     -31.117 -28.818  10.020  1.00  0.00     0.014 C 
HETATM    2  C2  UNL     1     -30.205 -29.609   9.932  1.00  0.00    -0.077 C 
HETATM    3  C3  UNL     1     -29.093 -30.574   9.798  1.00  0.00     0.325 C 
ENDROOT
BRANCH   3   4
HETATM    4  C4  UNL     1     -28.342 -30.214   8.582  1.00  0.00     0.011 C 
HETATM    5  C5  UNL     1     -28.223 -28.958   8.227  1.00  0.00     0.010 C 
ENDBRANCH   3   4
BRANCH   3   6
HETATM    6  N1  UNL     1     -29.733 -31.886   9.637  1.00  0.00     0.144 N 
HETATM    7  C6  UNL     1     -28.730 -32.945   9.478  1.00  0.00     0.342 A 
HETATM    8  C7  UNL     1     -29.688 -32.552   8.379  1.00  0.00     0.447 A 
BRANCH   8   9
HETATM    9  N2  UNL     1     -30.767 -33.525   8.178  1.00  0.00    -0.046 N 
ATOM     10  H23 UNL     1     -31.064 -33.920   9.071  1.00  0.00     0.277 HD
ATOM     11  H22 UNL     1     -31.629 -33.053   7.903  1.00  0.00     0.277 HD
ATOM     12  H21 UNL     1     -30.540 -34.268   7.517  1.00  0.00     0.277 HD
ENDBRANCH   8   9
ENDBRANCH   3   6
TORSDOF 3
ENDMDL
MODEL 2
REMARK VINA RESULT: -4.925205488      1.389      2.683
REMARK  3 active torsions:
REMARK  status: ('A' for Active; 'I' for Inactive)
REMARK    1  A    between atoms: C3_3  and  C4_4 
REMARK    2  A    between atoms: C3_3  and  N1_6 
REMARK    3  A    between atoms: C7_8  and  N2_9 
ROOT
HETATM    1  C1  UNL     1     -28.086 -28.942   7.752  1.00  0.00     0.014 C 
HETATM    2  C2  UNL     1     -28.771 -29.838   8.193  1.00  0.00    -0.077 C 
HETATM    3  C3  UNL     1     -29.599 -30.926   8.755  1.00  0.00     0.325 C 
ENDROOT
BRANCH   3   4
HETATM    4  C4  UNL     1     -30.115 -30.459  10.054  1.00  0.00     0.011 C 
HETATM    5  C5  UNL     1     -30.730 -29.306  10.145  1.00  0.00     0.010 C 
ENDBRANCH   3   4
BRANCH   3   6
HETATM    6  N1  UNL     1     -28.681 -32.057   8.942  1.00  0.00     0.144 N 
HETATM    7  C6  UNL     1     -29.218 -33.015   9.915  1.00  0.00     0.342 A 
HETATM    8  C7  UNL     1     -27.970 -32.203  10.168  1.00  0.00     0.447 A 
BRANCH   8   9
HETATM    9  N2  UNL     1     -26.737 -32.989  10.054  1.00  0.00    -0.046 N 
ATOM     10  H23 UNL     1     -26.326 -32.879   9.125  1.00  0.00     0.277 HD
ATOM     11  H22 UNL     1     -25.995 -32.577  10.620  1.00  0.00     0.277 HD
ATOM     12  H21 UNL     1     -26.851 -33.977  10.279  1.00  0.00     0.277 HD
ENDBRANCH   8   9
ENDBRANCH   3   6
TORSDOF 3
ENDMDL
MODEL 3
REMARK VINA RESULT: -4.833665476      1.431      2.525
REMARK  3 active torsions:
REMARK  status: ('A' for Active; 'I' for Inactive)
REMARK    1  A    between atoms: C3_3  and  C4_4 
REMARK    2  A    between atoms: C3_3  and  N1_6 
REMARK    3  A    between atoms: C7_8  and  N2_9 
ROOT
HETATM    1  C1  UNL     1     -26.744 -32.871  10.419  1.00  0.00     0.014 C 
HETATM    2  C2  UNL     1     -27.478 -32.319   9.630  1.00  0.00    -0.077 C 
HETATM    3  C3  UNL     1     -28.383 -31.631   8.686  1.00  0.00     0.325 C 
ENDROOT
BRANCH   3   4
HETATM    4  C4  UNL     1     -28.502 -30.231   9.131  1.00  0.00     0.011 C 
HETATM    5  C5  UNL     1     -28.406 -29.253   8.266  1.00  0.00     0.010 C 
ENDBRANCH   3   4
BRANCH   3   6
HETATM    6  N1  UNL     1     -29.673 -32.321   8.810  1.00  0.00     0.144 N 
HETATM    7  C6  UNL     1     -29.544 -33.539   9.620  1.00  0.00     0.342 A 
HETATM    8  C7  UNL     1     -29.883 -33.566   8.149  1.00  0.00     0.447 A 
BRANCH   8   9
HETATM    9  N2  UNL     1     -31.294 -33.873   7.887  1.00  0.00    -0.046 N 
ATOM     10  H23 UNL     1     -31.895 -33.406   8.567  1.00  0.00     0.277 HD
ATOM     11  H22 UNL     1     -31.608 -33.413   7.033  1.00  0.00     0.277 HD
ATOM     12  H21 UNL     1     -31.502 -34.871   7.853  1.00  0.00     0.277 HD
ENDBRANCH   8   9
ENDBRANCH   3   6
TORSDOF 3
ENDMDL
MODEL 4
REMARK VINA RESULT: -4.833315334      1.794      3.835
REMARK  3 active torsions:
REMARK  status: ('A' for Active; 'I' for Inactive)
REMARK    1  A    between atoms: C3_3  and  C4_4 
REMARK    2  A    between atoms: C3_3  and  N1_6 
REMARK    3  A    between atoms: C7_8  and  N2_9 
ROOT
HETATM    1  C1  UNL     1     -26.963 -32.798  10.227  1.00  0.00     0.014 C 
HETATM    2  C2  UNL     1     -28.073 -32.413   9.936  1.00  0.00    -0.077 C 
HETATM    3  C3  UNL     1     -29.422 -31.944   9.556  1.00  0.00     0.325 C 
ENDROOT
BRANCH   3   4
HETATM    4  C4  UNL     1     -29.776 -32.604   8.286  1.00  0.00     0.011 C 
HETATM    5  C5  UNL     1     -30.013 -33.891   8.255  1.00  0.00     0.010 C 
ENDBRANCH   3   4
BRANCH   3   6
HETATM    6  N1  UNL     1     -29.290 -30.494   9.363  1.00  0.00     0.144 N 
HETATM    7  C6  UNL     1     -30.262 -29.763  10.184  1.00  0.00     0.342 A 
HETATM    8  C7  UNL     1     -30.307 -29.771   8.675  1.00  0.00     0.447 A 
BRANCH   8   9
HETATM    9  N2  UNL     1     -29.846 -28.513   8.077  1.00  0.00    -0.046 N 
ATOM     10  H23 UNL     1     -29.334 -28.695   7.212  1.00  0.00     0.277 HD
ATOM     11  H22 UNL     1     -30.634 -27.984   7.703  1.00  0.00     0.277 HD
ATOM     12  H21 UNL     1     -29.291 -27.933   8.705  1.00  0.00     0.277 HD
ENDBRANCH   8   9
ENDBRANCH   3   6
TORSDOF 3
ENDMDL
MODEL 5
REMARK VINA RESULT: -4.751849149      1.595      3.673
REMARK  3 active torsions:
REMARK  status: ('A' for Active; 'I' for Inactive)
REMARK    1  A    between atoms: C3_3  and  C4_4 
REMARK    2  A    between atoms: C3_3  and  N1_6 
REMARK    3  A    between atoms: C7_8  and  N2_9 
ROOT
HETATM    1  C1  UNL     1     -30.464 -33.985   8.112  1.00  0.00     0.014 C 
HETATM    2  C2  UNL     1     -29.789 -32.995   8.288  1.00  0.00    -0.077 C 
HETATM    3  C3  UNL     1     -28.971 -31.789   8.529  1.00  0.00     0.325 C 
ENDROOT
BRANCH   3   4
HETATM    4  C4  UNL     1     -28.341 -31.941   9.853  1.00  0.00     0.011 C 
HETATM    5  C5  UNL     1     -27.246 -32.648   9.984  1.00  0.00     0.010 C 
ENDBRANCH   3   4
BRANCH   3   6
HETATM    6  N1  UNL     1     -29.921 -30.669   8.538  1.00  0.00     0.144 N 
HETATM    7  C6  UNL     1     -29.271 -29.423   8.116  1.00  0.00     0.342 A 
HETATM    8  C7  UNL     1     -29.799 -29.638   9.514  1.00  0.00     0.447 A 
BRANCH   8   9
HETATM    9  N2  UNL     1     -31.048 -28.914   9.778  1.00  0.00    -0.046 N 
ATOM     10  H23 UNL     1     -31.388 -28.465   8.926  1.00  0.00     0.277 HD
ATOM     11  H22 UNL     1     -31.812 -29.567   9.946  1.00  0.00     0.277 HD
ATOM     12  H21 UNL     1     -30.982 -28.236  10.537  1.00  0.00     0.277 HD
ENDBRANCH   8   9
ENDBRANCH   3   6
TORSDOF 3
ENDMDL
