MODEL 1
REMARK VINA RESULT: -5.559027457      0.000      0.000
REMARK  3 active torsions:
REMARK  status: ('A' for Active; 'I' for Inactive)
REMARK    1  A    between atoms: C4_4  and  C5_5 
REMARK    2  A    between atoms: C5_5  and  N1_6 
REMARK    3  A    between atoms: N1_6  and  C6_8 
ROOT
HETATM    1  N1  UNL     1      -0.010  22.994  51.977  1.00  0.00    -0.370 N 
ATOM      2  H1  UNL     1       0.325  22.655  52.878  1.00  0.00     0.161 HD
ENDROOT
BRANCH   1   3
HETATM    3  C5  UNL     1      -0.440  22.071  50.970  1.00  0.00     0.178 C 
BRANCH   3   4
HETATM    4  C4  UNL     1       0.523  20.962  50.775  1.00  0.00     0.026 A 
HETATM    5  C3  UNL     1       1.568  21.170  49.899  1.00  0.00     0.027 A 
HETATM    6  C2  UNL     1       2.523  20.218  49.636  1.00  0.00     0.003 A 
HETATM    7  C1  UNL     1       2.412  19.001  50.292  1.00  0.00     0.017 A 
HETATM    8  C9  UNL     1       1.356  18.817  51.165  1.00  0.00     0.088 A 
HETATM    9  N4  UNL     1       0.444  19.783  51.389  1.00  0.00    -0.368 N 
ATOM     10  H4  UNL     1      -0.321  19.608  52.041  1.00  0.00     0.165 HD
ENDBRANCH   3   4
ENDBRANCH   1   3
BRANCH   1  11
HETATM   11  C6  UNL     1      -0.052  24.252  51.729  1.00  0.00     0.117 A 
HETATM   12  C7  UNL     1       0.289  24.781  50.496  1.00  0.00     0.068 A 
HETATM   13  C8  UNL     1       0.131  26.151  50.587  1.00  0.00     0.111 A 
HETATM   14  N2  UNL     1      -0.288  26.381  51.833  1.00  0.00    -0.310 N 
HETATM   15  N3  UNL     1      -0.403  25.272  52.530  1.00  0.00    -0.286 N 
ATOM     16  H2  UNL     1      -0.494  27.310  52.202  1.00  0.00     0.186 HD
ATOM     17  H3  UNL     1      -0.705  25.199  53.502  1.00  0.00     0.188 HD
ENDBRANCH   1  11
TORSDOF 3
ENDMDL
MODEL 2
REMARK VINA RESULT: -5.484803449      3.720      5.346
REMARK  3 active torsions:
REMARK  status: ('A' for Active; 'I' for Inactive)
REMARK    1  A    between atoms: C4_4  and  C5_5 
REMARK    2  A    between atoms: C5_5  and  N1_6 
REMARK    3  A    between atoms: N1_6  and  C6_8 
ROOT
HETATM    1  N1  UNL     1      -0.256  26.067  49.195  1.00  0.00    -0.370 N 
ATOM      2  H1  UNL     1       0.356  26.792  48.820  1.00  0.00     0.161 HD
ENDROOT
BRANCH   1   3
HETATM    3  C5  UNL     1      -1.157  25.361  48.335  1.00  0.00     0.178 C 
BRANCH   3   4
HETATM    4  C4  UNL     1      -0.590  25.143  46.983  1.00  0.00     0.026 A 
HETATM    5  C3  UNL     1      -1.439  24.670  46.004  1.00  0.00     0.027 A 
HETATM    6  C2  UNL     1      -1.031  24.430  44.715  1.00  0.00     0.003 A 
HETATM    7  C1  UNL     1       0.298  24.680  44.406  1.00  0.00     0.017 A 
HETATM    8  C9  UNL     1       1.128  25.154  45.405  1.00  0.00     0.088 A 
HETATM    9  N4  UNL     1       0.680  25.374  46.655  1.00  0.00    -0.368 N 
ATOM     10  H4  UNL     1       1.325  25.723  47.364  1.00  0.00     0.165 HD
ENDBRANCH   3   4
ENDBRANCH   1   3
BRANCH   1  11
HETATM   11  C6  UNL     1      -0.228  25.776  50.444  1.00  0.00     0.117 A 
HETATM   12  C7  UNL     1       0.081  24.508  50.907  1.00  0.00     0.068 A 
HETATM   13  C8  UNL     1       0.016  24.555  52.287  1.00  0.00     0.111 A 
HETATM   14  N2  UNL     1      -0.319  25.812  52.587  1.00  0.00    -0.310 N 
HETATM   15  N3  UNL     1      -0.469  26.555  51.512  1.00  0.00    -0.286 N 
ATOM     16  H2  UNL     1      -0.443  26.157  53.539  1.00  0.00     0.186 HD
ATOM     17  H3  UNL     1      -0.723  27.543  51.492  1.00  0.00     0.188 HD
ENDBRANCH   1  11
TORSDOF 3
ENDMDL
MODEL 3
REMARK VINA RESULT: -5.478223369      3.756      5.289
REMARK  3 active torsions:
REMARK  status: ('A' for Active; 'I' for Inactive)
REMARK    1  A    between atoms: C4_4  and  C5_5 
REMARK    2  A    between atoms: C5_5  and  N1_6 
REMARK    3  A    between atoms: N1_6  and  C6_8 
ROOT
HETATM    1  N1  UNL     1      -0.288  25.998  49.142  1.00  0.00    -0.370 N 
ATOM      2  H1  UNL     1       0.376  26.651  48.727  1.00  0.00     0.161 HD
ENDROOT
BRANCH   1   3
HETATM    3  C5  UNL     1      -1.280  25.360  48.330  1.00  0.00     0.178 C 
BRANCH   3   4
HETATM    4  C4  UNL     1      -0.802  25.108  46.950  1.00  0.00     0.026 A 
HETATM    5  C3  UNL     1       0.479  25.515  46.635  1.00  0.00     0.027 A 
HETATM    6  C2  UNL     1       1.033  25.337  45.391  1.00  0.00     0.003 A 
HETATM    7  C1  UNL     1       0.254  24.718  44.425  1.00  0.00     0.017 A 
HETATM    8  C9  UNL     1      -1.025  24.320  44.765  1.00  0.00     0.088 A 
HETATM    9  N4  UNL     1      -1.525  24.518  46.000  1.00  0.00    -0.368 N 
ATOM     10  H4  UNL     1      -2.473  24.210  46.212  1.00  0.00     0.165 HD
ENDBRANCH   3   4
ENDBRANCH   1   3
BRANCH   1  11
HETATM   11  C6  UNL     1      -0.247  25.738  50.396  1.00  0.00     0.117 A 
HETATM   12  C7  UNL     1       0.071  24.483  50.887  1.00  0.00     0.068 A 
HETATM   13  C8  UNL     1       0.019  24.564  52.267  1.00  0.00     0.111 A 
HETATM   14  N2  UNL     1      -0.317  25.827  52.539  1.00  0.00    -0.310 N 
HETATM   15  N3  UNL     1      -0.480  26.542  51.447  1.00  0.00    -0.286 N 
ATOM     16  H2  UNL     1      -0.433  26.195  53.483  1.00  0.00     0.186 HD
ATOM     17  H3  UNL     1      -0.738  27.529  51.405  1.00  0.00     0.188 HD
ENDBRANCH   1  11
TORSDOF 3
ENDMDL
MODEL 4
REMARK VINA RESULT: -5.470725206      1.523      1.918
REMARK  3 active torsions:
REMARK  status: ('A' for Active; 'I' for Inactive)
REMARK    1  A    between atoms: C4_4  and  C5_5 
REMARK    2  A    between atoms: C5_5  and  N1_6 
REMARK    3  A    between atoms: N1_6  and  C6_8 
ROOT
HETATM    1  N1  UNL     1      -1.202  21.137  51.480  1.00  0.00    -0.370 N 
ATOM      2  H1  UNL     1      -1.611  20.849  52.369  1.00  0.00     0.161 HD
ENDROOT
BRANCH   1   3
HETATM    3  C5  UNL     1      -0.853  20.160  50.493  1.00  0.00     0.178 C 
BRANCH   3   4
HETATM    4  C4  UNL     1       0.456  19.524  50.768  1.00  0.00     0.026 A 
HETATM    5  C3  UNL     1       1.511  19.852  49.940  1.00  0.00     0.027 A 
HETATM    6  C2  UNL     1       2.771  19.328  50.095  1.00  0.00     0.003 A 
HETATM    7  C1  UNL     1       2.970  18.432  51.135  1.00  0.00     0.017 A 
HETATM    8  C9  UNL     1       1.897  18.120  51.950  1.00  0.00     0.088 A 
HETATM    9  N4  UNL     1       0.679  18.661  51.757  1.00  0.00    -0.368 N 
ATOM     10  H4  UNL     1      -0.087  18.404  52.380  1.00  0.00     0.165 HD
ENDBRANCH   3   4
ENDBRANCH   1   3
BRANCH   1  11
HETATM   11  C6  UNL     1      -0.992  22.377  51.232  1.00  0.00     0.117 A 
HETATM   12  C7  UNL     1       0.049  23.087  51.805  1.00  0.00     0.068 A 
HETATM   13  C8  UNL     1      -0.027  24.379  51.319  1.00  0.00     0.111 A 
HETATM   14  N2  UNL     1      -1.079  24.391  50.498  1.00  0.00    -0.310 N 
HETATM   15  N3  UNL     1      -1.668  23.217  50.429  1.00  0.00    -0.286 N 
ATOM     16  H2  UNL     1      -1.390  25.215  49.983  1.00  0.00     0.186 HD
ATOM     17  H3  UNL     1      -2.489  22.986  49.869  1.00  0.00     0.188 HD
ENDBRANCH   1  11
TORSDOF 3
ENDMDL
MODEL 5
REMARK VINA RESULT: -5.409038696      2.798      3.945
REMARK  3 active torsions:
REMARK  status: ('A' for Active; 'I' for Inactive)
REMARK    1  A    between atoms: C4_4  and  C5_5 
REMARK    2  A    between atoms: C5_5  and  N1_6 
REMARK    3  A    between atoms: N1_6  and  C6_8 
ROOT
HETATM    1  N1  UNL     1      -0.528  24.114  51.404  1.00  0.00    -0.370 N 
ATOM      2  H1  UNL     1      -1.286  24.739  51.676  1.00  0.00     0.161 HD
ENDROOT
BRANCH   1   3
HETATM    3  C5  UNL     1      -0.761  22.708  51.266  1.00  0.00     0.178 C 
BRANCH   3   4
HETATM    4  C4  UNL     1      -1.818  22.407  50.273  1.00  0.00     0.026 A 
HETATM    5  C3  UNL     1      -2.237  21.097  50.163  1.00  0.00     0.027 A 
HETATM    6  C2  UNL     1      -3.209  20.696  49.280  1.00  0.00     0.003 A 
HETATM    7  C1  UNL     1      -3.781  21.667  48.472  1.00  0.00     0.017 A 
HETATM    8  C9  UNL     1      -3.344  22.972  48.600  1.00  0.00     0.088 A 
HETATM    9  N4  UNL     1      -2.387  23.316  49.483  1.00  0.00    -0.368 N 
ATOM     10  H4  UNL     1      -2.092  24.290  49.547  1.00  0.00     0.165 HD
ENDBRANCH   3   4
ENDBRANCH   1   3
BRANCH   1  11
HETATM   11  C6  UNL     1       0.647  24.577  51.180  1.00  0.00     0.117 A 
HETATM   12  C7  UNL     1       1.675  23.793  50.685  1.00  0.00     0.068 A 
HETATM   13  C8  UNL     1       2.786  24.609  50.569  1.00  0.00     0.111 A 
HETATM   14  N2  UNL     1       2.390  25.813  50.987  1.00  0.00    -0.310 N 
HETATM   15  N3  UNL     1       1.127  25.820  51.354  1.00  0.00    -0.286 N 
ATOM     16  H2  UNL     1       2.996  26.633  51.017  1.00  0.00     0.186 HD
ATOM     17  H3  UNL     1       0.606  26.623  51.708  1.00  0.00     0.188 HD
ENDBRANCH   1  11
TORSDOF 3
ENDMDL
