MODEL 1
REMARK VINA RESULT: -5.606217649      0.000      0.000
REMARK  3 active torsions:
REMARK  status: ('A' for Active; 'I' for Inactive)
REMARK    1  A    between atoms: C2_2  and  C3_3 
REMARK    2  A    between atoms: C3_3  and  N1_4 
REMARK    3  A    between atoms: N1_4  and  C4_6 
ROOT
HETATM    1  C4  UNL     1      -0.154  23.824  50.368  1.00  0.00     0.120 A 
HETATM    2  N2  UNL     1      -0.931  24.888  50.767  1.00  0.00    -0.338 N 
ATOM      3  H2  UNL     1      -1.945  24.775  50.771  1.00  0.00     0.168 HD
HETATM    4  C5  UNL     1      -0.425  26.054  51.149  1.00  0.00     0.183 A 
HETATM    5  N3  UNL     1       0.886  26.293  51.176  1.00  0.00    -0.338 N 
ATOM      6  H3  UNL     1       1.255  27.197  51.472  1.00  0.00     0.168 HD
HETATM    7  C6  UNL     1       1.706  25.293  50.796  1.00  0.00     0.120 A 
HETATM    8  N4  UNL     1       3.047  25.220  50.715  1.00  0.00    -0.351 N 
ATOM      9  H4  UNL     1       3.683  25.983  50.951  1.00  0.00     0.166 HD
HETATM   10  C7  UNL     1       3.435  24.021  50.286  1.00  0.00     0.091 A 
HETATM   11  C8  UNL     1       2.294  23.259  50.071  1.00  0.00     0.036 A 
HETATM   12  C9  UNL     1       1.224  24.064  50.394  1.00  0.00     0.053 A 
ENDROOT
BRANCH   1  13
HETATM   13  N1  UNL     1      -0.697  22.751  50.021  1.00  0.00    -0.352 N 
ATOM     14  H1  UNL     1      -0.028  22.114  49.590  1.00  0.00     0.166 HD
BRANCH  13  15
HETATM   15  C3  UNL     1      -1.971  22.198  50.069  1.00  0.00     0.089 C 
BRANCH  15  16
HETATM   16  C2  UNL     1      -2.145  21.226  51.214  1.00  0.00     0.007 C 
HETATM   17  C1  UNL     1      -1.779  19.985  51.025  1.00  0.00     0.012 C 
ENDBRANCH  15  16
ENDBRANCH  13  15
ENDBRANCH   1  13
TORSDOF 3
ENDMDL
MODEL 2
REMARK VINA RESULT: -5.559872040      2.505      4.278
REMARK  3 active torsions:
REMARK  status: ('A' for Active; 'I' for Inactive)
REMARK    1  A    between atoms: C2_2  and  C3_3 
REMARK    2  A    between atoms: C3_3  and  N1_4 
REMARK    3  A    between atoms: N1_4  and  C4_6 
ROOT
HETATM    1  C4  UNL     1       0.986  24.006  48.977  1.00  0.00     0.120 A 
HETATM    2  N2  UNL     1       1.115  22.645  49.141  1.00  0.00    -0.338 N 
ATOM      3  H2  UNL     1       1.517  22.100  48.377  1.00  0.00     0.168 HD
HETATM    4  C5  UNL     1       0.743  22.008  50.243  1.00  0.00     0.183 A 
HETATM    5  N3  UNL     1       0.209  22.637  51.290  1.00  0.00    -0.338 N 
ATOM      6  H3  UNL     1      -0.071  22.128  52.129  1.00  0.00     0.168 HD
HETATM    7  C6  UNL     1       0.053  23.972  51.196  1.00  0.00     0.120 A 
HETATM    8  N4  UNL     1      -0.443  24.875  52.062  1.00  0.00    -0.351 N 
ATOM      9  H4  UNL     1      -0.803  24.650  52.990  1.00  0.00     0.166 HD
HETATM   10  C7  UNL     1      -0.403  26.103  51.546  1.00  0.00     0.091 A 
HETATM   11  C8  UNL     1       0.147  26.009  50.274  1.00  0.00     0.036 A 
HETATM   12  C9  UNL     1       0.428  24.676  50.070  1.00  0.00     0.053 A 
ENDROOT
BRANCH   1  13
HETATM   13  N1  UNL     1       1.359  24.544  47.910  1.00  0.00    -0.352 N 
ATOM     14  H1  UNL     1       2.289  24.952  48.000  1.00  0.00     0.166 HD
BRANCH  13  15
HETATM   15  C3  UNL     1       0.841  24.732  46.634  1.00  0.00     0.089 C 
BRANCH  15  16
HETATM   16  C2  UNL     1      -0.116  25.900  46.557  1.00  0.00     0.007 C 
HETATM   17  C1  UNL     1      -1.398  25.644  46.578  1.00  0.00     0.012 C 
ENDBRANCH  15  16
ENDBRANCH  13  15
ENDBRANCH   1  13
TORSDOF 3
ENDMDL
MODEL 3
REMARK VINA RESULT: -5.496205268      2.627      4.432
REMARK  3 active torsions:
REMARK  status: ('A' for Active; 'I' for Inactive)
REMARK    1  A    between atoms: C2_2  and  C3_3 
REMARK    2  A    between atoms: C3_3  and  N1_4 
REMARK    3  A    between atoms: N1_4  and  C4_6 
ROOT
HETATM    1  C4  UNL     1       1.417  24.412  48.793  1.00  0.00     0.120 A 
HETATM    2  N2  UNL     1       2.767  24.284  49.032  1.00  0.00    -0.338 N 
ATOM      3  H2  UNL     1       3.335  23.782  48.349  1.00  0.00     0.168 HD
HETATM    4  C5  UNL     1       3.365  24.783  50.105  1.00  0.00     0.183 A 
HETATM    5  N3  UNL     1       2.704  25.454  51.049  1.00  0.00    -0.338 N 
ATOM      6  H3  UNL     1       3.182  25.830  51.868  1.00  0.00     0.168 HD
HETATM    7  C6  UNL     1       1.377  25.615  50.878  1.00  0.00     0.120 A 
HETATM    8  N4  UNL     1       0.448  26.230  51.633  1.00  0.00    -0.351 N 
ATOM      9  H4  UNL     1       0.641  26.700  52.519  1.00  0.00     0.166 HD
HETATM   10  C7  UNL     1      -0.757  26.145  51.072  1.00  0.00     0.091 A 
HETATM   11  C8  UNL     1      -0.621  25.437  49.885  1.00  0.00     0.036 A 
HETATM   12  C9  UNL     1       0.714  25.115  49.777  1.00  0.00     0.053 A 
ENDROOT
BRANCH   1  13
HETATM   13  N1  UNL     1       0.917  23.916  47.758  1.00  0.00    -0.352 N 
ATOM     14  H1  UNL     1       0.916  22.898  47.793  1.00  0.00     0.166 HD
BRANCH  13  15
HETATM   15  C3  UNL     1       0.364  24.388  46.573  1.00  0.00     0.089 C 
BRANCH  15  16
HETATM   16  C2  UNL     1       1.159  25.522  45.967  1.00  0.00     0.007 C 
HETATM   17  C1  UNL     1       2.186  25.218  45.216  1.00  0.00     0.012 C 
ENDBRANCH  15  16
ENDBRANCH  13  15
ENDBRANCH   1  13
TORSDOF 3
ENDMDL
MODEL 4
REMARK VINA RESULT: -5.492629594      1.153      2.702
REMARK  3 active torsions:
REMARK  status: ('A' for Active; 'I' for Inactive)
REMARK    1  A    between atoms: C2_2  and  C3_3 
REMARK    2  A    between atoms: C3_3  and  N1_4 
REMARK    3  A    between atoms: N1_4  and  C4_6 
ROOT
HETATM    1  C4  UNL     1       1.371  23.083  49.940  1.00  0.00     0.120 A 
HETATM    2  N2  UNL     1       2.747  23.046  49.904  1.00  0.00    -0.338 N 
ATOM      3  H2  UNL     1       3.201  22.190  49.583  1.00  0.00     0.168 HD
HETATM    4  C5  UNL     1       3.511  24.069  50.265  1.00  0.00     0.183 A 
HETATM    5  N3  UNL     1       3.005  25.225  50.696  1.00  0.00    -0.338 N 
ATOM      6  H3  UNL     1       3.610  25.999  50.969  1.00  0.00     0.168 HD
HETATM    7  C6  UNL     1       1.663  25.329  50.757  1.00  0.00     0.120 A 
HETATM    8  N4  UNL     1       0.863  26.341  51.140  1.00  0.00    -0.351 N 
ATOM      9  H4  UNL     1       1.195  27.248  51.468  1.00  0.00     0.166 HD
HETATM   10  C7  UNL     1      -0.421  26.000  51.037  1.00  0.00     0.091 A 
HETATM   11  C8  UNL     1      -0.475  24.696  50.561  1.00  0.00     0.036 A 
HETATM   12  C9  UNL     1       0.831  24.291  50.390  1.00  0.00     0.053 A 
ENDROOT
BRANCH   1  13
HETATM   13  N1  UNL     1       0.711  22.080  49.584  1.00  0.00    -0.352 N 
ATOM     14  H1  UNL     1       0.554  22.073  48.577  1.00  0.00     0.166 HD
BRANCH  13  15
HETATM   15  C3  UNL     1       0.136  20.975  50.199  1.00  0.00     0.089 C 
BRANCH  15  16
HETATM   16  C2  UNL     1      -1.375  20.998  50.150  1.00  0.00     0.007 C 
HETATM   17  C1  UNL     1      -2.017  21.381  51.223  1.00  0.00     0.012 C 
ENDBRANCH  15  16
ENDBRANCH  13  15
ENDBRANCH   1  13
TORSDOF 3
ENDMDL
MODEL 5
REMARK VINA RESULT: -5.469592214      3.619      5.093
REMARK  3 active torsions:
REMARK  status: ('A' for Active; 'I' for Inactive)
REMARK    1  A    between atoms: C2_2  and  C3_3 
REMARK    2  A    between atoms: C3_3  and  N1_4 
REMARK    3  A    between atoms: N1_4  and  C4_6 
ROOT
HETATM    1  C4  UNL     1       1.107  24.593  47.754  1.00  0.00     0.120 A 
HETATM    2  N2  UNL     1       2.064  24.858  46.799  1.00  0.00    -0.338 N 
ATOM      3  H2  UNL     1       3.026  24.572  46.984  1.00  0.00     0.168 HD
HETATM    4  C5  UNL     1       1.797  25.467  45.652  1.00  0.00     0.183 A 
HETATM    5  N3  UNL     1       0.570  25.876  45.325  1.00  0.00    -0.338 N 
ATOM      6  H3  UNL     1       0.385  26.343  44.437  1.00  0.00     0.168 HD
HETATM    7  C6  UNL     1      -0.415  25.649  46.216  1.00  0.00     0.120 A 
HETATM    8  N4  UNL     1      -1.730  25.933  46.183  1.00  0.00    -0.351 N 
ATOM      9  H4  UNL     1      -2.201  26.404  45.410  1.00  0.00     0.166 HD
HETATM   10  C7  UNL     1      -2.336  25.520  47.295  1.00  0.00     0.091 A 
HETATM   11  C8  UNL     1      -1.374  24.932  48.106  1.00  0.00     0.036 A 
HETATM   12  C9  UNL     1      -0.183  25.018  47.420  1.00  0.00     0.053 A 
ENDROOT
BRANCH   1  13
HETATM   13  N1  UNL     1       1.429  24.014  48.816  1.00  0.00    -0.352 N 
ATOM     14  H1  UNL     1       1.119  23.043  48.822  1.00  0.00     0.166 HD
BRANCH  13  15
HETATM   15  C3  UNL     1       2.099  24.344  49.988  1.00  0.00     0.089 C 
BRANCH  15  16
HETATM   16  C2  UNL     1       1.353  25.363  50.820  1.00  0.00     0.007 C 
HETATM   17  C1  UNL     1       0.343  24.948  51.538  1.00  0.00     0.012 C 
ENDBRANCH  15  16
ENDBRANCH  13  15
ENDBRANCH   1  13
TORSDOF 3
ENDMDL
