MODEL 1
REMARK VINA RESULT: -9.317879273      0.000      0.000
REMARK  14 active torsions:
REMARK  status: ('A' for Active; 'I' for Inactive)
REMARK    1  A    between atoms: C2_2  and  C3_3 
REMARK    2  A    between atoms: C3_3  and  C5_5 
REMARK    3  A    between atoms: C7_10  and  C8_11 
REMARK    4  A    between atoms: C8_11  and  C9_12 
REMARK    5  A    between atoms: C9_12  and  C10_13 
REMARK    6  A    between atoms: C10_13  and  C11_14 
REMARK    7  A    between atoms: C11_14  and  N2_15 
REMARK    8  A    between atoms: C12_18  and  C13_19 
REMARK    9  A    between atoms: C13_19  and  C14_20 
REMARK   10  A    between atoms: C17_23  and  O2_24 
REMARK   11  A    between atoms: C22_34  and  C23_35 
REMARK   12  A    between atoms: C23_35  and  C25_37 
REMARK   13  A    between atoms: C29_46  and  C30_47 
REMARK   14  A    between atoms: C30_47  and  C31_48 
ROOT
HETATM    1  N2  UNL     1      -2.201   4.083   9.087  1.00  0.00    -0.243 N 
HETATM    2  N3  UNL     1      -2.505   2.724   9.072  1.00  0.00    -0.294 N 
ATOM      3  H3  UNL     1      -2.193   2.104   8.325  1.00  0.00     0.187 HD
HETATM    4  C12 UNL     1      -3.301   2.250  10.199  1.00  0.00     0.077 C 
HETATM    5  C17 UNL     1      -4.684   1.977   9.841  1.00  0.00     0.167 C 
HETATM    6  N4  UNL     1      -5.293   1.182   8.873  1.00  0.00    -0.330 N 
HETATM    7  C18 UNL     1      -6.757   0.957   9.144  1.00  0.00     0.158 C 
HETATM    8  C19 UNL     1      -4.837   0.544   7.682  1.00  0.00     0.077 C 
HETATM    9  C20 UNL     1      -3.558  -0.260   7.756  1.00  0.00     0.074 C 
HETATM   10  C21 UNL     1      -4.873   1.378   6.443  1.00  0.00     0.265 C 
HETATM   11  O3  UNL     1      -5.545   0.868   5.459  1.00  0.00    -0.266 OA
HETATM   12  N5  UNL     1      -4.294   2.610   6.191  1.00  0.00    -0.334 N 
ATOM     13  H5  UNL     1      -3.534   2.577   5.512  1.00  0.00     0.165 HD
HETATM   14  C22 UNL     1      -4.559   3.930   6.704  1.00  0.00     0.201 C 
HETATM   15  N7  UNL     1      -3.339   4.689   6.902  1.00  0.00    -0.320 N 
ATOM     16  H7  UNL     1      -2.916   5.059   6.051  1.00  0.00     0.166 HD
HETATM   17  C26 UNL     1      -2.665   4.985   8.072  1.00  0.00     0.338 C 
HETATM   18  O5  UNL     1      -2.413   6.226   8.294  1.00  0.00    -0.245 OA
ENDROOT
BRANCH   1  19
HETATM   19  C11 UNL     1      -1.367   4.613  10.143  1.00  0.00     0.154 C 
BRANCH  19  20
HETATM   20  C10 UNL     1       0.049   4.207  10.076  1.00  0.00     0.022 C 
BRANCH  20  21
HETATM   21  C9  UNL     1       0.956   5.381  10.361  1.00  0.00     0.002 C 
BRANCH  21  22
HETATM   22  C8  UNL     1       0.199   6.595  10.696  1.00  0.00     0.014 C 
BRANCH  22  23
HETATM   23  C7  UNL     1       0.927   7.877  10.878  1.00  0.00     0.078 C 
HETATM   24  C6  UNL     1       0.726   8.852   9.785  1.00  0.00     0.222 C 
HETATM   25  N1  UNL     1       0.150  10.138   9.895  1.00  0.00    -0.347 N 
HETATM   26  O1  UNL     1       1.127   8.467   8.624  1.00  0.00    -0.273 OA
HETATM   27  C5  UNL     1       0.607  11.228  10.719  1.00  0.00     0.180 C 
ATOM     28  H1  UNL     1      -0.680  10.314   9.328  1.00  0.00     0.163 HD
HETATM   29  C34 UNL     1       0.767  10.882  12.153  1.00  0.00     0.241 C 
HETATM   30  N8  UNL     1       1.926  10.610  12.861  1.00  0.00    -0.355 N 
HETATM   31  O6  UNL     1      -0.355  10.842  12.785  1.00  0.00    -0.271 OA
HETATM   32  C29 UNL     1       3.018   9.713  12.600  1.00  0.00     0.084 C 
ATOM     33  H8  UNL     1       2.023  11.143  13.725  1.00  0.00     0.162 HD
HETATM   34  C28 UNL     1       3.065   9.036  11.297  1.00  0.00     0.026 C 
HETATM   35  C27 UNL     1       2.417   7.702  11.174  1.00  0.00     0.016 C 
BRANCH  27  36
HETATM   36  C3  UNL     1      -0.424  12.371  10.620  1.00  0.00     0.013 C 
HETATM   37  C4  UNL     1      -1.308  12.214   9.432  1.00  0.00     0.012 C 
BRANCH  36  38
HETATM   38  C2  UNL     1       0.379  13.644  10.448  1.00  0.00     0.002 C 
HETATM   39  C1  UNL     1       1.432  13.496   9.378  1.00  0.00     0.005 C 
ENDBRANCH  36  38
ENDBRANCH  27  36
BRANCH  32  40
HETATM   40  C30 UNL     1       3.207   8.729  13.763  1.00  0.00     0.029 C 
BRANCH  40  41
HETATM   41  C31 UNL     1       4.651   8.644  14.188  1.00  0.00    -0.021 C 
HETATM   42  C32 UNL     1       5.005  10.044  14.711  1.00  0.00     0.009 C 
HETATM   43  C33 UNL     1       4.943   7.624  15.230  1.00  0.00     0.009 C 
ENDBRANCH  40  41
ENDBRANCH  32  40
ENDBRANCH  22  23
ENDBRANCH  21  22
ENDBRANCH  20  21
ENDBRANCH  19  20
ENDBRANCH   1  19
BRANCH   4  44
HETATM   44  C13 UNL     1      -2.546   1.300  11.058  1.00  0.00     0.067 C 
BRANCH  44  45
HETATM   45  C14 UNL     1      -1.807   0.177  10.470  1.00  0.00    -0.017 C 
HETATM   46  C15 UNL     1      -0.338   0.330  10.500  1.00  0.00     0.010 C 
HETATM   47  C16 UNL     1      -2.192  -1.079  11.247  1.00  0.00     0.010 C 
ENDBRANCH  44  45
ENDBRANCH   4  44
BRANCH   5  48
HETATM   48  O2  UNL     1      -5.534   2.637  10.605  1.00  0.00    -0.344 OA
ATOM     49  H2  UNL     1      -6.298   2.116  10.822  1.00  0.00     0.219 HD
ENDBRANCH   5  48
BRANCH  14  50
HETATM   50  C23 UNL     1      -5.390   4.777   5.712  1.00  0.00     0.113 C 
HETATM   51  C24 UNL     1      -6.116   5.816   6.577  1.00  0.00     0.023 C 
BRANCH  50  52
HETATM   52  C25 UNL     1      -4.563   5.505   4.750  1.00  0.00     0.238 C 
HETATM   53  N6  UNL     1      -3.960   4.919   3.606  1.00  0.00    -0.062 NA
HETATM   54  O4  UNL     1      -4.323   6.758   4.885  1.00  0.00    -0.276 OA
ENDBRANCH  50  52
ENDBRANCH  14  50
TORSDOF 14
ENDMDL
MODEL 2
REMARK VINA RESULT: -9.191124235      1.280      1.522
REMARK  14 active torsions:
REMARK  status: ('A' for Active; 'I' for Inactive)
REMARK    1  A    between atoms: C2_2  and  C3_3 
REMARK    2  A    between atoms: C3_3  and  C5_5 
REMARK    3  A    between atoms: C7_10  and  C8_11 
REMARK    4  A    between atoms: C8_11  and  C9_12 
REMARK    5  A    between atoms: C9_12  and  C10_13 
REMARK    6  A    between atoms: C10_13  and  C11_14 
REMARK    7  A    between atoms: C11_14  and  N2_15 
REMARK    8  A    between atoms: C12_18  and  C13_19 
REMARK    9  A    between atoms: C13_19  and  C14_20 
REMARK   10  A    between atoms: C17_23  and  O2_24 
REMARK   11  A    between atoms: C22_34  and  C23_35 
REMARK   12  A    between atoms: C23_35  and  C25_37 
REMARK   13  A    between atoms: C29_46  and  C30_47 
REMARK   14  A    between atoms: C30_47  and  C31_48 
ROOT
HETATM    1  N2  UNL     1      -3.585   3.495   8.810  1.00  0.00    -0.243 N 
HETATM    2  N3  UNL     1      -3.900   2.143   8.911  1.00  0.00    -0.294 N 
ATOM      3  H3  UNL     1      -3.459   1.434   8.325  1.00  0.00     0.187 HD
HETATM    4  C12 UNL     1      -4.907   1.808   9.914  1.00  0.00     0.077 C 
HETATM    5  C17 UNL     1      -6.197   1.477   9.332  1.00  0.00     0.167 C 
HETATM    6  N4  UNL     1      -6.618   0.557   8.374  1.00  0.00    -0.330 N 
HETATM    7  C18 UNL     1      -8.110   0.352   8.382  1.00  0.00     0.158 C 
HETATM    8  C19 UNL     1      -5.949  -0.224   7.387  1.00  0.00     0.077 C 
HETATM    9  C20 UNL     1      -4.720  -0.998   7.810  1.00  0.00     0.074 C 
HETATM   10  C21 UNL     1      -5.733   0.443   6.068  1.00  0.00     0.265 C 
HETATM   11  O3  UNL     1      -6.208  -0.196   5.045  1.00  0.00    -0.266 OA
HETATM   12  N5  UNL     1      -5.098   1.639   5.777  1.00  0.00    -0.334 N 
ATOM     13  H5  UNL     1      -4.221   1.527   5.268  1.00  0.00     0.165 HD
HETATM   14  C22 UNL     1      -5.438   3.011   6.055  1.00  0.00     0.201 C 
HETATM   15  N7  UNL     1      -4.269   3.803   6.387  1.00  0.00    -0.320 N 
ATOM     16  H7  UNL     1      -3.683   4.065   5.594  1.00  0.00     0.166 HD
HETATM   17  C26 UNL     1      -3.831   4.254   7.618  1.00  0.00     0.338 C 
HETATM   18  O5  UNL     1      -3.609   5.515   7.723  1.00  0.00    -0.245 OA
ENDROOT
BRANCH   1  19
HETATM   19  C11 UNL     1      -2.965   4.165   9.931  1.00  0.00     0.154 C 
BRANCH  19  20
HETATM   20  C10 UNL     1      -1.490   4.147   9.925  1.00  0.00     0.022 C 
BRANCH  20  21
HETATM   21  C9  UNL     1      -0.937   5.426  10.509  1.00  0.00     0.002 C 
BRANCH  21  22
HETATM   22  C8  UNL     1      -0.554   6.388   9.467  1.00  0.00     0.014 C 
BRANCH  22  23
HETATM   23  C7  UNL     1       0.407   7.472   9.798  1.00  0.00     0.078 C 
HETATM   24  C6  UNL     1       0.412   8.596   8.838  1.00  0.00     0.222 C 
HETATM   25  N1  UNL     1       0.093   9.945   9.114  1.00  0.00    -0.347 N 
HETATM   26  O1  UNL     1       0.744   8.288   7.633  1.00  0.00    -0.273 OA
HETATM   27  C5  UNL     1       0.743  10.815  10.062  1.00  0.00     0.180 C 
ATOM     28  H1  UNL     1      -0.680  10.348   8.584  1.00  0.00     0.163 HD
HETATM   29  C34 UNL     1       0.816  10.269  11.440  1.00  0.00     0.241 C 
HETATM   30  N8  UNL     1       1.891   9.691  12.094  1.00  0.00    -0.355 N 
HETATM   31  O6  UNL     1      -0.301  10.369  12.075  1.00  0.00    -0.271 OA
HETATM   32  C29 UNL     1       2.792   8.640  11.710  1.00  0.00     0.084 C 
ATOM     33  H8  UNL     1       2.079  10.084  13.016  1.00  0.00     0.162 HD
HETATM   34  C28 UNL     1       2.723   8.134  10.332  1.00  0.00     0.026 C 
HETATM   35  C27 UNL     1       1.831   6.976  10.052  1.00  0.00     0.016 C 
BRANCH  27  36
HETATM   36  C3  UNL     1      -0.046  12.139  10.119  1.00  0.00     0.013 C 
HETATM   37  C4  UNL     1      -1.265  12.091   9.265  1.00  0.00     0.012 C 
BRANCH  36  38
HETATM   38  C2  UNL     1       0.881  13.201   9.564  1.00  0.00     0.002 C 
HETATM   39  C1  UNL     1       2.330  12.818   9.733  1.00  0.00     0.005 C 
ENDBRANCH  36  38
ENDBRANCH  27  36
BRANCH  32  40
HETATM   40  C30 UNL     1       2.773   7.501  12.738  1.00  0.00     0.029 C 
BRANCH  40  41
HETATM   41  C31 UNL     1       3.018   8.011  14.136  1.00  0.00    -0.021 C 
HETATM   42  C32 UNL     1       2.120   7.160  15.045  1.00  0.00     0.009 C 
HETATM   43  C33 UNL     1       4.430   7.929  14.598  1.00  0.00     0.009 C 
ENDBRANCH  40  41
ENDBRANCH  32  40
ENDBRANCH  22  23
ENDBRANCH  21  22
ENDBRANCH  20  21
ENDBRANCH  19  20
ENDBRANCH   1  19
BRANCH   4  44
HETATM   44  C13 UNL     1      -4.346   0.985  11.018  1.00  0.00     0.067 C 
BRANCH  44  45
HETATM   45  C14 UNL     1      -2.929   0.605  11.029  1.00  0.00    -0.017 C 
HETATM   46  C15 UNL     1      -2.131   1.249  12.091  1.00  0.00     0.010 C 
HETATM   47  C16 UNL     1      -2.866  -0.910  11.209  1.00  0.00     0.010 C 
ENDBRANCH  44  45
ENDBRANCH   4  44
BRANCH   5  48
HETATM   48  O2  UNL     1      -7.170   2.220   9.825  1.00  0.00    -0.344 OA
ATOM     49  H2  UNL     1      -6.839   2.995  10.265  1.00  0.00     0.219 HD
ENDBRANCH   5  48
BRANCH  14  50
HETATM   50  C23 UNL     1      -6.048   3.714   4.820  1.00  0.00     0.113 C 
HETATM   51  C24 UNL     1      -7.418   4.229   5.284  1.00  0.00     0.023 C 
BRANCH  50  52
HETATM   52  C25 UNL     1      -5.269   4.870   4.377  1.00  0.00     0.238 C 
HETATM   53  N6  UNL     1      -4.235   4.815   3.406  1.00  0.00    -0.062 NA
HETATM   54  O4  UNL     1      -5.478   6.042   4.854  1.00  0.00    -0.276 OA
ENDBRANCH  50  52
ENDBRANCH  14  50
TORSDOF 14
ENDMDL
MODEL 3
REMARK VINA RESULT: -9.120271039      1.082      1.215
REMARK  14 active torsions:
REMARK  status: ('A' for Active; 'I' for Inactive)
REMARK    1  A    between atoms: C2_2  and  C3_3 
REMARK    2  A    between atoms: C3_3  and  C5_5 
REMARK    3  A    between atoms: C7_10  and  C8_11 
REMARK    4  A    between atoms: C8_11  and  C9_12 
REMARK    5  A    between atoms: C9_12  and  C10_13 
REMARK    6  A    between atoms: C10_13  and  C11_14 
REMARK    7  A    between atoms: C11_14  and  N2_15 
REMARK    8  A    between atoms: C12_18  and  C13_19 
REMARK    9  A    between atoms: C13_19  and  C14_20 
REMARK   10  A    between atoms: C17_23  and  O2_24 
REMARK   11  A    between atoms: C22_34  and  C23_35 
REMARK   12  A    between atoms: C23_35  and  C25_37 
REMARK   13  A    between atoms: C29_46  and  C30_47 
REMARK   14  A    between atoms: C30_47  and  C31_48 
ROOT
HETATM    1  N2  UNL     1      -3.151   3.570   9.029  1.00  0.00    -0.243 N 
HETATM    2  N3  UNL     1      -3.476   2.216   9.022  1.00  0.00    -0.294 N 
ATOM      3  H3  UNL     1      -3.081   1.563   8.345  1.00  0.00     0.187 HD
HETATM    4  C12 UNL     1      -4.420   1.795  10.052  1.00  0.00     0.077 C 
HETATM    5  C17 UNL     1      -5.750   1.528   9.526  1.00  0.00     0.167 C 
HETATM    6  N4  UNL     1      -6.241   0.705   8.514  1.00  0.00    -0.330 N 
HETATM    7  C18 UNL     1      -7.732   0.510   8.599  1.00  0.00     0.158 C 
HETATM    8  C19 UNL     1      -5.646   0.017   7.417  1.00  0.00     0.077 C 
HETATM    9  C20 UNL     1      -4.403  -0.801   7.686  1.00  0.00     0.074 C 
HETATM   10  C21 UNL     1      -5.505   0.805   6.155  1.00  0.00     0.265 C 
HETATM   11  O3  UNL     1      -6.053   0.268   5.110  1.00  0.00    -0.266 OA
HETATM   12  N5  UNL     1      -4.876   2.018   5.938  1.00  0.00    -0.334 N 
ATOM     13  H5  UNL     1      -4.034   1.950   5.366  1.00  0.00     0.165 HD
HETATM   14  C22 UNL     1      -5.180   3.360   6.365  1.00  0.00     0.201 C 
HETATM   15  N7  UNL     1      -3.983   4.109   6.694  1.00  0.00    -0.320 N 
ATOM     16  H7  UNL     1      -3.446   4.442   5.894  1.00  0.00     0.166 HD
HETATM   17  C26 UNL     1      -3.462   4.440   7.932  1.00  0.00     0.338 C 
HETATM   18  O5  UNL     1      -3.219   5.684   8.140  1.00  0.00    -0.245 OA
ENDROOT
BRANCH   1  19
HETATM   19  C11 UNL     1      -2.452   4.127  10.166  1.00  0.00     0.154 C 
BRANCH  19  20
HETATM   20  C10 UNL     1      -1.140   3.515  10.447  1.00  0.00     0.022 C 
BRANCH  20  21
HETATM   21  C9  UNL     1      -0.030   4.525  10.271  1.00  0.00     0.002 C 
BRANCH  21  22
HETATM   22  C8  UNL     1      -0.507   5.904  10.440  1.00  0.00     0.014 C 
BRANCH  22  23
HETATM   23  C7  UNL     1       0.467   6.970  10.793  1.00  0.00     0.078 C 
HETATM   24  C6  UNL     1       0.637   8.008   9.754  1.00  0.00     0.222 C 
HETATM   25  N1  UNL     1       0.361   9.388   9.885  1.00  0.00    -0.347 N 
HETATM   26  O1  UNL     1       1.084   7.586   8.624  1.00  0.00    -0.273 OA
HETATM   27  C5  UNL     1       0.946  10.306  10.831  1.00  0.00     0.180 C 
ATOM     28  H1  UNL     1      -0.327   9.777   9.240  1.00  0.00     0.163 HD
HETATM   29  C34 UNL     1       0.837   9.874  12.246  1.00  0.00     0.241 C 
HETATM   30  N8  UNL     1       1.803   9.308  13.062  1.00  0.00    -0.355 N 
HETATM   31  O6  UNL     1      -0.336  10.075  12.739  1.00  0.00    -0.271 OA
HETATM   32  C29 UNL     1       2.683   8.190  12.867  1.00  0.00     0.084 C 
ATOM     33  H8  UNL     1       1.907   9.768  13.966  1.00  0.00     0.162 HD
HETATM   34  C28 UNL     1       2.741   7.574  11.535  1.00  0.00     0.026 C 
HETATM   35  C27 UNL     1       1.826   6.436  11.247  1.00  0.00     0.016 C 
BRANCH  27  36
HETATM   36  C3  UNL     1       0.227  11.663  10.692  1.00  0.00     0.013 C 
HETATM   37  C4  UNL     1      -0.504  11.770   9.398  1.00  0.00     0.012 C 
BRANCH  36  38
HETATM   38  C2  UNL     1       1.315  12.716  10.712  1.00  0.00     0.002 C 
HETATM   39  C1  UNL     1       2.491  12.315   9.857  1.00  0.00     0.005 C 
ENDBRANCH  36  38
ENDBRANCH  27  36
BRANCH  32  40
HETATM   40  C30 UNL     1       2.491   7.143  13.973  1.00  0.00     0.029 C 
BRANCH  40  41
HETATM   41  C31 UNL     1       3.402   7.403  15.147  1.00  0.00    -0.021 C 
HETATM   42  C32 UNL     1       4.674   8.020  14.548  1.00  0.00     0.009 C 
HETATM   43  C33 UNL     1       2.845   8.304  16.190  1.00  0.00     0.009 C 
ENDBRANCH  40  41
ENDBRANCH  32  40
ENDBRANCH  22  23
ENDBRANCH  21  22
ENDBRANCH  20  21
ENDBRANCH  19  20
ENDBRANCH   1  19
BRANCH   4  44
HETATM   44  C13 UNL     1      -3.801   0.867  11.035  1.00  0.00     0.067 C 
BRANCH  44  45
HETATM   45  C14 UNL     1      -2.901  -0.204  10.596  1.00  0.00    -0.017 C 
HETATM   46  C15 UNL     1      -1.470   0.056  10.851  1.00  0.00     0.010 C 
HETATM   47  C16 UNL     1      -3.314  -1.477  11.332  1.00  0.00     0.010 C 
ENDBRANCH  44  45
ENDBRANCH   4  44
BRANCH   5  48
HETATM   48  O2  UNL     1      -6.679   2.227  10.148  1.00  0.00    -0.344 OA
ATOM     49  H2  UNL     1      -6.714   3.126   9.843  1.00  0.00     0.219 HD
ENDBRANCH   5  48
BRANCH  14  50
HETATM   50  C23 UNL     1      -5.859   4.181   5.243  1.00  0.00     0.113 C 
HETATM   51  C24 UNL     1      -6.962   4.986   5.944  1.00  0.00     0.023 C 
BRANCH  50  52
HETATM   52  C25 UNL     1      -4.953   5.136   4.606  1.00  0.00     0.238 C 
HETATM   53  N6  UNL     1      -4.105   4.826   3.509  1.00  0.00    -0.062 NA
HETATM   54  O4  UNL     1      -4.866   6.350   5.010  1.00  0.00    -0.276 OA
ENDBRANCH  50  52
ENDBRANCH  14  50
TORSDOF 14
ENDMDL
MODEL 4
REMARK VINA RESULT: -9.035850086      4.878     10.978
REMARK  14 active torsions:
REMARK  status: ('A' for Active; 'I' for Inactive)
REMARK    1  A    between atoms: C2_2  and  C3_3 
REMARK    2  A    between atoms: C3_3  and  C5_5 
REMARK    3  A    between atoms: C7_10  and  C8_11 
REMARK    4  A    between atoms: C8_11  and  C9_12 
REMARK    5  A    between atoms: C9_12  and  C10_13 
REMARK    6  A    between atoms: C10_13  and  C11_14 
REMARK    7  A    between atoms: C11_14  and  N2_15 
REMARK    8  A    between atoms: C12_18  and  C13_19 
REMARK    9  A    between atoms: C13_19  and  C14_20 
REMARK   10  A    between atoms: C17_23  and  O2_24 
REMARK   11  A    between atoms: C22_34  and  C23_35 
REMARK   12  A    between atoms: C23_35  and  C25_37 
REMARK   13  A    between atoms: C29_46  and  C30_47 
REMARK   14  A    between atoms: C30_47  and  C31_48 
ROOT
HETATM    1  N2  UNL     1      -5.551   2.042   6.846  1.00  0.00    -0.243 N 
HETATM    2  N3  UNL     1      -5.574   1.164   7.926  1.00  0.00    -0.294 N 
ATOM      3  H3  UNL     1      -6.165   1.320   8.743  1.00  0.00     0.187 HD
HETATM    4  C12 UNL     1      -4.695   0.005   7.810  1.00  0.00     0.077 C 
HETATM    5  C17 UNL     1      -3.514   0.103   8.652  1.00  0.00     0.167 C 
HETATM    6  N4  UNL     1      -3.313   0.317  10.014  1.00  0.00    -0.330 N 
HETATM    7  C18 UNL     1      -1.915  -0.028  10.455  1.00  0.00     0.158 C 
HETATM    8  C19 UNL     1      -4.135   0.797  11.075  1.00  0.00     0.077 C 
HETATM    9  C20 UNL     1      -5.521   0.208  11.217  1.00  0.00     0.074 C 
HETATM   10  C21 UNL     1      -4.162   2.279  11.257  1.00  0.00     0.265 C 
HETATM   11  O3  UNL     1      -3.839   2.692  12.443  1.00  0.00    -0.266 OA
HETATM   12  N5  UNL     1      -4.484   3.274  10.350  1.00  0.00    -0.334 N 
ATOM     13  H5  UNL     1      -5.354   3.761  10.564  1.00  0.00     0.165 HD
HETATM   14  C22 UNL     1      -3.827   3.752   9.160  1.00  0.00     0.201 C 
HETATM   15  N7  UNL     1      -4.775   4.094   8.117  1.00  0.00    -0.320 N 
ATOM     16  H7  UNL     1      -5.267   4.978   8.251  1.00  0.00     0.166 HD
HETATM   17  C26 UNL     1      -5.111   3.401   6.969  1.00  0.00     0.338 C 
HETATM   18  O5  UNL     1      -5.022   4.045   5.861  1.00  0.00    -0.245 OA
ENDROOT
BRANCH   1  19
HETATM   19  C11 UNL     1      -6.009   1.587   5.552  1.00  0.00     0.154 C 
BRANCH  19  20
HETATM   20  C10 UNL     1      -7.474   1.565   5.385  1.00  0.00     0.022 C 
BRANCH  20  21
HETATM   21  C9  UNL     1      -7.849   1.104   3.996  1.00  0.00     0.002 C 
BRANCH  21  22
HETATM   22  C8  UNL     1      -7.312   1.993   2.957  1.00  0.00     0.014 C 
BRANCH  22  23
HETATM   23  C7  UNL     1      -8.072   3.215   2.584  1.00  0.00     0.078 C 
HETATM   24  C6  UNL     1      -8.755   3.132   1.276  1.00  0.00     0.222 C 
HETATM   25  N1  UNL     1     -10.146   3.216   1.041  1.00  0.00    -0.347 N 
HETATM   26  O1  UNL     1      -7.980   2.966   0.261  1.00  0.00    -0.273 OA
HETATM   27  C5  UNL     1     -11.018   4.315   1.373  1.00  0.00     0.180 C 
ATOM     28  H1  UNL     1     -10.580   2.413   0.588  1.00  0.00     0.163 HD
HETATM   29  C34 UNL     1     -10.959   4.732   2.796  1.00  0.00     0.241 C 
HETATM   30  N8  UNL     1     -10.312   5.818   3.361  1.00  0.00    -0.355 N 
HETATM   31  O6  UNL     1     -11.617   3.942   3.574  1.00  0.00    -0.271 OA
HETATM   32  C29 UNL     1      -8.962   6.294   3.244  1.00  0.00     0.084 C 
ATOM     33  H8  UNL     1     -10.902   6.383   3.971  1.00  0.00     0.162 HD
HETATM   34  C28 UNL     1      -8.085   5.659   2.250  1.00  0.00     0.026 C 
HETATM   35  C27 UNL     1      -7.254   4.503   2.682  1.00  0.00     0.016 C 
BRANCH  27  36
HETATM   36  C3  UNL     1     -12.468   3.889   1.064  1.00  0.00     0.013 C 
HETATM   37  C4  UNL     1     -12.533   2.965  -0.103  1.00  0.00     0.012 C 
BRANCH  36  38
HETATM   38  C2  UNL     1     -13.209   5.160   0.704  1.00  0.00     0.002 C 
HETATM   39  C1  UNL     1     -14.365   4.884  -0.226  1.00  0.00     0.005 C 
ENDBRANCH  36  38
ENDBRANCH  27  36
BRANCH  32  40
HETATM   40  C30 UNL     1      -8.292   6.384   4.622  1.00  0.00     0.029 C 
BRANCH  40  41
HETATM   41  C31 UNL     1      -8.122   7.816   5.063  1.00  0.00    -0.021 C 
HETATM   42  C32 UNL     1      -9.200   8.044   6.133  1.00  0.00     0.009 C 
HETATM   43  C33 UNL     1      -6.782   8.151   5.614  1.00  0.00     0.009 C 
ENDBRANCH  40  41
ENDBRANCH  32  40
ENDBRANCH  22  23
ENDBRANCH  21  22
ENDBRANCH  20  21
ENDBRANCH  19  20
ENDBRANCH   1  19
BRANCH   4  44
HETATM   44  C13 UNL     1      -5.456  -1.270   7.728  1.00  0.00     0.067 C 
BRANCH  44  45
HETATM   45  C14 UNL     1      -6.909  -1.268   7.529  1.00  0.00    -0.017 C 
HETATM   46  C15 UNL     1      -7.384  -2.196   6.483  1.00  0.00     0.010 C 
HETATM   47  C16 UNL     1      -7.552  -1.648   8.860  1.00  0.00     0.010 C 
ENDBRANCH  44  45
ENDBRANCH   4  44
BRANCH   5  48
HETATM   48  O2  UNL     1      -2.398  -0.037   7.960  1.00  0.00    -0.344 OA
ATOM     49  H2  UNL     1      -2.018   0.800   7.723  1.00  0.00     0.219 HD
ENDBRANCH   5  48
BRANCH  14  50
HETATM   50  C23 UNL     1      -3.045   5.061   9.422  1.00  0.00     0.113 C 
HETATM   51  C24 UNL     1      -1.579   4.632   9.571  1.00  0.00     0.023 C 
BRANCH  50  52
HETATM   52  C25 UNL     1      -3.118   6.003   8.306  1.00  0.00     0.238 C 
HETATM   53  N6  UNL     1      -4.067   7.054   8.205  1.00  0.00    -0.062 NA
HETATM   54  O4  UNL     1      -2.302   5.937   7.318  1.00  0.00    -0.276 OA
ENDBRANCH  50  52
ENDBRANCH  14  50
TORSDOF 14
ENDMDL
MODEL 5
REMARK VINA RESULT: -8.998331633      1.398      1.563
REMARK  14 active torsions:
REMARK  status: ('A' for Active; 'I' for Inactive)
REMARK    1  A    between atoms: C2_2  and  C3_3 
REMARK    2  A    between atoms: C3_3  and  C5_5 
REMARK    3  A    between atoms: C7_10  and  C8_11 
REMARK    4  A    between atoms: C8_11  and  C9_12 
REMARK    5  A    between atoms: C9_12  and  C10_13 
REMARK    6  A    between atoms: C10_13  and  C11_14 
REMARK    7  A    between atoms: C11_14  and  N2_15 
REMARK    8  A    between atoms: C12_18  and  C13_19 
REMARK    9  A    between atoms: C13_19  and  C14_20 
REMARK   10  A    between atoms: C17_23  and  O2_24 
REMARK   11  A    between atoms: C22_34  and  C23_35 
REMARK   12  A    between atoms: C23_35  and  C25_37 
REMARK   13  A    between atoms: C29_46  and  C30_47 
REMARK   14  A    between atoms: C30_47  and  C31_48 
ROOT
HETATM    1  N2  UNL     1      -1.836   4.682   8.708  1.00  0.00    -0.243 N 
HETATM    2  N3  UNL     1      -2.105   3.319   8.802  1.00  0.00    -0.294 N 
ATOM      3  H3  UNL     1      -1.839   2.658   8.072  1.00  0.00     0.187 HD
HETATM    4  C12 UNL     1      -2.792   2.900  10.020  1.00  0.00     0.077 C 
HETATM    5  C17 UNL     1      -4.192   2.576   9.797  1.00  0.00     0.167 C 
HETATM    6  N4  UNL     1      -4.857   1.708   8.934  1.00  0.00    -0.330 N 
HETATM    7  C18 UNL     1      -6.288   1.470   9.341  1.00  0.00     0.158 C 
HETATM    8  C19 UNL     1      -4.485   1.006   7.751  1.00  0.00     0.077 C 
HETATM    9  C20 UNL     1      -3.183   0.235   7.766  1.00  0.00     0.074 C 
HETATM   10  C21 UNL     1      -4.646   1.758   6.470  1.00  0.00     0.265 C 
HETATM   11  O3  UNL     1      -5.383   1.173   5.579  1.00  0.00    -0.266 OA
HETATM   12  N5  UNL     1      -4.122   2.984   6.095  1.00  0.00    -0.334 N 
ATOM     13  H5  UNL     1      -3.420   2.923   5.358  1.00  0.00     0.165 HD
HETATM   14  C22 UNL     1      -4.378   4.328   6.546  1.00  0.00     0.201 C 
HETATM   15  N7  UNL     1      -3.166   5.123   6.594  1.00  0.00    -0.320 N 
ATOM     16  H7  UNL     1      -2.824   5.448   5.689  1.00  0.00     0.166 HD
HETATM   17  C26 UNL     1      -2.405   5.507   7.683  1.00  0.00     0.338 C 
HETATM   18  O5  UNL     1      -2.169   6.764   7.805  1.00  0.00    -0.245 OA
ENDROOT
BRANCH   1  19
HETATM   19  C11 UNL     1      -0.932   5.295   9.655  1.00  0.00     0.154 C 
BRANCH  19  20
HETATM   20  C10 UNL     1       0.384   4.639   9.769  1.00  0.00     0.022 C 
BRANCH  20  21
HETATM   21  C9  UNL     1       1.252   5.352  10.780  1.00  0.00     0.002 C 
BRANCH  21  22
HETATM   22  C8  UNL     1       0.672   6.637  11.196  1.00  0.00     0.014 C 
BRANCH  22  23
HETATM   23  C7  UNL     1       1.578   7.750  11.581  1.00  0.00     0.078 C 
HETATM   24  C6  UNL     1       2.269   8.394  10.443  1.00  0.00     0.222 C 
HETATM   25  N1  UNL     1       2.158   9.744  10.041  1.00  0.00    -0.347 N 
HETATM   26  O1  UNL     1       3.046   7.624   9.765  1.00  0.00    -0.273 OA
HETATM   27  C5  UNL     1       2.465  10.913  10.827  1.00  0.00     0.180 C 
ATOM     28  H1  UNL     1       1.825   9.910   9.092  1.00  0.00     0.163 HD
HETATM   29  C34 UNL     1       1.772  10.964  12.139  1.00  0.00     0.241 C 
HETATM   30  N8  UNL     1       2.271  10.684  13.400  1.00  0.00    -0.355 N 
HETATM   31  O6  UNL     1       0.540  11.326  12.037  1.00  0.00    -0.271 OA
HETATM   32  C29 UNL     1       2.996   9.555  13.912  1.00  0.00     0.084 C 
ATOM     33  H8  UNL     1       2.089  11.411  14.091  1.00  0.00     0.162 HD
HETATM   34  C28 UNL     1       3.466   8.540  12.960  1.00  0.00     0.026 C 
HETATM   35  C27 UNL     1       2.579   7.378  12.676  1.00  0.00     0.016 C 
BRANCH  27  36
HETATM   36  C3  UNL     1       2.046  12.159  10.021  1.00  0.00     0.013 C 
HETATM   37  C4  UNL     1       1.478  11.791   8.694  1.00  0.00     0.012 C 
BRANCH  36  38
HETATM   38  C2  UNL     1       3.314  12.954   9.791  1.00  0.00     0.002 C 
HETATM   39  C1  UNL     1       3.458  14.073  10.792  1.00  0.00     0.005 C 
ENDBRANCH  36  38
ENDBRANCH  27  36
BRANCH  32  40
HETATM   40  C30 UNL     1       2.259   8.925  15.102  1.00  0.00     0.029 C 
BRANCH  40  41
HETATM   41  C31 UNL     1       3.063   9.032  16.373  1.00  0.00    -0.021 C 
HETATM   42  C32 UNL     1       2.029   9.083  17.507  1.00  0.00     0.009 C 
HETATM   43  C33 UNL     1       4.021   7.919  16.609  1.00  0.00     0.009 C 
ENDBRANCH  40  41
ENDBRANCH  32  40
ENDBRANCH  22  23
ENDBRANCH  21  22
ENDBRANCH  20  21
ENDBRANCH  19  20
ENDBRANCH   1  19
BRANCH   4  44
HETATM   44  C13 UNL     1      -1.943   2.023  10.869  1.00  0.00     0.067 C 
BRANCH  44  45
HETATM   45  C14 UNL     1      -1.468   0.727  10.373  1.00  0.00    -0.017 C 
HETATM   46  C15 UNL     1       0.000   0.569  10.383  1.00  0.00     0.010 C 
HETATM   47  C16 UNL     1      -2.089  -0.354  11.255  1.00  0.00     0.010 C 
ENDBRANCH  44  45
ENDBRANCH   4  44
BRANCH   5  48
HETATM   48  O2  UNL     1      -4.993   3.265  10.588  1.00  0.00    -0.344 OA
ATOM     49  H2  UNL     1      -5.908   3.074  10.423  1.00  0.00     0.219 HD
ENDBRANCH   5  48
BRANCH  14  50
HETATM   50  C23 UNL     1      -5.310   5.092   5.577  1.00  0.00     0.113 C 
HETATM   51  C24 UNL     1      -4.877   6.562   5.676  1.00  0.00     0.023 C 
BRANCH  50  52
HETATM   52  C25 UNL     1      -5.149   4.678   4.184  1.00  0.00     0.238 C 
HETATM   53  N6  UNL     1      -4.031   5.008   3.373  1.00  0.00    -0.062 NA
HETATM   54  O4  UNL     1      -6.037   3.968   3.589  1.00  0.00    -0.276 OA
ENDBRANCH  50  52
ENDBRANCH  14  50
TORSDOF 14
ENDMDL
