MODEL 1
REMARK VINA RESULT: -7.357338009      0.000      0.000
REMARK  3 active torsions:
REMARK  status: ('A' for Active; 'I' for Inactive)
REMARK       I    between atoms: C1_2  and  N1_3 
REMARK    1  A    between atoms: C1_2  and  C14_21 
REMARK    2  A    between atoms: N1_3  and  N2_5 
REMARK       I    between atoms: N2_5  and  C2_7 
REMARK    3  A    between atoms: C2_7  and  C3_9 
ROOT
HETATM    1  N2  UNL     1      14.341   7.396 -35.130  1.00  0.00    -0.267 N 
ATOM      2  H2  UNL     1      14.907   7.993 -35.732  1.00  0.00     0.190 HD
HETATM    3  C2  UNL     1      13.015   7.720 -34.797  1.00  0.00     0.244 C 
HETATM    4  O2  UNL     1      12.296   6.989 -34.051  1.00  0.00    -0.271 OA
ENDROOT
BRANCH   3   5
HETATM    5  C3  UNL     1      12.425   8.983 -35.347  1.00  0.00     0.045 C 
HETATM    6  C4  UNL     1      12.044   9.847 -34.182  1.00  0.00     0.024 C 
HETATM    7  C5  UNL     1      11.546  11.206 -34.526  1.00  0.00    -0.012 C 
HETATM    8  C6  UNL     1      10.070  11.249 -34.738  1.00  0.00     0.005 C 
HETATM    9  C11 UNL     1      12.314  11.890 -35.614  1.00  0.00     0.030 C 
HETATM   10  C7  UNL     1       9.527  10.458 -35.846  1.00  0.00     0.005 C 
HETATM   11  C8  UNL     1      10.488   9.746 -36.738  1.00  0.00    -0.012 C 
HETATM   12  C9  UNL     1      11.413  10.654 -37.482  1.00  0.00     0.030 C 
HETATM   13  C13 UNL     1      11.200   8.576 -36.128  1.00  0.00     0.024 C 
HETATM   14  C10 UNL     1      12.681  10.958 -36.753  1.00  0.00     0.039 C 
HETATM   15 CL1  UNL     1      13.763  11.866 -37.815  1.00  0.00    -0.119 Cl
HETATM   16  C12 UNL     1      13.391   9.758 -36.197  1.00  0.00     0.044 C 
ENDBRANCH   3   5
BRANCH   1  17
HETATM   17  N1  UNL     1      14.845   6.190 -34.580  1.00  0.00    -0.261 N 
HETATM   18  C1  UNL     1      15.889   6.322 -33.623  1.00  0.00     0.295 C 
HETATM   19  O1  UNL     1      16.302   7.492 -33.333  1.00  0.00    -0.264 OA
ATOM     20  H1  UNL     1      14.479   5.279 -34.855  1.00  0.00     0.190 HD
BRANCH  18  21
HETATM   21  C14 UNL     1      16.456   5.144 -33.003  1.00  0.00     0.169 A 
HETATM   22  C15 UNL     1      17.778   4.997 -32.580  1.00  0.00     0.064 A 
HETATM   23  C16 UNL     1      17.935   3.725 -32.040  1.00  0.00     0.117 A 
HETATM   24  N3  UNL     1      16.700   3.174 -32.165  1.00  0.00    -0.272 N 
HETATM   25  O3  UNL     1      15.875   4.018 -32.724  1.00  0.00    -0.233 OA
ATOM     26  H3  UNL     1      16.451   2.231 -31.864  1.00  0.00     0.194 HD
ENDBRANCH  18  21
ENDBRANCH   1  17
TORSDOF 3
ENDMDL
MODEL 2
REMARK VINA RESULT: -7.300260080      1.120      2.021
REMARK  3 active torsions:
REMARK  status: ('A' for Active; 'I' for Inactive)
REMARK       I    between atoms: C1_2  and  N1_3 
REMARK    1  A    between atoms: C1_2  and  C14_21 
REMARK    2  A    between atoms: N1_3  and  N2_5 
REMARK       I    between atoms: N2_5  and  C2_7 
REMARK    3  A    between atoms: C2_7  and  C3_9 
ROOT
HETATM    1  N2  UNL     1      14.244   7.652 -34.869  1.00  0.00    -0.267 N 
ATOM      2  H2  UNL     1      14.869   8.305 -35.340  1.00  0.00     0.190 HD
HETATM    3  C2  UNL     1      12.877   7.926 -34.693  1.00  0.00     0.244 C 
HETATM    4  O2  UNL     1      12.086   7.124 -34.110  1.00  0.00    -0.271 OA
ENDROOT
BRANCH   3   5
HETATM    5  C3  UNL     1      12.332   9.220 -35.216  1.00  0.00     0.045 C 
HETATM    6  C4  UNL     1      11.033   8.917 -35.900  1.00  0.00     0.024 C 
HETATM    7  C5  UNL     1      10.272  10.099 -36.386  1.00  0.00    -0.012 C 
HETATM    8  C6  UNL     1      10.639  10.496 -37.777  1.00  0.00     0.005 C 
HETATM    9  C11 UNL     1      10.248  11.254 -35.435  1.00  0.00     0.030 C 
HETATM   10  C7  UNL     1      12.020  10.930 -38.010  1.00  0.00     0.005 C 
HETATM   11  C8  UNL     1      12.929  11.036 -36.832  1.00  0.00    -0.012 C 
HETATM   12  C9  UNL     1      12.496  12.046 -35.819  1.00  0.00     0.030 C 
HETATM   13  C13 UNL     1      13.344   9.737 -36.209  1.00  0.00     0.024 C 
HETATM   14  C10 UNL     1      11.588  11.497 -34.767  1.00  0.00     0.039 C 
HETATM   15 CL1  UNL     1      11.315  12.728 -33.529  1.00  0.00    -0.119 Cl
HETATM   16  C12 UNL     1      12.058  10.221 -34.131  1.00  0.00     0.044 C 
ENDBRANCH   3   5
BRANCH   1  17
HETATM   17  N1  UNL     1      14.704   6.414 -34.352  1.00  0.00    -0.261 N 
HETATM   18  C1  UNL     1      15.886   6.460 -33.564  1.00  0.00     0.295 C 
HETATM   19  O1  UNL     1      16.451   7.588 -33.382  1.00  0.00    -0.264 OA
ATOM     20  H1  UNL     1      14.213   5.539 -34.535  1.00  0.00     0.190 HD
BRANCH  18  21
HETATM   21  C14 UNL     1      16.421   5.245 -32.988  1.00  0.00     0.169 A 
HETATM   22  C15 UNL     1      17.751   5.027 -32.625  1.00  0.00     0.064 A 
HETATM   23  C16 UNL     1      17.869   3.739 -32.113  1.00  0.00     0.117 A 
HETATM   24  N3  UNL     1      16.604   3.251 -32.193  1.00  0.00    -0.272 N 
HETATM   25  O3  UNL     1      15.798   4.143 -32.701  1.00  0.00    -0.233 OA
ATOM     26  H3  UNL     1      16.322   2.316 -31.896  1.00  0.00     0.194 HD
ENDBRANCH  18  21
ENDBRANCH   1  17
TORSDOF 3
ENDMDL
MODEL 3
REMARK VINA RESULT: -7.137300042      1.185      2.087
REMARK  3 active torsions:
REMARK  status: ('A' for Active; 'I' for Inactive)
REMARK       I    between atoms: C1_2  and  N1_3 
REMARK    1  A    between atoms: C1_2  and  C14_21 
REMARK    2  A    between atoms: N1_3  and  N2_5 
REMARK       I    between atoms: N2_5  and  C2_7 
REMARK    3  A    between atoms: C2_7  and  C3_9 
ROOT
HETATM    1  N2  UNL     1      14.049   7.330 -35.219  1.00  0.00    -0.267 N 
ATOM      2  H2  UNL     1      14.542   7.870 -35.929  1.00  0.00     0.190 HD
HETATM    3  C2  UNL     1      12.769   7.691 -34.765  1.00  0.00     0.244 C 
HETATM    4  O2  UNL     1      12.141   7.030 -33.884  1.00  0.00    -0.271 OA
ENDROOT
BRANCH   3   5
HETATM    5  C3  UNL     1      12.119   8.909 -35.348  1.00  0.00     0.045 C 
HETATM    6  C4  UNL     1      13.145   9.610 -36.185  1.00  0.00     0.024 C 
HETATM    7  C5  UNL     1      12.655  10.788 -36.951  1.00  0.00    -0.012 C 
HETATM    8  C6  UNL     1      12.753  12.063 -36.183  1.00  0.00     0.005 C 
HETATM    9  C11 UNL     1      11.318  10.594 -37.595  1.00  0.00     0.030 C 
HETATM   10  C7  UNL     1      11.961  12.172 -34.954  1.00  0.00     0.005 C 
HETATM   11  C8  UNL     1      11.044  11.046 -34.610  1.00  0.00    -0.012 C 
HETATM   12  C9  UNL     1       9.959  10.818 -35.612  1.00  0.00     0.030 C 
HETATM   13  C13 UNL     1      11.708   9.772 -34.180  1.00  0.00     0.024 C 
HETATM   14  C10 UNL     1      10.332   9.866 -36.702  1.00  0.00     0.039 C 
HETATM   15 CL1  UNL     1       8.910   9.529 -37.695  1.00  0.00    -0.119 Cl
HETATM   16  C12 UNL     1      10.950   8.581 -36.233  1.00  0.00     0.044 C 
ENDBRANCH   3   5
BRANCH   1  17
HETATM   17  N1  UNL     1      14.615   6.170 -34.631  1.00  0.00    -0.261 N 
HETATM   18  C1  UNL     1      15.688   6.383 -33.724  1.00  0.00     0.295 C 
HETATM   19  O1  UNL     1      16.072   7.579 -33.507  1.00  0.00    -0.264 OA
ATOM     20  H1  UNL     1      14.270   5.234 -34.847  1.00  0.00     0.190 HD
BRANCH  18  21
HETATM   21  C14 UNL     1      16.319   5.256 -33.070  1.00  0.00     0.169 A 
HETATM   22  C15 UNL     1      17.641   5.202 -32.626  1.00  0.00     0.064 A 
HETATM   23  C16 UNL     1      17.869   3.954 -32.056  1.00  0.00     0.117 A 
HETATM   24  N3  UNL     1      16.672   3.325 -32.184  1.00  0.00    -0.272 N 
HETATM   25  O3  UNL     1      15.805   4.103 -32.772  1.00  0.00    -0.233 OA
ATOM     26  H3  UNL     1      16.478   2.375 -31.865  1.00  0.00     0.194 HD
ENDBRANCH  18  21
ENDBRANCH   1  17
TORSDOF 3
ENDMDL
MODEL 4
REMARK VINA RESULT: -6.998070291      3.336      4.719
REMARK  3 active torsions:
REMARK  status: ('A' for Active; 'I' for Inactive)
REMARK       I    between atoms: C1_2  and  N1_3 
REMARK    1  A    between atoms: C1_2  and  C14_21 
REMARK    2  A    between atoms: N1_3  and  N2_5 
REMARK       I    between atoms: N2_5  and  C2_7 
REMARK    3  A    between atoms: C2_7  and  C3_9 
ROOT
HETATM    1  N2  UNL     1      10.997   7.305 -34.789  1.00  0.00    -0.267 N 
ATOM      2  H2  UNL     1      10.433   6.456 -34.828  1.00  0.00     0.190 HD
HETATM    3  C2  UNL     1      10.458   8.569 -35.086  1.00  0.00     0.244 C 
HETATM    4  O2  UNL     1      11.144   9.635 -35.041  1.00  0.00    -0.271 OA
ENDROOT
BRANCH   3   5
HETATM    5  C3  UNL     1       9.013   8.661 -35.470  1.00  0.00     0.045 C 
HETATM    6  C4  UNL     1       8.950   8.758 -36.964  1.00  0.00     0.024 C 
HETATM    7  C5  UNL     1       7.583   8.738 -37.552  1.00  0.00    -0.012 C 
HETATM    8  C6  UNL     1       6.982  10.097 -37.674  1.00  0.00     0.005 C 
HETATM    9  C11 UNL     1       6.656   7.741 -36.929  1.00  0.00     0.030 C 
HETATM   10  C7  UNL     1       6.747  10.843 -36.434  1.00  0.00     0.005 C 
HETATM   11  C8  UNL     1       7.034  10.159 -35.140  1.00  0.00    -0.012 C 
HETATM   12  C9  UNL     1       6.192   8.950 -34.892  1.00  0.00     0.030 C 
HETATM   13  C13 UNL     1       8.483   9.923 -34.834  1.00  0.00     0.024 C 
HETATM   14  C10 UNL     1       6.781   7.682 -35.418  1.00  0.00     0.039 C 
HETATM   15 CL1  UNL     1       5.797   6.315 -34.887  1.00  0.00    -0.119 Cl
HETATM   16  C12 UNL     1       8.219   7.456 -35.053  1.00  0.00     0.044 C 
ENDBRANCH   3   5
BRANCH   1  17
HETATM   17  N1  UNL     1      12.369   7.280 -34.433  1.00  0.00    -0.261 N 
HETATM   18  C1  UNL     1      13.191   6.373 -35.157  1.00  0.00     0.295 C 
HETATM   19  O1  UNL     1      12.651   5.650 -36.057  1.00  0.00    -0.264 OA
ATOM     20  H1  UNL     1      12.746   7.879 -33.698  1.00  0.00     0.190 HD
BRANCH  18  21
HETATM   21  C14 UNL     1      14.606   6.288 -34.866  1.00  0.00     0.169 A 
HETATM   22  C15 UNL     1      15.422   7.343 -34.455  1.00  0.00     0.064 A 
HETATM   23  C16 UNL     1      16.716   6.865 -34.281  1.00  0.00     0.117 A 
HETATM   24  N3  UNL     1      16.611   5.547 -34.595  1.00  0.00    -0.272 N 
HETATM   25  O3  UNL     1      15.384   5.251 -34.928  1.00  0.00    -0.233 OA
ATOM     26  H3  UNL     1      17.384   4.881 -34.574  1.00  0.00     0.194 HD
ENDBRANCH  18  21
ENDBRANCH   1  17
TORSDOF 3
ENDMDL
MODEL 5
REMARK VINA RESULT: -6.833539189      2.219      3.101
REMARK  3 active torsions:
REMARK  status: ('A' for Active; 'I' for Inactive)
REMARK       I    between atoms: C1_2  and  N1_3 
REMARK    1  A    between atoms: C1_2  and  C14_21 
REMARK    2  A    between atoms: N1_3  and  N2_5 
REMARK       I    between atoms: N2_5  and  C2_7 
REMARK    3  A    between atoms: C2_7  and  C3_9 
ROOT
HETATM    1  N2  UNL     1      12.245   7.882 -35.100  1.00  0.00    -0.267 N 
ATOM      2  H2  UNL     1      11.909   7.260 -35.836  1.00  0.00     0.190 HD
HETATM    3  C2  UNL     1      11.494   8.986 -34.660  1.00  0.00     0.244 C 
HETATM    4  O2  UNL     1      11.896   9.768 -33.746  1.00  0.00    -0.271 OA
ENDROOT
BRANCH   3   5
HETATM    5  C3  UNL     1      10.164   9.249 -35.296  1.00  0.00     0.045 C 
HETATM    6  C4  UNL     1       9.511  10.360 -34.532  1.00  0.00     0.024 C 
HETATM    7  C5  UNL     1       8.221  10.852 -35.088  1.00  0.00    -0.012 C 
HETATM    8  C6  UNL     1       7.039  10.111 -34.558  1.00  0.00     0.005 C 
HETATM    9  C11 UNL     1       8.203  10.994 -36.578  1.00  0.00     0.030 C 
HETATM   10  C7  UNL     1       6.953   8.679 -34.859  1.00  0.00     0.005 C 
HETATM   11  C8  UNL     1       7.994   8.085 -35.749  1.00  0.00    -0.012 C 
HETATM   12  C9  UNL     1       8.007   8.652 -37.131  1.00  0.00     0.030 C 
HETATM   13  C13 UNL     1       9.368   7.974 -35.160  1.00  0.00     0.024 C 
HETATM   14  C10 UNL     1       8.893   9.845 -37.289  1.00  0.00     0.039 C 
HETATM   15 CL1  UNL     1       8.976  10.290 -38.997  1.00  0.00    -0.119 Cl
HETATM   16  C12 UNL     1      10.276   9.681 -36.731  1.00  0.00     0.044 C 
ENDBRANCH   3   5
BRANCH   1  17
HETATM   17  N1  UNL     1      13.496   7.684 -34.463  1.00  0.00    -0.261 N 
HETATM   18  C1  UNL     1      14.160   6.460 -34.746  1.00  0.00     0.295 C 
HETATM   19  O1  UNL     1      13.596   5.631 -35.533  1.00  0.00    -0.264 OA
ATOM     20  H1  UNL     1      13.897   8.382 -33.836  1.00  0.00     0.190 HD
BRANCH  18  21
HETATM   21  C14 UNL     1      15.447   6.178 -34.147  1.00  0.00     0.169 A 
HETATM   22  C15 UNL     1      15.658   5.576 -32.906  1.00  0.00     0.064 A 
HETATM   23  C16 UNL     1      17.027   5.482 -32.682  1.00  0.00     0.117 A 
HETATM   24  N3  UNL     1      17.568   6.030 -33.801  1.00  0.00    -0.272 N 
HETATM   25  O3  UNL     1      16.630   6.421 -34.620  1.00  0.00    -0.233 OA
ATOM     26  H3  UNL     1      18.569   6.124 -33.976  1.00  0.00     0.194 HD
ENDBRANCH  18  21
ENDBRANCH   1  17
TORSDOF 3
ENDMDL
