MODEL 1
REMARK VINA RESULT: -6.769591959      0.000      0.000
REMARK  6 active torsions:
REMARK  status: ('A' for Active; 'I' for Inactive)
REMARK    1  A    between atoms: C2_2  and  C3_4 
REMARK    2  A    between atoms: C4_5  and  C5_6 
REMARK    3  A    between atoms: C7_10  and  S1_11 
REMARK    4  A    between atoms: S1_11  and  C8_12 
REMARK    5  A    between atoms: C8_12  and  N1_14 
REMARK    6  A    between atoms: C13_19  and  O3_20 
ROOT
HETATM    1  C3  UNL     1      11.442   9.485 -34.702  1.00  0.00    -0.031 C 
HETATM    2  C4  UNL     1      10.958   8.276 -34.831  1.00  0.00     0.025 C 
HETATM    3  C6  UNL     1      11.968   7.176 -34.576  1.00  0.00     0.064 C 
HETATM    4  C7  UNL     1      13.219   7.451 -35.383  1.00  0.00     0.088 C 
HETATM    5  C13 UNL     1      13.740   8.830 -35.169  1.00  0.00     0.136 C 
HETATM    6  C14 UNL     1      12.885   9.692 -34.311  1.00  0.00     0.070 C 
ENDROOT
BRANCH   4   7
HETATM    7  S1  UNL     1      14.468   6.192 -35.244  1.00  0.00    -0.093 SA
BRANCH   7   8
HETATM    8  C8  UNL     1      15.828   6.608 -34.186  1.00  0.00     0.137 C 
HETATM    9  S2  UNL     1      16.386   8.136 -34.138  1.00  0.00    -0.053 SA
BRANCH   8  10
HETATM   10  N1  UNL     1      16.462   5.629 -33.363  1.00  0.00    -0.367 N 
HETATM   11  C9  UNL     1      16.086   4.229 -33.247  1.00  0.00     0.124 C 
HETATM   12  C10 UNL     1      16.959   3.687 -32.135  1.00  0.00     0.021 C 
HETATM   13  C11 UNL     1      18.202   4.541 -32.316  1.00  0.00     0.021 C 
HETATM   14  C12 UNL     1      17.600   5.914 -32.507  1.00  0.00     0.124 C 
ENDBRANCH   8  10
ENDBRANCH   7   8
ENDBRANCH   4   7
BRANCH   5  15
HETATM   15  O3  UNL     1      14.008   9.490 -36.371  1.00  0.00    -0.394 OA
ATOM     16  H3  UNL     1      14.890   9.838 -36.402  1.00  0.00     0.210 HD
ENDBRANCH   5  15
BRANCH   2  17
HETATM   17  C5  UNL     1       9.599   7.935 -35.186  1.00  0.00     0.205 C 
HETATM   18  O1  UNL     1       8.737   7.377 -34.516  1.00  0.00    -0.644 OA
HETATM   19  O2  UNL     1       9.157   8.283 -36.504  1.00  0.00    -0.644 OA
ENDBRANCH   2  17
BRANCH   1  20
HETATM   20  C2  UNL     1      10.642  10.703 -34.910  1.00  0.00     0.196 C 
HETATM   21  C1  UNL     1      11.371  11.793 -34.083  1.00  0.00     0.050 C 
HETATM   22  F1  UNL     1      10.723  11.113 -36.247  1.00  0.00    -0.245 F 
ENDBRANCH   1  20
TORSDOF 6
ENDMDL
MODEL 2
REMARK VINA RESULT: -6.749216659      1.847      2.869
REMARK  6 active torsions:
REMARK  status: ('A' for Active; 'I' for Inactive)
REMARK    1  A    between atoms: C2_2  and  C3_4 
REMARK    2  A    between atoms: C4_5  and  C5_6 
REMARK    3  A    between atoms: C7_10  and  S1_11 
REMARK    4  A    between atoms: S1_11  and  C8_12 
REMARK    5  A    between atoms: C8_12  and  N1_14 
REMARK    6  A    between atoms: C13_19  and  O3_20 
ROOT
HETATM    1  C3  UNL     1      10.679  10.025 -35.619  1.00  0.00    -0.031 C 
HETATM    2  C4  UNL     1      11.819  10.360 -35.070  1.00  0.00     0.025 C 
HETATM    3  C6  UNL     1      12.960   9.420 -35.398  1.00  0.00     0.064 C 
HETATM    4  C7  UNL     1      12.523   7.995 -35.138  1.00  0.00     0.088 C 
HETATM    5  C13 UNL     1      11.238   7.664 -35.814  1.00  0.00     0.136 C 
HETATM    6  C14 UNL     1      10.586   8.808 -36.505  1.00  0.00     0.070 C 
ENDROOT
BRANCH   4   7
HETATM    7  S1  UNL     1      13.797   6.781 -35.403  1.00  0.00    -0.093 SA
BRANCH   7   8
HETATM    8  C8  UNL     1      15.386   7.215 -34.751  1.00  0.00     0.137 C 
HETATM    9  S2  UNL     1      16.087   8.619 -35.181  1.00  0.00    -0.053 SA
BRANCH   8  10
HETATM   10  N1  UNL     1      16.084   6.359 -33.848  1.00  0.00    -0.367 N 
HETATM   11  C9  UNL     1      15.818   4.946 -33.625  1.00  0.00     0.124 C 
HETATM   12  C10 UNL     1      16.715   4.565 -32.466  1.00  0.00     0.021 C 
HETATM   13  C11 UNL     1      17.889   5.499 -32.705  1.00  0.00     0.021 C 
HETATM   14  C12 UNL     1      17.183   6.799 -33.008  1.00  0.00     0.124 C 
ENDBRANCH   8  10
ENDBRANCH   7   8
ENDBRANCH   4   7
BRANCH   5  15
HETATM   15  O3  UNL     1      10.322   7.060 -34.950  1.00  0.00    -0.394 OA
ATOM     16  H3  UNL     1      10.264   6.122 -35.083  1.00  0.00     0.210 HD
ENDBRANCH   5  15
BRANCH   2  17
HETATM   17  C5  UNL     1      12.050  11.502 -34.214  1.00  0.00     0.205 C 
HETATM   18  O1  UNL     1      11.953  11.592 -32.995  1.00  0.00    -0.644 OA
HETATM   19  O2  UNL     1      12.454  12.724 -34.843  1.00  0.00    -0.644 OA
ENDBRANCH   2  17
BRANCH   1  20
HETATM   20  C2  UNL     1       9.435  10.791 -35.432  1.00  0.00     0.196 C 
HETATM   21  C1  UNL     1       8.461  10.215 -36.491  1.00  0.00     0.050 C 
HETATM   22  F1  UNL     1       8.869  10.496 -34.185  1.00  0.00    -0.245 F 
ENDBRANCH   1  20
TORSDOF 6
ENDMDL
MODEL 3
REMARK VINA RESULT: -6.618081025      2.248      3.114
REMARK  6 active torsions:
REMARK  status: ('A' for Active; 'I' for Inactive)
REMARK    1  A    between atoms: C2_2  and  C3_4 
REMARK    2  A    between atoms: C4_5  and  C5_6 
REMARK    3  A    between atoms: C7_10  and  S1_11 
REMARK    4  A    between atoms: S1_11  and  C8_12 
REMARK    5  A    between atoms: C8_12  and  N1_14 
REMARK    6  A    between atoms: C13_19  and  O3_20 
ROOT
HETATM    1  C3  UNL     1      10.307  10.075 -35.003  1.00  0.00    -0.031 C 
HETATM    2  C4  UNL     1      11.256  10.934 -34.733  1.00  0.00     0.025 C 
HETATM    3  C6  UNL     1      12.627  10.512 -35.218  1.00  0.00     0.064 C 
HETATM    4  C7  UNL     1      12.903   9.095 -34.762  1.00  0.00     0.088 C 
HETATM    5  C13 UNL     1      11.804   8.159 -35.127  1.00  0.00     0.136 C 
HETATM    6  C14 UNL     1      10.619   8.803 -35.753  1.00  0.00     0.070 C 
ENDROOT
BRANCH   4   7
HETATM    7  S1  UNL     1      14.521   8.492 -35.193  1.00  0.00    -0.093 SA
BRANCH   7   8
HETATM    8  C8  UNL     1      14.818   6.796 -34.773  1.00  0.00     0.137 C 
HETATM    9  S2  UNL     1      13.971   5.615 -35.505  1.00  0.00    -0.053 SA
BRANCH   8  10
HETATM   10  N1  UNL     1      15.790   6.427 -33.795  1.00  0.00    -0.367 N 
HETATM   11  C9  UNL     1      15.795   5.203 -33.009  1.00  0.00     0.124 C 
HETATM   12  C10 UNL     1      16.930   5.386 -32.023  1.00  0.00     0.021 C 
HETATM   13  C11 UNL     1      17.881   6.237 -32.847  1.00  0.00     0.021 C 
HETATM   14  C12 UNL     1      16.935   7.250 -33.448  1.00  0.00     0.124 C 
ENDBRANCH   8  10
ENDBRANCH   7   8
ENDBRANCH   4   7
BRANCH   5  15
HETATM   15  O3  UNL     1      11.390   7.377 -34.045  1.00  0.00    -0.394 OA
ATOM     16  H3  UNL     1      11.274   6.465 -34.282  1.00  0.00     0.210 HD
ENDBRANCH   5  15
BRANCH   2  17
HETATM   17  C5  UNL     1      11.095  12.191 -34.036  1.00  0.00     0.205 C 
HETATM   18  O1  UNL     1      11.328  12.465 -32.864  1.00  0.00    -0.644 OA
HETATM   19  O2  UNL     1      10.595  13.302 -34.790  1.00  0.00    -0.644 OA
ENDBRANCH   2  17
BRANCH   1  20
HETATM   20  C2  UNL     1       8.900  10.276 -34.620  1.00  0.00     0.196 C 
HETATM   21  C1  UNL     1       8.227  10.843 -35.896  1.00  0.00     0.050 C 
HETATM   22  F1  UNL     1       8.284   9.042 -34.374  1.00  0.00    -0.245 F 
ENDBRANCH   1  20
TORSDOF 6
ENDMDL
MODEL 4
REMARK VINA RESULT: -6.610702987      3.727      6.937
REMARK  6 active torsions:
REMARK  status: ('A' for Active; 'I' for Inactive)
REMARK    1  A    between atoms: C2_2  and  C3_4 
REMARK    2  A    between atoms: C4_5  and  C5_6 
REMARK    3  A    between atoms: C7_10  and  S1_11 
REMARK    4  A    between atoms: S1_11  and  C8_12 
REMARK    5  A    between atoms: C8_12  and  N1_14 
REMARK    6  A    between atoms: C13_19  and  O3_20 
ROOT
HETATM    1  C3  UNL     1      15.249   7.689 -34.987  1.00  0.00    -0.031 C 
HETATM    2  C4  UNL     1      14.650   6.539 -34.815  1.00  0.00     0.025 C 
HETATM    3  C6  UNL     1      13.269   6.464 -35.435  1.00  0.00     0.064 C 
HETATM    4  C7  UNL     1      12.464   7.671 -35.006  1.00  0.00     0.088 C 
HETATM    5  C13 UNL     1      13.185   8.951 -35.257  1.00  0.00     0.136 C 
HETATM    6  C14 UNL     1      14.574   8.794 -35.762  1.00  0.00     0.070 C 
ENDROOT
BRANCH   4   7
HETATM    7  S1  UNL     1      10.785   7.676 -35.596  1.00  0.00    -0.093 SA
BRANCH   7   8
HETATM    8  C8  UNL     1      10.128   9.282 -35.956  1.00  0.00     0.137 C 
HETATM    9  S2  UNL     1      10.420   9.978 -37.397  1.00  0.00    -0.053 SA
BRANCH   8  10
HETATM   10  N1  UNL     1       9.339   9.997 -35.006  1.00  0.00    -0.367 N 
HETATM   11  C9  UNL     1       9.721  11.222 -34.321  1.00  0.00     0.124 C 
HETATM   12  C10 UNL     1       8.613  11.462 -33.316  1.00  0.00     0.021 C 
HETATM   13  C11 UNL     1       7.428  10.873 -34.063  1.00  0.00     0.021 C 
HETATM   14  C12 UNL     1       8.013   9.581 -34.585  1.00  0.00     0.124 C 
ENDBRANCH   8  10
ENDBRANCH   7   8
ENDBRANCH   4   7
BRANCH   5  15
HETATM   15  O3  UNL     1      13.188   9.787 -34.138  1.00  0.00    -0.394 OA
ATOM     16  H3  UNL     1      13.500  10.661 -34.340  1.00  0.00     0.210 HD
ENDBRANCH   5  15
BRANCH   2  17
HETATM   17  C5  UNL     1      15.183   5.396 -34.108  1.00  0.00     0.205 C 
HETATM   18  O1  UNL     1      15.787   4.424 -34.547  1.00  0.00    -0.644 OA
HETATM   19  O2  UNL     1      15.002   5.358 -32.688  1.00  0.00    -0.644 OA
ENDBRANCH   2  17
BRANCH   1  20
HETATM   20  C2  UNL     1      16.592   7.987 -34.465  1.00  0.00     0.196 C 
HETATM   21  C1  UNL     1      17.120   9.125 -35.376  1.00  0.00     0.050 C 
HETATM   22  F1  UNL     1      16.501   8.533 -33.178  1.00  0.00    -0.245 F 
ENDBRANCH   1  20
TORSDOF 6
ENDMDL
MODEL 5
REMARK VINA RESULT: -6.503074181      3.583      7.132
REMARK  6 active torsions:
REMARK  status: ('A' for Active; 'I' for Inactive)
REMARK    1  A    between atoms: C2_2  and  C3_4 
REMARK    2  A    between atoms: C4_5  and  C5_6 
REMARK    3  A    between atoms: C7_10  and  S1_11 
REMARK    4  A    between atoms: S1_11  and  C8_12 
REMARK    5  A    between atoms: C8_12  and  N1_14 
REMARK    6  A    between atoms: C13_19  and  O3_20 
ROOT
HETATM    1  C3  UNL     1      15.265   6.954 -34.558  1.00  0.00    -0.031 C 
HETATM    2  C4  UNL     1      15.228   8.194 -34.974  1.00  0.00     0.025 C 
HETATM    3  C6  UNL     1      13.869   8.850 -34.838  1.00  0.00     0.064 C 
HETATM    4  C7  UNL     1      12.815   7.945 -35.440  1.00  0.00     0.088 C 
HETATM    5  C13 UNL     1      12.888   6.557 -34.903  1.00  0.00     0.136 C 
HETATM    6  C14 UNL     1      14.029   6.304 -33.985  1.00  0.00     0.070 C 
ENDROOT
BRANCH   4   7
HETATM    7  S1  UNL     1      11.172   8.627 -35.424  1.00  0.00    -0.093 SA
BRANCH   7   8
HETATM    8  C8  UNL     1      11.074  10.342 -35.857  1.00  0.00     0.137 C 
HETATM    9  S2  UNL     1      11.243  10.801 -37.409  1.00  0.00    -0.053 SA
BRANCH   8  10
HETATM   10  N1  UNL     1      10.850  11.351 -34.873  1.00  0.00    -0.367 N 
HETATM   11  C9  UNL     1      11.725  12.476 -34.582  1.00  0.00     0.124 C 
HETATM   12  C10 UNL     1      11.115  13.131 -33.361  1.00  0.00     0.021 C 
HETATM   13  C11 UNL     1       9.642  12.839 -33.595  1.00  0.00     0.021 C 
HETATM   14  C12 UNL     1       9.685  11.386 -34.007  1.00  0.00     0.124 C 
ENDBRANCH   8  10
ENDBRANCH   7   8
ENDBRANCH   4   7
BRANCH   5  15
HETATM   15  O3  UNL     1      12.882   5.595 -35.916  1.00  0.00    -0.394 OA
ATOM     16  H3  UNL     1      12.041   5.161 -35.997  1.00  0.00     0.210 HD
ENDBRANCH   5  15
BRANCH   2  17
HETATM   17  C5  UNL     1      16.334   8.941 -35.530  1.00  0.00     0.205 C 
HETATM   18  O1  UNL     1      17.472   9.082 -35.096  1.00  0.00    -0.644 OA
HETATM   19  O2  UNL     1      16.108   9.628 -36.766  1.00  0.00    -0.644 OA
ENDBRANCH   2  17
BRANCH   1  20
HETATM   20  C2  UNL     1      16.478   6.122 -34.602  1.00  0.00     0.196 C 
HETATM   21  C1  UNL     1      16.994   6.109 -33.140  1.00  0.00     0.050 C 
HETATM   22  F1  UNL     1      16.144   4.796 -34.905  1.00  0.00    -0.245 F 
ENDBRANCH   1  20
TORSDOF 6
ENDMDL
