MODEL 1
REMARK VINA RESULT: -8.162411264      0.000      0.000
REMARK  12 active torsions:
REMARK  status: ('A' for Active; 'I' for Inactive)
REMARK    1  A    between atoms: C6_8  and  N2_9 
REMARK    2  A    between atoms: N2_9  and  C7_11 
REMARK    3  A    between atoms: C7_11  and  C8_12 
REMARK    4  A    between atoms: C8_12  and  N3_13 
REMARK    5  A    between atoms: N7_23  and  C12_24 
REMARK    6  A    between atoms: C12_24  and  C13_25 
REMARK    7  A    between atoms: C13_25  and  C14_26 
REMARK    8  A    between atoms: C14_26  and  C15_27 
REMARK    9  A    between atoms: C15_27  and  C16_28 
REMARK   10  A    between atoms: C16_28  and  C17_29 
REMARK   11  A    between atoms: C17_29  and  C18_30 
REMARK   12  A    between atoms: C18_30  and  N8_31 
ROOT
HETATM    1  C1  UNL     1      12.819  11.959  20.018  1.00  0.00     0.038 C 
HETATM    2  C2  UNL     1      13.360  12.065  18.604  1.00  0.00     0.031 C 
HETATM    3  C3  UNL     1      14.672  12.791  18.556  1.00  0.00     0.038 C 
HETATM    4  C4  UNL     1      12.306  12.696  17.736  1.00  0.00     0.090 C 
HETATM    5  C5  UNL     1      12.421  11.937  16.466  1.00  0.00     0.061 A 
HETATM    6  N1  UNL     1      12.020  12.163  15.192  1.00  0.00    -0.193 N 
ATOM      7  H1  UNL     1      11.531  13.036  14.997  1.00  0.00     0.184 HD
HETATM    8  C6  UNL     1      12.222  11.318  14.168  1.00  0.00     0.681 A 
HETATM    9  N6  UNL     1      12.864  10.163  14.407  1.00  0.00    -0.154 N 
ATOM     10  H6  UNL     1      13.030   9.501  13.649  1.00  0.00     0.187 HD
HETATM   11  C10 UNL     1      13.285   9.886  15.648  1.00  0.00     0.288 A 
HETATM   12  O1  UNL     1      13.889   8.788  15.851  1.00  0.00    -0.265 OA
HETATM   13  C11 UNL     1      13.082  10.752  16.714  1.00  0.00     0.123 A 
HETATM   14  N7  UNL     1      13.428  10.714  18.093  1.00  0.00    -0.366 N 
ENDROOT
BRANCH  14  15
HETATM   15  C12 UNL     1      13.793   9.513  18.817  1.00  0.00     0.124 C 
BRANCH  15  16
HETATM   16  C13 UNL     1      12.529   8.769  19.099  1.00  0.00     0.020 C 
BRANCH  16  17
HETATM   17  C14 UNL     1      12.705   7.667  20.157  1.00  0.00     0.002 C 
BRANCH  17  18
HETATM   18  C15 UNL     1      11.471   7.418  20.911  1.00  0.00     0.000 C 
BRANCH  18  19
HETATM   19  C16 UNL     1      11.398   7.887  22.302  1.00  0.00     0.002 C 
BRANCH  19  20
HETATM   20  C17 UNL     1      11.002   9.262  22.599  1.00  0.00     0.028 C 
BRANCH  20  21
HETATM   21  C18 UNL     1      10.650   9.601  23.988  1.00  0.00     0.236 C 
BRANCH  21  22
HETATM   22  N8  UNL     1       9.646  10.695  24.016  1.00  0.00    -0.079 N 
HETATM   23  C19 UNL     1      10.248  11.730  24.848  1.00  0.00     0.271 C 
HETATM   24  C20 UNL     1       8.424  10.285  24.630  1.00  0.00     0.271 C 
HETATM   25  C21 UNL     1       9.492  11.236  22.684  1.00  0.00     0.271 C 
ENDBRANCH  21  22
ENDBRANCH  20  21
ENDBRANCH  19  20
ENDBRANCH  18  19
ENDBRANCH  17  18
ENDBRANCH  16  17
ENDBRANCH  15  16
ENDBRANCH  14  15
BRANCH   8  26
HETATM   26  N2  UNL     1      11.803  11.611  12.958  1.00  0.00    -0.224 N 
ATOM     27  H2  UNL     1      10.887  11.297  12.638  1.00  0.00     0.177 HD
BRANCH  26  28
HETATM   28  C7  UNL     1      12.661  12.388  12.087  1.00  0.00     0.157 C 
BRANCH  28  29
HETATM   29  C8  UNL     1      13.442  11.488  11.150  1.00  0.00     0.142 C 
BRANCH  29  30
HETATM   30  N3  UNL     1      14.857  11.577  11.365  1.00  0.00    -0.365 N 
HETATM   31  C9  UNL     1      15.492  10.598  11.900  1.00  0.00     0.197 C 
HETATM   32  N4  UNL     1      14.775   9.441  12.272  1.00  0.00    -0.067 NA
HETATM   33  N5  UNL     1      16.897  10.665  12.125  1.00  0.00    -0.067 NA
ATOM     34  H3  UNL     1      15.361  12.420  11.091  1.00  0.00     0.161 HD
ENDBRANCH  29  30
ENDBRANCH  28  29
ENDBRANCH  26  28
ENDBRANCH   8  26
TORSDOF 12
ENDMDL
MODEL 2
REMARK VINA RESULT: -8.006973949      2.488      4.678
REMARK  12 active torsions:
REMARK  status: ('A' for Active; 'I' for Inactive)
REMARK    1  A    between atoms: C6_8  and  N2_9 
REMARK    2  A    between atoms: N2_9  and  C7_11 
REMARK    3  A    between atoms: C7_11  and  C8_12 
REMARK    4  A    between atoms: C8_12  and  N3_13 
REMARK    5  A    between atoms: N7_23  and  C12_24 
REMARK    6  A    between atoms: C12_24  and  C13_25 
REMARK    7  A    between atoms: C13_25  and  C14_26 
REMARK    8  A    between atoms: C14_26  and  C15_27 
REMARK    9  A    between atoms: C15_27  and  C16_28 
REMARK   10  A    between atoms: C16_28  and  C17_29 
REMARK   11  A    between atoms: C17_29  and  C18_30 
REMARK   12  A    between atoms: C18_30  and  N8_31 
ROOT
HETATM    1  C1  UNL     1      12.920  11.977  20.010  1.00  0.00     0.038 C 
HETATM    2  C2  UNL     1      13.436  12.093  18.588  1.00  0.00     0.031 C 
HETATM    3  C3  UNL     1      14.738  12.837  18.520  1.00  0.00     0.038 C 
HETATM    4  C4  UNL     1      12.360  12.713  17.739  1.00  0.00     0.090 C 
HETATM    5  C5  UNL     1      12.464  11.958  16.465  1.00  0.00     0.061 A 
HETATM    6  N1  UNL     1      12.039  12.181  15.199  1.00  0.00    -0.193 N 
ATOM      7  H1  UNL     1      11.535  13.049  15.014  1.00  0.00     0.184 HD
HETATM    8  C6  UNL     1      12.234  11.342  14.170  1.00  0.00     0.681 A 
HETATM    9  N6  UNL     1      12.895  10.194  14.395  1.00  0.00    -0.154 N 
ATOM     10  H6  UNL     1      13.057   9.537  13.633  1.00  0.00     0.187 HD
HETATM   11  C10 UNL     1      13.340   9.920  15.628  1.00  0.00     0.288 A 
HETATM   12  O1  UNL     1      13.962   8.830  15.819  1.00  0.00    -0.265 OA
HETATM   13  C11 UNL     1      13.144  10.781  16.699  1.00  0.00     0.123 A 
HETATM   14  N7  UNL     1      13.513  10.745  18.072  1.00  0.00    -0.366 N 
ENDROOT
BRANCH  14  15
HETATM   15  C12 UNL     1      13.905   9.547  18.788  1.00  0.00     0.124 C 
BRANCH  15  16
HETATM   16  C13 UNL     1      12.654   8.797  19.108  1.00  0.00     0.020 C 
BRANCH  16  17
HETATM   17  C14 UNL     1      12.825   7.819  20.283  1.00  0.00     0.002 C 
BRANCH  17  18
HETATM   18  C15 UNL     1      14.210   7.764  20.761  1.00  0.00     0.000 C 
BRANCH  18  19
HETATM   19  C16 UNL     1      14.894   6.463  20.766  1.00  0.00     0.002 C 
BRANCH  19  20
HETATM   20  C17 UNL     1      14.945   5.650  19.553  1.00  0.00     0.028 C 
BRANCH  20  21
HETATM   21  C18 UNL     1      15.580   6.226  18.355  1.00  0.00     0.236 C 
BRANCH  21  22
HETATM   22  N8  UNL     1      16.031   5.147  17.438  1.00  0.00    -0.079 N 
HETATM   23  C19 UNL     1      17.477   5.307  17.360  1.00  0.00     0.271 C 
HETATM   24  C20 UNL     1      15.494   5.303  16.124  1.00  0.00     0.271 C 
HETATM   25  C21 UNL     1      15.762   3.863  18.044  1.00  0.00     0.271 C 
ENDBRANCH  21  22
ENDBRANCH  20  21
ENDBRANCH  19  20
ENDBRANCH  18  19
ENDBRANCH  17  18
ENDBRANCH  16  17
ENDBRANCH  15  16
ENDBRANCH  14  15
BRANCH   8  26
HETATM   26  N2  UNL     1      11.791  11.633  12.968  1.00  0.00    -0.224 N 
ATOM     27  H2  UNL     1      10.862  11.334  12.673  1.00  0.00     0.177 HD
BRANCH  26  28
HETATM   28  C7  UNL     1      12.643  12.383  12.068  1.00  0.00     0.157 C 
BRANCH  28  29
HETATM   29  C8  UNL     1      13.425  11.456  11.159  1.00  0.00     0.142 C 
BRANCH  29  30
HETATM   30  N3  UNL     1      14.840  11.557  11.368  1.00  0.00    -0.365 N 
HETATM   31  C9  UNL     1      15.487  10.581  11.895  1.00  0.00     0.197 C 
HETATM   32  N4  UNL     1      14.782   9.414  12.263  1.00  0.00    -0.067 NA
HETATM   33  N5  UNL     1      16.892  10.659  12.115  1.00  0.00    -0.067 NA
ATOM     34  H3  UNL     1      15.335  12.407  11.098  1.00  0.00     0.161 HD
ENDBRANCH  29  30
ENDBRANCH  28  29
ENDBRANCH  26  28
ENDBRANCH   8  26
TORSDOF 12
ENDMDL
MODEL 3
REMARK VINA RESULT: -7.941918547      1.355      2.245
REMARK  12 active torsions:
REMARK  status: ('A' for Active; 'I' for Inactive)
REMARK    1  A    between atoms: C6_8  and  N2_9 
REMARK    2  A    between atoms: N2_9  and  C7_11 
REMARK    3  A    between atoms: C7_11  and  C8_12 
REMARK    4  A    between atoms: C8_12  and  N3_13 
REMARK    5  A    between atoms: N7_23  and  C12_24 
REMARK    6  A    between atoms: C12_24  and  C13_25 
REMARK    7  A    between atoms: C13_25  and  C14_26 
REMARK    8  A    between atoms: C14_26  and  C15_27 
REMARK    9  A    between atoms: C15_27  and  C16_28 
REMARK   10  A    between atoms: C16_28  and  C17_29 
REMARK   11  A    between atoms: C17_29  and  C18_30 
REMARK   12  A    between atoms: C18_30  and  N8_31 
ROOT
HETATM    1  C1  UNL     1      11.314  11.181  18.423  1.00  0.00     0.038 C 
HETATM    2  C2  UNL     1      12.666  10.920  17.785  1.00  0.00     0.031 C 
HETATM    3  C3  UNL     1      13.760  11.710  18.441  1.00  0.00     0.038 C 
HETATM    4  C4  UNL     1      12.555  11.182  16.308  1.00  0.00     0.090 C 
HETATM    5  C5  UNL     1      13.381  10.100  15.715  1.00  0.00     0.061 A 
HETATM    6  N1  UNL     1      13.964   9.913  14.507  1.00  0.00    -0.193 N 
ATOM      7  H1  UNL     1      13.853  10.648  13.808  1.00  0.00     0.184 HD
HETATM    8  C6  UNL     1      14.678   8.830  14.164  1.00  0.00     0.681 A 
HETATM    9  N6  UNL     1      14.834   7.851  15.072  1.00  0.00    -0.154 N 
ATOM     10  H6  UNL     1      15.370   7.016  14.839  1.00  0.00     0.187 HD
HETATM   11  C10 UNL     1      14.280   7.982  16.284  1.00  0.00     0.288 A 
HETATM   12  O1  UNL     1      14.439   7.046  17.126  1.00  0.00    -0.265 OA
HETATM   13  C11 UNL     1      13.540   9.098  16.649  1.00  0.00     0.123 A 
HETATM   14  N7  UNL     1      12.872   9.490  17.842  1.00  0.00    -0.366 N 
ENDROOT
BRANCH  14  15
HETATM   15  C12 UNL     1      12.495   8.585  18.909  1.00  0.00     0.124 C 
BRANCH  15  16
HETATM   16  C13 UNL     1      13.581   8.636  19.933  1.00  0.00     0.020 C 
BRANCH  16  17
HETATM   17  C14 UNL     1      13.320   7.707  21.131  1.00  0.00     0.002 C 
BRANCH  17  18
HETATM   18  C15 UNL     1      11.895   7.394  21.289  1.00  0.00     0.000 C 
BRANCH  18  19
HETATM   19  C16 UNL     1      11.239   7.756  22.554  1.00  0.00     0.002 C 
BRANCH  19  20
HETATM   20  C17 UNL     1      10.892   9.147  22.835  1.00  0.00     0.028 C 
BRANCH  20  21
HETATM   21  C18 UNL     1      10.789   9.569  24.243  1.00  0.00     0.236 C 
BRANCH  21  22
HETATM   22  N8  UNL     1       9.663  10.523  24.416  1.00  0.00    -0.079 N 
HETATM   23  C19 UNL     1      10.151  11.500  25.381  1.00  0.00     0.271 C 
HETATM   24  C20 UNL     1       8.507   9.892  24.968  1.00  0.00     0.271 C 
HETATM   25  C21 UNL     1       9.427  11.215  23.170  1.00  0.00     0.271 C 
ENDBRANCH  21  22
ENDBRANCH  20  21
ENDBRANCH  19  20
ENDBRANCH  18  19
ENDBRANCH  17  18
ENDBRANCH  16  17
ENDBRANCH  15  16
ENDBRANCH  14  15
BRANCH   8  26
HETATM   26  N2  UNL     1      15.215   8.724  12.970  1.00  0.00    -0.224 N 
ATOM     27  H2  UNL     1      14.833   8.069  12.288  1.00  0.00     0.177 HD
BRANCH  26  28
HETATM   28  C7  UNL     1      16.357   9.552  12.637  1.00  0.00     0.157 C 
BRANCH  28  29
HETATM   29  C8  UNL     1      16.115  10.321  11.355  1.00  0.00     0.142 C 
BRANCH  29  30
HETATM   30  N3  UNL     1      15.080  11.304  11.498  1.00  0.00    -0.365 N 
HETATM   31  C9  UNL     1      13.919  11.098  10.992  1.00  0.00     0.197 C 
HETATM   32  N4  UNL     1      13.682   9.894  10.295  1.00  0.00    -0.067 NA
HETATM   33  N5  UNL     1      12.877  12.061  11.120  1.00  0.00    -0.067 NA
ATOM     34  H3  UNL     1      15.268  12.170  12.004  1.00  0.00     0.161 HD
ENDBRANCH  29  30
ENDBRANCH  28  29
ENDBRANCH  26  28
ENDBRANCH   8  26
TORSDOF 12
ENDMDL
MODEL 4
REMARK VINA RESULT: -7.897059546      2.631      4.696
REMARK  12 active torsions:
REMARK  status: ('A' for Active; 'I' for Inactive)
REMARK    1  A    between atoms: C6_8  and  N2_9 
REMARK    2  A    between atoms: N2_9  and  C7_11 
REMARK    3  A    between atoms: C7_11  and  C8_12 
REMARK    4  A    between atoms: C8_12  and  N3_13 
REMARK    5  A    between atoms: N7_23  and  C12_24 
REMARK    6  A    between atoms: C12_24  and  C13_25 
REMARK    7  A    between atoms: C13_25  and  C14_26 
REMARK    8  A    between atoms: C14_26  and  C15_27 
REMARK    9  A    between atoms: C15_27  and  C16_28 
REMARK   10  A    between atoms: C16_28  and  C17_29 
REMARK   11  A    between atoms: C17_29  and  C18_30 
REMARK   12  A    between atoms: C18_30  and  N8_31 
ROOT
HETATM    1  C1  UNL     1      12.787  11.868  20.014  1.00  0.00     0.038 C 
HETATM    2  C2  UNL     1      13.320  12.030  18.602  1.00  0.00     0.031 C 
HETATM    3  C3  UNL     1      14.599  12.815  18.570  1.00  0.00     0.038 C 
HETATM    4  C4  UNL     1      12.237  12.635  17.751  1.00  0.00     0.090 C 
HETATM    5  C5  UNL     1      12.383  11.911  16.463  1.00  0.00     0.061 A 
HETATM    6  N1  UNL     1      11.970  12.147  15.196  1.00  0.00    -0.193 N 
ATOM      7  H1  UNL     1      11.442  13.003  15.021  1.00  0.00     0.184 HD
HETATM    8  C6  UNL     1      12.206  11.336  14.152  1.00  0.00     0.681 A 
HETATM    9  N6  UNL     1      12.899  10.205  14.364  1.00  0.00    -0.154 N 
ATOM     10  H6  UNL     1      13.092   9.569  13.591  1.00  0.00     0.187 HD
HETATM   11  C10 UNL     1      13.334   9.919  15.597  1.00  0.00     0.288 A 
HETATM   12  O1  UNL     1      13.987   8.844  15.775  1.00  0.00    -0.265 OA
HETATM   13  C11 UNL     1      13.096  10.750  16.683  1.00  0.00     0.123 A 
HETATM   14  N7  UNL     1      13.446  10.696  18.060  1.00  0.00    -0.366 N 
ENDROOT
BRANCH  14  15
HETATM   15  C12 UNL     1      13.865   9.496  18.757  1.00  0.00     0.124 C 
BRANCH  15  16
HETATM   16  C13 UNL     1      12.630   8.719  19.073  1.00  0.00     0.020 C 
BRANCH  16  17
HETATM   17  C14 UNL     1      12.918   7.431  19.864  1.00  0.00     0.002 C 
BRANCH  17  18
HETATM   18  C15 UNL     1      13.994   7.611  20.844  1.00  0.00     0.000 C 
BRANCH  18  19
HETATM   19  C16 UNL     1      15.065   6.607  20.896  1.00  0.00     0.002 C 
BRANCH  19  20
HETATM   20  C17 UNL     1      15.096   5.509  19.932  1.00  0.00     0.028 C 
BRANCH  20  21
HETATM   21  C18 UNL     1      15.787   4.266  20.314  1.00  0.00     0.236 C 
BRANCH  21  22
HETATM   22  N8  UNL     1      15.931   3.370  19.138  1.00  0.00    -0.079 N 
HETATM   23  C19 UNL     1      14.714   2.568  19.132  1.00  0.00     0.271 C 
HETATM   24  C20 UNL     1      17.045   2.488  19.270  1.00  0.00     0.271 C 
HETATM   25  C21 UNL     1      15.940   4.166  17.931  1.00  0.00     0.271 C 
ENDBRANCH  21  22
ENDBRANCH  20  21
ENDBRANCH  19  20
ENDBRANCH  18  19
ENDBRANCH  17  18
ENDBRANCH  16  17
ENDBRANCH  15  16
ENDBRANCH  14  15
BRANCH   8  26
HETATM   26  N2  UNL     1      11.772  11.638  12.950  1.00  0.00    -0.224 N 
ATOM     27  H2  UNL     1      10.838  11.359  12.652  1.00  0.00     0.177 HD
BRANCH  26  28
HETATM   28  C7  UNL     1      12.641  12.374  12.054  1.00  0.00     0.157 C 
BRANCH  28  29
HETATM   29  C8  UNL     1      13.420  11.434  11.157  1.00  0.00     0.142 C 
BRANCH  29  30
HETATM   30  N3  UNL     1      14.837  11.552  11.347  1.00  0.00    -0.365 N 
HETATM   31  C9  UNL     1      15.500  10.591  11.880  1.00  0.00     0.197 C 
HETATM   32  N4  UNL     1      14.811   9.423  12.275  1.00  0.00    -0.067 NA
HETATM   33  N5  UNL     1      16.906  10.687  12.080  1.00  0.00    -0.067 NA
ATOM     34  H3  UNL     1      15.320  12.402  11.057  1.00  0.00     0.161 HD
ENDBRANCH  29  30
ENDBRANCH  28  29
ENDBRANCH  26  28
ENDBRANCH   8  26
TORSDOF 12
ENDMDL
MODEL 5
REMARK VINA RESULT: -7.778524407      1.639      2.114
REMARK  12 active torsions:
REMARK  status: ('A' for Active; 'I' for Inactive)
REMARK    1  A    between atoms: C6_8  and  N2_9 
REMARK    2  A    between atoms: N2_9  and  C7_11 
REMARK    3  A    between atoms: C7_11  and  C8_12 
REMARK    4  A    between atoms: C8_12  and  N3_13 
REMARK    5  A    between atoms: N7_23  and  C12_24 
REMARK    6  A    between atoms: C12_24  and  C13_25 
REMARK    7  A    between atoms: C13_25  and  C14_26 
REMARK    8  A    between atoms: C14_26  and  C15_27 
REMARK    9  A    between atoms: C15_27  and  C16_28 
REMARK   10  A    between atoms: C16_28  and  C17_29 
REMARK   11  A    between atoms: C17_29  and  C18_30 
REMARK   12  A    between atoms: C18_30  and  N8_31 
ROOT
HETATM    1  C1  UNL     1      11.265  11.242  18.706  1.00  0.00     0.038 C 
HETATM    2  C2  UNL     1      12.437  11.490  17.774  1.00  0.00     0.031 C 
HETATM    3  C3  UNL     1      13.553  12.224  18.457  1.00  0.00     0.038 C 
HETATM    4  C4  UNL     1      11.930  12.200  16.548  1.00  0.00     0.090 C 
HETATM    5  C5  UNL     1      12.709  11.571  15.453  1.00  0.00     0.061 A 
HETATM    6  N1  UNL     1      12.991  11.920  14.175  1.00  0.00    -0.193 N 
ATOM      7  H1  UNL     1      12.620  12.806  13.832  1.00  0.00     0.184 HD
HETATM    8  C6  UNL     1      13.726  11.182  13.328  1.00  0.00     0.681 A 
HETATM    9  N6  UNL     1      14.223  10.012  13.762  1.00  0.00    -0.154 N 
ATOM     10  H6  UNL     1      14.784   9.430  13.140  1.00  0.00     0.187 HD
HETATM   11  C10 UNL     1      13.977   9.616  15.017  1.00  0.00     0.288 A 
HETATM   12  O1  UNL     1      14.456   8.506  15.406  1.00  0.00    -0.265 OA
HETATM   13  C11 UNL     1      13.219  10.371  15.902  1.00  0.00     0.123 A 
HETATM   14  N7  UNL     1      12.826  10.197  17.257  1.00  0.00    -0.366 N 
ENDROOT
BRANCH  14  15
HETATM   15  C12 UNL     1      12.841   8.932  17.964  1.00  0.00     0.124 C 
BRANCH  15  16
HETATM   16  C13 UNL     1      13.992   8.974  18.915  1.00  0.00     0.020 C 
BRANCH  16  17
HETATM   17  C14 UNL     1      13.618   8.502  20.329  1.00  0.00     0.002 C 
BRANCH  17  18
HETATM   18  C15 UNL     1      12.557   7.489  20.313  1.00  0.00     0.000 C 
BRANCH  18  19
HETATM   19  C16 UNL     1      11.349   7.732  21.114  1.00  0.00     0.002 C 
BRANCH  19  20
HETATM   20  C17 UNL     1      11.323   8.805  22.105  1.00  0.00     0.028 C 
BRANCH  20  21
HETATM   21  C18 UNL     1      10.977   8.462  23.495  1.00  0.00     0.236 C 
BRANCH  21  22
HETATM   22  N8  UNL     1      10.358   9.627  24.178  1.00  0.00    -0.079 N 
HETATM   23  C19 UNL     1       9.042   9.159  24.591  1.00  0.00     0.271 C 
HETATM   24  C20 UNL     1      10.179  10.733  23.292  1.00  0.00     0.271 C 
HETATM   25  C21 UNL     1      11.111   9.936  25.372  1.00  0.00     0.271 C 
ENDBRANCH  21  22
ENDBRANCH  20  21
ENDBRANCH  19  20
ENDBRANCH  18  19
ENDBRANCH  17  18
ENDBRANCH  16  17
ENDBRANCH  15  16
ENDBRANCH  14  15
BRANCH   8  26
HETATM   26  N2  UNL     1      13.957  11.592  12.101  1.00  0.00    -0.224 N 
ATOM     27  H2  UNL     1      13.989  12.589  11.886  1.00  0.00     0.177 HD
BRANCH  26  28
HETATM   28  C7  UNL     1      14.167  10.608  11.059  1.00  0.00     0.157 C 
BRANCH  28  29
HETATM   29  C8  UNL     1      15.644  10.403  10.793  1.00  0.00     0.142 C 
BRANCH  29  30
HETATM   30  N3  UNL     1      15.910  10.083   9.420  1.00  0.00    -0.365 N 
HETATM   31  C9  UNL     1      17.105   9.809   9.040  1.00  0.00     0.197 C 
HETATM   32  N4  UNL     1      18.146   9.828   9.993  1.00  0.00    -0.067 NA
HETATM   33  N5  UNL     1      17.392   9.491   7.682  1.00  0.00    -0.067 NA
ATOM     34  H3  UNL     1      15.147  10.074   8.743  1.00  0.00     0.161 HD
ENDBRANCH  29  30
ENDBRANCH  28  29
ENDBRANCH  26  28
ENDBRANCH   8  26
TORSDOF 12
ENDMDL
