MODEL 1
REMARK VINA RESULT: -9.137762203      0.000      0.000
REMARK  11 active torsions:
REMARK  status: ('A' for Active; 'I' for Inactive)
REMARK    1  A    between atoms: S1_2  and  N1_4 
REMARK    2  A    between atoms: S1_2  and  N4_22 
REMARK    3  A    between atoms: N1_4  and  C1_6 
REMARK    4  A    between atoms: C1_6  and  C2_7 
REMARK    5  A    between atoms: C3_8  and  C4_9 
REMARK    6  A    between atoms: C4_9  and  N2_10 
REMARK    7  A    between atoms: N2_10  and  C5_12 
REMARK    8  A    between atoms: N4_22  and  C13_24 
REMARK    9  A    between atoms: C13_24  and  C14_25 
REMARK   10  A    between atoms: C14_25  and  N5_26 
REMARK   11  A    between atoms: N5_26  and  C15_29 
ROOT
HETATM    1  N1  UNL     1      15.984  11.107  11.034  1.00  0.00    -0.299 N 
ATOM      2  H1  UNL     1      16.603  11.798  11.457  1.00  0.00     0.174 HD
ENDROOT
BRANCH   1   3
HETATM    3  S1  UNL     1      14.340  10.987  11.218  1.00  0.00     0.315 S 
HETATM    4  O1  UNL     1      13.591  10.200  10.246  1.00  0.00    -0.183 OA
HETATM    5  O2  UNL     1      14.171  10.259  12.564  1.00  0.00    -0.183 OA
BRANCH   3   6
HETATM    6  N4  UNL     1      13.520  12.562  11.342  1.00  0.00    -0.301 N 
ATOM      7  H4  UNL     1      13.760  13.456  10.913  1.00  0.00     0.173 HD
BRANCH   6   8
HETATM    8  C13 UNL     1      12.403  12.221  12.231  1.00  0.00     0.161 C 
BRANCH   8   9
HETATM    9  C14 UNL     1      12.765  12.754  13.591  1.00  0.00     0.253 C 
BRANCH   9  10
HETATM   10  N5  UNL     1      12.069  11.754  14.473  1.00  0.00    -0.069 N 
ATOM     11  H52 UNL     1      11.086  11.997  14.594  1.00  0.00     0.277 HD
ATOM     12  H51 UNL     1      11.961  10.859  13.996  1.00  0.00     0.277 HD
BRANCH  10  13
HETATM   13  C15 UNL     1      12.707  11.587  15.725  1.00  0.00     0.186 C 
HETATM   14  C16 UNL     1      12.024  12.254  16.886  1.00  0.00     0.033 C 
HETATM   15  C17 UNL     1      11.231  11.328  17.747  1.00  0.00     0.002 C 
HETATM   16  C18 UNL     1      12.122  10.281  18.349  1.00  0.00     0.000 C 
HETATM   17  C19 UNL     1      13.246   9.848  17.462  1.00  0.00     0.002 C 
HETATM   18  C20 UNL     1      13.027  10.127  16.006  1.00  0.00     0.033 C 
ENDBRANCH  10  13
ENDBRANCH   9  10
ENDBRANCH   8   9
ENDBRANCH   6   8
ENDBRANCH   3   6
ENDBRANCH   1   3
BRANCH   1  19
HETATM   19  C1  UNL     1      16.353  10.036  10.156  1.00  0.00     0.161 C 
BRANCH  19  20
HETATM   20  C2  UNL     1      17.665   9.642  10.631  1.00  0.00    -0.005 C 
HETATM   21  C3  UNL     1      18.059   8.752  11.633  1.00  0.00     0.014 C 
BRANCH  21  22
HETATM   22  C4  UNL     1      17.094   8.576  12.752  1.00  0.00     0.088 C 
BRANCH  22  23
HETATM   23  N2  UNL     1      16.032   7.717  12.493  1.00  0.00    -0.365 N 
ATOM     24  H2  UNL     1      15.560   7.867  11.601  1.00  0.00     0.165 HD
BRANCH  23  25
HETATM   25  C5  UNL     1      15.558   6.764  13.206  1.00  0.00     0.041 A 
HETATM   26  C6  UNL     1      14.814   6.930  14.261  1.00  0.00     0.047 A 
HETATM   27  C7  UNL     1      13.939   6.135  14.829  1.00  0.00     0.090 A 
HETATM   28  N3  UNL     1      13.846   4.838  14.239  1.00  0.00    -0.369 N 
HETATM   29  C8  UNL     1      14.643   4.570  13.212  1.00  0.00     0.017 A 
ATOM     30  H3  UNL     1      13.190   4.142  14.594  1.00  0.00     0.165 HD
HETATM   31  C9  UNL     1      15.545   5.490  12.600  1.00  0.00    -0.009 A 
HETATM   32  C12 UNL     1      14.924   3.251  12.515  1.00  0.00     0.058 C 
HETATM   33  C10 UNL     1      16.301   4.881  11.549  1.00  0.00     0.043 C 
HETATM   34  C11 UNL     1      15.478   3.677  11.206  1.00  0.00     0.011 C 
ENDBRANCH  23  25
ENDBRANCH  22  23
ENDBRANCH  21  22
ENDBRANCH  19  20
ENDBRANCH   1  19
TORSDOF 11
ENDMDL
MODEL 2
REMARK VINA RESULT: -9.061085009      2.523      3.575
REMARK  11 active torsions:
REMARK  status: ('A' for Active; 'I' for Inactive)
REMARK    1  A    between atoms: S1_2  and  N1_4 
REMARK    2  A    between atoms: S1_2  and  N4_22 
REMARK    3  A    between atoms: N1_4  and  C1_6 
REMARK    4  A    between atoms: C1_6  and  C2_7 
REMARK    5  A    between atoms: C3_8  and  C4_9 
REMARK    6  A    between atoms: C4_9  and  N2_10 
REMARK    7  A    between atoms: N2_10  and  C5_12 
REMARK    8  A    between atoms: N4_22  and  C13_24 
REMARK    9  A    between atoms: C13_24  and  C14_25 
REMARK   10  A    between atoms: C14_25  and  N5_26 
REMARK   11  A    between atoms: N5_26  and  C15_29 
ROOT
HETATM    1  N1  UNL     1      16.181  11.173  11.245  1.00  0.00    -0.299 N 
ATOM      2  H1  UNL     1      16.661  12.065  11.363  1.00  0.00     0.174 HD
ENDROOT
BRANCH   1   3
HETATM    3  S1  UNL     1      14.544  10.908  11.230  1.00  0.00     0.315 S 
HETATM    4  O1  UNL     1      13.976  10.148  10.124  1.00  0.00    -0.183 OA
HETATM    5  O2  UNL     1      14.297  10.059  12.492  1.00  0.00    -0.183 OA
BRANCH   3   6
HETATM    6  N4  UNL     1      13.580  12.397  11.376  1.00  0.00    -0.301 N 
ATOM      7  H4  UNL     1      13.797  13.345  11.068  1.00  0.00     0.173 HD
BRANCH   6   8
HETATM    8  C13 UNL     1      12.387  11.886  12.062  1.00  0.00     0.161 C 
BRANCH   8   9
HETATM    9  C14 UNL     1      12.433  12.435  13.461  1.00  0.00     0.253 C 
BRANCH   9  10
HETATM   10  N5  UNL     1      12.317  11.166  14.260  1.00  0.00    -0.069 N 
ATOM     11  H52 UNL     1      11.349  10.845  14.295  1.00  0.00     0.277 HD
ATOM     12  H51 UNL     1      12.734  10.381  13.760  1.00  0.00     0.277 HD
BRANCH  10  13
HETATM   13  C15 UNL     1      12.859  11.284  15.562  1.00  0.00     0.186 C 
HETATM   14  C16 UNL     1      12.115  12.209  16.485  1.00  0.00     0.033 C 
HETATM   15  C17 UNL     1      11.236  11.516  17.472  1.00  0.00     0.002 C 
HETATM   16  C18 UNL     1      12.050  10.625  18.363  1.00  0.00     0.000 C 
HETATM   17  C19 UNL     1      13.220   9.984  17.686  1.00  0.00     0.002 C 
HETATM   18  C20 UNL     1      13.113   9.923  16.193  1.00  0.00     0.033 C 
ENDBRANCH  10  13
ENDBRANCH   9  10
ENDBRANCH   8   9
ENDBRANCH   6   8
ENDBRANCH   3   6
ENDBRANCH   1   3
BRANCH   1  19
HETATM   19  C1  UNL     1      16.782   9.886  11.055  1.00  0.00     0.161 C 
BRANCH  19  20
HETATM   20  C2  UNL     1      17.722  10.103   9.973  1.00  0.00    -0.005 C 
HETATM   21  C3  UNL     1      17.592   9.963   8.589  1.00  0.00     0.014 C 
BRANCH  21  22
HETATM   22  C4  UNL     1      16.597   8.953   8.137  1.00  0.00     0.088 C 
BRANCH  22  23
HETATM   23  N2  UNL     1      17.133   7.794   7.587  1.00  0.00    -0.365 N 
ATOM     24  H2  UNL     1      18.082   7.884   7.224  1.00  0.00     0.165 HD
BRANCH  23  25
HETATM   25  C5  UNL     1      16.613   6.629   7.468  1.00  0.00     0.041 A 
HETATM   26  C6  UNL     1      16.574   5.947   6.359  1.00  0.00     0.047 A 
HETATM   27  C7  UNL     1      16.482   4.656   6.149  1.00  0.00     0.090 A 
HETATM   28  N3  UNL     1      16.313   3.872   7.330  1.00  0.00    -0.369 N 
HETATM   29  C8  UNL     1      16.254   4.513   8.491  1.00  0.00     0.017 A 
ATOM     30  H3  UNL     1      16.241   2.856   7.284  1.00  0.00     0.165 HD
HETATM   31  C9  UNL     1      16.410   5.920   8.670  1.00  0.00    -0.009 A 
HETATM   32  C12 UNL     1      15.884   4.000   9.870  1.00  0.00     0.058 C 
HETATM   33  C10 UNL     1      16.241   6.308  10.036  1.00  0.00     0.043 C 
HETATM   34  C11 UNL     1      16.464   5.023  10.774  1.00  0.00     0.011 C 
ENDBRANCH  23  25
ENDBRANCH  22  23
ENDBRANCH  21  22
ENDBRANCH  19  20
ENDBRANCH   1  19
TORSDOF 11
ENDMDL
MODEL 3
REMARK VINA RESULT: -8.983595730      2.981      7.931
REMARK  11 active torsions:
REMARK  status: ('A' for Active; 'I' for Inactive)
REMARK    1  A    between atoms: S1_2  and  N1_4 
REMARK    2  A    between atoms: S1_2  and  N4_22 
REMARK    3  A    between atoms: N1_4  and  C1_6 
REMARK    4  A    between atoms: C1_6  and  C2_7 
REMARK    5  A    between atoms: C3_8  and  C4_9 
REMARK    6  A    between atoms: C4_9  and  N2_10 
REMARK    7  A    between atoms: N2_10  and  C5_12 
REMARK    8  A    between atoms: N4_22  and  C13_24 
REMARK    9  A    between atoms: C13_24  and  C14_25 
REMARK   10  A    between atoms: C14_25  and  N5_26 
REMARK   11  A    between atoms: N5_26  and  C15_29 
ROOT
HETATM    1  N1  UNL     1      13.220  12.325  12.222  1.00  0.00    -0.299 N 
ATOM      2  H1  UNL     1      13.169  13.216  11.729  1.00  0.00     0.174 HD
ENDROOT
BRANCH   1   3
HETATM    3  S1  UNL     1      14.147  11.009  11.822  1.00  0.00     0.315 S 
HETATM    4  O1  UNL     1      14.228   9.906  12.772  1.00  0.00    -0.183 OA
HETATM    5  O2  UNL     1      13.451  10.435  10.573  1.00  0.00    -0.183 OA
BRANCH   3   6
HETATM    6  N4  UNL     1      15.819  11.424  11.375  1.00  0.00    -0.301 N 
ATOM      7  H4  UNL     1      16.168  12.203  10.818  1.00  0.00     0.173 HD
BRANCH   6   8
HETATM    8  C13 UNL     1      16.556  10.335  12.029  1.00  0.00     0.161 C 
BRANCH   8   9
HETATM    9  C14 UNL     1      17.211   9.545  10.929  1.00  0.00     0.253 C 
BRANCH   9  10
HETATM   10  N5  UNL     1      16.698  10.278   9.721  1.00  0.00    -0.069 N 
ATOM     11  H52 UNL     1      15.943  10.914   9.973  1.00  0.00     0.277 HD
ATOM     12  H51 UNL     1      17.383  10.958   9.388  1.00  0.00     0.277 HD
BRANCH  10  13
HETATM   13  C15 UNL     1      16.301   9.408   8.677  1.00  0.00     0.186 C 
HETATM   14  C16 UNL     1      17.325   9.193   7.597  1.00  0.00     0.033 C 
HETATM   15  C17 UNL     1      18.061   7.899   7.699  1.00  0.00     0.002 C 
HETATM   16  C18 UNL     1      17.109   6.744   7.589  1.00  0.00     0.000 C 
HETATM   17  C19 UNL     1      15.767   6.996   8.199  1.00  0.00     0.002 C 
HETATM   18  C20 UNL     1      15.746   8.098   9.214  1.00  0.00     0.033 C 
ENDBRANCH  10  13
ENDBRANCH   9  10
ENDBRANCH   8   9
ENDBRANCH   6   8
ENDBRANCH   3   6
ENDBRANCH   1   3
BRANCH   1  19
HETATM   19  C1  UNL     1      12.506  11.949  13.406  1.00  0.00     0.161 C 
BRANCH  19  20
HETATM   20  C2  UNL     1      13.084  12.789  14.436  1.00  0.00    -0.005 C 
HETATM   21  C3  UNL     1      12.975  12.758  15.828  1.00  0.00     0.014 C 
BRANCH  21  22
HETATM   22  C4  UNL     1      11.708  12.185  16.360  1.00  0.00     0.088 C 
BRANCH  22  23
HETATM   23  N2  UNL     1      11.777  11.690  17.657  1.00  0.00    -0.365 N 
ATOM     24  H2  UNL     1      11.636  12.382  18.394  1.00  0.00     0.165 HD
BRANCH  23  25
HETATM   25  C5  UNL     1      11.992  10.495  18.067  1.00  0.00     0.041 A 
HETATM   26  C6  UNL     1      12.907   9.703  17.587  1.00  0.00     0.047 A 
HETATM   27  C7  UNL     1      13.523   8.678  18.126  1.00  0.00     0.090 A 
HETATM   28  N3  UNL     1      13.053   8.319  19.426  1.00  0.00    -0.369 N 
HETATM   29  C8  UNL     1      12.057   9.031  19.939  1.00  0.00     0.017 A 
ATOM     30  H3  UNL     1      13.468   7.543  19.942  1.00  0.00     0.165 HD
HETATM   31  C9  UNL     1      11.454  10.171  19.330  1.00  0.00    -0.009 A 
HETATM   32  C12 UNL     1      11.218   8.781  21.178  1.00  0.00     0.058 C 
HETATM   33  C10 UNL     1      10.372  10.686  20.111  1.00  0.00     0.043 C 
HETATM   34  C11 UNL     1      10.647  10.118  21.470  1.00  0.00     0.011 C 
ENDBRANCH  23  25
ENDBRANCH  22  23
ENDBRANCH  21  22
ENDBRANCH  19  20
ENDBRANCH   1  19
TORSDOF 11
ENDMDL
MODEL 4
REMARK VINA RESULT: -8.971623015      1.617      2.441
REMARK  11 active torsions:
REMARK  status: ('A' for Active; 'I' for Inactive)
REMARK    1  A    between atoms: S1_2  and  N1_4 
REMARK    2  A    between atoms: S1_2  and  N4_22 
REMARK    3  A    between atoms: N1_4  and  C1_6 
REMARK    4  A    between atoms: C1_6  and  C2_7 
REMARK    5  A    between atoms: C3_8  and  C4_9 
REMARK    6  A    between atoms: C4_9  and  N2_10 
REMARK    7  A    between atoms: N2_10  and  C5_12 
REMARK    8  A    between atoms: N4_22  and  C13_24 
REMARK    9  A    between atoms: C13_24  and  C14_25 
REMARK   10  A    between atoms: C14_25  and  N5_26 
REMARK   11  A    between atoms: N5_26  and  C15_29 
ROOT
HETATM    1  N1  UNL     1      15.680  11.370  11.255  1.00  0.00    -0.299 N 
ATOM      2  H1  UNL     1      15.666  12.370  11.058  1.00  0.00     0.174 HD
ENDROOT
BRANCH   1   3
HETATM    3  S1  UNL     1      14.410  10.308  11.150  1.00  0.00     0.315 S 
HETATM    4  O1  UNL     1      14.259   9.530   9.927  1.00  0.00    -0.183 OA
HETATM    5  O2  UNL     1      14.692   9.284  12.265  1.00  0.00    -0.183 OA
BRANCH   3   6
HETATM    6  N4  UNL     1      12.828  11.055  11.480  1.00  0.00    -0.301 N 
ATOM      7  H4  UNL     1      11.942  10.943  10.988  1.00  0.00     0.173 HD
BRANCH   6   8
HETATM    8  C13 UNL     1      13.151  11.875  12.654  1.00  0.00     0.161 C 
BRANCH   8   9
HETATM    9  C14 UNL     1      12.109  11.560  13.692  1.00  0.00     0.253 C 
BRANCH   9  10
HETATM   10  N5  UNL     1      12.824  10.503  14.488  1.00  0.00    -0.069 N 
ATOM     11  H52 UNL     1      12.290   9.636  14.506  1.00  0.00     0.277 HD
ATOM     12  H51 UNL     1      13.656  10.176  13.996  1.00  0.00     0.277 HD
BRANCH  10  13
HETATM   13  C15 UNL     1      13.147  10.927  15.800  1.00  0.00     0.186 C 
HETATM   14  C16 UNL     1      12.321  12.069  16.324  1.00  0.00     0.033 C 
HETATM   15  C17 UNL     1      11.244  11.663  17.274  1.00  0.00     0.002 C 
HETATM   16  C18 UNL     1      11.835  11.002  18.484  1.00  0.00     0.000 C 
HETATM   17  C19 UNL     1      13.057  10.186  18.203  1.00  0.00     0.002 C 
HETATM   18  C20 UNL     1      13.200   9.760  16.774  1.00  0.00     0.033 C 
ENDBRANCH  10  13
ENDBRANCH   9  10
ENDBRANCH   8   9
ENDBRANCH   6   8
ENDBRANCH   3   6
ENDBRANCH   1   3
BRANCH   1  19
HETATM   19  C1  UNL     1      16.802  10.587  11.681  1.00  0.00     0.161 C 
BRANCH  19  20
HETATM   20  C2  UNL     1      17.574  10.407  10.467  1.00  0.00    -0.005 C 
HETATM   21  C3  UNL     1      17.834   9.274   9.693  1.00  0.00     0.014 C 
BRANCH  21  22
HETATM   22  C4  UNL     1      17.823   7.979  10.427  1.00  0.00     0.088 C 
BRANCH  22  23
HETATM   23  N2  UNL     1      16.575   7.382  10.563  1.00  0.00    -0.365 N 
ATOM     24  H2  UNL     1      15.875   7.946  11.044  1.00  0.00     0.165 HD
BRANCH  23  25
HETATM   25  C5  UNL     1      16.172   6.229  10.174  1.00  0.00     0.041 A 
HETATM   26  C6  UNL     1      16.352   5.748   8.978  1.00  0.00     0.047 A 
HETATM   27  C7  UNL     1      16.394   4.510   8.548  1.00  0.00     0.090 A 
HETATM   28  N3  UNL     1      16.115   3.526   9.544  1.00  0.00    -0.369 N 
HETATM   29  C8  UNL     1      15.833   3.953  10.769  1.00  0.00     0.017 A 
ATOM     30  H3  UNL     1      16.130   2.531   9.322  1.00  0.00     0.165 HD
HETATM   31  C9  UNL     1      15.850   5.313  11.197  1.00  0.00    -0.009 A 
HETATM   32  C12 UNL     1      15.305   3.189  11.969  1.00  0.00     0.058 C 
HETATM   33  C10 UNL     1      15.450   5.450  12.564  1.00  0.00     0.043 C 
HETATM   34  C11 UNL     1      15.661   4.070  13.109  1.00  0.00     0.011 C 
ENDBRANCH  23  25
ENDBRANCH  22  23
ENDBRANCH  21  22
ENDBRANCH  19  20
ENDBRANCH   1  19
TORSDOF 11
ENDMDL
MODEL 5
REMARK VINA RESULT: -8.928497048      0.932      1.986
REMARK  11 active torsions:
REMARK  status: ('A' for Active; 'I' for Inactive)
REMARK    1  A    between atoms: S1_2  and  N1_4 
REMARK    2  A    between atoms: S1_2  and  N4_22 
REMARK    3  A    between atoms: N1_4  and  C1_6 
REMARK    4  A    between atoms: C1_6  and  C2_7 
REMARK    5  A    between atoms: C3_8  and  C4_9 
REMARK    6  A    between atoms: C4_9  and  N2_10 
REMARK    7  A    between atoms: N2_10  and  C5_12 
REMARK    8  A    between atoms: N4_22  and  C13_24 
REMARK    9  A    between atoms: C13_24  and  C14_25 
REMARK   10  A    between atoms: C14_25  and  N5_26 
REMARK   11  A    between atoms: N5_26  and  C15_29 
ROOT
HETATM    1  N1  UNL     1      16.239  11.023  11.100  1.00  0.00    -0.299 N 
ATOM      2  H1  UNL     1      16.766  11.709  10.560  1.00  0.00     0.174 HD
ENDROOT
BRANCH   1   3
HETATM    3  S1  UNL     1      14.593  10.818  11.126  1.00  0.00     0.315 S 
HETATM    4  O1  UNL     1      13.975  10.046  10.056  1.00  0.00    -0.183 OA
HETATM    5  O2  UNL     1      14.343  10.016  12.418  1.00  0.00    -0.183 OA
BRANCH   3   6
HETATM    6  N4  UNL     1      13.687  12.344  11.245  1.00  0.00    -0.301 N 
ATOM      7  H4  UNL     1      13.946  13.281  10.936  1.00  0.00     0.173 HD
BRANCH   6   8
HETATM    8  C13 UNL     1      12.462  11.885  11.912  1.00  0.00     0.161 C 
BRANCH   8   9
HETATM    9  C14 UNL     1      12.473  12.495  13.287  1.00  0.00     0.253 C 
BRANCH   9  10
HETATM   10  N5  UNL     1      12.214  11.277  14.131  1.00  0.00    -0.069 N 
ATOM     11  H52 UNL     1      11.214  11.095  14.211  1.00  0.00     0.277 HD
ATOM     12  H51 UNL     1      12.500  10.428  13.644  1.00  0.00     0.277 HD
BRANCH  10  13
HETATM   13  C15 UNL     1      12.818  11.355  15.409  1.00  0.00     0.186 C 
HETATM   14  C16 UNL     1      12.140  12.279  16.383  1.00  0.00     0.033 C 
HETATM   15  C17 UNL     1      11.290  11.586  17.395  1.00  0.00     0.002 C 
HETATM   16  C18 UNL     1      12.121  10.658  18.230  1.00  0.00     0.000 C 
HETATM   17  C19 UNL     1      13.244  10.003  17.488  1.00  0.00     0.002 C 
HETATM   18  C20 UNL     1      13.067   9.976  16.001  1.00  0.00     0.033 C 
ENDBRANCH  10  13
ENDBRANCH   9  10
ENDBRANCH   8   9
ENDBRANCH   6   8
ENDBRANCH   3   6
ENDBRANCH   1   3
BRANCH   1  19
HETATM   19  C1  UNL     1      16.765  10.035  11.994  1.00  0.00     0.161 C 
BRANCH  19  20
HETATM   20  C2  UNL     1      17.710   9.301  11.174  1.00  0.00    -0.005 C 
HETATM   21  C3  UNL     1      17.534   8.251  10.270  1.00  0.00     0.014 C 
BRANCH  21  22
HETATM   22  C4  UNL     1      16.370   7.362  10.537  1.00  0.00     0.088 C 
BRANCH  22  23
HETATM   23  N2  UNL     1      16.564   6.410  11.532  1.00  0.00    -0.365 N 
ATOM     24  H2  UNL     1      17.535   6.260  11.806  1.00  0.00     0.165 HD
BRANCH  23  25
HETATM   25  C5  UNL     1      15.706   5.693  12.157  1.00  0.00     0.041 A 
HETATM   26  C6  UNL     1      15.411   4.462  11.854  1.00  0.00     0.047 A 
HETATM   27  C7  UNL     1      14.915   3.493  12.587  1.00  0.00     0.090 A 
HETATM   28  N3  UNL     1      14.564   3.874  13.917  1.00  0.00    -0.369 N 
HETATM   29  C8  UNL     1      14.755   5.141  14.265  1.00  0.00     0.017 A 
ATOM     30  H3  UNL     1      14.179   3.198  14.576  1.00  0.00     0.165 HD
HETATM   31  C9  UNL     1      15.345   6.147  13.443  1.00  0.00    -0.009 A 
HETATM   32  C12 UNL     1      14.304   5.889  15.506  1.00  0.00     0.058 C 
HETATM   33  C10 UNL     1      15.363   7.423  14.088  1.00  0.00     0.043 C 
HETATM   34  C11 UNL     1      15.210   7.064  15.535  1.00  0.00     0.011 C 
ENDBRANCH  23  25
ENDBRANCH  22  23
ENDBRANCH  21  22
ENDBRANCH  19  20
ENDBRANCH   1  19
TORSDOF 11
ENDMDL
