MODEL 1
REMARK VINA RESULT: -7.883891790      0.000      0.000
REMARK  17 active torsions:
REMARK  status: ('A' for Active; 'I' for Inactive)
REMARK    1  A    between atoms: N1_1  and  N2_4 
REMARK    2  A    between atoms: N2_4  and  C1_6 
REMARK    3  A    between atoms: C3_12  and  C4_13 
REMARK    4  A    between atoms: C7_21  and  C8_22 
REMARK    5  A    between atoms: C8_22  and  N8_23 
REMARK    6  A    between atoms: C10_26  and  O2_27 
REMARK    7  A    between atoms: C11_29  and  C12_30 
REMARK    8  A    between atoms: C12_30  and  O3_31 
REMARK    9  A    between atoms: C12_30  and  O4_33 
REMARK   10  A    between atoms: O4_33  and  C13_34 
REMARK   11  A    between atoms: C13_34  and  N9_35 
REMARK   12  A    between atoms: C16_42  and  C17_43 
REMARK   13  A    between atoms: C17_43  and  O6_44 
REMARK   14  A    between atoms: C17_43  and  O7_46 
REMARK   15  A    between atoms: C18_48  and  C19_49 
REMARK   16  A    between atoms: C19_49  and  O8_50 
REMARK   17  A    between atoms: C19_49  and  O9_52 
ROOT
HETATM    1  N8  UNL     1     -24.855  11.432 -22.319  1.00  0.00    -0.362 N 
ATOM      2  H8  UNL     1     -25.346  11.241 -21.446  1.00  0.00     0.165 HD
HETATM    3  C9  UNL     1     -25.020  10.584 -23.248  1.00  0.00     0.082 A 
HETATM    4  C10 UNL     1     -24.412  10.714 -24.495  1.00  0.00     0.128 A 
HETATM    5  C11 UNL     1     -24.662   9.744 -25.426  1.00  0.00     0.143 A 
HETATM    6  O5  UNL     1     -25.435   8.743 -25.155  1.00  0.00    -0.305 OA
HETATM    7  C16 UNL     1     -26.037   8.571 -23.992  1.00  0.00     0.121 A 
HETATM    8  C18 UNL     1     -25.863   9.464 -22.996  1.00  0.00     0.060 A 
ENDROOT
BRANCH   1   9
HETATM    9  C8  UNL     1     -24.079  12.598 -22.347  1.00  0.00     0.101 C 
BRANCH   9  10
HETATM   10  C7  UNL     1     -22.869  12.488 -21.441  1.00  0.00    -0.001 A 
HETATM   11  C6  UNL     1     -21.998  11.426 -21.441  1.00  0.00     0.066 A 
HETATM   12  C5  UNL     1     -21.026  11.672 -20.493  1.00  0.00     0.169 A 
HETATM   13  N7  UNL     1     -19.937  10.956 -20.089  1.00  0.00    -0.066 N 
HETATM   14  N12 UNL     1     -21.316  12.864 -19.937  1.00  0.00    -0.138 N 
HETATM   15  C2  UNL     1     -19.161  11.469 -19.120  1.00  0.00     0.721 A 
HETATM   16  N6  UNL     1     -19.458   9.786 -20.476  1.00  0.00    -0.258 N 
HETATM   17  N3  UNL     1     -19.456  12.657 -18.572  1.00  0.00    -0.018 N 
HETATM   18  N4  UNL     1     -18.172  10.547 -18.932  1.00  0.00    -0.168 N 
HETATM   19  C1  UNL     1     -20.522  13.378 -18.955  1.00  0.00     0.719 A 
ATOM     20  H3  UNL     1     -18.850  13.025 -17.838  1.00  0.00     0.203 HD
HETATM   21  C3  UNL     1     -18.354   9.510 -19.767  1.00  0.00     0.202 A 
ATOM     22  H4  UNL     1     -17.411  10.633 -18.260  1.00  0.00     0.186 HD
ATOM     23  H6  UNL     1     -19.863   9.190 -21.198  1.00  0.00     0.190 HD
HETATM   24  C20 UNL     1     -22.428  13.371 -20.500  1.00  0.00     0.130 A 
BRANCH  19  25
HETATM   25  N2  UNL     1     -20.817  14.511 -18.443  1.00  0.00    -0.138 N 
ATOM     26  H2  UNL     1     -21.629  14.609 -17.832  1.00  0.00     0.205 HD
BRANCH  25  27
HETATM   27  N1  UNL     1     -20.006  15.616 -18.733  1.00  0.00    -0.331 N 
ATOM     28  H12 UNL     1     -18.993  15.536 -18.640  1.00  0.00     0.177 HD
ATOM     29  H11 UNL     1     -20.447  16.484 -19.035  1.00  0.00     0.177 HD
ENDBRANCH  25  27
ENDBRANCH  19  25
BRANCH  21  30
HETATM   30  C4  UNL     1     -17.519   8.304 -19.891  1.00  0.00     0.300 C 
HETATM   31  N5  UNL     1     -16.863   7.730 -18.788  1.00  0.00    -0.054 NA
HETATM   32  O1  UNL     1     -17.386   7.768 -21.014  1.00  0.00    -0.268 OA
ENDBRANCH  21  30
ENDBRANCH   9  10
ENDBRANCH   1   9
BRANCH   4  33
HETATM   33  O2  UNL     1     -23.598  11.795 -24.721  1.00  0.00    -0.356 OA
ATOM     34  H2  UNL     1     -22.682  11.734 -24.478  1.00  0.00     0.218 HD
ENDBRANCH   4  33
BRANCH   8  35
HETATM   35  C19 UNL     1     -26.448   9.382 -21.651  1.00  0.00     0.293 C 
BRANCH  35  36
HETATM   36  O8  UNL     1     -25.724   8.648 -20.724  1.00  0.00    -0.367 OA
ATOM     37  H8  UNL     1     -25.286   9.153 -20.049  1.00  0.00     0.213 HD
ENDBRANCH  35  36
BRANCH  35  38
HETATM   38  O9  UNL     1     -27.809   9.042 -21.647  1.00  0.00    -0.367 OA
ATOM     39  H9  UNL     1     -28.384   9.767 -21.858  1.00  0.00     0.213 HD
ENDBRANCH  35  38
ENDBRANCH   8  35
BRANCH   5  40
HETATM   40  C12 UNL     1     -24.056   9.819 -26.776  1.00  0.00     0.325 C 
BRANCH  40  41
HETATM   41  O3  UNL     1     -24.033   8.536 -27.319  1.00  0.00    -0.365 OA
ATOM     42  H3  UNL     1     -23.127   8.289 -27.466  1.00  0.00     0.213 HD
ENDBRANCH  40  41
BRANCH  40  43
HETATM   43  O4  UNL     1     -22.759  10.265 -26.752  1.00  0.00    -0.308 OA
BRANCH  43  44
HETATM   44  C13 UNL     1     -21.775   9.321 -26.721  1.00  0.00     0.252 C 
BRANCH  44  45
HETATM   45  N9  UNL     1     -20.758   9.519 -25.730  1.00  0.00    -0.239 N 
HETATM   46  C14 UNL     1     -19.593   8.890 -25.563  1.00  0.00     0.134 A 
HETATM   47  C15 UNL     1     -18.926   9.416 -24.458  1.00  0.00     0.123 A 
HETATM   48  N10 UNL     1     -19.746  10.371 -23.992  1.00  0.00    -0.293 N 
HETATM   49  N11 UNL     1     -20.831  10.430 -24.747  1.00  0.00    -0.015 NA
ATOM     50  H10 UNL     1     -19.561  10.961 -23.181  1.00  0.00     0.183 HD
ENDBRANCH  44  45
ENDBRANCH  43  44
ENDBRANCH  40  43
ENDBRANCH   5  40
BRANCH   7  51
HETATM   51  C17 UNL     1     -26.886   7.367 -23.900  1.00  0.00     0.313 C 
BRANCH  51  52
HETATM   52  O6  UNL     1     -26.462   6.484 -24.967  1.00  0.00    -0.365 OA
ATOM     53  H6  UNL     1     -27.253   6.112 -25.339  1.00  0.00     0.213 HD
ENDBRANCH  51  52
BRANCH  51  54
HETATM   54  O7  UNL     1     -28.224   7.560 -24.230  1.00  0.00    -0.365 OA
ATOM     55  H7  UNL     1     -28.672   8.227 -23.723  1.00  0.00     0.213 HD
ENDBRANCH  51  54
ENDBRANCH   7  51
TORSDOF 17
ENDMDL
MODEL 2
REMARK VINA RESULT: -7.849423240      1.624      2.044
REMARK  17 active torsions:
REMARK  status: ('A' for Active; 'I' for Inactive)
REMARK    1  A    between atoms: N1_1  and  N2_4 
REMARK    2  A    between atoms: N2_4  and  C1_6 
REMARK    3  A    between atoms: C3_12  and  C4_13 
REMARK    4  A    between atoms: C7_21  and  C8_22 
REMARK    5  A    between atoms: C8_22  and  N8_23 
REMARK    6  A    between atoms: C10_26  and  O2_27 
REMARK    7  A    between atoms: C11_29  and  C12_30 
REMARK    8  A    between atoms: C12_30  and  O3_31 
REMARK    9  A    between atoms: C12_30  and  O4_33 
REMARK   10  A    between atoms: O4_33  and  C13_34 
REMARK   11  A    between atoms: C13_34  and  N9_35 
REMARK   12  A    between atoms: C16_42  and  C17_43 
REMARK   13  A    between atoms: C17_43  and  O6_44 
REMARK   14  A    between atoms: C17_43  and  O7_46 
REMARK   15  A    between atoms: C18_48  and  C19_49 
REMARK   16  A    between atoms: C19_49  and  O8_50 
REMARK   17  A    between atoms: C19_49  and  O9_52 
ROOT
HETATM    1  N8  UNL     1     -24.676  11.371 -22.195  1.00  0.00    -0.362 N 
ATOM      2  H8  UNL     1     -25.161  11.159 -21.322  1.00  0.00     0.165 HD
HETATM    3  C9  UNL     1     -24.871  10.562 -23.152  1.00  0.00     0.082 A 
HETATM    4  C10 UNL     1     -24.275  10.723 -24.401  1.00  0.00     0.128 A 
HETATM    5  C11 UNL     1     -24.559   9.793 -25.362  1.00  0.00     0.143 A 
HETATM    6  O5  UNL     1     -25.351   8.801 -25.119  1.00  0.00    -0.305 OA
HETATM    7  C16 UNL     1     -25.943   8.600 -23.955  1.00  0.00     0.121 A 
HETATM    8  C18 UNL     1     -25.737   9.452 -22.929  1.00  0.00     0.060 A 
ENDROOT
BRANCH   1   9
HETATM    9  C8  UNL     1     -23.874  12.519 -22.190  1.00  0.00     0.101 C 
BRANCH   9  10
HETATM   10  C7  UNL     1     -22.430  12.193 -21.865  1.00  0.00    -0.001 A 
HETATM   11  C6  UNL     1     -22.034  11.392 -20.821  1.00  0.00     0.066 A 
HETATM   12  C5  UNL     1     -20.657  11.323 -20.835  1.00  0.00     0.169 A 
HETATM   13  N7  UNL     1     -19.764  10.673 -20.034  1.00  0.00    -0.066 N 
HETATM   14  N12 UNL     1     -20.238  12.073 -21.873  1.00  0.00    -0.138 N 
HETATM   15  C2  UNL     1     -18.454  10.801 -20.306  1.00  0.00     0.721 A 
HETATM   16  N6  UNL     1     -19.929   9.895 -18.978  1.00  0.00    -0.258 N 
HETATM   17  N3  UNL     1     -18.046  11.550 -21.342  1.00  0.00    -0.018 N 
HETATM   18  N4  UNL     1     -17.820  10.055 -19.355  1.00  0.00    -0.168 N 
HETATM   19  C1  UNL     1     -18.908  12.197 -22.141  1.00  0.00     0.719 A 
ATOM     20  H3  UNL     1     -17.046  11.630 -21.527  1.00  0.00     0.203 HD
HETATM   21  C3  UNL     1     -18.727   9.497 -18.536  1.00  0.00     0.202 A 
ATOM     22  H4  UNL     1     -16.810   9.939 -19.278  1.00  0.00     0.186 HD
ATOM     23  H6  UNL     1     -20.826   9.640 -18.566  1.00  0.00     0.190 HD
HETATM   24  C20 UNL     1     -21.300  12.606 -22.505  1.00  0.00     0.130 A 
BRANCH  19  25
HETATM   25  N2  UNL     1     -18.535  12.914 -23.131  1.00  0.00    -0.138 N 
ATOM     26  H2  UNL     1     -18.545  13.932 -23.068  1.00  0.00     0.205 HD
BRANCH  25  27
HETATM   27  N1  UNL     1     -18.112  12.277 -24.306  1.00  0.00    -0.331 N 
ATOM     28  H12 UNL     1     -17.795  11.308 -24.268  1.00  0.00     0.177 HD
ATOM     29  H11 UNL     1     -18.130  12.798 -25.182  1.00  0.00     0.177 HD
ENDBRANCH  25  27
ENDBRANCH  19  25
BRANCH  21  30
HETATM   30  C4  UNL     1     -18.471   8.620 -17.382  1.00  0.00     0.300 C 
HETATM   31  N5  UNL     1     -19.398   8.473 -16.333  1.00  0.00    -0.054 NA
HETATM   32  O1  UNL     1     -17.397   7.982 -17.327  1.00  0.00    -0.268 OA
ENDBRANCH  21  30
ENDBRANCH   9  10
ENDBRANCH   1   9
BRANCH   4  33
HETATM   33  O2  UNL     1     -23.439  11.793 -24.597  1.00  0.00    -0.356 OA
ATOM     34  H2  UNL     1     -23.464  12.244 -25.433  1.00  0.00     0.218 HD
ENDBRANCH   4  33
BRANCH   8  35
HETATM   35  C19 UNL     1     -26.308   9.334 -21.582  1.00  0.00     0.293 C 
BRANCH  35  36
HETATM   36  O8  UNL     1     -25.645   8.473 -20.720  1.00  0.00    -0.367 OA
ATOM     37  H8  UNL     1     -26.197   7.891 -20.213  1.00  0.00     0.213 HD
ENDBRANCH  35  36
BRANCH  35  38
HETATM   38  O9  UNL     1     -27.696   9.125 -21.573  1.00  0.00    -0.367 OA
ATOM     39  H9  UNL     1     -27.984   8.506 -20.913  1.00  0.00     0.213 HD
ENDBRANCH  35  38
ENDBRANCH   8  35
BRANCH   5  40
HETATM   40  C12 UNL     1     -23.966   9.904 -26.717  1.00  0.00     0.325 C 
BRANCH  40  41
HETATM   41  O3  UNL     1     -23.994   8.645 -27.312  1.00  0.00    -0.365 OA
ATOM     42  H3  UNL     1     -24.455   8.050 -26.732  1.00  0.00     0.213 HD
ENDBRANCH  40  41
BRANCH  40  43
HETATM   43  O4  UNL     1     -22.655  10.305 -26.692  1.00  0.00    -0.308 OA
BRANCH  43  44
HETATM   44  C13 UNL     1     -21.706   9.352 -26.923  1.00  0.00     0.252 C 
BRANCH  44  45
HETATM   45  N9  UNL     1     -20.799   9.105 -25.840  1.00  0.00    -0.239 N 
HETATM   46  C14 UNL     1     -20.868   9.487 -24.563  1.00  0.00     0.134 A 
HETATM   47  C15 UNL     1     -19.754   9.017 -23.870  1.00  0.00     0.123 A 
HETATM   48  N10 UNL     1     -19.040   8.351 -24.790  1.00  0.00    -0.293 N 
HETATM   49  N11 UNL     1     -19.660   8.404 -25.957  1.00  0.00    -0.015 NA
ATOM     50  H10 UNL     1     -18.154   7.875 -24.617  1.00  0.00     0.183 HD
ENDBRANCH  44  45
ENDBRANCH  43  44
ENDBRANCH  40  43
ENDBRANCH   5  40
BRANCH   7  51
HETATM   51  C17 UNL     1     -26.818   7.413 -23.897  1.00  0.00     0.313 C 
BRANCH  51  52
HETATM   52  O6  UNL     1     -26.458   6.582 -25.027  1.00  0.00    -0.365 OA
ATOM     53  H6  UNL     1     -26.342   7.168 -25.766  1.00  0.00     0.213 HD
ENDBRANCH  51  52
BRANCH  51  54
HETATM   54  O7  UNL     1     -28.163   7.656 -24.163  1.00  0.00    -0.365 OA
ATOM     55  H7  UNL     1     -28.406   8.573 -24.207  1.00  0.00     0.213 HD
ENDBRANCH  51  54
ENDBRANCH   7  51
TORSDOF 17
ENDMDL
MODEL 3
REMARK VINA RESULT: -7.802321085      3.670      5.523
REMARK  17 active torsions:
REMARK  status: ('A' for Active; 'I' for Inactive)
REMARK    1  A    between atoms: N1_1  and  N2_4 
REMARK    2  A    between atoms: N2_4  and  C1_6 
REMARK    3  A    between atoms: C3_12  and  C4_13 
REMARK    4  A    between atoms: C7_21  and  C8_22 
REMARK    5  A    between atoms: C8_22  and  N8_23 
REMARK    6  A    between atoms: C10_26  and  O2_27 
REMARK    7  A    between atoms: C11_29  and  C12_30 
REMARK    8  A    between atoms: C12_30  and  O3_31 
REMARK    9  A    between atoms: C12_30  and  O4_33 
REMARK   10  A    between atoms: O4_33  and  C13_34 
REMARK   11  A    between atoms: C13_34  and  N9_35 
REMARK   12  A    between atoms: C16_42  and  C17_43 
REMARK   13  A    between atoms: C17_43  and  O6_44 
REMARK   14  A    between atoms: C17_43  and  O7_46 
REMARK   15  A    between atoms: C18_48  and  C19_49 
REMARK   16  A    between atoms: C19_49  and  O8_50 
REMARK   17  A    between atoms: C19_49  and  O9_52 
ROOT
HETATM    1  N8  UNL     1     -22.173  11.985 -22.769  1.00  0.00    -0.362 N 
ATOM      2  H8  UNL     1     -22.014  10.978 -22.824  1.00  0.00     0.165 HD
HETATM    3  C9  UNL     1     -23.385  12.356 -22.725  1.00  0.00     0.082 A 
HETATM    4  C10 UNL     1     -23.754  13.697 -22.649  1.00  0.00     0.128 A 
HETATM    5  C11 UNL     1     -25.090  13.985 -22.603  1.00  0.00     0.143 A 
HETATM    6  O5  UNL     1     -25.977  13.044 -22.629  1.00  0.00    -0.305 OA
HETATM    7  C16 UNL     1     -25.684  11.757 -22.700  1.00  0.00     0.121 A 
HETATM    8  C18 UNL     1     -24.397  11.353 -22.752  1.00  0.00     0.060 A 
ENDROOT
BRANCH   1   9
HETATM    9  C8  UNL     1     -21.027  12.789 -22.751  1.00  0.00     0.101 C 
BRANCH   9  10
HETATM   10  C7  UNL     1     -20.327  12.739 -21.408  1.00  0.00    -0.001 A 
HETATM   11  C6  UNL     1     -20.018  11.579 -20.740  1.00  0.00     0.066 A 
HETATM   12  C5  UNL     1     -19.390  11.920 -19.560  1.00  0.00     0.169 A 
HETATM   13  N7  UNL     1     -18.882  11.169 -18.541  1.00  0.00    -0.066 N 
HETATM   14  N12 UNL     1     -19.326  13.266 -19.526  1.00  0.00    -0.138 N 
HETATM   15  C2  UNL     1     -18.318  11.805 -17.501  1.00  0.00     0.721 A 
HETATM   16  N6  UNL     1     -18.828   9.862 -18.351  1.00  0.00    -0.258 N 
HETATM   17  N3  UNL     1     -18.258  13.145 -17.475  1.00  0.00    -0.018 N 
HETATM   18  N4  UNL     1     -17.911  10.812 -16.657  1.00  0.00    -0.168 N 
HETATM   19  C1  UNL     1     -18.751  13.902 -18.468  1.00  0.00     0.719 A 
ATOM     20  H3  UNL     1     -17.824  13.603 -16.674  1.00  0.00     0.203 HD
HETATM   21  C3  UNL     1     -18.225   9.615 -17.179  1.00  0.00     0.202 A 
ATOM     22  H4  UNL     1     -17.440  10.958 -15.764  1.00  0.00     0.186 HD
ATOM     23  H6  UNL     1     -19.188   9.155 -18.993  1.00  0.00     0.190 HD
HETATM   24  C20 UNL     1     -19.889  13.776 -20.638  1.00  0.00     0.130 A 
BRANCH  19  25
HETATM   25  N2  UNL     1     -18.703  15.179 -18.458  1.00  0.00    -0.138 N 
ATOM     26  H2  UNL     1     -18.213  15.686 -19.196  1.00  0.00     0.205 HD
BRANCH  25  27
HETATM   27  N1  UNL     1     -19.335  15.872 -17.416  1.00  0.00    -0.331 N 
ATOM     28  H12 UNL     1     -18.789  16.490 -16.817  1.00  0.00     0.177 HD
ATOM     29  H11 UNL     1     -20.338  15.743 -17.278  1.00  0.00     0.177 HD
ENDBRANCH  25  27
ENDBRANCH  19  25
BRANCH  21  30
HETATM   30  C4  UNL     1     -17.966   8.288 -16.597  1.00  0.00     0.300 C 
HETATM   31  N5  UNL     1     -18.769   7.748 -15.576  1.00  0.00    -0.054 NA
HETATM   32  O1  UNL     1     -17.001   7.614 -17.020  1.00  0.00    -0.268 OA
ENDBRANCH  21  30
ENDBRANCH   9  10
ENDBRANCH   1   9
BRANCH   4  33
HETATM   33  O2  UNL     1     -22.767  14.651 -22.629  1.00  0.00    -0.356 OA
ATOM     34  H2  UNL     1     -22.629  15.148 -21.832  1.00  0.00     0.218 HD
ENDBRANCH   4  33
BRANCH   8  35
HETATM   35  C19 UNL     1     -23.932   9.965 -22.859  1.00  0.00     0.293 C 
BRANCH  35  36
HETATM   36  O8  UNL     1     -23.136   9.515 -21.817  1.00  0.00    -0.367 OA
ATOM     37  H8  UNL     1     -22.206   9.685 -21.905  1.00  0.00     0.213 HD
ENDBRANCH  35  36
BRANCH  35  38
HETATM   38  O9  UNL     1     -23.390   9.646 -24.114  1.00  0.00    -0.367 OA
ATOM     39  H9  UNL     1     -22.798  10.306 -24.452  1.00  0.00     0.213 HD
ENDBRANCH  35  38
ENDBRANCH   8  35
BRANCH   5  40
HETATM   40  C12 UNL     1     -25.557  15.389 -22.514  1.00  0.00     0.325 C 
BRANCH  40  41
HETATM   41  O3  UNL     1     -26.579  15.452 -21.569  1.00  0.00    -0.365 OA
ATOM     42  H3  UNL     1     -26.229  15.840 -20.775  1.00  0.00     0.213 HD
ENDBRANCH  40  41
BRANCH  40  43
HETATM   43  O4  UNL     1     -26.077  15.851 -23.696  1.00  0.00    -0.308 OA
BRANCH  43  44
HETATM   44  C13 UNL     1     -25.322  16.740 -24.404  1.00  0.00     0.252 C 
BRANCH  44  45
HETATM   45  N9  UNL     1     -25.967  17.978 -24.733  1.00  0.00    -0.239 N 
HETATM   46  C14 UNL     1     -26.102  19.090 -24.007  1.00  0.00     0.134 A 
HETATM   47  C15 UNL     1     -26.810  20.045 -24.735  1.00  0.00     0.123 A 
HETATM   48  N10 UNL     1     -27.078  19.446 -25.906  1.00  0.00    -0.293 N 
HETATM   49  N11 UNL     1     -26.578  18.222 -25.903  1.00  0.00    -0.015 NA
ATOM     50  H10 UNL     1     -27.589  19.870 -26.681  1.00  0.00     0.183 HD
ENDBRANCH  44  45
ENDBRANCH  43  44
ENDBRANCH  40  43
ENDBRANCH   5  40
BRANCH   7  51
HETATM   51  C17 UNL     1     -26.849  10.851 -22.705  1.00  0.00     0.313 C 
BRANCH  51  52
HETATM   52  O6  UNL     1     -28.023  11.694 -22.621  1.00  0.00    -0.365 OA
ATOM     53  H6  UNL     1     -28.508  11.561 -23.427  1.00  0.00     0.213 HD
ENDBRANCH  51  52
BRANCH  51  54
HETATM   54  O7  UNL     1     -26.997  10.072 -21.561  1.00  0.00    -0.365 OA
ATOM     55  H7  UNL     1     -27.600   9.343 -21.645  1.00  0.00     0.213 HD
ENDBRANCH  51  54
ENDBRANCH   7  51
TORSDOF 17
ENDMDL
MODEL 4
REMARK VINA RESULT: -7.729233050      1.755      3.010
REMARK  17 active torsions:
REMARK  status: ('A' for Active; 'I' for Inactive)
REMARK    1  A    between atoms: N1_1  and  N2_4 
REMARK    2  A    between atoms: N2_4  and  C1_6 
REMARK    3  A    between atoms: C3_12  and  C4_13 
REMARK    4  A    between atoms: C7_21  and  C8_22 
REMARK    5  A    between atoms: C8_22  and  N8_23 
REMARK    6  A    between atoms: C10_26  and  O2_27 
REMARK    7  A    between atoms: C11_29  and  C12_30 
REMARK    8  A    between atoms: C12_30  and  O3_31 
REMARK    9  A    between atoms: C12_30  and  O4_33 
REMARK   10  A    between atoms: O4_33  and  C13_34 
REMARK   11  A    between atoms: C13_34  and  N9_35 
REMARK   12  A    between atoms: C16_42  and  C17_43 
REMARK   13  A    between atoms: C17_43  and  O6_44 
REMARK   14  A    between atoms: C17_43  and  O7_46 
REMARK   15  A    between atoms: C18_48  and  C19_49 
REMARK   16  A    between atoms: C19_49  and  O8_50 
REMARK   17  A    between atoms: C19_49  and  O9_52 
ROOT
HETATM    1  N8  UNL     1     -24.604  11.162 -22.105  1.00  0.00    -0.362 N 
ATOM      2  H8  UNL     1     -25.091  10.953 -21.233  1.00  0.00     0.165 HD
HETATM    3  C9  UNL     1     -24.862  10.398 -23.084  1.00  0.00     0.082 A 
HETATM    4  C10 UNL     1     -24.272  10.562 -24.336  1.00  0.00     0.128 A 
HETATM    5  C11 UNL     1     -24.625   9.682 -25.322  1.00  0.00     0.143 A 
HETATM    6  O5  UNL     1     -25.474   8.734 -25.098  1.00  0.00    -0.305 OA
HETATM    7  C16 UNL     1     -26.063   8.532 -23.932  1.00  0.00     0.121 A 
HETATM    8  C18 UNL     1     -25.792   9.337 -22.884  1.00  0.00     0.060 A 
ENDROOT
BRANCH   1   9
HETATM    9  C8  UNL     1     -23.733  12.258 -22.076  1.00  0.00     0.101 C 
BRANCH   9  10
HETATM   10  C7  UNL     1     -22.452  11.937 -21.332  1.00  0.00    -0.001 A 
HETATM   11  C6  UNL     1     -21.848  12.781 -20.432  1.00  0.00     0.066 A 
HETATM   12  C5  UNL     1     -20.713  12.159 -19.959  1.00  0.00     0.169 A 
HETATM   13  N7  UNL     1     -19.762  12.546 -19.060  1.00  0.00    -0.066 N 
HETATM   14  N12 UNL     1     -20.641  10.959 -20.569  1.00  0.00    -0.138 N 
HETATM   15  C2  UNL     1     -18.750  11.701 -18.799  1.00  0.00     0.721 A 
HETATM   16  N6  UNL     1     -19.619  13.650 -18.348  1.00  0.00    -0.258 N 
HETATM   17  N3  UNL     1     -18.686  10.509 -19.411  1.00  0.00    -0.018 N 
HETATM   18  N4  UNL     1     -17.974  12.350 -17.883  1.00  0.00    -0.168 N 
HETATM   19  C1  UNL     1     -19.612  10.109 -20.297  1.00  0.00     0.719 A 
ATOM     20  H3  UNL     1     -17.908   9.885 -19.195  1.00  0.00     0.203 HD
HETATM   21  C3  UNL     1     -18.508  13.551 -17.604  1.00  0.00     0.202 A 
ATOM     22  H4  UNL     1     -17.118  11.978 -17.472  1.00  0.00     0.186 HD
ATOM     23  H6  UNL     1     -20.252  14.450 -18.363  1.00  0.00     0.190 HD
HETATM   24  C20 UNL     1     -21.687  10.811 -21.403  1.00  0.00     0.130 A 
BRANCH  19  25
HETATM   25  N2  UNL     1     -19.565   8.977 -20.889  1.00  0.00    -0.138 N 
ATOM     26  H2  UNL     1     -20.215   8.758 -21.644  1.00  0.00     0.205 HD
BRANCH  25  27
HETATM   27  N1  UNL     1     -18.605   8.041 -20.482  1.00  0.00    -0.331 N 
ATOM     28  H12 UNL     1     -18.746   7.052 -20.685  1.00  0.00     0.177 HD
ATOM     29  H11 UNL     1     -17.776   8.370 -19.987  1.00  0.00     0.177 HD
ENDBRANCH  25  27
ENDBRANCH  19  25
BRANCH  21  30
HETATM   30  C4  UNL     1     -17.991  14.566 -16.672  1.00  0.00     0.300 C 
HETATM   31  N5  UNL     1     -18.205  14.487 -15.283  1.00  0.00    -0.054 NA
HETATM   32  O1  UNL     1     -17.338  15.532 -17.124  1.00  0.00    -0.268 OA
ENDBRANCH  21  30
ENDBRANCH   9  10
ENDBRANCH   1   9
BRANCH   4  33
HETATM   33  O2  UNL     1     -23.373  11.584 -24.511  1.00  0.00    -0.356 OA
ATOM     34  H2  UNL     1     -23.688  12.479 -24.468  1.00  0.00     0.218 HD
ENDBRANCH   4  33
BRANCH   8  35
HETATM   35  C19 UNL     1     -26.352   9.212 -21.532  1.00  0.00     0.293 C 
BRANCH  35  36
HETATM   36  O8  UNL     1     -25.688   8.338 -20.684  1.00  0.00    -0.367 OA
ATOM     37  H8  UNL     1     -26.219   7.935 -20.009  1.00  0.00     0.213 HD
ENDBRANCH  35  36
BRANCH  35  38
HETATM   38  O9  UNL     1     -27.741   9.013 -21.513  1.00  0.00    -0.367 OA
ATOM     39  H9  UNL     1     -28.201   9.596 -20.922  1.00  0.00     0.213 HD
ENDBRANCH  35  38
ENDBRANCH   8  35
BRANCH   5  40
HETATM   40  C12 UNL     1     -24.044   9.800 -26.681  1.00  0.00     0.325 C 
BRANCH  40  41
HETATM   41  O3  UNL     1     -24.054   8.538 -27.273  1.00  0.00    -0.365 OA
ATOM     42  H3  UNL     1     -23.194   8.374 -27.641  1.00  0.00     0.213 HD
ENDBRANCH  40  41
BRANCH  40  43
HETATM   43  O4  UNL     1     -22.739  10.223 -26.666  1.00  0.00    -0.308 OA
BRANCH  43  44
HETATM   44  C13 UNL     1     -21.771   9.263 -26.699  1.00  0.00     0.252 C 
BRANCH  44  45
HETATM   45  N9  UNL     1     -20.670   9.460 -25.803  1.00  0.00    -0.239 N 
HETATM   46  C14 UNL     1     -19.516   8.797 -25.706  1.00  0.00     0.134 A 
HETATM   47  C15 UNL     1     -18.744   9.339 -24.680  1.00  0.00     0.123 A 
HETATM   48  N10 UNL     1     -19.491  10.341 -24.188  1.00  0.00    -0.293 N 
HETATM   49  N11 UNL     1     -20.632  10.410 -24.854  1.00  0.00    -0.015 NA
ATOM     50  H10 UNL     1     -19.221  10.954 -23.420  1.00  0.00     0.183 HD
ENDBRANCH  44  45
ENDBRANCH  43  44
ENDBRANCH  40  43
ENDBRANCH   5  40
BRANCH   7  51
HETATM   51  C17 UNL     1     -27.009   7.400 -23.898  1.00  0.00     0.313 C 
BRANCH  51  52
HETATM   52  O6  UNL     1     -26.531   6.437 -24.867  1.00  0.00    -0.365 OA
ATOM     53  H6  UNL     1     -27.259   5.856 -25.052  1.00  0.00     0.213 HD
ENDBRANCH  51  52
BRANCH  51  54
HETATM   54  O7  UNL     1     -28.278   7.675 -24.400  1.00  0.00    -0.365 OA
ATOM     55  H7  UNL     1     -28.957   7.781 -23.744  1.00  0.00     0.213 HD
ENDBRANCH  51  54
ENDBRANCH   7  51
TORSDOF 17
ENDMDL
MODEL 5
REMARK VINA RESULT: -7.636957606      7.603     10.261
REMARK  17 active torsions:
REMARK  status: ('A' for Active; 'I' for Inactive)
REMARK    1  A    between atoms: N1_1  and  N2_4 
REMARK    2  A    between atoms: N2_4  and  C1_6 
REMARK    3  A    between atoms: C3_12  and  C4_13 
REMARK    4  A    between atoms: C7_21  and  C8_22 
REMARK    5  A    between atoms: C8_22  and  N8_23 
REMARK    6  A    between atoms: C10_26  and  O2_27 
REMARK    7  A    between atoms: C11_29  and  C12_30 
REMARK    8  A    between atoms: C12_30  and  O3_31 
REMARK    9  A    between atoms: C12_30  and  O4_33 
REMARK   10  A    between atoms: O4_33  and  C13_34 
REMARK   11  A    between atoms: C13_34  and  N9_35 
REMARK   12  A    between atoms: C16_42  and  C17_43 
REMARK   13  A    between atoms: C17_43  and  O6_44 
REMARK   14  A    between atoms: C17_43  and  O7_46 
REMARK   15  A    between atoms: C18_48  and  C19_49 
REMARK   16  A    between atoms: C19_49  and  O8_50 
REMARK   17  A    between atoms: C19_49  and  O9_52 
ROOT
HETATM    1  N8  UNL     1     -26.218  17.115 -24.612  1.00  0.00    -0.362 N 
ATOM      2  H8  UNL     1     -26.372  16.317 -25.228  1.00  0.00     0.165 HD
HETATM    3  C9  UNL     1     -26.038  18.233 -25.184  1.00  0.00     0.082 A 
HETATM    4  C10 UNL     1     -25.816  19.410 -24.472  1.00  0.00     0.128 A 
HETATM    5  C11 UNL     1     -25.638  20.560 -25.189  1.00  0.00     0.143 A 
HETATM    6  O5  UNL     1     -25.674  20.553 -26.482  1.00  0.00    -0.305 OA
HETATM    7  C16 UNL     1     -25.881  19.468 -27.207  1.00  0.00     0.121 A 
HETATM    8  C18 UNL     1     -26.069  18.274 -26.608  1.00  0.00     0.060 A 
ENDROOT
BRANCH   1   9
HETATM    9  C8  UNL     1     -26.231  16.845 -23.238  1.00  0.00     0.101 C 
BRANCH   9  10
HETATM   10  C7  UNL     1     -25.468  15.578 -22.908  1.00  0.00    -0.001 A 
HETATM   11  C6  UNL     1     -26.059  14.369 -22.629  1.00  0.00     0.066 A 
HETATM   12  C5  UNL     1     -25.059  13.453 -22.379  1.00  0.00     0.169 A 
HETATM   13  N7  UNL     1     -25.089  12.128 -22.058  1.00  0.00    -0.066 N 
HETATM   14  N12 UNL     1     -23.888  14.107 -22.507  1.00  0.00    -0.138 N 
HETATM   15  C2  UNL     1     -23.922  11.490 -21.871  1.00  0.00     0.721 A 
HETATM   16  N6  UNL     1     -26.093  11.286 -21.879  1.00  0.00    -0.258 N 
HETATM   17  N3  UNL     1     -22.760  12.149 -22.000  1.00  0.00    -0.018 N 
HETATM   18  N4  UNL     1     -24.264  10.205 -21.566  1.00  0.00    -0.168 N 
HETATM   19  C1  UNL     1     -22.708  13.453 -22.317  1.00  0.00     0.719 A 
ATOM     20  H3  UNL     1     -21.887  11.642 -21.854  1.00  0.00     0.203 HD
HETATM   21  C3  UNL     1     -25.602  10.077 -21.571  1.00  0.00     0.202 A 
ATOM     22  H4  UNL     1     -23.604   9.454 -21.366  1.00  0.00     0.186 HD
ATOM     23  H6  UNL     1     -27.083  11.520 -21.963  1.00  0.00     0.190 HD
HETATM   24  C20 UNL     1     -24.119  15.394 -22.827  1.00  0.00     0.130 A 
BRANCH  19  25
HETATM   25  N2  UNL     1     -21.611  14.095 -22.443  1.00  0.00    -0.138 N 
ATOM     26  H2  UNL     1     -21.398  14.594 -23.308  1.00  0.00     0.205 HD
BRANCH  25  27
HETATM   27  N1  UNL     1     -20.705  14.102 -21.374  1.00  0.00    -0.331 N 
ATOM     28  H12 UNL     1     -20.621  14.933 -20.789  1.00  0.00     0.177 HD
ATOM     29  H11 UNL     1     -20.142  13.269 -21.201  1.00  0.00     0.177 HD
ENDBRANCH  25  27
ENDBRANCH  19  25
BRANCH  21  30
HETATM   30  C4  UNL     1     -26.387   8.863 -21.296  1.00  0.00     0.300 C 
HETATM   31  N5  UNL     1     -26.581   8.376 -19.991  1.00  0.00    -0.054 NA
HETATM   32  O1  UNL     1     -26.900   8.240 -22.251  1.00  0.00    -0.268 OA
ENDBRANCH  21  30
ENDBRANCH   9  10
ENDBRANCH   1   9
BRANCH   4  33
HETATM   33  O2  UNL     1     -25.783  19.353 -23.100  1.00  0.00    -0.356 OA
ATOM     34  H2  UNL     1     -24.944  19.427 -22.662  1.00  0.00     0.218 HD
ENDBRANCH   4  33
BRANCH   8  35
HETATM   35  C19 UNL     1     -26.282  16.990 -27.289  1.00  0.00     0.293 C 
BRANCH  35  36
HETATM   36  O8  UNL     1     -27.514  16.391 -27.071  1.00  0.00    -0.367 OA
ATOM     37  H8  UNL     1     -28.238  16.984 -26.911  1.00  0.00     0.213 HD
ENDBRANCH  35  36
BRANCH  35  38
HETATM   38  O9  UNL     1     -25.220  16.086 -27.134  1.00  0.00    -0.367 OA
ATOM     39  H9  UNL     1     -25.426  15.203 -27.417  1.00  0.00     0.213 HD
ENDBRANCH  35  38
ENDBRANCH   8  35
BRANCH   5  40
HETATM   40  C12 UNL     1     -25.404  21.851 -24.499  1.00  0.00     0.325 C 
BRANCH  40  41
HETATM   41  O3  UNL     1     -26.439  22.721 -24.833  1.00  0.00    -0.365 OA
ATOM     42  H3  UNL     1     -26.382  22.911 -25.763  1.00  0.00     0.213 HD
ENDBRANCH  40  41
BRANCH  40  43
HETATM   43  O4  UNL     1     -24.235  22.456 -24.885  1.00  0.00    -0.308 OA
BRANCH  43  44
HETATM   44  C13 UNL     1     -24.076  23.771 -24.562  1.00  0.00     0.252 C 
BRANCH  44  45
HETATM   45  N9  UNL     1     -23.949  24.672 -25.670  1.00  0.00    -0.239 N 
HETATM   46  C14 UNL     1     -22.958  25.509 -25.983  1.00  0.00     0.134 A 
HETATM   47  C15 UNL     1     -23.271  26.194 -27.156  1.00  0.00     0.123 A 
HETATM   48  N10 UNL     1     -24.476  25.723 -27.511  1.00  0.00    -0.293 N 
HETATM   49  N11 UNL     1     -24.876  24.821 -26.630  1.00  0.00    -0.015 NA
ATOM     50  H10 UNL     1     -25.003  26.014 -28.334  1.00  0.00     0.183 HD
ENDBRANCH  44  45
ENDBRANCH  43  44
ENDBRANCH  40  43
ENDBRANCH   5  40
BRANCH   7  51
HETATM   51  C17 UNL     1     -25.897  19.686 -28.666  1.00  0.00     0.313 C 
BRANCH  51  52
HETATM   52  O6  UNL     1     -25.441  21.043 -28.883  1.00  0.00    -0.365 OA
ATOM     53  H6  UNL     1     -25.090  21.072 -29.765  1.00  0.00     0.213 HD
ENDBRANCH  51  52
BRANCH  51  54
HETATM   54  O7  UNL     1     -27.162  19.735 -29.243  1.00  0.00    -0.365 OA
ATOM     55  H7  UNL     1     -27.189  19.547 -30.174  1.00  0.00     0.213 HD
ENDBRANCH  51  54
ENDBRANCH   7  51
TORSDOF 17
ENDMDL
