MODEL 1
REMARK VINA RESULT: -8.984207251      0.000      0.000
REMARK  13 active torsions:
REMARK  status: ('A' for Active; 'I' for Inactive)
REMARK    1  A    between atoms: C2_3  and  C3_4 
REMARK    2  A    between atoms: C3_4  and  N2_5 
REMARK    3  A    between atoms: N3_8  and  C6_9 
REMARK    4  A    between atoms: C6_9  and  C7_10 
REMARK    5  A    between atoms: C7_10  and  N4_11 
REMARK       I    between atoms: N4_11  and  C8_12 
REMARK       I    between atoms: C8_12  and  N5_14 
REMARK    6  A    between atoms: N5_14  and  C9_16 
REMARK    7  A    between atoms: C9_16  and  C10_17 
REMARK    8  A    between atoms: C10_17  and  C11_18 
REMARK    9  A    between atoms: C11_18  and  O2_19 
REMARK   10  A    between atoms: O2_19  and  C12_20 
REMARK   11  A    between atoms: C12_20  and  C13_21 
REMARK   12  A    between atoms: C13_21  and  C14_22 
REMARK   13  A    between atoms: C14_22  and  N6_23 
ROOT
HETATM    1  C1  UNL     1      19.150  25.871  17.367  1.00  0.00     0.158 C 
HETATM    2  N1  UNL     1      20.588  25.843  17.461  1.00  0.00    -0.329 N 
HETATM    3  C2  UNL     1      21.374  25.503  18.495  1.00  0.00     0.057 A 
HETATM    4  C29 UNL     1      22.681  25.658  18.088  1.00  0.00     0.117 A 
HETATM    5  N7  UNL     1      22.693  26.095  16.792  1.00  0.00    -0.342 N 
ATOM      6  H7  UNL     1      23.510  26.300  16.218  1.00  0.00     0.167 HD
HETATM    7  C30 UNL     1      21.409  26.196  16.437  1.00  0.00     0.190 A 
HETATM    8  C31 UNL     1      21.020  26.626  15.128  1.00  0.00     0.137 C 
HETATM    9  N8  UNL     1      20.733  26.991  14.054  1.00  0.00    -0.188 NA
ENDROOT
BRANCH   3  10
HETATM   10  C3  UNL     1      20.899  25.053  19.806  1.00  0.00     0.331 C 
BRANCH  10  11
HETATM   11  N2  UNL     1      19.966  23.968  19.728  1.00  0.00     0.097 N 
HETATM   12  C4  UNL     1      18.886  24.082  20.681  1.00  0.00     0.292 C 
HETATM   13  C5  UNL     1      17.729  23.261  20.053  1.00  0.00     0.147 C 
HETATM   14  N3  UNL     1      18.234  21.999  19.663  1.00  0.00    -0.404 N 
HETATM   15  C27 UNL     1      19.523  21.669  20.234  1.00  0.00     0.147 C 
HETATM   16  C28 UNL     1      20.587  22.667  19.812  1.00  0.00     0.292 C 
BRANCH  14  17
HETATM   17  C6  UNL     1      18.099  21.579  18.322  1.00  0.00     0.176 C 
BRANCH  17  18
HETATM   18  C7  UNL     1      16.812  21.024  17.887  1.00  0.00     0.180 C 
BRANCH  18  19
HETATM   19  N4  UNL     1      15.750  21.833  17.532  1.00  0.00    -0.367 NA
HETATM   20  C8  UNL     1      14.692  22.639  17.179  1.00  0.00     0.393 C 
HETATM   21  O1  UNL     1      14.188  23.617  17.786  1.00  0.00    -0.230 OA
HETATM   22  N5  UNL     1      14.117  22.254  15.889  1.00  0.00    -0.331 N 
ATOM     23  H5  UNL     1      14.390  21.376  15.446  1.00  0.00     0.165 HD
BRANCH  22  24
HETATM   24  C9  UNL     1      13.161  23.128  15.245  1.00  0.00     0.127 C 
BRANCH  24  25
HETATM   25  C10 UNL     1      12.883  22.394  13.893  1.00  0.00     0.046 C 
BRANCH  25  26
HETATM   26  C11 UNL     1      13.824  21.263  13.810  1.00  0.00     0.176 C 
BRANCH  26  27
HETATM   27  O2  UNL     1      13.376  19.999  13.944  1.00  0.00    -0.363 OA
BRANCH  27  28
HETATM   28  C12 UNL     1      13.230  19.187  12.879  1.00  0.00     0.136 C 
BRANCH  28  29
HETATM   29  C13 UNL     1      12.088  18.288  12.724  1.00  0.00     0.041 C 
BRANCH  29  30
HETATM   30  C14 UNL     1      10.915  18.365  13.596  1.00  0.00     0.090 C 
BRANCH  30  31
HETATM   31  N6  UNL     1      11.153  18.553  14.958  1.00  0.00    -0.362 N 
HETATM   32  C15 UNL     1      10.956  17.757  15.935  1.00  0.00     0.092 C 
HETATM   33  C16 UNL     1      10.388  16.398  15.824  1.00  0.00     0.177 C 
HETATM   34  C20 UNL     1      11.401  18.114  17.289  1.00  0.00     0.043 C 
HETATM   35  O3  UNL     1      10.528  15.630  14.926  1.00  0.00    -0.291 OA
HETATM   36  C17 UNL     1       9.551  16.098  17.101  1.00  0.00     0.089 C 
HETATM   37  C18 UNL     1      10.715  15.867  18.101  1.00  0.00     0.043 C 
HETATM   38  C19 UNL     1      11.293  17.247  18.294  1.00  0.00    -0.063 C 
HETATM   39  C26 UNL     1      11.756  17.701  19.623  1.00  0.00     0.044 C 
HETATM   40  C23 UNL     1      13.068  18.432  19.511  1.00  0.00    -0.037 C 
HETATM   41  C22 UNL     1      12.989  19.661  18.623  1.00  0.00     0.093 C 
HETATM   42  C24 UNL     1      13.506  18.813  20.905  1.00  0.00     0.015 C 
HETATM   43  C25 UNL     1      14.056  17.403  18.937  1.00  0.00     0.015 C 
HETATM   44  C21 UNL     1      11.993  19.420  17.551  1.00  0.00     0.162 C 
HETATM   45  O4  UNL     1      11.605  20.385  16.805  1.00  0.00    -0.292 OA
ATOM     46  H6  UNL     1      11.542  19.461  15.210  1.00  0.00     0.165 HD
ENDBRANCH  30  31
ENDBRANCH  29  30
ENDBRANCH  28  29
ENDBRANCH  27  28
ENDBRANCH  26  27
ENDBRANCH  25  26
ENDBRANCH  24  25
ENDBRANCH  22  24
ENDBRANCH  18  19
ENDBRANCH  17  18
ENDBRANCH  14  17
ENDBRANCH  10  11
ENDBRANCH   3  10
TORSDOF 13
ENDMDL
MODEL 2
REMARK VINA RESULT: -8.883564532      2.359      5.368
REMARK  13 active torsions:
REMARK  status: ('A' for Active; 'I' for Inactive)
REMARK    1  A    between atoms: C2_3  and  C3_4 
REMARK    2  A    between atoms: C3_4  and  N2_5 
REMARK    3  A    between atoms: N3_8  and  C6_9 
REMARK    4  A    between atoms: C6_9  and  C7_10 
REMARK    5  A    between atoms: C7_10  and  N4_11 
REMARK       I    between atoms: N4_11  and  C8_12 
REMARK       I    between atoms: C8_12  and  N5_14 
REMARK    6  A    between atoms: N5_14  and  C9_16 
REMARK    7  A    between atoms: C9_16  and  C10_17 
REMARK    8  A    between atoms: C10_17  and  C11_18 
REMARK    9  A    between atoms: C11_18  and  O2_19 
REMARK   10  A    between atoms: O2_19  and  C12_20 
REMARK   11  A    between atoms: C12_20  and  C13_21 
REMARK   12  A    between atoms: C13_21  and  C14_22 
REMARK   13  A    between atoms: C14_22  and  N6_23 
ROOT
HETATM    1  C1  UNL     1      20.244  21.956  20.048  1.00  0.00     0.158 C 
HETATM    2  N1  UNL     1      20.274  23.376  20.291  1.00  0.00    -0.329 N 
HETATM    3  C2  UNL     1      21.277  24.148  20.738  1.00  0.00     0.057 A 
HETATM    4  C29 UNL     1      20.801  25.439  20.817  1.00  0.00     0.117 A 
HETATM    5  N7  UNL     1      19.495  25.455  20.411  1.00  0.00    -0.342 N 
ATOM      6  H7  UNL     1      18.874  26.262  20.360  1.00  0.00     0.167 HD
HETATM    7  C30 UNL     1      19.203  24.190  20.096  1.00  0.00     0.190 A 
HETATM    8  C31 UNL     1      17.908  23.811  19.619  1.00  0.00     0.137 C 
HETATM    9  N8  UNL     1      16.837  23.529  19.242  1.00  0.00    -0.188 NA
ENDROOT
BRANCH   3  10
HETATM   10  C3  UNL     1      22.624  23.676  21.074  1.00  0.00     0.331 C 
BRANCH  10  11
HETATM   11  N2  UNL     1      23.639  24.204  20.213  1.00  0.00     0.097 N 
HETATM   12  C4  UNL     1      24.327  23.183  19.458  1.00  0.00     0.292 C 
HETATM   13  C5  UNL     1      24.868  23.925  18.207  1.00  0.00     0.147 C 
HETATM   14  N3  UNL     1      25.536  25.096  18.634  1.00  0.00    -0.404 N 
HETATM   15  C27 UNL     1      25.844  25.126  20.048  1.00  0.00     0.147 C 
HETATM   16  C28 UNL     1      24.583  25.060  20.892  1.00  0.00     0.292 C 
BRANCH  14  17
HETATM   17  C6  UNL     1      25.130  26.351  18.130  1.00  0.00     0.176 C 
BRANCH  17  18
HETATM   18  C7  UNL     1      24.148  26.385  17.040  1.00  0.00     0.180 C 
BRANCH  18  19
HETATM   19  N4  UNL     1      22.800  26.566  17.276  1.00  0.00    -0.367 NA
HETATM   20  C8  UNL     1      21.456  26.747  17.513  1.00  0.00     0.393 C 
HETATM   21  O1  UNL     1      20.869  27.645  18.166  1.00  0.00    -0.230 OA
HETATM   22  N5  UNL     1      20.644  25.711  16.874  1.00  0.00    -0.331 N 
ATOM     23  H5  UNL     1      21.088  24.882  16.476  1.00  0.00     0.165 HD
BRANCH  22  24
HETATM   24  C9  UNL     1      19.207  25.869  16.810  1.00  0.00     0.127 C 
BRANCH  24  25
HETATM   25  C10 UNL     1      18.813  24.938  15.619  1.00  0.00     0.046 C 
BRANCH  25  26
HETATM   26  C11 UNL     1      19.004  23.548  16.070  1.00  0.00     0.176 C 
BRANCH  26  27
HETATM   27  O2  UNL     1      18.016  22.644  15.916  1.00  0.00    -0.363 OA
BRANCH  27  28
HETATM   28  C12 UNL     1      16.772  23.016  15.558  1.00  0.00     0.136 C 
BRANCH  28  29
HETATM   29  C13 UNL     1      15.918  22.192  14.706  1.00  0.00     0.041 C 
BRANCH  29  30
HETATM   30  C14 UNL     1      14.463  22.158  14.865  1.00  0.00     0.090 C 
BRANCH  30  31
HETATM   31  N6  UNL     1      13.970  21.581  16.036  1.00  0.00    -0.362 N 
HETATM   32  C15 UNL     1      13.007  20.760  16.194  1.00  0.00     0.092 C 
HETATM   33  C16 UNL     1      12.153  20.231  15.111  1.00  0.00     0.177 C 
HETATM   34  C20 UNL     1      12.736  20.175  17.515  1.00  0.00     0.043 C 
HETATM   35  O3  UNL     1      12.476  19.993  13.991  1.00  0.00    -0.291 OA
HETATM   36  C17 UNL     1      10.716  20.013  15.667  1.00  0.00     0.089 C 
HETATM   37  C18 UNL     1      10.976  18.736  16.509  1.00  0.00     0.043 C 
HETATM   38  C19 UNL     1      11.800  19.240  17.668  1.00  0.00    -0.063 C 
HETATM   39  C26 UNL     1      11.590  18.720  19.036  1.00  0.00     0.044 C 
HETATM   40  C23 UNL     1      12.908  18.462  19.718  1.00  0.00    -0.037 C 
HETATM   41  C22 UNL     1      13.766  19.709  19.842  1.00  0.00     0.093 C 
HETATM   42  C24 UNL     1      12.618  17.881  21.081  1.00  0.00     0.015 C 
HETATM   43  C25 UNL     1      13.607  17.398  18.856  1.00  0.00     0.015 C 
HETATM   44  C21 UNL     1      13.506  20.592  18.679  1.00  0.00     0.162 C 
HETATM   45  O4  UNL     1      13.959  21.789  18.668  1.00  0.00    -0.292 OA
ATOM     46  H6  UNL     1      14.451  21.856  16.892  1.00  0.00     0.165 HD
ENDBRANCH  30  31
ENDBRANCH  29  30
ENDBRANCH  28  29
ENDBRANCH  27  28
ENDBRANCH  26  27
ENDBRANCH  25  26
ENDBRANCH  24  25
ENDBRANCH  22  24
ENDBRANCH  18  19
ENDBRANCH  17  18
ENDBRANCH  14  17
ENDBRANCH  10  11
ENDBRANCH   3  10
TORSDOF 13
ENDMDL
MODEL 3
REMARK VINA RESULT: -8.802065333      2.253      5.018
REMARK  13 active torsions:
REMARK  status: ('A' for Active; 'I' for Inactive)
REMARK    1  A    between atoms: C2_3  and  C3_4 
REMARK    2  A    between atoms: C3_4  and  N2_5 
REMARK    3  A    between atoms: N3_8  and  C6_9 
REMARK    4  A    between atoms: C6_9  and  C7_10 
REMARK    5  A    between atoms: C7_10  and  N4_11 
REMARK       I    between atoms: N4_11  and  C8_12 
REMARK       I    between atoms: C8_12  and  N5_14 
REMARK    6  A    between atoms: N5_14  and  C9_16 
REMARK    7  A    between atoms: C9_16  and  C10_17 
REMARK    8  A    between atoms: C10_17  and  C11_18 
REMARK    9  A    between atoms: C11_18  and  O2_19 
REMARK   10  A    between atoms: O2_19  and  C12_20 
REMARK   11  A    between atoms: C12_20  and  C13_21 
REMARK   12  A    between atoms: C13_21  and  C14_22 
REMARK   13  A    between atoms: C14_22  and  N6_23 
ROOT
HETATM    1  C1  UNL     1      22.929  23.606  19.103  1.00  0.00     0.158 C 
HETATM    2  N1  UNL     1      24.104  24.189  18.507  1.00  0.00    -0.329 N 
HETATM    3  C2  UNL     1      24.331  25.454  18.119  1.00  0.00     0.057 A 
HETATM    4  C29 UNL     1      25.604  25.502  17.593  1.00  0.00     0.117 A 
HETATM    5  N7  UNL     1      26.161  24.255  17.665  1.00  0.00    -0.342 N 
ATOM      6  H7  UNL     1      27.091  23.975  17.356  1.00  0.00     0.167 HD
HETATM    7  C30 UNL     1      25.228  23.479  18.227  1.00  0.00     0.190 A 
HETATM    8  C31 UNL     1      25.454  22.087  18.472  1.00  0.00     0.137 C 
HETATM    9  N8  UNL     1      25.662  20.949  18.650  1.00  0.00    -0.188 NA
ENDROOT
BRANCH   3  10
HETATM   10  C3  UNL     1      23.378  26.561  18.241  1.00  0.00     0.331 C 
BRANCH  10  11
HETATM   11  N2  UNL     1      22.412  26.595  17.184  1.00  0.00     0.097 N 
HETATM   12  C4  UNL     1      22.922  27.194  15.973  1.00  0.00     0.292 C 
HETATM   13  C5  UNL     1      22.046  26.588  14.844  1.00  0.00     0.147 C 
HETATM   14  N3  UNL     1      20.686  26.719  15.212  1.00  0.00    -0.404 N 
HETATM   15  C27 UNL     1      20.448  27.643  16.301  1.00  0.00     0.147 C 
HETATM   16  C28 UNL     1      21.160  27.202  17.568  1.00  0.00     0.292 C 
BRANCH  14  17
HETATM   17  C6  UNL     1      19.869  25.569  15.274  1.00  0.00     0.176 C 
BRANCH  17  18
HETATM   18  C7  UNL     1      18.434  25.742  15.528  1.00  0.00     0.180 C 
BRANCH  18  19
HETATM   19  N4  UNL     1      17.856  25.379  16.729  1.00  0.00    -0.367 NA
HETATM   20  C8  UNL     1      17.279  25.019  17.925  1.00  0.00     0.393 C 
HETATM   21  O1  UNL     1      16.109  25.201  18.341  1.00  0.00    -0.230 OA
HETATM   22  N5  UNL     1      18.221  24.311  18.795  1.00  0.00    -0.331 N 
ATOM     23  H5  UNL     1      19.215  24.286  18.564  1.00  0.00     0.165 HD
BRANCH  22  24
HETATM   24  C9  UNL     1      17.732  23.647  19.984  1.00  0.00     0.127 C 
BRANCH  24  25
HETATM   25  C10 UNL     1      17.179  22.299  19.420  1.00  0.00     0.046 C 
BRANCH  25  26
HETATM   26  C11 UNL     1      18.265  21.672  18.644  1.00  0.00     0.176 C 
BRANCH  26  27
HETATM   27  O2  UNL     1      18.320  21.832  17.307  1.00  0.00    -0.363 OA
BRANCH  27  28
HETATM   28  C12 UNL     1      17.334  21.389  16.504  1.00  0.00     0.136 C 
BRANCH  28  29
HETATM   29  C13 UNL     1      16.608  22.268  15.589  1.00  0.00     0.041 C 
BRANCH  29  30
HETATM   30  C14 UNL     1      15.154  22.426  15.653  1.00  0.00     0.090 C 
BRANCH  30  31
HETATM   31  N6  UNL     1      14.490  21.741  16.672  1.00  0.00    -0.362 N 
HETATM   32  C15 UNL     1      13.499  20.942  16.601  1.00  0.00     0.092 C 
HETATM   33  C16 UNL     1      12.797  20.564  15.358  1.00  0.00     0.177 C 
HETATM   34  C20 UNL     1      13.033  20.226  17.797  1.00  0.00     0.043 C 
HETATM   35  O3  UNL     1      13.270  20.440  14.273  1.00  0.00    -0.291 OA
HETATM   36  C17 UNL     1      11.292  20.337  15.681  1.00  0.00     0.089 C 
HETATM   37  C18 UNL     1      11.406  18.967  16.401  1.00  0.00     0.043 C 
HETATM   38  C19 UNL     1      12.067  19.313  17.713  1.00  0.00    -0.063 C 
HETATM   39  C26 UNL     1      11.656  18.654  18.970  1.00  0.00     0.044 C 
HETATM   40  C23 UNL     1      12.860  18.278  19.795  1.00  0.00    -0.037 C 
HETATM   41  C22 UNL     1      13.715  19.472  20.176  1.00  0.00     0.093 C 
HETATM   42  C24 UNL     1      12.369  17.561  21.030  1.00  0.00     0.015 C 
HETATM   43  C25 UNL     1      13.653  17.291  18.923  1.00  0.00     0.015 C 
HETATM   44  C21 UNL     1      13.639  20.486  19.096  1.00  0.00     0.162 C 
HETATM   45  O4  UNL     1      14.111  21.661  19.284  1.00  0.00    -0.292 OA
ATOM     46  H6  UNL     1      14.850  21.905  17.612  1.00  0.00     0.165 HD
ENDBRANCH  30  31
ENDBRANCH  29  30
ENDBRANCH  28  29
ENDBRANCH  27  28
ENDBRANCH  26  27
ENDBRANCH  25  26
ENDBRANCH  24  25
ENDBRANCH  22  24
ENDBRANCH  18  19
ENDBRANCH  17  18
ENDBRANCH  14  17
ENDBRANCH  10  11
ENDBRANCH   3  10
TORSDOF 13
ENDMDL
MODEL 4
REMARK VINA RESULT: -8.797088573      2.423      4.514
REMARK  13 active torsions:
REMARK  status: ('A' for Active; 'I' for Inactive)
REMARK    1  A    between atoms: C2_3  and  C3_4 
REMARK    2  A    between atoms: C3_4  and  N2_5 
REMARK    3  A    between atoms: N3_8  and  C6_9 
REMARK    4  A    between atoms: C6_9  and  C7_10 
REMARK    5  A    between atoms: C7_10  and  N4_11 
REMARK       I    between atoms: N4_11  and  C8_12 
REMARK       I    between atoms: C8_12  and  N5_14 
REMARK    6  A    between atoms: N5_14  and  C9_16 
REMARK    7  A    between atoms: C9_16  and  C10_17 
REMARK    8  A    between atoms: C10_17  and  C11_18 
REMARK    9  A    between atoms: C11_18  and  O2_19 
REMARK   10  A    between atoms: O2_19  and  C12_20 
REMARK   11  A    between atoms: C12_20  and  C13_21 
REMARK   12  A    between atoms: C13_21  and  C14_22 
REMARK   13  A    between atoms: C14_22  and  N6_23 
ROOT
HETATM    1  C1  UNL     1      22.295  26.994  18.029  1.00  0.00     0.158 C 
HETATM    2  N1  UNL     1      23.159  27.643  17.076  1.00  0.00    -0.329 N 
HETATM    3  C2  UNL     1      24.493  27.799  17.095  1.00  0.00     0.057 A 
HETATM    4  C29 UNL     1      24.841  28.505  15.963  1.00  0.00     0.117 A 
HETATM    5  N7  UNL     1      23.710  28.779  15.246  1.00  0.00    -0.342 N 
ATOM      6  H7  UNL     1      23.647  29.287  14.364  1.00  0.00     0.167 HD
HETATM    7  C30 UNL     1      22.705  28.242  15.944  1.00  0.00     0.190 A 
HETATM    8  C31 UNL     1      21.348  28.324  15.496  1.00  0.00     0.137 C 
HETATM    9  N8  UNL     1      20.247  28.417  15.111  1.00  0.00    -0.188 NA
ENDROOT
BRANCH   3  10
HETATM   10  C3  UNL     1      25.388  27.300  18.142  1.00  0.00     0.331 C 
BRANCH  10  11
HETATM   11  N2  UNL     1      25.061  25.977  18.583  1.00  0.00     0.097 N 
HETATM   12  C4  UNL     1      25.643  25.649  19.863  1.00  0.00     0.292 C 
HETATM   13  C5  UNL     1      24.717  24.543  20.436  1.00  0.00     0.147 C 
HETATM   14  N3  UNL     1      24.529  23.556  19.440  1.00  0.00    -0.404 N 
HETATM   15  C27 UNL     1      25.468  23.629  18.341  1.00  0.00     0.147 C 
HETATM   16  C28 UNL     1      25.360  24.955  17.608  1.00  0.00     0.292 C 
BRANCH  14  17
HETATM   17  C6  UNL     1      23.220  23.224  19.028  1.00  0.00     0.176 C 
BRANCH  17  18
HETATM   18  C7  UNL     1      22.099  23.569  19.911  1.00  0.00     0.180 C 
BRANCH  18  19
HETATM   19  N4  UNL     1      20.943  22.814  19.953  1.00  0.00    -0.367 NA
HETATM   20  C8  UNL     1      19.793  22.060  19.996  1.00  0.00     0.393 C 
HETATM   21  O1  UNL     1      19.548  21.001  20.625  1.00  0.00    -0.230 OA
HETATM   22  N5  UNL     1      18.729  22.638  19.172  1.00  0.00    -0.331 N 
ATOM     23  H5  UNL     1      18.937  23.400  18.525  1.00  0.00     0.165 HD
BRANCH  22  24
HETATM   24  C9  UNL     1      17.382  22.122  19.282  1.00  0.00     0.127 C 
BRANCH  24  25
HETATM   25  C10 UNL     1      17.258  21.219  18.012  1.00  0.00     0.046 C 
BRANCH  25  26
HETATM   26  C11 UNL     1      17.948  21.916  16.912  1.00  0.00     0.176 C 
BRANCH  26  27
HETATM   27  O2  UNL     1      17.456  21.855  15.658  1.00  0.00    -0.363 OA
BRANCH  27  28
HETATM   28  C12 UNL     1      16.323  22.498  15.315  1.00  0.00     0.136 C 
BRANCH  28  29
HETATM   29  C13 UNL     1      15.341  21.927  14.396  1.00  0.00     0.041 C 
BRANCH  29  30
HETATM   30  C14 UNL     1      13.911  21.898  14.706  1.00  0.00     0.090 C 
BRANCH  30  31
HETATM   31  N6  UNL     1      13.544  21.353  15.938  1.00  0.00    -0.362 N 
HETATM   32  C15 UNL     1      12.604  20.540  16.220  1.00  0.00     0.092 C 
HETATM   33  C16 UNL     1      11.640  19.984  15.248  1.00  0.00     0.177 C 
HETATM   34  C20 UNL     1      12.474  19.991  17.577  1.00  0.00     0.043 C 
HETATM   35  O3  UNL     1      11.843  19.716  14.106  1.00  0.00    -0.291 OA
HETATM   36  C17 UNL     1      10.270  19.785  15.958  1.00  0.00     0.089 C 
HETATM   37  C18 UNL     1      10.618  18.530  16.802  1.00  0.00     0.043 C 
HETATM   38  C19 UNL     1      11.560  19.063  17.853  1.00  0.00    -0.063 C 
HETATM   39  C26 UNL     1      11.496  18.581  19.249  1.00  0.00     0.044 C 
HETATM   40  C23 UNL     1      12.878  18.338  19.795  1.00  0.00    -0.037 C 
HETATM   41  C22 UNL     1      13.745  19.584  19.794  1.00  0.00     0.093 C 
HETATM   42  C24 UNL     1      12.734  17.793  21.196  1.00  0.00     0.015 C 
HETATM   43  C25 UNL     1      13.482  17.249  18.892  1.00  0.00     0.015 C 
HETATM   44  C21 UNL     1      13.363  20.437  18.641  1.00  0.00     0.162 C 
HETATM   45  O4  UNL     1      13.812  21.632  18.551  1.00  0.00    -0.292 OA
ATOM     46  H6  UNL     1      14.113  21.650  16.732  1.00  0.00     0.165 HD
ENDBRANCH  30  31
ENDBRANCH  29  30
ENDBRANCH  28  29
ENDBRANCH  27  28
ENDBRANCH  26  27
ENDBRANCH  25  26
ENDBRANCH  24  25
ENDBRANCH  22  24
ENDBRANCH  18  19
ENDBRANCH  17  18
ENDBRANCH  14  17
ENDBRANCH  10  11
ENDBRANCH   3  10
TORSDOF 13
ENDMDL
MODEL 5
REMARK VINA RESULT: -8.770189679      2.578      6.023
REMARK  13 active torsions:
REMARK  status: ('A' for Active; 'I' for Inactive)
REMARK    1  A    between atoms: C2_3  and  C3_4 
REMARK    2  A    between atoms: C3_4  and  N2_5 
REMARK    3  A    between atoms: N3_8  and  C6_9 
REMARK    4  A    between atoms: C6_9  and  C7_10 
REMARK    5  A    between atoms: C7_10  and  N4_11 
REMARK       I    between atoms: N4_11  and  C8_12 
REMARK       I    between atoms: C8_12  and  N5_14 
REMARK    6  A    between atoms: N5_14  and  C9_16 
REMARK    7  A    between atoms: C9_16  and  C10_17 
REMARK    8  A    between atoms: C10_17  and  C11_18 
REMARK    9  A    between atoms: C11_18  and  O2_19 
REMARK   10  A    between atoms: O2_19  and  C12_20 
REMARK   11  A    between atoms: C12_20  and  C13_21 
REMARK   12  A    between atoms: C13_21  and  C14_22 
REMARK   13  A    between atoms: C14_22  and  N6_23 
ROOT
HETATM    1  C1  UNL     1      19.871  21.828  20.874  1.00  0.00     0.158 C 
HETATM    2  N1  UNL     1      19.789  22.819  19.831  1.00  0.00    -0.329 N 
HETATM    3  C2  UNL     1      20.443  23.984  19.702  1.00  0.00     0.057 A 
HETATM    4  C29 UNL     1      20.003  24.578  18.538  1.00  0.00     0.117 A 
HETATM    5  N7  UNL     1      19.074  23.765  17.950  1.00  0.00    -0.342 N 
ATOM      6  H7  UNL     1      18.570  23.933  17.080  1.00  0.00     0.167 HD
HETATM    7  C30 UNL     1      18.966  22.704  18.756  1.00  0.00     0.190 A 
HETATM    8  C31 UNL     1      18.078  21.621  18.461  1.00  0.00     0.137 C 
HETATM    9  N8  UNL     1      17.335  20.756  18.200  1.00  0.00    -0.188 NA
ENDROOT
BRANCH   3  10
HETATM   10  C3  UNL     1      21.438  24.505  20.644  1.00  0.00     0.331 C 
BRANCH  10  11
HETATM   11  N2  UNL     1      22.764  24.543  20.103  1.00  0.00     0.097 N 
HETATM   12  C4  UNL     1      23.159  23.296  19.490  1.00  0.00     0.292 C 
HETATM   13  C5  UNL     1      24.252  23.700  18.464  1.00  0.00     0.147 C 
HETATM   14  N3  UNL     1      25.195  24.529  19.116  1.00  0.00    -0.404 N 
HETATM   15  C27 UNL     1      25.114  24.502  20.561  1.00  0.00     0.147 C 
HETATM   16  C28 UNL     1      23.760  24.985  21.050  1.00  0.00     0.292 C 
BRANCH  14  17
HETATM   17  C6  UNL     1      25.464  25.815  18.600  1.00  0.00     0.176 C 
BRANCH  17  18
HETATM   18  C7  UNL     1      25.408  26.013  17.147  1.00  0.00     0.180 C 
BRANCH  18  19
HETATM   19  N4  UNL     1      24.335  26.630  16.534  1.00  0.00    -0.367 NA
HETATM   20  C8  UNL     1      23.265  27.245  15.925  1.00  0.00     0.393 C 
HETATM   21  O1  UNL     1      23.069  28.461  15.681  1.00  0.00    -0.230 OA
HETATM   22  N5  UNL     1      22.242  26.282  15.514  1.00  0.00    -0.331 N 
ATOM     23  H5  UNL     1      22.288  25.315  15.835  1.00  0.00     0.165 HD
BRANCH  22  24
HETATM   24  C9  UNL     1      21.165  26.712  14.649  1.00  0.00     0.127 C 
BRANCH  24  25
HETATM   25  C10 UNL     1      19.961  26.838  15.639  1.00  0.00     0.046 C 
BRANCH  25  26
HETATM   26  C11 UNL     1      18.801  26.192  14.999  1.00  0.00     0.176 C 
BRANCH  26  27
HETATM   27  O2  UNL     1      17.879  25.558  15.751  1.00  0.00    -0.363 OA
BRANCH  27  28
HETATM   28  C12 UNL     1      17.246  24.456  15.306  1.00  0.00     0.136 C 
BRANCH  28  29
HETATM   29  C13 UNL     1      16.093  23.879  15.993  1.00  0.00     0.041 C 
BRANCH  29  30
HETATM   30  C14 UNL     1      15.582  22.546  15.670  1.00  0.00     0.090 C 
BRANCH  30  31
HETATM   31  N6  UNL     1      14.848  21.894  16.662  1.00  0.00    -0.362 N 
HETATM   32  C15 UNL     1      13.842  21.117  16.552  1.00  0.00     0.092 C 
HETATM   33  C16 UNL     1      13.198  20.736  15.279  1.00  0.00     0.177 C 
HETATM   34  C20 UNL     1      13.297  20.432  17.732  1.00  0.00     0.043 C 
HETATM   35  O3  UNL     1      13.725  20.582  14.223  1.00  0.00    -0.291 OA
HETATM   36  C17 UNL     1      11.673  20.549  15.525  1.00  0.00     0.089 C 
HETATM   37  C18 UNL     1      11.716  19.190  16.271  1.00  0.00     0.043 C 
HETATM   38  C19 UNL     1      12.315  19.541  17.610  1.00  0.00    -0.063 C 
HETATM   39  C26 UNL     1      11.822  18.913  18.854  1.00  0.00     0.044 C 
HETATM   40  C23 UNL     1      12.971  18.522  19.747  1.00  0.00    -0.037 C 
HETATM   41  C22 UNL     1      13.834  19.703  20.155  1.00  0.00     0.093 C 
HETATM   42  C24 UNL     1      12.398  17.838  20.965  1.00  0.00     0.015 C 
HETATM   43  C25 UNL     1      13.785  17.502  18.934  1.00  0.00     0.015 C 
HETATM   44  C21 UNL     1      13.839  20.700  19.057  1.00  0.00     0.162 C 
HETATM   45  O4  UNL     1      14.330  21.866  19.251  1.00  0.00    -0.292 OA
ATOM     46  H6  UNL     1      15.162  22.064  17.618  1.00  0.00     0.165 HD
ENDBRANCH  30  31
ENDBRANCH  29  30
ENDBRANCH  28  29
ENDBRANCH  27  28
ENDBRANCH  26  27
ENDBRANCH  25  26
ENDBRANCH  24  25
ENDBRANCH  22  24
ENDBRANCH  18  19
ENDBRANCH  17  18
ENDBRANCH  14  17
ENDBRANCH  10  11
ENDBRANCH   3  10
TORSDOF 13
ENDMDL
