MODEL 1
REMARK VINA RESULT: -8.327088983      0.000      0.000
REMARK  16 active torsions:
REMARK  status: ('A' for Active; 'I' for Inactive)
REMARK    1  A    between atoms: C2_2  and  C3_3 
REMARK    2  A    between atoms: C3_3  and  C4_4 
REMARK    3  A    between atoms: C4_4  and  C5_5 
REMARK    4  A    between atoms: C5_5  and  C6_6 
REMARK    5  A    between atoms: C6_6  and  N1_7 
REMARK       I    between atoms: N1_7  and  C7_9 
REMARK    6  A    between atoms: C7_9  and  C8_11 
REMARK    7  A    between atoms: C8_11  and  C9_12 
REMARK    8  A    between atoms: C8_11  and  O2_24 
REMARK    9  A    between atoms: C9_12  and  C10_13 
REMARK   10  A    between atoms: O2_24  and  C17_25 
REMARK       I    between atoms: C17_25  and  N4_27 
REMARK   11  A    between atoms: N5_30  and  C20_31 
REMARK   12  A    between atoms: C20_31  and  C23_34 
REMARK   13  A    between atoms: C23_34  and  C24_36 
REMARK   14  A    between atoms: C24_36  and  O5_37 
REMARK   15  A    between atoms: O5_37  and  C25_38 
REMARK   16  A    between atoms: C25_38  and  C26_40 
ROOT
HETATM    1  C8  UNL     1      13.413  20.910  15.532  1.00  0.00     0.227 C 
ENDROOT
BRANCH   1   2
HETATM    2  C7  UNL     1      13.457  20.275  14.175  1.00  0.00     0.247 C 
HETATM    3  N1  UNL     1      12.640  19.162  13.838  1.00  0.00    -0.359 N 
ATOM      4  H1  UNL     1      12.012  18.800  14.556  1.00  0.00     0.162 HD
HETATM    5  O1  UNL     1      14.231  20.723  13.295  1.00  0.00    -0.271 OA
BRANCH   3   6
HETATM    6  C6  UNL     1      12.636  18.519  12.569  1.00  0.00     0.122 C 
BRANCH   6   7
HETATM    7  C5  UNL     1      11.530  17.510  12.371  1.00  0.00     0.020 C 
BRANCH   7   8
HETATM    8  C4  UNL     1      11.913  16.445  11.375  1.00  0.00     0.002 C 
BRANCH   8   9
HETATM    9  C3  UNL     1      13.049  15.617  11.939  1.00  0.00    -0.000 C 
BRANCH   9  10
HETATM   10  C2  UNL     1      14.065  15.347  10.869  1.00  0.00    -0.005 C 
HETATM   11  C1  UNL     1      15.407  15.030  11.499  1.00  0.00     0.005 C 
ENDBRANCH   9  10
ENDBRANCH   8   9
ENDBRANCH   7   8
ENDBRANCH   6   7
ENDBRANCH   3   6
ENDBRANCH   1   2
BRANCH   1  12
HETATM   12  C9  UNL     1      13.416  19.794  16.552  1.00  0.00     0.067 C 
BRANCH  12  13
HETATM   13  C10 UNL     1      12.343  19.959  17.589  1.00  0.00     0.089 C 
HETATM   14  C11 UNL     1      10.971  19.609  17.060  1.00  0.00     0.027 C 
HETATM   15  C12 UNL     1      10.940  18.126  16.713  1.00  0.00     0.022 C 
HETATM   16  C13 UNL     1      10.126  17.448  17.786  1.00  0.00     0.121 C 
HETATM   17  N2  UNL     1      10.759  17.548  19.068  1.00  0.00    -0.371 N 
HETATM   18  C14 UNL     1      11.759  18.217  19.444  1.00  0.00     0.138 C 
ATOM     19  H2  UNL     1      10.328  16.982  19.800  1.00  0.00     0.161 HD
HETATM   20  S1  UNL     1      12.365  18.173  21.124  1.00  0.00    -0.093 SA
HETATM   21  N3  UNL     1      12.615  19.113  18.748  1.00  0.00    -0.356 N 
HETATM   22  C15 UNL     1      13.738  19.373  20.854  1.00  0.00     0.102 C 
HETATM   23  C16 UNL     1      13.929  19.113  19.351  1.00  0.00     0.136 C 
ENDBRANCH  12  13
ENDBRANCH   1  12
BRANCH   1  24
HETATM   24  O2  UNL     1      14.632  21.613  15.719  1.00  0.00    -0.289 OA
BRANCH  24  25
HETATM   25  C17 UNL     1      14.801  22.735  16.478  1.00  0.00     0.363 C 
HETATM   26  O3  UNL     1      13.876  23.554  16.568  1.00  0.00    -0.238 OA
HETATM   27  N4  UNL     1      16.057  22.937  17.155  1.00  0.00    -0.322 N 
HETATM   28  C18 UNL     1      16.254  24.119  17.958  1.00  0.00     0.172 C 
HETATM   29  C29 UNL     1      17.111  21.958  17.024  1.00  0.00     0.148 C 
HETATM   30  C19 UNL     1      16.929  23.703  19.248  1.00  0.00     0.079 C 
HETATM   31  N5  UNL     1      18.079  22.962  18.916  1.00  0.00    -0.375 N 
HETATM   32  C28 UNL     1      17.797  21.695  18.383  1.00  0.00     0.143 C 
BRANCH  31  33
HETATM   33  C20 UNL     1      19.310  23.264  19.504  1.00  0.00     0.087 C 
HETATM   34  C21 UNL     1      19.163  24.165  20.721  1.00  0.00     0.046 C 
HETATM   35  C22 UNL     1      19.944  21.948  19.986  1.00  0.00     0.046 C 
BRANCH  33  36
HETATM   36  C23 UNL     1      20.291  23.910  18.597  1.00  0.00     0.178 C 
HETATM   37  O4  UNL     1      21.465  23.934  18.910  1.00  0.00    -0.293 OA
BRANCH  36  38
HETATM   38  C24 UNL     1      19.904  24.533  17.321  1.00  0.00     0.259 C 
BRANCH  38  39
HETATM   39  O5  UNL     1      19.542  25.870  17.393  1.00  0.00    -0.314 OA
BRANCH  39  40
HETATM   40  C25 UNL     1      20.420  26.873  17.058  1.00  0.00     0.258 C 
HETATM   41  O6  UNL     1      20.781  27.725  17.906  1.00  0.00    -0.265 OA
BRANCH  40  42
HETATM   42  C26 UNL     1      20.928  26.917  15.666  1.00  0.00     0.106 C 
HETATM   43  C27 UNL     1      20.142  27.968  14.913  1.00  0.00     0.015 C 
ENDBRANCH  40  42
ENDBRANCH  39  40
ENDBRANCH  38  39
ENDBRANCH  36  38
ENDBRANCH  33  36
ENDBRANCH  31  33
ENDBRANCH  24  25
ENDBRANCH   1  24
TORSDOF 16
ENDMDL
MODEL 2
REMARK VINA RESULT: -8.290772048      3.309      9.004
REMARK  16 active torsions:
REMARK  status: ('A' for Active; 'I' for Inactive)
REMARK    1  A    between atoms: C2_2  and  C3_3 
REMARK    2  A    between atoms: C3_3  and  C4_4 
REMARK    3  A    between atoms: C4_4  and  C5_5 
REMARK    4  A    between atoms: C5_5  and  C6_6 
REMARK    5  A    between atoms: C6_6  and  N1_7 
REMARK       I    between atoms: N1_7  and  C7_9 
REMARK    6  A    between atoms: C7_9  and  C8_11 
REMARK    7  A    between atoms: C8_11  and  C9_12 
REMARK    8  A    between atoms: C8_11  and  O2_24 
REMARK    9  A    between atoms: C9_12  and  C10_13 
REMARK   10  A    between atoms: O2_24  and  C17_25 
REMARK       I    between atoms: C17_25  and  N4_27 
REMARK   11  A    between atoms: N5_30  and  C20_31 
REMARK   12  A    between atoms: C20_31  and  C23_34 
REMARK   13  A    between atoms: C23_34  and  C24_36 
REMARK   14  A    between atoms: C24_36  and  O5_37 
REMARK   15  A    between atoms: O5_37  and  C25_38 
REMARK   16  A    between atoms: C25_38  and  C26_40 
ROOT
HETATM    1  C8  UNL     1      17.779  22.968  15.843  1.00  0.00     0.227 C 
ENDROOT
BRANCH   1   2
HETATM    2  C7  UNL     1      16.387  22.824  15.304  1.00  0.00     0.247 C 
HETATM    3  N1  UNL     1      15.305  23.601  15.797  1.00  0.00    -0.359 N 
ATOM      4  H1  UNL     1      15.503  24.272  16.540  1.00  0.00     0.162 HD
HETATM    5  O1  UNL     1      16.149  21.997  14.390  1.00  0.00    -0.271 OA
BRANCH   3   6
HETATM    6  C6  UNL     1      13.967  23.510  15.326  1.00  0.00     0.122 C 
BRANCH   6   7
HETATM    7  C5  UNL     1      13.266  22.211  15.650  1.00  0.00     0.020 C 
BRANCH   7   8
HETATM    8  C4  UNL     1      12.504  21.672  14.465  1.00  0.00     0.002 C 
BRANCH   8   9
HETATM    9  C3  UNL     1      12.563  20.160  14.478  1.00  0.00    -0.000 C 
BRANCH   9  10
HETATM   10  C2  UNL     1      13.202  19.662  13.216  1.00  0.00    -0.005 C 
HETATM   11  C1  UNL     1      12.469  18.434  12.714  1.00  0.00     0.005 C 
ENDBRANCH   9  10
ENDBRANCH   8   9
ENDBRANCH   7   8
ENDBRANCH   6   7
ENDBRANCH   3   6
ENDBRANCH   1   2
BRANCH   1  12
HETATM   12  C9  UNL     1      18.035  24.446  16.038  1.00  0.00     0.067 C 
BRANCH  12  13
HETATM   13  C10 UNL     1      19.473  24.814  15.818  1.00  0.00     0.089 C 
HETATM   14  C11 UNL     1      19.695  25.508  14.493  1.00  0.00     0.027 C 
HETATM   15  C12 UNL     1      18.957  26.841  14.506  1.00  0.00     0.022 C 
HETATM   16  C13 UNL     1      20.007  27.915  14.650  1.00  0.00     0.121 C 
HETATM   17  N2  UNL     1      20.688  27.819  15.908  1.00  0.00    -0.371 N 
HETATM   18  C14 UNL     1      20.655  26.926  16.797  1.00  0.00     0.138 C 
ATOM     19  H2  UNL     1      21.302  28.606  16.118  1.00  0.00     0.161 HD
HETATM   20  S1  UNL     1      21.611  27.039  18.302  1.00  0.00    -0.093 SA
HETATM   21  N3  UNL     1      19.945  25.698  16.881  1.00  0.00    -0.356 N 
HETATM   22  C15 UNL     1      21.050  25.424  18.994  1.00  0.00     0.102 C 
HETATM   23  C16 UNL     1      19.699  25.360  18.264  1.00  0.00     0.136 C 
ENDBRANCH  12  13
ENDBRANCH   1  12
BRANCH   1  24
HETATM   24  O2  UNL     1      17.801  22.393  17.141  1.00  0.00    -0.289 OA
BRANCH  24  25
HETATM   25  C17 UNL     1      16.885  22.611  18.129  1.00  0.00     0.363 C 
HETATM   26  O3  UNL     1      16.795  23.738  18.637  1.00  0.00    -0.238 OA
HETATM   27  N4  UNL     1      16.047  21.520  18.556  1.00  0.00    -0.322 N 
HETATM   28  C18 UNL     1      15.077  21.732  19.603  1.00  0.00     0.172 C 
HETATM   29  C29 UNL     1      16.185  20.222  17.940  1.00  0.00     0.148 C 
HETATM   30  C19 UNL     1      13.785  21.061  19.187  1.00  0.00     0.079 C 
HETATM   31  N5  UNL     1      14.078  19.725  18.853  1.00  0.00    -0.375 N 
HETATM   32  C28 UNL     1      14.803  19.589  17.661  1.00  0.00     0.143 C 
BRANCH  31  33
HETATM   33  C20 UNL     1      13.317  18.679  19.384  1.00  0.00     0.087 C 
HETATM   34  C21 UNL     1      13.710  17.328  18.806  1.00  0.00     0.046 C 
HETATM   35  C22 UNL     1      13.579  18.621  20.899  1.00  0.00     0.046 C 
BRANCH  33  36
HETATM   36  C23 UNL     1      11.851  18.823  19.203  1.00  0.00     0.178 C 
HETATM   37  O4  UNL     1      11.122  18.748  20.171  1.00  0.00    -0.293 OA
BRANCH  36  38
HETATM   38  C24 UNL     1      11.231  19.053  17.888  1.00  0.00     0.259 C 
BRANCH  38  39
HETATM   39  O5  UNL     1      10.238  18.154  17.530  1.00  0.00    -0.314 OA
BRANCH  39  40
HETATM   40  C25 UNL     1      10.235  17.535  16.302  1.00  0.00     0.258 C 
HETATM   41  O6  UNL     1       9.787  18.119  15.285  1.00  0.00    -0.265 OA
BRANCH  40  42
HETATM   42  C26 UNL     1      10.778  16.159  16.215  1.00  0.00     0.106 C 
HETATM   43  C27 UNL     1      10.811  15.758  14.757  1.00  0.00     0.015 C 
ENDBRANCH  40  42
ENDBRANCH  39  40
ENDBRANCH  38  39
ENDBRANCH  36  38
ENDBRANCH  33  36
ENDBRANCH  31  33
ENDBRANCH  24  25
ENDBRANCH   1  24
TORSDOF 16
ENDMDL
MODEL 3
REMARK VINA RESULT: -8.229017861      3.097      6.585
REMARK  16 active torsions:
REMARK  status: ('A' for Active; 'I' for Inactive)
REMARK    1  A    between atoms: C2_2  and  C3_3 
REMARK    2  A    between atoms: C3_3  and  C4_4 
REMARK    3  A    between atoms: C4_4  and  C5_5 
REMARK    4  A    between atoms: C5_5  and  C6_6 
REMARK    5  A    between atoms: C6_6  and  N1_7 
REMARK       I    between atoms: N1_7  and  C7_9 
REMARK    6  A    between atoms: C7_9  and  C8_11 
REMARK    7  A    between atoms: C8_11  and  C9_12 
REMARK    8  A    between atoms: C8_11  and  O2_24 
REMARK    9  A    between atoms: C9_12  and  C10_13 
REMARK   10  A    between atoms: O2_24  and  C17_25 
REMARK       I    between atoms: C17_25  and  N4_27 
REMARK   11  A    between atoms: N5_30  and  C20_31 
REMARK   12  A    between atoms: C20_31  and  C23_34 
REMARK   13  A    between atoms: C23_34  and  C24_36 
REMARK   14  A    between atoms: C24_36  and  O5_37 
REMARK   15  A    between atoms: O5_37  and  C25_38 
REMARK   16  A    between atoms: C25_38  and  C26_40 
ROOT
HETATM    1  C8  UNL     1      16.466  23.128  18.795  1.00  0.00     0.227 C 
ENDROOT
BRANCH   1   2
HETATM    2  C7  UNL     1      17.038  23.568  17.481  1.00  0.00     0.247 C 
HETATM    3  N1  UNL     1      16.887  24.897  17.002  1.00  0.00    -0.359 N 
ATOM      4  H1  UNL     1      16.369  25.556  17.585  1.00  0.00     0.162 HD
HETATM    5  O1  UNL     1      17.672  22.755  16.767  1.00  0.00    -0.271 OA
BRANCH   3   6
HETATM    6  C6  UNL     1      17.406  25.373  15.767  1.00  0.00     0.122 C 
BRANCH   6   7
HETATM    7  C5  UNL     1      18.840  25.846  15.820  1.00  0.00     0.020 C 
BRANCH   7   8
HETATM    8  C4  UNL     1      19.205  26.671  14.612  1.00  0.00     0.002 C 
BRANCH   8   9
HETATM    9  C3  UNL     1      20.683  26.511  14.324  1.00  0.00    -0.000 C 
BRANCH   9  10
HETATM   10  C2  UNL     1      21.310  27.856  14.105  1.00  0.00    -0.005 C 
HETATM   11  C1  UNL     1      21.735  28.451  15.433  1.00  0.00     0.005 C 
ENDBRANCH   9  10
ENDBRANCH   8   9
ENDBRANCH   7   8
ENDBRANCH   6   7
ENDBRANCH   3   6
ENDBRANCH   1   2
BRANCH   1  12
HETATM   12  C9  UNL     1      15.884  21.748  18.593  1.00  0.00     0.067 C 
BRANCH  12  13
HETATM   13  C10 UNL     1      14.400  21.777  18.366  1.00  0.00     0.089 C 
HETATM   14  C11 UNL     1      14.038  22.270  16.983  1.00  0.00     0.027 C 
HETATM   15  C12 UNL     1      14.562  21.277  15.954  1.00  0.00     0.022 C 
HETATM   16  C13 UNL     1      13.364  20.524  15.430  1.00  0.00     0.121 C 
HETATM   17  N2  UNL     1      12.741  19.745  16.460  1.00  0.00    -0.371 N 
HETATM   18  C14 UNL     1      12.935  19.719  17.705  1.00  0.00     0.138 C 
ATOM     19  H2  UNL     1      12.020  19.105  16.129  1.00  0.00     0.161 HD
HETATM   20  S1  UNL     1      12.016  18.643  18.795  1.00  0.00    -0.093 SA
HETATM   21  N3  UNL     1      13.828  20.444  18.540  1.00  0.00    -0.356 N 
HETATM   22  C15 UNL     1      12.838  19.210  20.346  1.00  0.00     0.102 C 
HETATM   23  C16 UNL     1      14.161  19.661  19.709  1.00  0.00     0.136 C 
ENDBRANCH  12  13
ENDBRANCH   1  12
BRANCH   1  24
HETATM   24  O2  UNL     1      17.546  22.968  19.704  1.00  0.00    -0.289 OA
BRANCH  24  25
HETATM   25  C17 UNL     1      18.208  23.974  20.347  1.00  0.00     0.363 C 
HETATM   26  O3  UNL     1      17.597  24.682  21.159  1.00  0.00    -0.238 OA
HETATM   27  N4  UNL     1      19.604  24.185  20.059  1.00  0.00    -0.322 N 
HETATM   28  C18 UNL     1      20.318  25.247  20.726  1.00  0.00     0.172 C 
HETATM   29  C29 UNL     1      20.279  23.337  19.105  1.00  0.00     0.148 C 
HETATM   30  C19 UNL     1      21.663  24.705  21.163  1.00  0.00     0.079 C 
HETATM   31  N5  UNL     1      22.284  24.130  20.039  1.00  0.00    -0.375 N 
HETATM   32  C28 UNL     1      21.682  22.937  19.612  1.00  0.00     0.143 C 
BRANCH  31  33
HETATM   33  C20 UNL     1      23.607  24.451  19.719  1.00  0.00     0.087 C 
HETATM   34  C21 UNL     1      24.370  25.007  20.912  1.00  0.00     0.046 C 
HETATM   35  C22 UNL     1      24.320  23.159  19.285  1.00  0.00     0.046 C 
BRANCH  33  36
HETATM   36  C23 UNL     1      23.759  25.424  18.609  1.00  0.00     0.178 C 
HETATM   37  O4  UNL     1      23.156  26.477  18.653  1.00  0.00    -0.293 OA
BRANCH  36  38
HETATM   38  C24 UNL     1      24.618  25.168  17.440  1.00  0.00     0.259 C 
BRANCH  38  39
HETATM   39  O5  UNL     1      24.435  26.026  16.366  1.00  0.00    -0.314 OA
BRANCH  39  40
HETATM   40  C25 UNL     1      25.471  26.773  15.857  1.00  0.00     0.258 C 
HETATM   41  O6  UNL     1      26.459  26.221  15.312  1.00  0.00    -0.265 OA
BRANCH  40  42
HETATM   42  C26 UNL     1      25.386  28.248  15.970  1.00  0.00     0.106 C 
HETATM   43  C27 UNL     1      26.208  28.853  14.854  1.00  0.00     0.015 C 
ENDBRANCH  40  42
ENDBRANCH  39  40
ENDBRANCH  38  39
ENDBRANCH  36  38
ENDBRANCH  33  36
ENDBRANCH  31  33
ENDBRANCH  24  25
ENDBRANCH   1  24
TORSDOF 16
ENDMDL
MODEL 4
REMARK VINA RESULT: -8.198411463      1.415      1.654
REMARK  16 active torsions:
REMARK  status: ('A' for Active; 'I' for Inactive)
REMARK    1  A    between atoms: C2_2  and  C3_3 
REMARK    2  A    between atoms: C3_3  and  C4_4 
REMARK    3  A    between atoms: C4_4  and  C5_5 
REMARK    4  A    between atoms: C5_5  and  C6_6 
REMARK    5  A    between atoms: C6_6  and  N1_7 
REMARK       I    between atoms: N1_7  and  C7_9 
REMARK    6  A    between atoms: C7_9  and  C8_11 
REMARK    7  A    between atoms: C8_11  and  C9_12 
REMARK    8  A    between atoms: C8_11  and  O2_24 
REMARK    9  A    between atoms: C9_12  and  C10_13 
REMARK   10  A    between atoms: O2_24  and  C17_25 
REMARK       I    between atoms: C17_25  and  N4_27 
REMARK   11  A    between atoms: N5_30  and  C20_31 
REMARK   12  A    between atoms: C20_31  and  C23_34 
REMARK   13  A    between atoms: C23_34  and  C24_36 
REMARK   14  A    between atoms: C24_36  and  O5_37 
REMARK   15  A    between atoms: O5_37  and  C25_38 
REMARK   16  A    between atoms: C25_38  and  C26_40 
ROOT
HETATM    1  C8  UNL     1      13.559  21.445  16.195  1.00  0.00     0.227 C 
ENDROOT
BRANCH   1   2
HETATM    2  C7  UNL     1      13.531  21.108  14.735  1.00  0.00     0.247 C 
HETATM    3  N1  UNL     1      13.342  19.777  14.274  1.00  0.00    -0.359 N 
ATOM      4  H1  UNL     1      13.224  19.044  14.974  1.00  0.00     0.162 HD
HETATM    5  O1  UNL     1      13.677  22.012  13.877  1.00  0.00    -0.271 OA
BRANCH   3   6
HETATM    6  C6  UNL     1      13.304  19.396  12.904  1.00  0.00     0.122 C 
BRANCH   6   7
HETATM    7  C5  UNL     1      12.385  18.239  12.591  1.00  0.00     0.020 C 
BRANCH   7   8
HETATM    8  C4  UNL     1      10.982  18.485  13.087  1.00  0.00     0.002 C 
BRANCH   8   9
HETATM    9  C3  UNL     1      10.285  17.158  13.295  1.00  0.00    -0.000 C 
BRANCH   9  10
HETATM   10  C2  UNL     1      11.300  16.072  13.490  1.00  0.00    -0.005 C 
HETATM   11  C1  UNL     1      10.776  15.043  14.472  1.00  0.00     0.005 C 
ENDBRANCH   9  10
ENDBRANCH   8   9
ENDBRANCH   7   8
ENDBRANCH   6   7
ENDBRANCH   3   6
ENDBRANCH   1   2
BRANCH   1  12
HETATM   12  C9  UNL     1      13.512  20.142  16.960  1.00  0.00     0.067 C 
BRANCH  12  13
HETATM   13  C10 UNL     1      12.386  20.097  17.951  1.00  0.00     0.089 C 
HETATM   14  C11 UNL     1      11.064  19.748  17.306  1.00  0.00     0.027 C 
HETATM   15  C12 UNL     1      11.143  18.330  16.754  1.00  0.00     0.022 C 
HETATM   16  C13 UNL     1      10.327  17.461  17.678  1.00  0.00     0.121 C 
HETATM   17  N2  UNL     1      10.894  17.414  18.993  1.00  0.00    -0.371 N 
HETATM   18  C14 UNL     1      11.831  18.079  19.512  1.00  0.00     0.138 C 
ATOM     19  H2  UNL     1      10.468  16.726  19.614  1.00  0.00     0.161 HD
HETATM   20  S1  UNL     1      12.363  17.830  21.199  1.00  0.00    -0.093 SA
HETATM   21  N3  UNL     1      12.659  19.111  18.994  1.00  0.00    -0.356 N 
HETATM   22  C15 UNL     1      13.667  19.133  21.173  1.00  0.00     0.102 C 
HETATM   23  C16 UNL     1      13.942  19.101  19.661  1.00  0.00     0.136 C 
ENDBRANCH  12  13
ENDBRANCH   1  12
BRANCH   1  24
HETATM   24  O2  UNL     1      14.826  22.021  16.481  1.00  0.00    -0.289 OA
BRANCH  24  25
HETATM   25  C17 UNL     1      15.052  23.102  17.282  1.00  0.00     0.363 C 
HETATM   26  O3  UNL     1      14.112  23.858  17.565  1.00  0.00    -0.238 OA
HETATM   27  N4  UNL     1      16.385  23.337  17.777  1.00  0.00    -0.322 N 
HETATM   28  C18 UNL     1      16.643  24.479  18.621  1.00  0.00     0.172 C 
HETATM   29  C29 UNL     1      17.455  22.434  17.423  1.00  0.00     0.148 C 
HETATM   30  C19 UNL     1      17.527  24.026  19.764  1.00  0.00     0.079 C 
HETATM   31  N5  UNL     1      18.648  23.376  19.215  1.00  0.00    -0.375 N 
HETATM   32  C28 UNL     1      18.352  22.130  18.643  1.00  0.00     0.143 C 
BRANCH  31  33
HETATM   33  C20 UNL     1      19.938  23.716  19.632  1.00  0.00     0.087 C 
HETATM   34  C21 UNL     1      19.929  24.684  20.806  1.00  0.00     0.046 C 
HETATM   35  C22 UNL     1      20.638  22.431  20.109  1.00  0.00     0.046 C 
BRANCH  33  36
HETATM   36  C23 UNL     1      20.797  24.311  18.579  1.00  0.00     0.178 C 
HETATM   37  O4  UNL     1      21.957  23.965  18.491  1.00  0.00    -0.293 OA
BRANCH  36  38
HETATM   38  C24 UNL     1      20.302  25.317  17.624  1.00  0.00     0.259 C 
BRANCH  38  39
HETATM   39  O5  UNL     1      19.809  24.815  16.429  1.00  0.00    -0.314 OA
BRANCH  39  40
HETATM   40  C25 UNL     1      19.245  25.636  15.482  1.00  0.00     0.258 C 
HETATM   41  O6  UNL     1      17.998  25.737  15.375  1.00  0.00    -0.265 OA
BRANCH  40  42
HETATM   42  C26 UNL     1      20.153  26.398  14.591  1.00  0.00     0.106 C 
HETATM   43  C27 UNL     1      19.974  27.870  14.886  1.00  0.00     0.015 C 
ENDBRANCH  40  42
ENDBRANCH  39  40
ENDBRANCH  38  39
ENDBRANCH  36  38
ENDBRANCH  33  36
ENDBRANCH  31  33
ENDBRANCH  24  25
ENDBRANCH   1  24
TORSDOF 16
ENDMDL
MODEL 5
REMARK VINA RESULT: -8.161920775      3.746     10.273
REMARK  16 active torsions:
REMARK  status: ('A' for Active; 'I' for Inactive)
REMARK    1  A    between atoms: C2_2  and  C3_3 
REMARK    2  A    between atoms: C3_3  and  C4_4 
REMARK    3  A    between atoms: C4_4  and  C5_5 
REMARK    4  A    between atoms: C5_5  and  C6_6 
REMARK    5  A    between atoms: C6_6  and  N1_7 
REMARK       I    between atoms: N1_7  and  C7_9 
REMARK    6  A    between atoms: C7_9  and  C8_11 
REMARK    7  A    between atoms: C8_11  and  C9_12 
REMARK    8  A    between atoms: C8_11  and  O2_24 
REMARK    9  A    between atoms: C9_12  and  C10_13 
REMARK   10  A    between atoms: O2_24  and  C17_25 
REMARK       I    between atoms: C17_25  and  N4_27 
REMARK   11  A    between atoms: N5_30  and  C20_31 
REMARK   12  A    between atoms: C20_31  and  C23_34 
REMARK   13  A    between atoms: C23_34  and  C24_36 
REMARK   14  A    between atoms: C24_36  and  O5_37 
REMARK   15  A    between atoms: O5_37  and  C25_38 
REMARK   16  A    between atoms: C25_38  and  C26_40 
ROOT
HETATM    1  C8  UNL     1      17.134  24.736  17.886  1.00  0.00     0.227 C 
ENDROOT
BRANCH   1   2
HETATM    2  C7  UNL     1      17.508  23.770  18.969  1.00  0.00     0.247 C 
HETATM    3  N1  UNL     1      18.238  22.581  18.699  1.00  0.00    -0.359 N 
ATOM      4  H1  UNL     1      18.505  22.398  17.731  1.00  0.00     0.162 HD
HETATM    5  O1  UNL     1      17.176  23.998  20.158  1.00  0.00    -0.271 OA
BRANCH   3   6
HETATM    6  C6  UNL     1      18.621  21.629  19.683  1.00  0.00     0.122 C 
BRANCH   6   7
HETATM    7  C5  UNL     1      20.077  21.678  20.083  1.00  0.00     0.020 C 
BRANCH   7   8
HETATM    8  C4  UNL     1      20.383  22.878  20.943  1.00  0.00     0.002 C 
BRANCH   8   9
HETATM    9  C3  UNL     1      21.858  23.206  20.839  1.00  0.00    -0.000 C 
BRANCH   9  10
HETATM   10  C2  UNL     1      22.129  24.545  21.457  1.00  0.00    -0.005 C 
HETATM   11  C1  UNL     1      23.579  24.632  21.890  1.00  0.00     0.005 C 
ENDBRANCH   9  10
ENDBRANCH   8   9
ENDBRANCH   7   8
ENDBRANCH   6   7
ENDBRANCH   3   6
ENDBRANCH   1   2
BRANCH   1  12
HETATM   12  C9  UNL     1      18.316  24.840  16.948  1.00  0.00     0.067 C 
BRANCH  12  13
HETATM   13  C10 UNL     1      19.195  26.016  17.259  1.00  0.00     0.089 C 
HETATM   14  C11 UNL     1      20.162  25.732  18.386  1.00  0.00     0.027 C 
HETATM   15  C12 UNL     1      21.128  24.640  17.942  1.00  0.00     0.022 C 
HETATM   16  C13 UNL     1      22.451  25.315  17.676  1.00  0.00     0.121 C 
HETATM   17  N2  UNL     1      22.358  26.240  16.584  1.00  0.00    -0.371 N 
HETATM   18  C14 UNL     1      21.358  26.669  15.949  1.00  0.00     0.138 C 
ATOM     19  H2  UNL     1      23.254  26.612  16.268  1.00  0.00     0.161 HD
HETATM   20  S1  UNL     1      21.505  27.836  14.605  1.00  0.00    -0.093 SA
HETATM   21  N3  UNL     1      19.967  26.405  16.081  1.00  0.00    -0.356 N 
HETATM   22  C15 UNL     1      19.696  27.956  14.269  1.00  0.00     0.102 C 
HETATM   23  C16 UNL     1      19.308  26.569  14.805  1.00  0.00     0.136 C 
ENDBRANCH  12  13
ENDBRANCH   1  12
BRANCH   1  24
HETATM   24  O2  UNL     1      16.085  24.151  17.128  1.00  0.00    -0.289 OA
BRANCH  24  25
HETATM   25  C17 UNL     1      16.061  22.874  16.646  1.00  0.00     0.363 C 
HETATM   26  O3  UNL     1      16.736  22.588  15.648  1.00  0.00    -0.238 OA
HETATM   27  N4  UNL     1      15.246  21.892  17.314  1.00  0.00    -0.322 N 
HETATM   28  C18 UNL     1      15.205  20.538  16.815  1.00  0.00     0.172 C 
HETATM   29  C29 UNL     1      14.472  22.266  18.475  1.00  0.00     0.148 C 
HETATM   30  C19 UNL     1      15.299  19.599  17.999  1.00  0.00     0.079 C 
HETATM   31  N5  UNL     1      14.302  19.966  18.924  1.00  0.00    -0.375 N 
HETATM   32  C28 UNL     1      14.557  21.183  19.573  1.00  0.00     0.143 C 
BRANCH  31  33
HETATM   33  C20 UNL     1      13.447  19.000  19.462  1.00  0.00     0.087 C 
HETATM   34  C21 UNL     1      13.832  17.589  19.043  1.00  0.00     0.046 C 
HETATM   35  C22 UNL     1      13.560  19.066  20.995  1.00  0.00     0.046 C 
BRANCH  33  36
HETATM   36  C23 UNL     1      12.013  19.182  19.125  1.00  0.00     0.178 C 
HETATM   37  O4  UNL     1      11.166  18.839  19.925  1.00  0.00    -0.293 OA
BRANCH  36  38
HETATM   38  C24 UNL     1      11.563  19.763  17.850  1.00  0.00     0.259 C 
BRANCH  38  39
HETATM   39  O5  UNL     1      11.629  18.919  16.752  1.00  0.00    -0.314 OA
BRANCH  39  40
HETATM   40  C25 UNL     1      11.101  19.279  15.534  1.00  0.00     0.258 C 
HETATM   41  O6  UNL     1       9.991  18.832  15.154  1.00  0.00    -0.265 OA
BRANCH  40  42
HETATM   42  C26 UNL     1      11.882  20.209  14.685  1.00  0.00     0.106 C 
HETATM   43  C27 UNL     1      11.072  21.474  14.507  1.00  0.00     0.015 C 
ENDBRANCH  40  42
ENDBRANCH  39  40
ENDBRANCH  38  39
ENDBRANCH  36  38
ENDBRANCH  33  36
ENDBRANCH  31  33
ENDBRANCH  24  25
ENDBRANCH   1  24
TORSDOF 16
ENDMDL
