MODEL 1
REMARK VINA RESULT: -8.086592490      0.000      0.000
REMARK  5 active torsions:
REMARK  status: ('A' for Active; 'I' for Inactive)
REMARK    1  A    between atoms: C2_3  and  N3_6 
REMARK    2  A    between atoms: N3_6  and  N4_8 
REMARK    3  A    between atoms: N4_8  and  C4_10 
REMARK    4  A    between atoms: C6_13  and  N5_14 
REMARK    5  A    between atoms: N7_19  and  C7_20 
ROOT
HETATM    1  N1  UNL     1       1.404  34.537  27.245  1.00  0.00    -0.189 NA
HETATM    2  C1  UNL     1       1.298  34.765  26.114  1.00  0.00     0.130 C 
HETATM    3  C2  UNL     1       1.152  35.061  24.718  1.00  0.00     0.209 C 
HETATM    4  C3  UNL     1       1.775  34.283  23.685  1.00  0.00     0.130 C 
HETATM    5  N2  UNL     1       2.262  33.648  22.838  1.00  0.00    -0.189 NA
ENDROOT
BRANCH   3   6
HETATM    6  N3  UNL     1       0.417  36.088  24.390  1.00  0.00    -0.280 N 
ATOM      7  H3  UNL     1       0.829  36.831  23.826  1.00  0.00     0.188 HD
BRANCH   6   8
HETATM    8  N4  UNL     1      -0.905  36.199  24.785  1.00  0.00    -0.281 N 
ATOM      9  H4  UNL     1      -1.103  36.292  25.781  1.00  0.00     0.188 HD
BRANCH   8  10
HETATM   10  C4  UNL     1      -1.893  36.191  23.971  1.00  0.00     0.163 A 
HETATM   11  C5  UNL     1      -2.399  37.205  23.187  1.00  0.00     0.132 A 
HETATM   12 CL1  UNL     1      -1.781  38.839  23.109  1.00  0.00    -0.076 Cl
HETATM   13  C6  UNL     1      -3.470  36.704  22.486  1.00  0.00     0.214 A 
HETATM   14  N6  UNL     1      -3.589  35.411  22.854  1.00  0.00    -0.275 N 
HETATM   15  N7  UNL     1      -2.654  35.093  23.739  1.00  0.00    -0.267 N 
ATOM     16  H6  UNL     1      -4.298  34.768  22.500  1.00  0.00     0.189 HD
BRANCH  13  17
HETATM   17  N5  UNL     1      -4.256  37.443  21.571  1.00  0.00    -0.095 N 
HETATM   18  O1  UNL     1      -4.706  38.545  21.906  1.00  0.00    -0.530 OA
HETATM   19  O2  UNL     1      -4.519  36.932  20.300  1.00  0.00    -0.530 OA
ENDBRANCH  13  17
BRANCH  15  20
HETATM   20  C7  UNL     1      -2.480  33.783  24.355  1.00  0.00     0.110 C 
HETATM   21  C8  UNL     1      -3.759  33.097  24.659  1.00  0.00     0.027 C 
HETATM   22  C9  UNL     1      -3.778  31.624  24.493  1.00  0.00     0.002 C 
HETATM   23  C10 UNL     1      -2.479  30.916  24.543  1.00  0.00     0.000 C 
HETATM   24  C11 UNL     1      -1.282  31.716  24.166  1.00  0.00     0.002 C 
HETATM   25  C12 UNL     1      -1.672  32.943  23.369  1.00  0.00     0.027 C 
ENDBRANCH  15  20
ENDBRANCH   8  10
ENDBRANCH   6   8
ENDBRANCH   3   6
TORSDOF 5
ENDMDL
MODEL 2
REMARK VINA RESULT: -8.053993177      0.049      1.576
REMARK  5 active torsions:
REMARK  status: ('A' for Active; 'I' for Inactive)
REMARK    1  A    between atoms: C2_3  and  N3_6 
REMARK    2  A    between atoms: N3_6  and  N4_8 
REMARK    3  A    between atoms: N4_8  and  C4_10 
REMARK    4  A    between atoms: C6_13  and  N5_14 
REMARK    5  A    between atoms: N7_19  and  C7_20 
ROOT
HETATM    1  N1  UNL     1       2.241  33.584  22.900  1.00  0.00    -0.189 NA
HETATM    2  C1  UNL     1       1.752  34.211  23.742  1.00  0.00     0.130 C 
HETATM    3  C2  UNL     1       1.142  35.002  24.772  1.00  0.00     0.209 C 
HETATM    4  C3  UNL     1       1.290  34.713  26.170  1.00  0.00     0.130 C 
HETATM    5  N2  UNL     1       1.417  34.498  27.308  1.00  0.00    -0.189 NA
ENDROOT
BRANCH   3   6
HETATM    6  N3  UNL     1       0.423  36.026  24.402  1.00  0.00    -0.280 N 
ATOM      7  H3  UNL     1       0.845  36.737  23.805  1.00  0.00     0.188 HD
BRANCH   6   8
HETATM    8  N4  UNL     1      -0.895  36.177  24.796  1.00  0.00    -0.281 N 
ATOM      9  H4  UNL     1      -1.089  36.296  25.790  1.00  0.00     0.188 HD
BRANCH   8  10
HETATM   10  C4  UNL     1      -1.885  36.175  23.985  1.00  0.00     0.163 A 
HETATM   11  C5  UNL     1      -2.393  37.195  23.209  1.00  0.00     0.132 A 
HETATM   12 CL1  UNL     1      -1.775  38.830  23.142  1.00  0.00    -0.076 Cl
HETATM   13  C6  UNL     1      -3.465  36.699  22.506  1.00  0.00     0.214 A 
HETATM   14  N6  UNL     1      -3.583  35.403  22.865  1.00  0.00    -0.275 N 
HETATM   15  N7  UNL     1      -2.646  35.079  23.745  1.00  0.00    -0.267 N 
ATOM     16  H6  UNL     1      -4.292  34.763  22.508  1.00  0.00     0.189 HD
BRANCH  13  17
HETATM   17  N5  UNL     1      -4.252  37.445  21.598  1.00  0.00    -0.095 N 
HETATM   18  O1  UNL     1      -4.673  38.559  21.929  1.00  0.00    -0.530 OA
HETATM   19  O2  UNL     1      -4.550  36.926  20.338  1.00  0.00    -0.530 OA
ENDBRANCH  13  17
BRANCH  15  20
HETATM   20  C7  UNL     1      -2.471  33.764  24.352  1.00  0.00     0.110 C 
HETATM   21  C8  UNL     1      -3.750  33.080  24.661  1.00  0.00     0.027 C 
HETATM   22  C9  UNL     1      -3.774  31.608  24.485  1.00  0.00     0.002 C 
HETATM   23  C10 UNL     1      -2.477  30.896  24.521  1.00  0.00     0.000 C 
HETATM   24  C11 UNL     1      -1.280  31.695  24.139  1.00  0.00     0.002 C 
HETATM   25  C12 UNL     1      -1.673  32.928  23.354  1.00  0.00     0.027 C 
ENDBRANCH  15  20
ENDBRANCH   8  10
ENDBRANCH   6   8
ENDBRANCH   3   6
TORSDOF 5
ENDMDL
MODEL 3
REMARK VINA RESULT: -7.795239617      3.061      5.493
REMARK  5 active torsions:
REMARK  status: ('A' for Active; 'I' for Inactive)
REMARK    1  A    between atoms: C2_3  and  N3_6 
REMARK    2  A    between atoms: N3_6  and  N4_8 
REMARK    3  A    between atoms: N4_8  and  C4_10 
REMARK    4  A    between atoms: C6_13  and  N5_14 
REMARK    5  A    between atoms: N7_19  and  C7_20 
ROOT
HETATM    1  N1  UNL     1      -4.604  36.531  19.972  1.00  0.00    -0.189 NA
HETATM    2  C1  UNL     1      -4.623  36.303  21.107  1.00  0.00     0.130 C 
HETATM    3  C2  UNL     1      -4.627  36.020  22.514  1.00  0.00     0.209 C 
HETATM    4  C3  UNL     1      -5.824  35.729  23.250  1.00  0.00     0.130 C 
HETATM    5  N2  UNL     1      -6.788  35.474  23.853  1.00  0.00    -0.189 NA
ENDROOT
BRANCH   3   6
HETATM    6  N3  UNL     1      -3.480  36.034  23.137  1.00  0.00    -0.280 N 
ATOM      7  H3  UNL     1      -2.818  36.783  22.938  1.00  0.00     0.188 HD
BRANCH   6   8
HETATM    8  N4  UNL     1      -3.136  35.061  24.059  1.00  0.00    -0.281 N 
ATOM      9  H4  UNL     1      -3.820  34.812  24.773  1.00  0.00     0.188 HD
BRANCH   8  10
HETATM   10  C4  UNL     1      -2.008  34.457  24.068  1.00  0.00     0.163 A 
HETATM   11  C5  UNL     1      -0.730  34.972  24.089  1.00  0.00     0.132 A 
HETATM   12 CL1  UNL     1      -0.316  36.671  24.108  1.00  0.00    -0.076 Cl
HETATM   13  C6  UNL     1       0.152  33.918  24.089  1.00  0.00     0.214 A 
HETATM   14  N6  UNL     1      -0.601  32.797  24.071  1.00  0.00    -0.275 N 
HETATM   15  N7  UNL     1      -1.890  33.106  24.058  1.00  0.00    -0.267 N 
ATOM     16  H6  UNL     1      -0.230  31.847  24.067  1.00  0.00     0.189 HD
BRANCH  13  17
HETATM   17  N5  UNL     1       1.561  34.041  24.108  1.00  0.00    -0.095 N 
HETATM   18  O1  UNL     1       2.141  34.246  25.180  1.00  0.00    -0.530 OA
HETATM   19  O2  UNL     1       2.290  33.931  22.923  1.00  0.00    -0.530 OA
ENDBRANCH  13  17
BRANCH  15  20
HETATM   20  C7  UNL     1      -2.991  32.149  24.036  1.00  0.00     0.110 C 
HETATM   21  C8  UNL     1      -2.644  30.834  24.624  1.00  0.00     0.027 C 
HETATM   22  C9  UNL     1      -3.714  30.141  25.380  1.00  0.00     0.002 C 
HETATM   23  C10 UNL     1      -5.113  30.520  25.080  1.00  0.00     0.000 C 
HETATM   24  C11 UNL     1      -5.320  31.891  24.539  1.00  0.00     0.002 C 
HETATM   25  C12 UNL     1      -4.131  32.780  24.833  1.00  0.00     0.027 C 
ENDBRANCH  15  20
ENDBRANCH   8  10
ENDBRANCH   6   8
ENDBRANCH   3   6
TORSDOF 5
ENDMDL
MODEL 4
REMARK VINA RESULT: -7.779934629      1.887      2.531
REMARK  5 active torsions:
REMARK  status: ('A' for Active; 'I' for Inactive)
REMARK    1  A    between atoms: C2_3  and  N3_6 
REMARK    2  A    between atoms: N3_6  and  N4_8 
REMARK    3  A    between atoms: N4_8  and  C4_10 
REMARK    4  A    between atoms: C6_13  and  N5_14 
REMARK    5  A    between atoms: N7_19  and  C7_20 
ROOT
HETATM    1  N1  UNL     1      -1.196  38.332  26.868  1.00  0.00    -0.189 NA
HETATM    2  C1  UNL     1      -0.950  37.239  26.574  1.00  0.00     0.130 C 
HETATM    3  C2  UNL     1      -0.664  35.883  26.200  1.00  0.00     0.209 C 
HETATM    4  C3  UNL     1       0.482  35.166  26.683  1.00  0.00     0.130 C 
HETATM    5  N2  UNL     1       1.400  34.569  27.082  1.00  0.00    -0.189 NA
ENDROOT
BRANCH   3   6
HETATM    6  N3  UNL     1      -1.492  35.292  25.384  1.00  0.00    -0.280 N 
ATOM      7  H3  UNL     1      -1.153  34.524  24.806  1.00  0.00     0.188 HD
BRANCH   6   8
HETATM    8  N4  UNL     1      -2.817  35.677  25.279  1.00  0.00    -0.281 N 
ATOM      9  H4  UNL     1      -3.338  35.847  26.140  1.00  0.00     0.188 HD
BRANCH   8  10
HETATM   10  C4  UNL     1      -3.427  35.831  24.165  1.00  0.00     0.163 A 
HETATM   11  C5  UNL     1      -3.257  36.791  23.191  1.00  0.00     0.132 A 
HETATM   12 CL1  UNL     1      -2.103  38.104  23.243  1.00  0.00    -0.076 Cl
HETATM   13  C6  UNL     1      -4.152  36.531  22.180  1.00  0.00     0.214 A 
HETATM   14  N6  UNL     1      -4.838  35.432  22.557  1.00  0.00    -0.275 N 
HETATM   15  N7  UNL     1      -4.414  35.005  23.739  1.00  0.00    -0.267 N 
ATOM     16  H6  UNL     1      -5.578  34.991  22.011  1.00  0.00     0.189 HD
BRANCH  13  17
HETATM   17  N5  UNL     1      -4.284  37.299  20.999  1.00  0.00    -0.095 N 
HETATM   18  O1  UNL     1      -4.207  38.531  21.061  1.00  0.00    -0.530 OA
HETATM   19  O2  UNL     1      -4.498  36.669  19.773  1.00  0.00    -0.530 OA
ENDBRANCH  13  17
BRANCH  15  20
HETATM   20  C7  UNL     1      -4.929  33.843  24.455  1.00  0.00     0.110 C 
HETATM   21  C8  UNL     1      -6.343  33.531  24.138  1.00  0.00     0.027 C 
HETATM   22  C9  UNL     1      -6.712  32.096  24.092  1.00  0.00     0.002 C 
HETATM   23  C10 UNL     1      -5.847  31.147  24.828  1.00  0.00     0.000 C 
HETATM   24  C11 UNL     1      -4.435  31.570  25.033  1.00  0.00     0.002 C 
HETATM   25  C12 UNL     1      -4.045  32.663  24.060  1.00  0.00     0.027 C 
ENDBRANCH  15  20
ENDBRANCH   8  10
ENDBRANCH   6   8
ENDBRANCH   3   6
TORSDOF 5
ENDMDL
MODEL 5
REMARK VINA RESULT: -7.774619326      4.232      5.717
REMARK  5 active torsions:
REMARK  status: ('A' for Active; 'I' for Inactive)
REMARK    1  A    between atoms: C2_3  and  N3_6 
REMARK    2  A    between atoms: N3_6  and  N4_8 
REMARK    3  A    between atoms: N4_8  and  C4_10 
REMARK    4  A    between atoms: C6_13  and  N5_14 
REMARK    5  A    between atoms: N7_19  and  C7_20 
ROOT
HETATM    1  N1  UNL     1      -0.002  32.598  21.727  1.00  0.00    -0.189 NA
HETATM    2  C1  UNL     1      -0.244  33.093  22.745  1.00  0.00     0.130 C 
HETATM    3  C2  UNL     1      -0.562  33.712  24.000  1.00  0.00     0.209 C 
HETATM    4  C3  UNL     1       0.395  33.870  25.058  1.00  0.00     0.130 C 
HETATM    5  N2  UNL     1       1.168  34.019  25.917  1.00  0.00    -0.189 NA
ENDROOT
BRANCH   3   6
HETATM    6  N3  UNL     1      -1.781  34.145  24.169  1.00  0.00    -0.280 N 
ATOM      7  H3  UNL     1      -1.958  34.865  24.870  1.00  0.00     0.188 HD
BRANCH   6   8
HETATM    8  N4  UNL     1      -2.843  33.656  23.428  1.00  0.00    -0.281 N 
ATOM      9  H4  UNL     1      -2.883  33.889  22.435  1.00  0.00     0.188 HD
BRANCH   8  10
HETATM   10  C4  UNL     1      -3.776  32.929  23.915  1.00  0.00     0.163 A 
HETATM   11  C5  UNL     1      -3.710  31.684  24.503  1.00  0.00     0.132 A 
HETATM   12 CL1  UNL     1      -2.255  30.743  24.738  1.00  0.00    -0.076 Cl
HETATM   13  C6  UNL     1      -4.985  31.320  24.866  1.00  0.00     0.214 A 
HETATM   14  N6  UNL     1      -5.788  32.339  24.496  1.00  0.00    -0.275 N 
HETATM   15  N7  UNL     1      -5.079  33.305  23.929  1.00  0.00    -0.267 N 
ATOM     16  H6  UNL     1      -6.798  32.364  24.634  1.00  0.00     0.189 HD
BRANCH  13  17
HETATM   17  N5  UNL     1      -5.329  30.103  25.500  1.00  0.00    -0.095 N 
HETATM   18  O1  UNL     1      -4.827  29.045  25.103  1.00  0.00    -0.530 OA
HETATM   19  O2  UNL     1      -6.227  30.098  26.568  1.00  0.00    -0.530 OA
ENDBRANCH  13  17
BRANCH  15  20
HETATM   20  C7  UNL     1      -5.615  34.557  23.407  1.00  0.00     0.110 C 
HETATM   21  C8  UNL     1      -7.095  34.573  23.313  1.00  0.00     0.027 C 
HETATM   22  C9  UNL     1      -7.764  35.864  23.603  1.00  0.00     0.002 C 
HETATM   23  C10 UNL     1      -6.957  37.097  23.459  1.00  0.00     0.000 C 
HETATM   24  C11 UNL     1      -5.486  36.940  23.626  1.00  0.00     0.002 C 
HETATM   25  C12 UNL     1      -5.152  35.658  24.359  1.00  0.00     0.027 C 
ENDBRANCH  15  20
ENDBRANCH   8  10
ENDBRANCH   6   8
ENDBRANCH   3   6
TORSDOF 5
ENDMDL
