MODEL 1
REMARK VINA RESULT: -6.999592739      0.000      0.000
REMARK  2 active torsions:
REMARK  status: ('A' for Active; 'I' for Inactive)
REMARK       I    between atoms: C1_2  and  N2_4 
REMARK    1  A    between atoms: N2_4  and  N3_6 
REMARK       I    between atoms: N3_6  and  C2_8 
REMARK       I    between atoms: C2_8  and  N4_10 
REMARK    2  A    between atoms: N5_12  and  O3_14 
ROOT
HETATM    1  N3  UNL     1      12.885  44.225  83.400  1.00  0.00    -0.247 N 
ATOM      2  H3  UNL     1      13.680  44.392  84.016  1.00  0.00     0.192 HD
HETATM    3  C2  UNL     1      11.586  44.568  83.818  1.00  0.00     0.354 C 
HETATM    4  O2  UNL     1      10.593  44.355  83.042  1.00  0.00    -0.244 OA
HETATM    5  N4  UNL     1      11.358  45.149  85.097  1.00  0.00    -0.231 N 
ATOM      6  H4  UNL     1      11.491  44.605  85.949  1.00  0.00     0.193 HD
HETATM    7  N5  UNL     1      10.989  46.346  85.150  1.00  0.00    -0.206 N 
ATOM      8  H5  UNL     1      10.855  46.888  84.296  1.00  0.00     0.215 HD
ENDROOT
BRANCH   1   9
HETATM    9  N2  UNL     1      13.083  43.658  82.144  1.00  0.00    -0.250 N 
HETATM   10  C1  UNL     1      14.331  43.663  81.480  1.00  0.00     0.347 C 
HETATM   11  N1  UNL     1      14.432  43.067  80.218  1.00  0.00    -0.038 NA
HETATM   12  O1  UNL     1      15.324  44.188  82.013  1.00  0.00    -0.249 OA
ATOM     13  H2  UNL     1      12.288  43.218  81.680  1.00  0.00     0.191 HD
ENDBRANCH   1   9
BRANCH   7  14
HETATM   14  O3  UNL     1      10.770  46.907  86.368  1.00  0.00    -0.274 OA
ATOM     15  H3  UNL     1       9.903  47.240  86.567  1.00  0.00     0.246 HD
ENDBRANCH   7  14
TORSDOF 2
ENDMDL
MODEL 2
REMARK VINA RESULT: -6.835781152      2.964      3.575
REMARK  2 active torsions:
REMARK  status: ('A' for Active; 'I' for Inactive)
REMARK       I    between atoms: C1_2  and  N2_4 
REMARK    1  A    between atoms: N2_4  and  N3_6 
REMARK       I    between atoms: N3_6  and  C2_8 
REMARK       I    between atoms: C2_8  and  N4_10 
REMARK    2  A    between atoms: N5_12  and  O3_14 
ROOT
HETATM    1  N3  UNL     1      11.960  43.451  83.615  1.00  0.00    -0.247 N 
ATOM      2  H3  UNL     1      11.159  43.530  82.988  1.00  0.00     0.192 HD
HETATM    3  C2  UNL     1      11.874  42.654  84.770  1.00  0.00     0.354 C 
HETATM    4  O2  UNL     1      12.880  42.560  85.553  1.00  0.00    -0.244 OA
HETATM    5  N4  UNL     1      10.679  41.947  85.085  1.00  0.00    -0.231 N 
ATOM      6  H4  UNL     1       9.835  42.447  85.365  1.00  0.00     0.193 HD
HETATM    7  N5  UNL     1      10.690  40.695  85.011  1.00  0.00    -0.206 N 
ATOM      8  H5  UNL     1      11.535  40.198  84.732  1.00  0.00     0.215 HD
ENDROOT
BRANCH   1   9
HETATM    9  N2  UNL     1      13.140  44.133  83.328  1.00  0.00    -0.250 N 
HETATM   10  C1  UNL     1      14.165  43.597  82.516  1.00  0.00     0.347 C 
HETATM   11  N1  UNL     1      15.316  44.358  82.284  1.00  0.00    -0.038 NA
HETATM   12  O1  UNL     1      14.043  42.466  82.014  1.00  0.00    -0.249 OA
ATOM     13  H2  UNL     1      13.270  45.064  83.723  1.00  0.00     0.191 HD
ENDBRANCH   1   9
BRANCH   7  14
HETATM   14  O3  UNL     1       9.553  40.015  85.309  1.00  0.00    -0.274 OA
ATOM     15  H3  UNL     1       9.317  39.899  86.223  1.00  0.00     0.246 HD
ENDBRANCH   7  14
TORSDOF 2
ENDMDL
MODEL 3
REMARK VINA RESULT: -6.452997482      2.630      2.964
REMARK  2 active torsions:
REMARK  status: ('A' for Active; 'I' for Inactive)
REMARK       I    between atoms: C1_2  and  N2_4 
REMARK    1  A    between atoms: N2_4  and  N3_6 
REMARK       I    between atoms: N3_6  and  C2_8 
REMARK       I    between atoms: C2_8  and  N4_10 
REMARK    2  A    between atoms: N5_12  and  O3_14 
ROOT
HETATM    1  N3  UNL     1      11.775  43.991  83.749  1.00  0.00    -0.247 N 
ATOM      2  H3  UNL     1      11.603  44.014  84.754  1.00  0.00     0.192 HD
HETATM    3  C2  UNL     1      10.805  43.458  82.880  1.00  0.00     0.354 C 
HETATM    4  O2  UNL     1      11.026  43.431  81.622  1.00  0.00    -0.244 OA
HETATM    5  N4  UNL     1       9.576  42.945  83.382  1.00  0.00    -0.231 N 
ATOM      6  H4  UNL     1       9.555  42.088  83.935  1.00  0.00     0.193 HD
HETATM    7  N5  UNL     1       8.520  43.572  83.127  1.00  0.00    -0.206 N 
ATOM      8  H5  UNL     1       8.544  44.428  82.573  1.00  0.00     0.215 HD
ENDROOT
BRANCH   1   9
HETATM    9  N2  UNL     1      12.970  44.488  83.234  1.00  0.00    -0.250 N 
HETATM   10  C1  UNL     1      14.116  43.687  83.027  1.00  0.00     0.347 C 
HETATM   11  N1  UNL     1      15.272  44.277  82.505  1.00  0.00    -0.038 NA
HETATM   12  O1  UNL     1      14.094  42.475  83.306  1.00  0.00    -0.249 OA
ATOM     13  H2  UNL     1      13.020  45.478  82.994  1.00  0.00     0.191 HD
ENDBRANCH   1   9
BRANCH   7  14
HETATM   14  O3  UNL     1       7.344  43.088  83.604  1.00  0.00    -0.274 OA
ATOM     15  H3  UNL     1       6.925  43.538  84.329  1.00  0.00     0.246 HD
ENDBRANCH   7  14
TORSDOF 2
ENDMDL
MODEL 4
REMARK VINA RESULT: -6.202496250      2.615      4.642
REMARK  2 active torsions:
REMARK  status: ('A' for Active; 'I' for Inactive)
REMARK       I    between atoms: C1_2  and  N2_4 
REMARK    1  A    between atoms: N2_4  and  N3_6 
REMARK       I    between atoms: N3_6  and  C2_8 
REMARK       I    between atoms: C2_8  and  N4_10 
REMARK    2  A    between atoms: N5_12  and  O3_14 
ROOT
HETATM    1  N3  UNL     1      11.000  44.639  83.206  1.00  0.00    -0.247 N 
ATOM      2  H3  UNL     1      11.138  45.343  83.931  1.00  0.00     0.192 HD
HETATM    3  C2  UNL     1      12.072  44.264  82.375  1.00  0.00     0.354 C 
HETATM    4  O2  UNL     1      11.893  43.382  81.468  1.00  0.00    -0.244 OA
HETATM    5  N4  UNL     1      13.358  44.856  82.527  1.00  0.00    -0.231 N 
ATOM      6  H4  UNL     1      13.513  45.835  82.290  1.00  0.00     0.193 HD
HETATM    7  N5  UNL     1      14.294  44.143  82.959  1.00  0.00    -0.206 N 
ATOM      8  H5  UNL     1      14.136  43.163  83.195  1.00  0.00     0.215 HD
ENDROOT
BRANCH   1   9
HETATM    9  N2  UNL     1       9.752  44.045  83.039  1.00  0.00    -0.250 N 
HETATM   10  C1  UNL     1       8.817  44.470  82.067  1.00  0.00     0.347 C 
HETATM   11  N1  UNL     1       7.586  43.811  81.974  1.00  0.00    -0.038 NA
HETATM   12  O1  UNL     1       9.088  45.415  81.305  1.00  0.00    -0.249 OA
ATOM     13  H2  UNL     1       9.499  43.267  83.647  1.00  0.00     0.191 HD
ENDBRANCH   1   9
BRANCH   7  14
HETATM   14  O3  UNL     1      15.523  44.701  83.107  1.00  0.00    -0.274 OA
ATOM     15  H3  UNL     1      15.581  45.617  83.356  1.00  0.00     0.246 HD
ENDBRANCH   7  14
TORSDOF 2
ENDMDL
MODEL 5
REMARK VINA RESULT: -6.183203702      2.291      2.822
REMARK  2 active torsions:
REMARK  status: ('A' for Active; 'I' for Inactive)
REMARK       I    between atoms: C1_2  and  N2_4 
REMARK    1  A    between atoms: N2_4  and  N3_6 
REMARK       I    between atoms: N3_6  and  C2_8 
REMARK       I    between atoms: C2_8  and  N4_10 
REMARK    2  A    between atoms: N5_12  and  O3_14 
ROOT
HETATM    1  N3  UNL     1      11.523  44.861  82.189  1.00  0.00    -0.247 N 
ATOM      2  H3  UNL     1      11.058  45.139  81.325  1.00  0.00     0.192 HD
HETATM    3  C2  UNL     1      10.761  44.462  83.303  1.00  0.00     0.354 C 
HETATM    4  O2  UNL     1      11.349  44.117  84.383  1.00  0.00    -0.244 OA
HETATM    5  N4  UNL     1       9.339  44.439  83.247  1.00  0.00    -0.231 N 
ATOM      6  H4  UNL     1       8.804  45.306  83.188  1.00  0.00     0.193 HD
HETATM    7  N5  UNL     1       8.760  43.327  83.271  1.00  0.00    -0.206 N 
ATOM      8  H5  UNL     1       9.296  42.462  83.330  1.00  0.00     0.215 HD
ENDROOT
BRANCH   1   9
HETATM    9  N2  UNL     1      12.913  44.875  82.269  1.00  0.00    -0.250 N 
HETATM   10  C1  UNL     1      13.741  44.020  81.506  1.00  0.00     0.347 C 
HETATM   11  N1  UNL     1      15.129  44.108  81.655  1.00  0.00    -0.038 NA
HETATM   12  O1  UNL     1      13.240  43.203  80.714  1.00  0.00    -0.249 OA
ATOM     13  H2  UNL     1      13.356  45.534  82.908  1.00  0.00     0.191 HD
ENDBRANCH   1   9
BRANCH   7  14
HETATM   14  O3  UNL     1       7.403  43.298  83.216  1.00  0.00    -0.274 OA
ATOM     15  H3  UNL     1       6.973  43.563  82.411  1.00  0.00     0.246 HD
ENDBRANCH   7  14
TORSDOF 2
ENDMDL
