MODEL 1
REMARK VINA RESULT: -5.533193942      0.000      0.000
REMARK  4 active torsions:
REMARK  status: ('A' for Active; 'I' for Inactive)
REMARK    1  A    between atoms: N1_1  and  C1_4 
REMARK    2  A    between atoms: C2_7  and  N3_8 
REMARK    3  A    between atoms: N4_11  and  C3_12 
REMARK    4  A    between atoms: N5_13  and  O1_15 
ROOT
HETATM    1  C1  UNL     1      10.479  41.244  84.737  1.00  0.00     0.706 A 
HETATM    2  N2  UNL     1       9.895  42.248  84.059  1.00  0.00    -0.020 N 
ATOM      3  H2  UNL     1       8.991  42.210  83.590  1.00  0.00     0.203 HD
HETATM    4  C2  UNL     1      10.717  43.313  84.109  1.00  0.00     0.713 A 
HETATM    5  N4  UNL     1      11.823  42.992  84.815  1.00  0.00    -0.066 N 
HETATM    6  N6  UNL     1      11.650  41.734  85.183  1.00  0.00    -0.110 N 
ATOM      7  H6  UNL     1      12.321  41.201  85.736  1.00  0.00     0.207 HD
ENDROOT
BRANCH   5   8
HETATM    8  C3  UNL     1      12.943  43.842  85.102  1.00  0.00     0.249 C 
HETATM    9  N5  UNL     1      14.126  43.572  84.689  1.00  0.00    -0.262 N 
ATOM     10  H5  UNL     1      14.903  44.195  84.908  1.00  0.00     0.195 HD
BRANCH   9  11
HETATM   11  O1  UNL     1      14.336  42.434  83.947  1.00  0.00    -0.289 OA
ATOM     12  H1  UNL     1      15.223  42.191  83.710  1.00  0.00     0.244 HD
ENDBRANCH   9  11
ENDBRANCH   5   8
BRANCH   4  13
HETATM   13  N3  UNL     1      10.462  44.467  83.552  1.00  0.00    -0.232 N 
ATOM     14  H32 UNL     1      10.027  45.273  84.001  1.00  0.00     0.174 HD
ATOM     15  H31 UNL     1      10.676  44.697  82.581  1.00  0.00     0.174 HD
ENDBRANCH   4  13
BRANCH   1  16
HETATM   16  N1  UNL     1      10.002  40.040  84.922  1.00  0.00    -0.233 N 
ATOM     17  H12 UNL     1       9.026  39.748  84.871  1.00  0.00     0.174 HD
ATOM     18  H11 UNL     1      10.534  39.199  85.148  1.00  0.00     0.174 HD
ENDBRANCH   1  16
TORSDOF 4
ENDMDL
MODEL 2
REMARK VINA RESULT: -5.351153362      5.397      6.784
REMARK  4 active torsions:
REMARK  status: ('A' for Active; 'I' for Inactive)
REMARK    1  A    between atoms: N1_1  and  C1_4 
REMARK    2  A    between atoms: C2_7  and  N3_8 
REMARK    3  A    between atoms: N4_11  and  C3_12 
REMARK    4  A    between atoms: N5_13  and  O1_15 
ROOT
HETATM    1  C1  UNL     1       8.114  43.869  82.681  1.00  0.00     0.706 A 
HETATM    2  N2  UNL     1       8.033  45.207  82.795  1.00  0.00    -0.020 N 
ATOM      3  H2  UNL     1       8.813  45.862  82.744  1.00  0.00     0.203 HD
HETATM    4  C2  UNL     1       6.740  45.528  82.988  1.00  0.00     0.713 A 
HETATM    5  N4  UNL     1       5.996  44.401  82.999  1.00  0.00    -0.066 N 
HETATM    6  N6  UNL     1       6.855  43.413  82.810  1.00  0.00    -0.110 N 
ATOM      7  H6  UNL     1       6.595  42.427  82.768  1.00  0.00     0.207 HD
ENDROOT
BRANCH   5   8
HETATM    8  C3  UNL     1       4.576  44.303  83.177  1.00  0.00     0.249 C 
HETATM    9  N5  UNL     1       3.789  43.989  82.214  1.00  0.00    -0.262 N 
ATOM     10  H5  UNL     1       2.783  43.927  82.370  1.00  0.00     0.195 HD
BRANCH   9  11
HETATM   11  O1  UNL     1       4.317  43.737  80.970  1.00  0.00    -0.289 OA
ATOM     12  H1  UNL     1       3.734  43.498  80.258  1.00  0.00     0.244 HD
ENDBRANCH   9  11
ENDBRANCH   5   8
BRANCH   4  13
HETATM   13  N3  UNL     1       6.299  46.748  83.139  1.00  0.00    -0.232 N 
ATOM     14  H32 UNL     1       6.795  47.606  82.895  1.00  0.00     0.174 HD
ATOM     15  H31 UNL     1       5.385  46.986  83.527  1.00  0.00     0.174 HD
ENDBRANCH   4  13
BRANCH   1  16
HETATM   16  N1  UNL     1       9.196  43.162  82.485  1.00  0.00    -0.233 N 
ATOM     17  H12 UNL     1       9.299  42.151  82.575  1.00  0.00     0.174 HD
ATOM     18  H11 UNL     1      10.114  43.512  82.211  1.00  0.00     0.174 HD
ENDBRANCH   1  16
TORSDOF 4
ENDMDL
MODEL 3
REMARK VINA RESULT: -5.295137250      1.980      2.573
REMARK  4 active torsions:
REMARK  status: ('A' for Active; 'I' for Inactive)
REMARK    1  A    between atoms: N1_1  and  C1_4 
REMARK    2  A    between atoms: C2_7  and  N3_8 
REMARK    3  A    between atoms: N4_11  and  C3_12 
REMARK    4  A    between atoms: N5_13  and  O1_15 
ROOT
HETATM    1  C1  UNL     1      10.172  43.031  83.439  1.00  0.00     0.706 A 
HETATM    2  N2  UNL     1      10.509  42.785  84.717  1.00  0.00    -0.020 N 
ATOM      3  H2  UNL     1       9.863  42.613  85.486  1.00  0.00     0.203 HD
HETATM    4  C2  UNL     1      11.853  42.804  84.801  1.00  0.00     0.713 A 
HETATM    5  N4  UNL     1      12.373  43.063  83.582  1.00  0.00    -0.066 N 
HETATM    6  N6  UNL     1      11.332  43.195  82.778  1.00  0.00    -0.110 N 
ATOM      7  H6  UNL     1      11.400  43.396  81.780  1.00  0.00     0.207 HD
ENDROOT
BRANCH   5   8
HETATM    8  C3  UNL     1      13.763  43.170  83.240  1.00  0.00     0.249 C 
HETATM    9  N5  UNL     1      14.237  44.191  82.627  1.00  0.00    -0.262 N 
ATOM     10  H5  UNL     1      15.230  44.240  82.397  1.00  0.00     0.195 HD
BRANCH   9  11
HETATM   11  O1  UNL     1      13.393  45.220  82.283  1.00  0.00    -0.289 OA
ATOM     12  H1  UNL     1      12.519  45.250  82.657  1.00  0.00     0.244 HD
ENDBRANCH   9  11
ENDBRANCH   5   8
BRANCH   4  13
HETATM   13  N3  UNL     1      12.525  42.602  85.903  1.00  0.00    -0.232 N 
ATOM     14  H32 UNL     1      12.267  42.923  86.837  1.00  0.00     0.174 HD
ATOM     15  H31 UNL     1      13.404  42.086  85.955  1.00  0.00     0.174 HD
ENDBRANCH   4  13
BRANCH   1  16
HETATM   16  N1  UNL     1       8.963  43.097  82.945  1.00  0.00    -0.233 N 
ATOM     17  H12 UNL     1       8.182  43.650  83.296  1.00  0.00     0.174 HD
ATOM     18  H11 UNL     1       8.609  42.602  82.126  1.00  0.00     0.174 HD
ENDBRANCH   1  16
TORSDOF 4
ENDMDL
MODEL 4
REMARK VINA RESULT: -5.285842752      2.105      2.782
REMARK  4 active torsions:
REMARK  status: ('A' for Active; 'I' for Inactive)
REMARK    1  A    between atoms: N1_1  and  C1_4 
REMARK    2  A    between atoms: C2_7  and  N3_8 
REMARK    3  A    between atoms: N4_11  and  C3_12 
REMARK    4  A    between atoms: N5_13  and  O1_15 
ROOT
HETATM    1  C1  UNL     1      11.094  42.077  84.637  1.00  0.00     0.706 A 
HETATM    2  N2  UNL     1      12.159  42.388  85.396  1.00  0.00    -0.020 N 
ATOM      3  H2  UNL     1      12.307  42.112  86.366  1.00  0.00     0.203 HD
HETATM    4  C2  UNL     1      12.997  43.129  84.647  1.00  0.00     0.713 A 
HETATM    5  N4  UNL     1      12.470  43.292  83.414  1.00  0.00    -0.066 N 
HETATM    6  N6  UNL     1      11.318  42.644  83.438  1.00  0.00    -0.110 N 
ATOM      7  H6  UNL     1      10.679  42.581  82.645  1.00  0.00     0.207 HD
ENDROOT
BRANCH   5   8
HETATM    8  C3  UNL     1      13.045  44.016  82.316  1.00  0.00     0.249 C 
HETATM    9  N5  UNL     1      12.707  45.223  82.045  1.00  0.00    -0.262 N 
ATOM     10  H5  UNL     1      13.133  45.713  81.259  1.00  0.00     0.195 HD
BRANCH   9  11
HETATM   11  O1  UNL     1      11.765  45.849  82.827  1.00  0.00    -0.289 OA
ATOM     12  H1  UNL     1      10.961  46.161  82.426  1.00  0.00     0.244 HD
ENDBRANCH   9  11
ENDBRANCH   5   8
BRANCH   4  13
HETATM   13  N3  UNL     1      14.138  43.605  85.071  1.00  0.00    -0.232 N 
ATOM     14  H32 UNL     1      14.266  44.328  85.779  1.00  0.00     0.174 HD
ATOM     15  H31 UNL     1      15.051  43.299  84.733  1.00  0.00     0.174 HD
ENDBRANCH   4  13
BRANCH   1  16
HETATM   16  N1  UNL     1      10.055  41.367  84.996  1.00  0.00    -0.233 N 
ATOM     17  H12 UNL     1       9.578  40.650  84.450  1.00  0.00     0.174 HD
ATOM     18  H11 UNL     1       9.555  41.420  85.883  1.00  0.00     0.174 HD
ENDBRANCH   1  16
TORSDOF 4
ENDMDL
MODEL 5
REMARK VINA RESULT: -5.264903892      2.150      2.951
REMARK  4 active torsions:
REMARK  status: ('A' for Active; 'I' for Inactive)
REMARK    1  A    between atoms: N1_1  and  C1_4 
REMARK    2  A    between atoms: C2_7  and  N3_8 
REMARK    3  A    between atoms: N4_11  and  C3_12 
REMARK    4  A    between atoms: N5_13  and  O1_15 
ROOT
HETATM    1  C1  UNL     1       8.943  43.565  82.638  1.00  0.00     0.706 A 
HETATM    2  N2  UNL     1       9.761  44.573  82.289  1.00  0.00    -0.020 N 
ATOM      3  H2  UNL     1       9.506  45.389  81.734  1.00  0.00     0.203 HD
HETATM    4  C2  UNL     1      10.978  44.314  82.803  1.00  0.00     0.713 A 
HETATM    5  N4  UNL     1      10.939  43.144  83.477  1.00  0.00    -0.066 N 
HETATM    6  N6  UNL     1       9.694  42.715  83.361  1.00  0.00    -0.110 N 
ATOM      7  H6  UNL     1       9.346  41.847  83.768  1.00  0.00     0.207 HD
ENDROOT
BRANCH   5   8
HETATM    8  C3  UNL     1      12.023  42.510  84.171  1.00  0.00     0.249 C 
HETATM    9  N5  UNL     1      12.073  42.456  85.451  1.00  0.00    -0.262 N 
ATOM     10  H5  UNL     1      12.855  41.997  85.918  1.00  0.00     0.195 HD
BRANCH   9  11
HETATM   11  O1  UNL     1      11.060  43.023  86.188  1.00  0.00    -0.289 OA
ATOM     12  H1  UNL     1      10.778  42.602  86.992  1.00  0.00     0.244 HD
ENDBRANCH   9  11
ENDBRANCH   5   8
BRANCH   4  13
HETATM   13  N3  UNL     1      12.020  45.089  82.657  1.00  0.00    -0.232 N 
ATOM     14  H32 UNL     1      12.624  45.437  83.401  1.00  0.00     0.174 HD
ATOM     15  H31 UNL     1      12.354  45.440  81.759  1.00  0.00     0.174 HD
ENDBRANCH   4  13
BRANCH   1  16
HETATM   16  N1  UNL     1       7.676  43.442  82.335  1.00  0.00    -0.233 N 
ATOM     17  H12 UNL     1       7.225  43.688  81.454  1.00  0.00     0.174 HD
ATOM     18  H11 UNL     1       6.936  43.078  82.936  1.00  0.00     0.174 HD
ENDBRANCH   1  16
TORSDOF 4
ENDMDL
