MODEL 1
REMARK VINA RESULT: -6.825766196      0.000      0.000
REMARK  2 active torsions:
REMARK  status: ('A' for Active; 'I' for Inactive)
REMARK    1  A    between atoms: N2_4  and  N3_6 
REMARK       I    between atoms: N5_11  and  C2_12 
REMARK       I    between atoms: C2_12  and  N6_14 
REMARK    2  A    between atoms: N6_14  and  N7_16 
ROOT
HETATM    1  N3  UNL     1      13.154  44.773  81.815  1.00  0.00    -0.096 N 
HETATM    2  N4  UNL     1      13.367  44.519  83.177  1.00  0.00    -0.213 N 
ATOM      3  H4  UNL     1      14.261  44.362  83.642  1.00  0.00     0.195 HD
HETATM    4  C1  UNL     1      12.072  44.525  83.778  1.00  0.00     0.365 C 
HETATM    5  O1  UNL     1      11.762  44.344  84.978  1.00  0.00    -0.243 OA
HETATM    6  N5  UNL     1      11.157  44.786  82.723  1.00  0.00    -0.132 N 
HETATM    7  C2  UNL     1       9.784  44.454  82.603  1.00  0.00     0.362 C 
HETATM    8  O2  UNL     1       9.175  44.808  81.548  1.00  0.00    -0.243 OA
HETATM    9  N6  UNL     1       9.096  43.755  83.611  1.00  0.00    -0.257 N 
ATOM     10  H6  UNL     1       9.579  43.467  84.462  1.00  0.00     0.191 HD
HETATM   11  N8  UNL     1      11.936  45.485  81.759  1.00  0.00     0.035 NA
ENDROOT
BRANCH   9  12
HETATM   12  N7  UNL     1       7.727  43.457  83.426  1.00  0.00    -0.341 N 
ATOM     13  H72 UNL     1       7.053  43.725  84.144  1.00  0.00     0.177 HD
ATOM     14  H71 UNL     1       7.437  42.977  82.574  1.00  0.00     0.177 HD
ENDBRANCH   9  12
BRANCH   1  15
HETATM   15  N2  UNL     1      13.951  44.416  80.731  1.00  0.00    -0.214 N 
HETATM   16  N1  UNL     1      14.311  43.209  80.621  1.00  0.00    -0.328 N 
ATOM     17  H12 UNL     1      14.015  42.526  81.319  1.00  0.00     0.178 HD
ATOM     18  H11 UNL     1      14.894  42.947  79.827  1.00  0.00     0.178 HD
ATOM     19  H2  UNL     1      14.239  45.111  80.042  1.00  0.00     0.211 HD
ENDBRANCH   1  15
TORSDOF 2
ENDMDL
MODEL 2
REMARK VINA RESULT: -6.756974676      1.858      2.724
REMARK  2 active torsions:
REMARK  status: ('A' for Active; 'I' for Inactive)
REMARK    1  A    between atoms: N2_4  and  N3_6 
REMARK       I    between atoms: N5_11  and  C2_12 
REMARK       I    between atoms: C2_12  and  N6_14 
REMARK    2  A    between atoms: N6_14  and  N7_16 
ROOT
HETATM    1  N3  UNL     1      13.860  43.970  83.747  1.00  0.00    -0.096 N 
HETATM    2  N4  UNL     1      13.504  45.033  82.905  1.00  0.00    -0.213 N 
ATOM      3  H4  UNL     1      14.087  45.824  82.631  1.00  0.00     0.195 HD
HETATM    4  C1  UNL     1      12.156  44.779  82.512  1.00  0.00     0.365 C 
HETATM    5  O1  UNL     1      11.415  45.456  81.762  1.00  0.00    -0.243 OA
HETATM    6  N5  UNL     1      11.788  43.565  83.153  1.00  0.00    -0.132 N 
HETATM    7  C2  UNL     1      10.508  43.079  83.522  1.00  0.00     0.362 C 
HETATM    8  O2  UNL     1      10.441  41.946  84.086  1.00  0.00    -0.243 OA
HETATM    9  N6  UNL     1       9.334  43.815  83.279  1.00  0.00    -0.257 N 
ATOM     10  H6  UNL     1       9.380  44.727  82.824  1.00  0.00     0.191 HD
HETATM   11  N8  UNL     1      13.027  42.898  83.359  1.00  0.00     0.035 NA
ENDROOT
BRANCH   9  12
HETATM   12  N7  UNL     1       8.091  43.271  83.673  1.00  0.00    -0.341 N 
ATOM     13  H72 UNL     1       8.060  42.579  84.423  1.00  0.00     0.177 HD
ATOM     14  H71 UNL     1       7.243  43.581  83.198  1.00  0.00     0.177 HD
ENDBRANCH   9  12
BRANCH   1  15
HETATM   15  N2  UNL     1      14.821  43.946  84.755  1.00  0.00    -0.214 N 
HETATM   16  N1  UNL     1      15.811  44.727  84.660  1.00  0.00    -0.328 N 
ATOM     17  H12 UNL     1      15.888  45.353  83.858  1.00  0.00     0.178 HD
ATOM     18  H11 UNL     1      16.515  44.709  85.398  1.00  0.00     0.178 HD
ATOM     19  H2  UNL     1      14.729  43.313  85.550  1.00  0.00     0.211 HD
ENDBRANCH   1  15
TORSDOF 2
ENDMDL
MODEL 3
REMARK VINA RESULT: -6.737778097      2.493      4.972
REMARK  2 active torsions:
REMARK  status: ('A' for Active; 'I' for Inactive)
REMARK    1  A    between atoms: N2_4  and  N3_6 
REMARK       I    between atoms: N5_11  and  C2_12 
REMARK       I    between atoms: C2_12  and  N6_14 
REMARK    2  A    between atoms: N6_14  and  N7_16 
ROOT
HETATM    1  N3  UNL     1      10.659  42.210  84.773  1.00  0.00    -0.096 N 
HETATM    2  N4  UNL     1       9.981  43.078  83.904  1.00  0.00    -0.213 N 
ATOM      3  H4  UNL     1       8.981  43.279  83.891  1.00  0.00     0.195 HD
HETATM    4  C1  UNL     1      10.981  43.622  83.044  1.00  0.00     0.365 C 
HETATM    5  O1  UNL     1      10.850  44.444  82.108  1.00  0.00    -0.243 OA
HETATM    6  N5  UNL     1      12.208  43.036  83.458  1.00  0.00    -0.132 N 
HETATM    7  C2  UNL     1      13.406  42.816  82.731  1.00  0.00     0.362 C 
HETATM    8  O2  UNL     1      14.378  42.272  83.337  1.00  0.00    -0.243 OA
HETATM    9  N6  UNL     1      13.534  43.183  81.380  1.00  0.00    -0.257 N 
ATOM     10  H6  UNL     1      12.756  43.621  80.886  1.00  0.00     0.191 HD
HETATM   11  N8  UNL     1      11.983  42.698  84.821  1.00  0.00     0.035 NA
ENDROOT
BRANCH   9  12
HETATM   12  N7  UNL     1      14.757  42.935  80.716  1.00  0.00    -0.341 N 
ATOM     13  H72 UNL     1      14.905  42.036  80.255  1.00  0.00     0.177 HD
ATOM     14  H71 UNL     1      15.471  43.662  80.709  1.00  0.00     0.177 HD
ENDBRANCH   9  12
BRANCH   1  15
HETATM   15  N2  UNL     1      10.162  41.102  85.454  1.00  0.00    -0.214 N 
HETATM   16  N1  UNL     1      10.240  39.969  84.898  1.00  0.00    -0.328 N 
ATOM     17  H12 UNL     1      10.660  39.887  83.972  1.00  0.00     0.178 HD
ATOM     18  H11 UNL     1       9.876  39.158  85.397  1.00  0.00     0.178 HD
ATOM     19  H2  UNL     1       9.744  41.202  86.379  1.00  0.00     0.211 HD
ENDBRANCH   1  15
TORSDOF 2
ENDMDL
MODEL 4
REMARK VINA RESULT: -6.682728468      1.261      1.353
REMARK  2 active torsions:
REMARK  status: ('A' for Active; 'I' for Inactive)
REMARK    1  A    between atoms: N2_4  and  N3_6 
REMARK       I    between atoms: N5_11  and  C2_12 
REMARK       I    between atoms: C2_12  and  N6_14 
REMARK    2  A    between atoms: N6_14  and  N7_16 
ROOT
HETATM    1  N3  UNL     1      13.565  43.398  81.776  1.00  0.00    -0.096 N 
HETATM    2  N4  UNL     1      13.680  42.596  82.920  1.00  0.00    -0.213 N 
ATOM      3  H4  UNL     1      14.471  42.009  83.184  1.00  0.00     0.195 HD
HETATM    4  C1  UNL     1      12.459  42.772  83.638  1.00  0.00     0.365 C 
HETATM    5  O1  UNL     1      12.104  42.255  84.723  1.00  0.00    -0.243 OA
HETATM    6  N5  UNL     1      11.683  43.678  82.867  1.00  0.00    -0.132 N 
HETATM    7  C2  UNL     1      10.277  43.855  82.807  1.00  0.00     0.362 C 
HETATM    8  O2  UNL     1       9.822  44.749  82.031  1.00  0.00    -0.243 OA
HETATM    9  N6  UNL     1       9.396  43.074  83.575  1.00  0.00    -0.257 N 
ATOM     10  H6  UNL     1       9.755  42.353  84.202  1.00  0.00     0.191 HD
HETATM   11  N8  UNL     1      12.650  44.414  82.128  1.00  0.00     0.035 NA
ENDROOT
BRANCH   9  12
HETATM   12  N7  UNL     1       8.005  43.303  83.467  1.00  0.00    -0.341 N 
ATOM     13  H72 UNL     1       7.669  44.133  82.976  1.00  0.00     0.177 HD
ATOM     14  H71 UNL     1       7.360  42.632  83.884  1.00  0.00     0.177 HD
ENDBRANCH   9  12
BRANCH   1  15
HETATM   15  N2  UNL     1      14.201  43.250  80.545  1.00  0.00    -0.214 N 
HETATM   16  N1  UNL     1      14.483  42.083  80.151  1.00  0.00    -0.328 N 
ATOM     17  H12 UNL     1      14.244  41.279  80.732  1.00  0.00     0.178 HD
ATOM     18  H11 UNL     1      14.949  41.975  79.250  1.00  0.00     0.178 HD
ATOM     19  H2  UNL     1      14.434  44.064  79.976  1.00  0.00     0.211 HD
ENDBRANCH   1  15
TORSDOF 2
ENDMDL
MODEL 5
REMARK VINA RESULT: -6.564055707      2.475      5.082
REMARK  2 active torsions:
REMARK  status: ('A' for Active; 'I' for Inactive)
REMARK    1  A    between atoms: N2_4  and  N3_6 
REMARK       I    between atoms: N5_11  and  C2_12 
REMARK       I    between atoms: C2_12  and  N6_14 
REMARK    2  A    between atoms: N6_14  and  N7_16 
ROOT
HETATM    1  N3  UNL     1      10.512  42.279  85.038  1.00  0.00    -0.096 N 
HETATM    2  N4  UNL     1      10.038  43.171  84.065  1.00  0.00    -0.213 N 
ATOM      3  H4  UNL     1       9.106  43.192  83.650  1.00  0.00     0.195 HD
HETATM    4  C1  UNL     1      11.130  44.045  83.779  1.00  0.00     0.365 C 
HETATM    5  O1  UNL     1      11.178  45.003  82.974  1.00  0.00    -0.243 OA
HETATM    6  N5  UNL     1      12.199  43.612  84.609  1.00  0.00    -0.132 N 
HETATM    7  C2  UNL     1      13.600  43.758  84.442  1.00  0.00     0.362 C 
HETATM    8  O2  UNL     1      14.359  43.281  85.339  1.00  0.00    -0.243 OA
HETATM    9  N6  UNL     1      14.153  44.407  83.324  1.00  0.00    -0.257 N 
ATOM     10  H6  UNL     1      13.548  44.793  82.598  1.00  0.00     0.191 HD
HETATM   11  N8  UNL     1      11.549  42.971  85.699  1.00  0.00     0.035 NA
ENDROOT
BRANCH   9  12
HETATM   12  N7  UNL     1      15.558  44.517  83.221  1.00  0.00    -0.341 N 
ATOM     13  H72 UNL     1      16.133  43.675  83.272  1.00  0.00     0.177 HD
ATOM     14  H71 UNL     1      15.973  45.440  83.096  1.00  0.00     0.177 HD
ENDBRANCH   9  12
BRANCH   1  15
HETATM   15  N2  UNL     1      10.074  40.985  85.315  1.00  0.00    -0.214 N 
HETATM   16  N1  UNL     1      10.432  40.051  84.542  1.00  0.00    -0.328 N 
ATOM     17  H12 UNL     1      11.027  40.257  83.739  1.00  0.00     0.178 HD
ATOM     18  H11 UNL     1      10.112  39.104  84.745  1.00  0.00     0.178 HD
ATOM     19  H2  UNL     1       9.479  40.797  86.121  1.00  0.00     0.211 HD
ENDBRANCH   1  15
TORSDOF 2
ENDMDL
