MODEL 1
REMARK VINA RESULT: -6.614181809      0.000      0.000
REMARK  8 active torsions:
REMARK  status: ('A' for Active; 'I' for Inactive)
REMARK    1  A    between atoms: C2_2  and  C3_3 
REMARK    2  A    between atoms: C3_3  and  N1_4 
REMARK    3  A    between atoms: C4_5  and  N2_6 
REMARK    4  A    between atoms: N2_6  and  C5_8 
REMARK    5  A    between atoms: C5_8  and  C6_9 
REMARK    6  A    between atoms: C6_9  and  C7_10 
REMARK    7  A    between atoms: C7_10  and  O1_11 
REMARK    8  A    between atoms: C8_13  and  N3_14 
ROOT
HETATM    1  N1  UNL     1      48.445  59.026   3.068  1.00  0.00    -0.281 N 
HETATM    2  C4  UNL     1      49.516  58.305   3.562  1.00  0.00     0.150 A 
HETATM    3  C8  UNL     1      50.252  58.961   4.496  1.00  0.00     0.214 A 
HETATM    4  C9  UNL     1      49.969  60.268   4.944  1.00  0.00     0.286 A 
HETATM    5  O4  UNL     1      50.676  60.834   5.811  1.00  0.00    -0.265 OA
HETATM    6  N4  UNL     1      48.931  60.891   4.423  1.00  0.00    -0.273 N 
ATOM      7  H4  UNL     1      48.699  61.838   4.724  1.00  0.00     0.173 HD
HETATM    8  C10 UNL     1      48.179  60.276   3.495  1.00  0.00     0.331 A 
HETATM    9  O5  UNL     1      47.221  60.968   3.069  1.00  0.00    -0.246 OA
ENDROOT
BRANCH   1  10
HETATM   10  C3  UNL     1      47.551  58.486   2.103  1.00  0.00     0.164 C 
BRANCH  10  11
HETATM   11  C2  UNL     1      47.750  58.838   0.670  1.00  0.00     0.135 C 
HETATM   12  C1  UNL     1      46.709  59.779   0.089  1.00  0.00     0.037 C 
HETATM   13  C11 UNL     1      49.054  59.364   0.278  1.00  0.00     0.245 C 
HETATM   14  O6  UNL     1      49.267  60.623   0.192  1.00  0.00    -0.272 OA
HETATM   15  N5  UNL     1      50.200  58.550  -0.043  1.00  0.00    -0.278 N 
HETATM   16  C12 UNL     1      49.955  57.202  -0.383  1.00  0.00     0.329 C 
ATOM     17  H5  UNL     1      51.146  58.931  -0.026  1.00  0.00     0.173 HD
HETATM   18  O7  UNL     1      50.906  56.436  -0.672  1.00  0.00    -0.247 OA
HETATM   19  N6  UNL     1      48.619  56.720  -0.395  1.00  0.00    -0.278 N 
HETATM   20  C13 UNL     1      47.543  57.551  -0.080  1.00  0.00     0.245 C 
ATOM     21  H6  UNL     1      48.442  55.746  -0.640  1.00  0.00     0.173 HD
HETATM   22  O8  UNL     1      46.386  57.245  -0.412  1.00  0.00    -0.272 OA
ENDBRANCH  10  11
ENDBRANCH   1  10
BRANCH   2  23
HETATM   23  N2  UNL     1      49.835  57.044   3.063  1.00  0.00    -0.353 N 
ATOM     24  H2  UNL     1      50.553  57.095   2.339  1.00  0.00     0.166 HD
BRANCH  23  25
HETATM   25  C5  UNL     1      49.427  55.726   3.294  1.00  0.00     0.065 C 
BRANCH  25  26
HETATM   26  C6  UNL     1      48.570  55.482   4.519  1.00  0.00     0.070 C 
BRANCH  26  27
HETATM   27  C7  UNL     1      48.362  53.978   4.581  1.00  0.00     0.169 C 
BRANCH  27  28
HETATM   28  O1  UNL     1      49.166  53.353   3.599  1.00  0.00    -0.401 OA
ATOM     29  H1  UNL     1      49.967  53.039   4.001  1.00  0.00     0.209 HD
ENDBRANCH  27  28
ENDBRANCH  26  27
ENDBRANCH  25  26
ENDBRANCH  23  25
ENDBRANCH   2  23
BRANCH   3  30
HETATM   30  N3  UNL     1      51.422  58.448   5.086  1.00  0.00    -0.106 N 
HETATM   31  O2  UNL     1      51.360  57.464   5.829  1.00  0.00    -0.531 OA
HETATM   32  O3  UNL     1      52.634  58.987   4.787  1.00  0.00    -0.531 OA
ENDBRANCH   3  30
TORSDOF 8
ENDMDL
MODEL 2
REMARK VINA RESULT: -6.106389202      1.607      2.054
REMARK  8 active torsions:
REMARK  status: ('A' for Active; 'I' for Inactive)
REMARK    1  A    between atoms: C2_2  and  C3_3 
REMARK    2  A    between atoms: C3_3  and  N1_4 
REMARK    3  A    between atoms: C4_5  and  N2_6 
REMARK    4  A    between atoms: N2_6  and  C5_8 
REMARK    5  A    between atoms: C5_8  and  C6_9 
REMARK    6  A    between atoms: C6_9  and  C7_10 
REMARK    7  A    between atoms: C7_10  and  O1_11 
REMARK    8  A    between atoms: C8_13  and  N3_14 
ROOT
HETATM    1  N1  UNL     1      47.907  58.814   1.732  1.00  0.00    -0.281 N 
HETATM    2  C4  UNL     1      48.684  58.342   2.774  1.00  0.00     0.150 A 
HETATM    3  C8  UNL     1      48.652  59.112   3.892  1.00  0.00     0.214 A 
HETATM    4  C9  UNL     1      47.898  60.298   4.009  1.00  0.00     0.286 A 
HETATM    5  O4  UNL     1      47.898  60.976   5.064  1.00  0.00    -0.265 OA
HETATM    6  N4  UNL     1      47.184  60.683   2.971  1.00  0.00    -0.273 N 
ATOM      7  H4  UNL     1      46.627  61.537   3.021  1.00  0.00     0.173 HD
HETATM    8  C10 UNL     1      47.190  59.949   1.846  1.00  0.00     0.331 A 
HETATM    9  O5  UNL     1      46.476  60.417   0.923  1.00  0.00    -0.246 OA
ENDROOT
BRANCH   1  10
HETATM   10  C3  UNL     1      47.800  58.122   0.495  1.00  0.00     0.164 C 
BRANCH  10  11
HETATM   11  C2  UNL     1      48.616  58.591  -0.659  1.00  0.00     0.135 C 
HETATM   12  C1  UNL     1      47.869  58.686  -1.978  1.00  0.00     0.037 C 
HETATM   13  C11 UNL     1      49.350  59.843  -0.502  1.00  0.00     0.245 C 
HETATM   14  O6  UNL     1      48.870  60.954  -0.919  1.00  0.00    -0.272 OA
HETATM   15  N5  UNL     1      50.648  59.957   0.115  1.00  0.00    -0.278 N 
HETATM   16  C12 UNL     1      51.418  58.778   0.213  1.00  0.00     0.329 C 
ATOM     17  H5  UNL     1      50.994  60.851   0.465  1.00  0.00     0.173 HD
HETATM   18  O7  UNL     1      52.557  58.805   0.740  1.00  0.00    -0.247 OA
HETATM   19  N6  UNL     1      50.892  57.560  -0.293  1.00  0.00    -0.278 N 
HETATM   20  C13 UNL     1      49.631  57.503  -0.886  1.00  0.00     0.245 C 
ATOM     21  H6  UNL     1      51.449  56.709  -0.221  1.00  0.00     0.173 HD
HETATM   22  O8  UNL     1      49.314  56.550  -1.617  1.00  0.00    -0.272 OA
ENDBRANCH  10  11
ENDBRANCH   1  10
BRANCH   2  23
HETATM   23  N2  UNL     1      49.484  57.211   2.627  1.00  0.00    -0.353 N 
ATOM     24  H2  UNL     1      50.295  57.397   2.037  1.00  0.00     0.166 HD
BRANCH  23  25
HETATM   25  C5  UNL     1      49.466  55.887   3.079  1.00  0.00     0.065 C 
BRANCH  25  26
HETATM   26  C6  UNL     1      48.296  55.479   3.950  1.00  0.00     0.070 C 
BRANCH  26  27
HETATM   27  C7  UNL     1      48.648  54.103   4.490  1.00  0.00     0.169 C 
BRANCH  27  28
HETATM   28  O1  UNL     1      49.271  53.345   3.473  1.00  0.00    -0.401 OA
ATOM     29  H1  UNL     1      49.071  53.728   2.627  1.00  0.00     0.209 HD
ENDBRANCH  27  28
ENDBRANCH  26  27
ENDBRANCH  25  26
ENDBRANCH  23  25
ENDBRANCH   2  23
BRANCH   3  30
HETATM   30  N3  UNL     1      49.414  58.861   5.048  1.00  0.00    -0.106 N 
HETATM   31  O2  UNL     1      50.590  59.231   5.108  1.00  0.00    -0.531 OA
HETATM   32  O3  UNL     1      48.841  58.272   6.132  1.00  0.00    -0.531 OA
ENDBRANCH   3  30
TORSDOF 8
ENDMDL
MODEL 3
REMARK VINA RESULT: -6.079990678      1.583      2.380
REMARK  8 active torsions:
REMARK  status: ('A' for Active; 'I' for Inactive)
REMARK    1  A    between atoms: C2_2  and  C3_3 
REMARK    2  A    between atoms: C3_3  and  N1_4 
REMARK    3  A    between atoms: C4_5  and  N2_6 
REMARK    4  A    between atoms: N2_6  and  C5_8 
REMARK    5  A    between atoms: C5_8  and  C6_9 
REMARK    6  A    between atoms: C6_9  and  C7_10 
REMARK    7  A    between atoms: C7_10  and  O1_11 
REMARK    8  A    between atoms: C8_13  and  N3_14 
ROOT
HETATM    1  N1  UNL     1      49.136  59.019   4.607  1.00  0.00    -0.281 N 
HETATM    2  C4  UNL     1      50.161  58.173   4.991  1.00  0.00     0.150 A 
HETATM    3  C8  UNL     1      50.883  58.613   6.054  1.00  0.00     0.214 A 
HETATM    4  C9  UNL     1      50.630  59.824   6.729  1.00  0.00     0.286 A 
HETATM    5  O4  UNL     1      51.322  60.188   7.709  1.00  0.00    -0.265 OA
HETATM    6  N4  UNL     1      49.636  60.577   6.302  1.00  0.00    -0.273 N 
ATOM      7  H4  UNL     1      49.426  61.460   6.767  1.00  0.00     0.173 HD
HETATM    8  C10 UNL     1      48.899  60.178   5.252  1.00  0.00     0.331 A 
HETATM    9  O5  UNL     1      47.984  60.977   4.932  1.00  0.00    -0.246 OA
ENDROOT
BRANCH   1  10
HETATM   10  C3  UNL     1      48.262  58.707   3.530  1.00  0.00     0.164 C 
BRANCH  10  11
HETATM   11  C2  UNL     1      48.696  59.026   2.142  1.00  0.00     0.135 C 
HETATM   12  C1  UNL     1      49.723  60.139   2.029  1.00  0.00     0.037 C 
HETATM   13  C11 UNL     1      49.181  57.924   1.316  1.00  0.00     0.245 C 
HETATM   14  O6  UNL     1      50.432  57.671   1.209  1.00  0.00    -0.272 OA
HETATM   15  N5  UNL     1      48.334  57.037   0.558  1.00  0.00    -0.278 N 
HETATM   16  C12 UNL     1      47.025  57.483   0.278  1.00  0.00     0.329 C 
ATOM     17  H5  UNL     1      48.667  56.127   0.239  1.00  0.00     0.173 HD
HETATM   18  O7  UNL     1      46.233  56.761  -0.376  1.00  0.00    -0.247 OA
HETATM   19  N6  UNL     1      46.611  58.760   0.742  1.00  0.00    -0.278 N 
HETATM   20  C13 UNL     1      47.471  59.583   1.469  1.00  0.00     0.245 C 
ATOM     21  H6  UNL     1      45.665  59.082   0.540  1.00  0.00     0.173 HD
HETATM   22  O8  UNL     1      47.246  60.800   1.578  1.00  0.00    -0.272 OA
ENDBRANCH  10  11
ENDBRANCH   1  10
BRANCH   2  23
HETATM   23  N2  UNL     1      50.452  57.015   4.274  1.00  0.00    -0.353 N 
ATOM     24  H2  UNL     1      51.173  57.178   3.570  1.00  0.00     0.166 HD
BRANCH  23  25
HETATM   25  C5  UNL     1      50.015  55.686   4.267  1.00  0.00     0.065 C 
BRANCH  25  26
HETATM   26  C6  UNL     1      48.636  55.419   4.834  1.00  0.00     0.070 C 
BRANCH  26  27
HETATM   27  C7  UNL     1      48.412  53.924   4.680  1.00  0.00     0.169 C 
BRANCH  27  28
HETATM   28  O1  UNL     1      49.184  53.444   3.598  1.00  0.00    -0.401 OA
ATOM     29  H1  UNL     1      50.104  53.597   3.774  1.00  0.00     0.209 HD
ENDBRANCH  27  28
ENDBRANCH  26  27
ENDBRANCH  25  26
ENDBRANCH  23  25
ENDBRANCH   2  23
BRANCH   3  30
HETATM   30  N3  UNL     1      52.009  57.949   6.574  1.00  0.00    -0.106 N 
HETATM   31  O2  UNL     1      53.029  57.830   5.888  1.00  0.00    -0.531 OA
HETATM   32  O3  UNL     1      52.007  57.497   7.857  1.00  0.00    -0.531 OA
ENDBRANCH   3  30
TORSDOF 8
ENDMDL
MODEL 4
REMARK VINA RESULT: -5.902997264      1.906      5.417
REMARK  8 active torsions:
REMARK  status: ('A' for Active; 'I' for Inactive)
REMARK    1  A    between atoms: C2_2  and  C3_3 
REMARK    2  A    between atoms: C3_3  and  N1_4 
REMARK    3  A    between atoms: C4_5  and  N2_6 
REMARK    4  A    between atoms: N2_6  and  C5_8 
REMARK    5  A    between atoms: C5_8  and  C6_9 
REMARK    6  A    between atoms: C6_9  and  C7_10 
REMARK    7  A    between atoms: C7_10  and  O1_11 
REMARK    8  A    between atoms: C8_13  and  N3_14 
ROOT
HETATM    1  N1  UNL     1      48.628  59.123   4.616  1.00  0.00    -0.281 N 
HETATM    2  C4  UNL     1      48.725  58.399   3.442  1.00  0.00     0.150 A 
HETATM    3  C8  UNL     1      47.931  58.851   2.437  1.00  0.00     0.214 A 
HETATM    4  C9  UNL     1      47.072  59.963   2.553  1.00  0.00     0.286 A 
HETATM    5  O4  UNL     1      46.359  60.345   1.596  1.00  0.00    -0.265 OA
HETATM    6  N4  UNL     1      47.035  60.600   3.706  1.00  0.00    -0.273 N 
ATOM      7  H4  UNL     1      46.423  61.408   3.824  1.00  0.00     0.173 HD
HETATM    8  C10 UNL     1      47.804  60.183   4.726  1.00  0.00     0.331 A 
HETATM    9  O5  UNL     1      47.681  60.863   5.775  1.00  0.00    -0.246 OA
ENDROOT
BRANCH   1  10
HETATM   10  C3  UNL     1      49.406  58.808   5.764  1.00  0.00     0.164 C 
BRANCH  10  11
HETATM   11  C2  UNL     1      50.680  59.545   5.987  1.00  0.00     0.135 C 
HETATM   12  C1  UNL     1      50.815  60.846   5.216  1.00  0.00     0.037 C 
HETATM   13  C11 UNL     1      51.060  59.837   7.367  1.00  0.00     0.245 C 
HETATM   14  O6  UNL     1      50.791  60.965   7.908  1.00  0.00    -0.272 OA
HETATM   15  N5  UNL     1      51.754  58.917   8.235  1.00  0.00    -0.278 N 
HETATM   16  C12 UNL     1      52.448  57.853   7.619  1.00  0.00     0.329 C 
ATOM     17  H5  UNL     1      51.743  59.031   9.248  1.00  0.00     0.173 HD
HETATM   18  O7  UNL     1      53.072  57.015   8.315  1.00  0.00    -0.247 OA
HETATM   19  N6  UNL     1      52.434  57.741   6.204  1.00  0.00    -0.278 N 
HETATM   20  C13 UNL     1      51.750  58.660   5.408  1.00  0.00     0.245 C 
ATOM     21  H6  UNL     1      52.935  56.972   5.760  1.00  0.00     0.173 HD
HETATM   22  O8  UNL     1      52.008  58.768   4.198  1.00  0.00    -0.272 OA
ENDBRANCH  10  11
ENDBRANCH   1  10
BRANCH   2  23
HETATM   23  N2  UNL     1      49.519  57.258   3.357  1.00  0.00    -0.353 N 
ATOM     24  H2  UNL     1      50.480  57.484   3.098  1.00  0.00     0.166 HD
BRANCH  23  25
HETATM   25  C5  UNL     1      49.343  55.881   3.534  1.00  0.00     0.065 C 
BRANCH  25  26
HETATM   26  C6  UNL     1      48.348  55.452   4.593  1.00  0.00     0.070 C 
BRANCH  26  27
HETATM   27  C7  UNL     1      48.410  53.934   4.621  1.00  0.00     0.169 C 
BRANCH  27  28
HETATM   28  O1  UNL     1      49.157  53.474   3.512  1.00  0.00    -0.401 OA
ATOM     29  H1  UNL     1      50.067  53.372   3.766  1.00  0.00     0.209 HD
ENDBRANCH  27  28
ENDBRANCH  26  27
ENDBRANCH  25  26
ENDBRANCH  23  25
ENDBRANCH   2  23
BRANCH   3  30
HETATM   30  N3  UNL     1      47.818  58.231   1.178  1.00  0.00    -0.106 N 
HETATM   31  O2  UNL     1      47.074  57.257   1.033  1.00  0.00    -0.531 OA
HETATM   32  O3  UNL     1      48.472  58.744   0.102  1.00  0.00    -0.531 OA
ENDBRANCH   3  30
TORSDOF 8
ENDMDL
MODEL 5
REMARK VINA RESULT: -5.725914528     11.499     14.783
REMARK  8 active torsions:
REMARK  status: ('A' for Active; 'I' for Inactive)
REMARK    1  A    between atoms: C2_2  and  C3_3 
REMARK    2  A    between atoms: C3_3  and  N1_4 
REMARK    3  A    between atoms: C4_5  and  N2_6 
REMARK    4  A    between atoms: N2_6  and  C5_8 
REMARK    5  A    between atoms: C5_8  and  C6_9 
REMARK    6  A    between atoms: C6_9  and  C7_10 
REMARK    7  A    between atoms: C7_10  and  O1_11 
REMARK    8  A    between atoms: C8_13  and  N3_14 
ROOT
HETATM    1  N1  UNL     1      47.105  46.645   9.892  1.00  0.00    -0.281 N 
HETATM    2  C4  UNL     1      47.251  46.217  11.199  1.00  0.00     0.150 A 
HETATM    3  C8  UNL     1      47.964  45.069  11.337  1.00  0.00     0.214 A 
HETATM    4  C9  UNL     1      48.520  44.354  10.256  1.00  0.00     0.286 A 
HETATM    5  O4  UNL     1      49.174  43.299  10.433  1.00  0.00    -0.265 OA
HETATM    6  N4  UNL     1      48.336  44.826   9.039  1.00  0.00    -0.273 N 
ATOM      7  H4  UNL     1      48.724  44.333   8.235  1.00  0.00     0.173 HD
HETATM    8  C10 UNL     1      47.635  45.958   8.861  1.00  0.00     0.331 A 
HETATM    9  O5  UNL     1      47.521  46.308   7.660  1.00  0.00    -0.246 OA
ENDROOT
BRANCH   1  10
HETATM   10  C3  UNL     1      46.412  47.841   9.562  1.00  0.00     0.164 C 
BRANCH  10  11
HETATM   11  C2  UNL     1      44.929  47.794   9.428  1.00  0.00     0.135 C 
HETATM   12  C1  UNL     1      44.332  46.399   9.383  1.00  0.00     0.037 C 
HETATM   13  C11 UNL     1      44.139  48.556  10.390  1.00  0.00     0.245 C 
HETATM   14  O6  UNL     1      43.651  48.006  11.437  1.00  0.00    -0.272 OA
HETATM   15  N5  UNL     1      43.835  49.961  10.267  1.00  0.00    -0.278 N 
HETATM   16  C12 UNL     1      43.958  50.534   8.983  1.00  0.00     0.329 C 
ATOM     17  H5  UNL     1      43.544  50.515  11.073  1.00  0.00     0.173 HD
HETATM   18  O7  UNL     1      43.710  51.752   8.804  1.00  0.00    -0.247 OA
HETATM   19  N6  UNL     1      44.364  49.718   7.894  1.00  0.00    -0.278 N 
HETATM   20  C13 UNL     1      44.643  48.362   8.065  1.00  0.00     0.245 C 
ATOM     21  H6  UNL     1      44.453  50.133   6.966  1.00  0.00     0.173 HD
HETATM   22  O8  UNL     1      44.662  47.590   7.092  1.00  0.00    -0.272 OA
ENDBRANCH  10  11
ENDBRANCH   1  10
BRANCH   2  23
HETATM   23  N2  UNL     1      46.637  46.886  12.254  1.00  0.00    -0.353 N 
ATOM     24  H2  UNL     1      45.694  46.535  12.426  1.00  0.00     0.166 HD
BRANCH  23  25
HETATM   25  C5  UNL     1      46.974  47.914  13.141  1.00  0.00     0.065 C 
BRANCH  25  26
HETATM   26  C6  UNL     1      46.730  47.653  14.613  1.00  0.00     0.070 C 
BRANCH  26  27
HETATM   27  C7  UNL     1      45.349  48.217  14.904  1.00  0.00     0.169 C 
BRANCH  27  28
HETATM   28  O1  UNL     1      44.372  47.418  14.266  1.00  0.00    -0.401 OA
ATOM     29  H1  UNL     1      43.666  47.972  13.956  1.00  0.00     0.209 HD
ENDBRANCH  27  28
ENDBRANCH  26  27
ENDBRANCH  25  26
ENDBRANCH  23  25
ENDBRANCH   2  23
BRANCH   3  30
HETATM   30  N3  UNL     1      48.182  44.415  12.564  1.00  0.00    -0.106 N 
HETATM   31  O2  UNL     1      48.798  44.987  13.469  1.00  0.00    -0.531 OA
HETATM   32  O3  UNL     1      47.656  43.181  12.786  1.00  0.00    -0.531 OA
ENDBRANCH   3  30
TORSDOF 8
ENDMDL
