MODEL 1
REMARK VINA RESULT: -6.782721481      0.000      0.000
REMARK  10 active torsions:
REMARK  status: ('A' for Active; 'I' for Inactive)
REMARK    1  A    between atoms: C3_3  and  N1_4 
REMARK    2  A    between atoms: N1_4  and  C4_6 
REMARK    3  A    between atoms: N2_9  and  C6_10 
REMARK    4  A    between atoms: C6_10  and  C7_11 
REMARK    5  A    between atoms: C7_11  and  N3_12 
REMARK    6  A    between atoms: N3_12  and  C10_15 
REMARK    7  A    between atoms: N4_20  and  C16_22 
REMARK    8  A    between atoms: C16_22  and  C17_23 
REMARK    9  A    between atoms: C18_24  and  C19_25 
REMARK   10  A    between atoms: C20_26  and  C21_27 
ROOT
HETATM    1  C1  UNL     1      14.916 -12.307  14.786  1.00  0.00     0.113 C 
HETATM    2  C2  UNL     1      15.677 -12.245  16.041  1.00  0.00    -0.088 C 
HETATM    3  C3  UNL     1      16.320 -12.189  17.073  1.00  0.00     0.007 C 
ENDROOT
BRANCH   3   4
HETATM    4  N1  UNL     1      17.080 -12.101  18.258  1.00  0.00    -0.314 N 
ATOM      5  H1  UNL     1      17.791 -11.372  18.318  1.00  0.00     0.172 HD
BRANCH   4   6
HETATM    6  C4  UNL     1      16.913 -12.974  19.386  1.00  0.00     0.389 C 
HETATM    7  C5  UNL     1      18.238 -13.352  19.945  1.00  0.00     0.271 C 
HETATM    8  O1  UNL     1      19.188 -12.655  19.516  1.00  0.00    -0.269 OA
HETATM    9  N2  UNL     1      18.585 -14.366  20.875  1.00  0.00    -0.347 N 
HETATM   10  C12 UNL     1      17.663 -15.227  21.586  1.00  0.00     0.127 C 
HETATM   11  C13 UNL     1      16.225 -14.777  21.376  1.00  0.00     0.048 C 
HETATM   12  C14 UNL     1      16.036 -13.326  21.590  1.00  0.00     0.243 C 
HETATM   13  N4  UNL     1      16.007 -12.502  20.398  1.00  0.00    -0.031 N 
HETATM   14  C15 UNL     1      16.465 -11.195  20.836  1.00  0.00     0.276 C 
BRANCH   9  15
HETATM   15  C6  UNL     1      19.974 -14.612  21.184  1.00  0.00     0.154 C 
BRANCH  15  16
HETATM   16  C7  UNL     1      20.450 -13.614  22.232  1.00  0.00     0.256 C 
BRANCH  16  17
HETATM   17  N3  UNL     1      20.825 -14.251  23.458  1.00  0.00    -0.073 N 
HETATM   18  C8  UNL     1      22.148 -13.818  23.811  1.00  0.00     0.272 C 
HETATM   19  C9  UNL     1      20.782 -15.706  23.340  1.00  0.00     0.272 C 
BRANCH  17  20
HETATM   20  C10 UNL     1      19.846 -13.890  24.471  1.00  0.00     0.232 C 
HETATM   21  C11 UNL     1      20.490 -13.131  25.605  1.00  0.00     0.034 C 
ENDBRANCH  17  20
ENDBRANCH  16  17
ENDBRANCH  15  16
ENDBRANCH   9  15
BRANCH  13  22
HETATM   22  C16 UNL     1      14.659 -12.308  19.923  1.00  0.00     0.334 C 
BRANCH  22  23
HETATM   23  C17 UNL     1      13.849 -11.553  20.863  1.00  0.00    -0.064 C 
HETATM   24  C18 UNL     1      13.190 -10.924  21.662  1.00  0.00    -0.013 C 
BRANCH  24  25
HETATM   25  C19 UNL     1      12.437 -10.179  22.609  1.00  0.00    -0.015 C 
HETATM   26  C20 UNL     1      11.813  -9.533  23.420  1.00  0.00    -0.093 C 
BRANCH  26  27
HETATM   27  C21 UNL     1      11.079  -8.749  24.417  1.00  0.00     0.090 C 
HETATM   28  C22 UNL     1      11.782  -7.477  24.790  1.00  0.00     0.018 C 
ENDBRANCH  26  27
ENDBRANCH  24  25
ENDBRANCH  22  23
ENDBRANCH  13  22
ENDBRANCH   4   6
ENDBRANCH   3   4
TORSDOF 10
ENDMDL
MODEL 2
REMARK VINA RESULT: -6.413121999      0.771      1.089
REMARK  10 active torsions:
REMARK  status: ('A' for Active; 'I' for Inactive)
REMARK    1  A    between atoms: C3_3  and  N1_4 
REMARK    2  A    between atoms: N1_4  and  C4_6 
REMARK    3  A    between atoms: N2_9  and  C6_10 
REMARK    4  A    between atoms: C6_10  and  C7_11 
REMARK    5  A    between atoms: C7_11  and  N3_12 
REMARK    6  A    between atoms: N3_12  and  C10_15 
REMARK    7  A    between atoms: N4_20  and  C16_22 
REMARK    8  A    between atoms: C16_22  and  C17_23 
REMARK    9  A    between atoms: C18_24  and  C19_25 
REMARK   10  A    between atoms: C20_26  and  C21_27 
ROOT
HETATM    1  C1  UNL     1      15.381 -11.462  15.326  1.00  0.00     0.113 C 
HETATM    2  C2  UNL     1      16.086 -11.748  16.582  1.00  0.00    -0.088 C 
HETATM    3  C3  UNL     1      16.683 -11.989  17.616  1.00  0.00     0.007 C 
ENDROOT
BRANCH   3   4
HETATM    4  N1  UNL     1      17.398 -12.259  18.801  1.00  0.00    -0.314 N 
ATOM      5  H1  UNL     1      18.191 -11.658  19.029  1.00  0.00     0.172 HD
BRANCH   4   6
HETATM    6  C4  UNL     1      17.080 -13.327  19.707  1.00  0.00     0.389 C 
HETATM    7  C5  UNL     1      18.321 -13.861  20.329  1.00  0.00     0.271 C 
HETATM    8  O1  UNL     1      19.328 -13.134  20.159  1.00  0.00    -0.269 OA
HETATM    9  N2  UNL     1      18.534 -15.051  21.073  1.00  0.00    -0.347 N 
HETATM   10  C12 UNL     1      17.517 -15.994  21.489  1.00  0.00     0.127 C 
HETATM   11  C13 UNL     1      16.124 -15.452  21.206  1.00  0.00     0.048 C 
HETATM   12  C14 UNL     1      15.936 -14.064  21.681  1.00  0.00     0.243 C 
HETATM   13  N4  UNL     1      16.067 -13.023  20.680  1.00  0.00    -0.031 N 
HETATM   14  C15 UNL     1      16.492 -11.847  21.419  1.00  0.00     0.276 C 
BRANCH   9  15
HETATM   15  C6  UNL     1      19.870 -15.409  21.486  1.00  0.00     0.154 C 
BRANCH  15  16
HETATM   16  C7  UNL     1      19.885 -15.694  22.982  1.00  0.00     0.256 C 
BRANCH  16  17
HETATM   17  N3  UNL     1      20.294 -14.557  23.749  1.00  0.00    -0.073 N 
HETATM   18  C8  UNL     1      19.127 -13.792  24.089  1.00  0.00     0.272 C 
HETATM   19  C9  UNL     1      21.246 -13.730  23.012  1.00  0.00     0.272 C 
BRANCH  17  20
HETATM   20  C10 UNL     1      20.993 -15.037  24.930  1.00  0.00     0.232 C 
HETATM   21  C11 UNL     1      21.346 -13.898  25.855  1.00  0.00     0.034 C 
ENDBRANCH  17  20
ENDBRANCH  16  17
ENDBRANCH  15  16
ENDBRANCH   9  15
BRANCH  13  22
HETATM   22  C16 UNL     1      14.791 -12.685  20.100  1.00  0.00     0.334 C 
BRANCH  22  23
HETATM   23  C17 UNL     1      13.994 -11.844  20.977  1.00  0.00    -0.064 C 
HETATM   24  C18 UNL     1      13.340 -11.152  21.726  1.00  0.00    -0.013 C 
BRANCH  24  25
HETATM   25  C19 UNL     1      12.589 -10.345  22.623  1.00  0.00    -0.015 C 
HETATM   26  C20 UNL     1      11.933  -9.657  23.372  1.00  0.00    -0.093 C 
BRANCH  26  27
HETATM   27  C21 UNL     1      11.130  -8.810  24.259  1.00  0.00     0.090 C 
HETATM   28  C22 UNL     1      11.872  -7.593  24.731  1.00  0.00     0.018 C 
ENDBRANCH  26  27
ENDBRANCH  24  25
ENDBRANCH  22  23
ENDBRANCH  13  22
ENDBRANCH   4   6
ENDBRANCH   3   4
TORSDOF 10
ENDMDL
MODEL 3
REMARK VINA RESULT: -6.006300641      2.681      4.220
REMARK  10 active torsions:
REMARK  status: ('A' for Active; 'I' for Inactive)
REMARK    1  A    between atoms: C3_3  and  N1_4 
REMARK    2  A    between atoms: N1_4  and  C4_6 
REMARK    3  A    between atoms: N2_9  and  C6_10 
REMARK    4  A    between atoms: C6_10  and  C7_11 
REMARK    5  A    between atoms: C7_11  and  N3_12 
REMARK    6  A    between atoms: N3_12  and  C10_15 
REMARK    7  A    between atoms: N4_20  and  C16_22 
REMARK    8  A    between atoms: C16_22  and  C17_23 
REMARK    9  A    between atoms: C18_24  and  C19_25 
REMARK   10  A    between atoms: C20_26  and  C21_27 
ROOT
HETATM    1  C1  UNL     1      20.541 -11.879  17.685  1.00  0.00     0.113 C 
HETATM    2  C2  UNL     1      20.167 -12.319  19.035  1.00  0.00    -0.088 C 
HETATM    3  C3  UNL     1      19.843 -12.677  20.153  1.00  0.00     0.007 C 
ENDROOT
BRANCH   3   4
HETATM    4  N1  UNL     1      19.441 -13.099  21.438  1.00  0.00    -0.314 N 
ATOM      5  H1  UNL     1      19.151 -12.385  22.107  1.00  0.00     0.172 HD
BRANCH   4   6
HETATM    6  C4  UNL     1      19.414 -14.470  21.862  1.00  0.00     0.389 C 
HETATM    7  C5  UNL     1      20.405 -14.693  22.949  1.00  0.00     0.271 C 
HETATM    8  O1  UNL     1      20.856 -13.635  23.448  1.00  0.00    -0.269 OA
HETATM    9  N2  UNL     1      20.908 -15.901  23.497  1.00  0.00    -0.347 N 
HETATM   10  C12 UNL     1      20.469 -17.240  23.164  1.00  0.00     0.127 C 
HETATM   11  C13 UNL     1      19.229 -17.204  22.283  1.00  0.00     0.048 C 
HETATM   12  C14 UNL     1      18.179 -16.299  22.799  1.00  0.00     0.243 C 
HETATM   13  N4  UNL     1      18.113 -14.984  22.193  1.00  0.00    -0.031 N 
HETATM   14  C15 UNL     1      17.541 -14.130  23.219  1.00  0.00     0.276 C 
BRANCH   9  15
HETATM   15  C6  UNL     1      21.959 -15.857  24.486  1.00  0.00     0.154 C 
BRANCH  15  16
HETATM   16  C7  UNL     1      21.470 -16.493  25.781  1.00  0.00     0.256 C 
BRANCH  16  17
HETATM   17  N3  UNL     1      22.405 -17.438  26.311  1.00  0.00    -0.073 N 
HETATM   18  C8  UNL     1      22.792 -17.011  27.626  1.00  0.00     0.272 C 
HETATM   19  C9  UNL     1      23.580 -17.565  25.453  1.00  0.00     0.272 C 
BRANCH  17  20
HETATM   20  C10 UNL     1      21.765 -18.744  26.329  1.00  0.00     0.232 C 
HETATM   21  C11 UNL     1      20.304 -18.629  26.686  1.00  0.00     0.034 C 
ENDBRANCH  17  20
ENDBRANCH  16  17
ENDBRANCH  15  16
ENDBRANCH   9  15
BRANCH  13  22
HETATM   22  C16 UNL     1      17.182 -14.956  21.092  1.00  0.00     0.334 C 
BRANCH  22  23
HETATM   23  C17 UNL     1      16.137 -13.966  21.282  1.00  0.00    -0.064 C 
HETATM   24  C18 UNL     1      15.257 -13.144  21.420  1.00  0.00    -0.013 C 
BRANCH  24  25
HETATM   25  C19 UNL     1      14.214 -12.190  21.564  1.00  0.00    -0.015 C 
HETATM   26  C20 UNL     1      13.336 -11.364  21.675  1.00  0.00    -0.093 C 
BRANCH  26  27
HETATM   27  C21 UNL     1      12.292 -10.346  21.812  1.00  0.00     0.090 C 
HETATM   28  C22 UNL     1      11.916 -10.085  23.242  1.00  0.00     0.018 C 
ENDBRANCH  26  27
ENDBRANCH  24  25
ENDBRANCH  22  23
ENDBRANCH  13  22
ENDBRANCH   4   6
ENDBRANCH   3   4
TORSDOF 10
ENDMDL
MODEL 4
REMARK VINA RESULT: -5.967086400      2.733      4.587
REMARK  10 active torsions:
REMARK  status: ('A' for Active; 'I' for Inactive)
REMARK    1  A    between atoms: C3_3  and  N1_4 
REMARK    2  A    between atoms: N1_4  and  C4_6 
REMARK    3  A    between atoms: N2_9  and  C6_10 
REMARK    4  A    between atoms: C6_10  and  C7_11 
REMARK    5  A    between atoms: C7_11  and  N3_12 
REMARK    6  A    between atoms: N3_12  and  C10_15 
REMARK    7  A    between atoms: N4_20  and  C16_22 
REMARK    8  A    between atoms: C16_22  and  C17_23 
REMARK    9  A    between atoms: C18_24  and  C19_25 
REMARK   10  A    between atoms: C20_26  and  C21_27 
ROOT
HETATM    1  C1  UNL     1      20.524 -11.912  17.793  1.00  0.00     0.113 C 
HETATM    2  C2  UNL     1      20.172 -12.415  19.127  1.00  0.00    -0.088 C 
HETATM    3  C3  UNL     1      19.870 -12.821  20.234  1.00  0.00     0.007 C 
ENDROOT
BRANCH   3   4
HETATM    4  N1  UNL     1      19.492 -13.288  21.511  1.00  0.00    -0.314 N 
ATOM      5  H1  UNL     1      19.131 -12.609  22.181  1.00  0.00     0.172 HD
BRANCH   4   6
HETATM    6  C4  UNL     1      19.582 -14.660  21.924  1.00  0.00     0.389 C 
HETATM    7  C5  UNL     1      20.627 -14.815  22.971  1.00  0.00     0.271 C 
HETATM    8  O1  UNL     1      21.019 -13.730  23.461  1.00  0.00    -0.269 OA
HETATM    9  N2  UNL     1      21.237 -15.986  23.489  1.00  0.00    -0.347 N 
HETATM   10  C12 UNL     1      20.885 -17.352  23.162  1.00  0.00     0.127 C 
HETATM   11  C13 UNL     1      19.613 -17.402  22.329  1.00  0.00     0.048 C 
HETATM   12  C14 UNL     1      18.520 -16.579  22.893  1.00  0.00     0.243 C 
HETATM   13  N4  UNL     1      18.335 -15.270  22.301  1.00  0.00    -0.031 N 
HETATM   14  C15 UNL     1      17.742 -14.465  23.355  1.00  0.00     0.276 C 
BRANCH   9  15
HETATM   15  C6  UNL     1      22.320 -15.871  24.438  1.00  0.00     0.154 C 
BRANCH  15  16
HETATM   16  C7  UNL     1      23.075 -17.192  24.516  1.00  0.00     0.256 C 
BRANCH  16  17
HETATM   17  N3  UNL     1      24.439 -17.065  24.100  1.00  0.00    -0.073 N 
HETATM   18  C8  UNL     1      25.286 -17.502  25.173  1.00  0.00     0.272 C 
HETATM   19  C9  UNL     1      24.758 -15.690  23.728  1.00  0.00     0.272 C 
BRANCH  17  20
HETATM   20  C10 UNL     1      24.621 -17.869  22.902  1.00  0.00     0.232 C 
HETATM   21  C11 UNL     1      25.926 -17.541  22.219  1.00  0.00     0.034 C 
ENDBRANCH  17  20
ENDBRANCH  16  17
ENDBRANCH  15  16
ENDBRANCH   9  15
BRANCH  13  22
HETATM   22  C16 UNL     1      17.363 -15.304  21.236  1.00  0.00     0.334 C 
BRANCH  22  23
HETATM   23  C17 UNL     1      16.378 -14.243  21.358  1.00  0.00    -0.064 C 
HETATM   24  C18 UNL     1      15.548 -13.364  21.440  1.00  0.00    -0.013 C 
BRANCH  24  25
HETATM   25  C19 UNL     1      14.562 -12.343  21.518  1.00  0.00    -0.015 C 
HETATM   26  C20 UNL     1      13.735 -11.462  21.573  1.00  0.00    -0.093 C 
BRANCH  26  27
HETATM   27  C21 UNL     1      12.752 -10.377  21.641  1.00  0.00     0.090 C 
HETATM   28  C22 UNL     1      11.975 -10.375  22.926  1.00  0.00     0.018 C 
ENDBRANCH  26  27
ENDBRANCH  24  25
ENDBRANCH  22  23
ENDBRANCH  13  22
ENDBRANCH   4   6
ENDBRANCH   3   4
TORSDOF 10
ENDMDL
MODEL 5
REMARK VINA RESULT: -5.902539782      2.726      4.392
REMARK  10 active torsions:
REMARK  status: ('A' for Active; 'I' for Inactive)
REMARK    1  A    between atoms: C3_3  and  N1_4 
REMARK    2  A    between atoms: N1_4  and  C4_6 
REMARK    3  A    between atoms: N2_9  and  C6_10 
REMARK    4  A    between atoms: C6_10  and  C7_11 
REMARK    5  A    between atoms: C7_11  and  N3_12 
REMARK    6  A    between atoms: N3_12  and  C10_15 
REMARK    7  A    between atoms: N4_20  and  C16_22 
REMARK    8  A    between atoms: C16_22  and  C17_23 
REMARK    9  A    between atoms: C18_24  and  C19_25 
REMARK   10  A    between atoms: C20_26  and  C21_27 
ROOT
HETATM    1  C1  UNL     1      20.532 -11.882  17.847  1.00  0.00     0.113 C 
HETATM    2  C2  UNL     1      20.130 -12.347  19.181  1.00  0.00    -0.088 C 
HETATM    3  C3  UNL     1      19.793 -12.745  20.281  1.00  0.00     0.007 C 
ENDROOT
BRANCH   3   4
HETATM    4  N1  UNL     1      19.413 -13.234  21.549  1.00  0.00    -0.314 N 
ATOM      5  H1  UNL     1      19.048 -12.567  22.229  1.00  0.00     0.172 HD
BRANCH   4   6
HETATM    6  C4  UNL     1      19.506 -14.612  21.940  1.00  0.00     0.389 C 
HETATM    7  C5  UNL     1      20.542 -14.779  22.994  1.00  0.00     0.271 C 
HETATM    8  O1  UNL     1      20.924 -13.701  23.506  1.00  0.00    -0.269 OA
HETATM    9  N2  UNL     1      21.154 -15.957  23.498  1.00  0.00    -0.347 N 
HETATM   10  C12 UNL     1      20.811 -17.318  23.145  1.00  0.00     0.127 C 
HETATM   11  C13 UNL     1      19.547 -17.360  22.300  1.00  0.00     0.048 C 
HETATM   12  C14 UNL     1      18.445 -16.552  22.867  1.00  0.00     0.243 C 
HETATM   13  N4  UNL     1      18.259 -15.234  22.295  1.00  0.00    -0.031 N 
HETATM   14  C15 UNL     1      17.653 -14.450  23.357  1.00  0.00     0.276 C 
BRANCH   9  15
HETATM   15  C6  UNL     1      22.227 -15.852  24.458  1.00  0.00     0.154 C 
BRANCH  15  16
HETATM   16  C7  UNL     1      21.694 -16.143  25.855  1.00  0.00     0.256 C 
BRANCH  16  17
HETATM   17  N3  UNL     1      22.402 -17.209  26.497  1.00  0.00    -0.073 N 
HETATM   18  C8  UNL     1      23.538 -17.554  25.690  1.00  0.00     0.272 C 
HETATM   19  C9  UNL     1      21.547 -18.376  26.695  1.00  0.00     0.272 C 
BRANCH  17  20
HETATM   20  C10 UNL     1      22.794 -16.755  27.822  1.00  0.00     0.232 C 
HETATM   21  C11 UNL     1      23.197 -17.916  28.698  1.00  0.00     0.034 C 
ENDBRANCH  17  20
ENDBRANCH  16  17
ENDBRANCH  15  16
ENDBRANCH   9  15
BRANCH  13  22
HETATM   22  C16 UNL     1      17.297 -15.255  21.221  1.00  0.00     0.334 C 
BRANCH  22  23
HETATM   23  C17 UNL     1      16.348 -14.159  21.313  1.00  0.00    -0.064 C 
HETATM   24  C18 UNL     1      15.545 -13.253  21.372  1.00  0.00    -0.013 C 
BRANCH  24  25
HETATM   25  C19 UNL     1      14.587 -12.205  21.429  1.00  0.00    -0.015 C 
HETATM   26  C20 UNL     1      13.770 -11.313  21.457  1.00  0.00    -0.093 C 
BRANCH  26  27
HETATM   27  C21 UNL     1      12.789 -10.224  21.469  1.00  0.00     0.090 C 
HETATM   28  C22 UNL     1      11.919 -10.237  22.692  1.00  0.00     0.018 C 
ENDBRANCH  26  27
ENDBRANCH  24  25
ENDBRANCH  22  23
ENDBRANCH  13  22
ENDBRANCH   4   6
ENDBRANCH   3   4
TORSDOF 10
ENDMDL
