MODEL 1
REMARK VINA RESULT: -6.739772167      0.000      0.000
REMARK  8 active torsions:
REMARK  status: ('A' for Active; 'I' for Inactive)
REMARK    1  A    between atoms: C3_3  and  C4_4 
REMARK    2  A    between atoms: C4_4  and  N1_5 
REMARK    3  A    between atoms: N2_8  and  C7_9 
REMARK    4  A    between atoms: C7_9  and  C8_10 
REMARK    5  A    between atoms: C8_10  and  C9_11 
REMARK    6  A    between atoms: C9_11  and  N3_12 
REMARK    7  A    between atoms: N3_12  and  C10_13 
REMARK    8  A    between atoms: C10_13  and  C11_14 
ROOT
HETATM    1  C1  UNL     1      11.712  -9.315  23.371  1.00  0.00     0.112 C 
HETATM    2  C2  UNL     1      12.520  -9.659  22.178  1.00  0.00    -0.109 C 
HETATM    3  C3  UNL     1      13.171  -9.965  21.201  1.00  0.00    -0.077 C 
ENDROOT
BRANCH   3   4
HETATM    4  C4  UNL     1      13.946 -10.373  20.064  1.00  0.00     0.369 C 
BRANCH   4   5
HETATM    5  N1  UNL     1      14.475 -11.708  20.132  1.00  0.00     0.135 N 
HETATM    6  C5  UNL     1      14.881 -11.844  21.560  1.00  0.00     0.305 C 
HETATM    7  C6  UNL     1      15.548 -13.146  21.809  1.00  0.00     0.270 C 
HETATM    8  N2  UNL     1      16.898 -13.222  21.312  1.00  0.00    -0.044 N 
HETATM    9  C16 UNL     1      17.430 -11.867  21.039  1.00  0.00     0.245 C 
HETATM   10  C20 UNL     1      16.841 -13.848  20.000  1.00  0.00     0.407 C 
HETATM   11  C17 UNL     1      16.887 -11.272  19.795  1.00  0.00     0.099 C 
HETATM   12  C18 UNL     1      15.650 -11.954  19.324  1.00  0.00     0.261 C 
HETATM   13  C19 UNL     1      15.414 -11.504  17.901  1.00  0.00     0.081 C 
HETATM   14  O2  UNL     1      15.817 -13.335  19.250  1.00  0.00    -0.324 OA
BRANCH   8  15
HETATM   15  C7  UNL     1      17.817 -13.824  22.195  1.00  0.00     0.241 C 
BRANCH  15  16
HETATM   16  C8  UNL     1      18.772 -12.911  22.928  1.00  0.00     0.056 C 
BRANCH  16  17
HETATM   17  C9  UNL     1      20.084 -13.616  22.921  1.00  0.00     0.239 C 
BRANCH  17  18
HETATM   18  N3  UNL     1      20.585 -14.116  24.154  1.00  0.00    -0.059 N 
HETATM   19  C12 UNL     1      21.933 -13.712  24.415  1.00  0.00     0.238 C 
HETATM   20  C13 UNL     1      21.772 -12.293  24.991  1.00  0.00     0.029 C 
HETATM   21  C14 UNL     1      20.679 -12.604  26.012  1.00  0.00     0.029 C 
HETATM   22  C15 UNL     1      19.751 -13.439  25.190  1.00  0.00     0.238 C 
BRANCH  18  23
HETATM   23  C10 UNL     1      20.340 -15.517  24.372  1.00  0.00     0.336 C 
BRANCH  23  24
HETATM   24  C11 UNL     1      20.519 -16.395  23.206  1.00  0.00     0.257 C 
HETATM   25  N4  UNL     1      21.804 -16.706  22.673  1.00  0.00    -0.061 NA
HETATM   26  O1  UNL     1      19.548 -16.945  22.579  1.00  0.00    -0.275 OA
ENDBRANCH  23  24
ENDBRANCH  18  23
ENDBRANCH  17  18
ENDBRANCH  16  17
ENDBRANCH  15  16
ENDBRANCH   8  15
ENDBRANCH   4   5
ENDBRANCH   3   4
TORSDOF 8
ENDMDL
MODEL 2
REMARK VINA RESULT: -6.453069588      2.059      8.146
REMARK  8 active torsions:
REMARK  status: ('A' for Active; 'I' for Inactive)
REMARK    1  A    between atoms: C3_3  and  C4_4 
REMARK    2  A    between atoms: C4_4  and  N1_5 
REMARK    3  A    between atoms: N2_8  and  C7_9 
REMARK    4  A    between atoms: C7_9  and  C8_10 
REMARK    5  A    between atoms: C8_10  and  C9_11 
REMARK    6  A    between atoms: C9_11  and  N3_12 
REMARK    7  A    between atoms: N3_12  and  C10_13 
REMARK    8  A    between atoms: C10_13  and  C11_14 
ROOT
HETATM    1  C1  UNL     1      24.412 -18.111  24.275  1.00  0.00     0.112 C 
HETATM    2  C2  UNL     1      23.665 -16.833  24.315  1.00  0.00    -0.109 C 
HETATM    3  C3  UNL     1      23.048 -15.791  24.372  1.00  0.00    -0.077 C 
ENDROOT
BRANCH   3   4
HETATM    4  C4  UNL     1      22.282 -14.580  24.469  1.00  0.00     0.369 C 
BRANCH   4   5
HETATM    5  N1  UNL     1      20.867 -14.764  24.639  1.00  0.00     0.135 N 
HETATM    6  C5  UNL     1      20.433 -15.326  23.328  1.00  0.00     0.305 C 
HETATM    7  C6  UNL     1      18.960 -15.499  23.275  1.00  0.00     0.270 C 
HETATM    8  N2  UNL     1      18.228 -14.270  23.106  1.00  0.00    -0.044 N 
HETATM    9  C16 UNL     1      19.122 -13.193  22.622  1.00  0.00     0.245 C 
HETATM   10  C20 UNL     1      17.823 -13.822  24.429  1.00  0.00     0.407 C 
HETATM   11  C17 UNL     1      20.003 -12.651  23.684  1.00  0.00     0.099 C 
HETATM   12  C18 UNL     1      20.104 -13.555  24.863  1.00  0.00     0.261 C 
HETATM   13  C19 UNL     1      20.715 -12.748  25.985  1.00  0.00     0.081 C 
HETATM   14  O2  UNL     1      18.849 -13.940  25.329  1.00  0.00    -0.324 OA
BRANCH   8  15
HETATM   15  C7  UNL     1      17.171 -14.338  22.176  1.00  0.00     0.241 C 
BRANCH  15  16
HETATM   16  C8  UNL     1      16.244 -13.147  22.094  1.00  0.00     0.056 C 
BRANCH  16  17
HETATM   17  C9  UNL     1      15.688 -13.169  20.713  1.00  0.00     0.239 C 
BRANCH  17  18
HETATM   18  N3  UNL     1      15.611 -11.941  19.999  1.00  0.00    -0.059 N 
HETATM   19  C12 UNL     1      16.632 -11.011  20.375  1.00  0.00     0.238 C 
HETATM   20  C13 UNL     1      17.851 -11.474  19.556  1.00  0.00     0.029 C 
HETATM   21  C14 UNL     1      17.157 -11.600  18.201  1.00  0.00     0.029 C 
HETATM   22  C15 UNL     1      15.906 -12.319  18.587  1.00  0.00     0.238 C 
BRANCH  18  23
HETATM   23  C10 UNL     1      14.291 -11.370  19.938  1.00  0.00     0.336 C 
BRANCH  23  24
HETATM   24  C11 UNL     1      13.958 -10.392  20.983  1.00  0.00     0.257 C 
HETATM   25  N4  UNL     1      14.000  -8.985  20.755  1.00  0.00    -0.061 NA
HETATM   26  O1  UNL     1      13.611 -10.717  22.172  1.00  0.00    -0.275 OA
ENDBRANCH  23  24
ENDBRANCH  18  23
ENDBRANCH  17  18
ENDBRANCH  16  17
ENDBRANCH  15  16
ENDBRANCH   8  15
ENDBRANCH   4   5
ENDBRANCH   3   4
TORSDOF 8
ENDMDL
MODEL 3
REMARK VINA RESULT: -6.279022393      1.568      2.194
REMARK  8 active torsions:
REMARK  status: ('A' for Active; 'I' for Inactive)
REMARK    1  A    between atoms: C3_3  and  C4_4 
REMARK    2  A    between atoms: C4_4  and  N1_5 
REMARK    3  A    between atoms: N2_8  and  C7_9 
REMARK    4  A    between atoms: C7_9  and  C8_10 
REMARK    5  A    between atoms: C8_10  and  C9_11 
REMARK    6  A    between atoms: C9_11  and  N3_12 
REMARK    7  A    between atoms: N3_12  and  C10_13 
REMARK    8  A    between atoms: C10_13  and  C11_14 
ROOT
HETATM    1  C1  UNL     1      11.520  -9.287  23.648  1.00  0.00     0.112 C 
HETATM    2  C2  UNL     1      12.526  -9.615  22.610  1.00  0.00    -0.109 C 
HETATM    3  C3  UNL     1      13.363  -9.864  21.770  1.00  0.00    -0.077 C 
ENDROOT
BRANCH   3   4
HETATM    4  C4  UNL     1      14.363 -10.109  20.769  1.00  0.00     0.369 C 
BRANCH   4   5
HETATM    5  N1  UNL     1      14.754 -11.484  20.620  1.00  0.00     0.135 N 
HETATM    6  C5  UNL     1      15.581 -11.740  21.833  1.00  0.00     0.305 C 
HETATM    7  C6  UNL     1      16.163 -13.105  21.812  1.00  0.00     0.270 C 
HETATM    8  N2  UNL     1      17.269 -13.261  20.902  1.00  0.00    -0.044 N 
HETATM    9  C16 UNL     1      17.814 -11.939  20.513  1.00  0.00     0.245 C 
HETATM   10  C20 UNL     1      16.734 -13.798  19.660  1.00  0.00     0.407 C 
HETATM   11  C17 UNL     1      16.961 -11.227  19.532  1.00  0.00     0.099 C 
HETATM   12  C18 UNL     1      15.578 -11.776  19.467  1.00  0.00     0.261 C 
HETATM   13  C19 UNL     1      14.943 -11.223  18.212  1.00  0.00     0.081 C 
HETATM   14  O2  UNL     1      15.579 -13.159  19.299  1.00  0.00    -0.324 OA
BRANCH   8  15
HETATM   15  C7  UNL     1      18.360 -13.988  21.419  1.00  0.00     0.241 C 
BRANCH  15  16
HETATM   16  C8  UNL     1      19.230 -13.296  22.442  1.00  0.00     0.056 C 
BRANCH  16  17
HETATM   17  C9  UNL     1      20.049 -14.374  23.063  1.00  0.00     0.239 C 
BRANCH  17  18
HETATM   18  N3  UNL     1      20.012 -14.517  24.477  1.00  0.00    -0.059 N 
HETATM   19  C12 UNL     1      18.986 -13.732  25.092  1.00  0.00     0.238 C 
HETATM   20  C13 UNL     1      17.724 -14.597  24.915  1.00  0.00     0.029 C 
HETATM   21  C14 UNL     1      18.307 -15.920  25.409  1.00  0.00     0.029 C 
HETATM   22  C15 UNL     1      19.617 -15.940  24.691  1.00  0.00     0.238 C 
BRANCH  18  23
HETATM   23  C10 UNL     1      21.296 -14.412  25.120  1.00  0.00     0.336 C 
BRANCH  23  24
HETATM   24  C11 UNL     1      22.201 -13.380  24.595  1.00  0.00     0.257 C 
HETATM   25  N4  UNL     1      23.289 -13.686  23.726  1.00  0.00    -0.061 NA
HETATM   26  O1  UNL     1      22.090 -12.135  24.873  1.00  0.00    -0.275 OA
ENDBRANCH  23  24
ENDBRANCH  18  23
ENDBRANCH  17  18
ENDBRANCH  16  17
ENDBRANCH  15  16
ENDBRANCH   8  15
ENDBRANCH   4   5
ENDBRANCH   3   4
TORSDOF 8
ENDMDL
MODEL 4
REMARK VINA RESULT: -6.238095500      2.146      7.055
REMARK  8 active torsions:
REMARK  status: ('A' for Active; 'I' for Inactive)
REMARK    1  A    between atoms: C3_3  and  C4_4 
REMARK    2  A    between atoms: C4_4  and  N1_5 
REMARK    3  A    between atoms: N2_8  and  C7_9 
REMARK    4  A    between atoms: C7_9  and  C8_10 
REMARK    5  A    between atoms: C8_10  and  C9_11 
REMARK    6  A    between atoms: C9_11  and  N3_12 
REMARK    7  A    between atoms: N3_12  and  C10_13 
REMARK    8  A    between atoms: C10_13  and  C11_14 
ROOT
HETATM    1  C1  UNL     1      20.815 -12.030  25.619  1.00  0.00     0.112 C 
HETATM    2  C2  UNL     1      20.913 -13.499  25.450  1.00  0.00    -0.109 C 
HETATM    3  C3  UNL     1      20.980 -14.704  25.333  1.00  0.00    -0.077 C 
ENDROOT
BRANCH   3   4
HETATM    4  C4  UNL     1      21.063 -16.134  25.245  1.00  0.00     0.369 C 
BRANCH   4   5
HETATM    5  N1  UNL     1      20.157 -16.743  24.309  1.00  0.00     0.135 N 
HETATM    6  C5  UNL     1      20.061 -15.733  23.217  1.00  0.00     0.305 C 
HETATM    7  C6  UNL     1      19.080 -16.147  22.184  1.00  0.00     0.270 C 
HETATM    8  N2  UNL     1      17.704 -15.995  22.582  1.00  0.00    -0.044 N 
HETATM    9  C16 UNL     1      17.597 -15.094  23.753  1.00  0.00     0.245 C 
HETATM   10  C20 UNL     1      17.256 -17.283  23.089  1.00  0.00     0.407 C 
HETATM   11  C17 UNL     1      18.009 -15.741  25.021  1.00  0.00     0.099 C 
HETATM   12  C18 UNL     1      18.816 -16.973  24.802  1.00  0.00     0.261 C 
HETATM   13  C19 UNL     1      18.858 -17.712  26.120  1.00  0.00     0.081 C 
HETATM   14  O2  UNL     1      18.194 -17.846  23.912  1.00  0.00    -0.324 OA
BRANCH   8  15
HETATM   15  C7  UNL     1      16.862 -15.443  21.595  1.00  0.00     0.241 C 
BRANCH  15  16
HETATM   16  C8  UNL     1      16.641 -13.949  21.632  1.00  0.00     0.056 C 
BRANCH  16  17
HETATM   17  C9  UNL     1      17.190 -13.433  20.347  1.00  0.00     0.239 C 
BRANCH  17  18
HETATM   18  N3  UNL     1      17.197 -12.027  20.135  1.00  0.00    -0.059 N 
HETATM   19  C12 UNL     1      16.743 -11.655  18.830  1.00  0.00     0.238 C 
HETATM   20  C13 UNL     1      15.209 -11.683  18.967  1.00  0.00     0.029 C 
HETATM   21  C14 UNL     1      15.101 -10.872  20.257  1.00  0.00     0.029 C 
HETATM   22  C15 UNL     1      16.170 -11.508  21.084  1.00  0.00     0.238 C 
BRANCH  18  23
HETATM   23  C10 UNL     1      18.411 -11.370  20.543  1.00  0.00     0.336 C 
BRANCH  23  24
HETATM   24  C11 UNL     1      19.666 -12.056  20.200  1.00  0.00     0.257 C 
HETATM   25  N4  UNL     1      20.415 -12.803  21.155  1.00  0.00    -0.061 NA
HETATM   26  O1  UNL     1      20.185 -12.037  19.030  1.00  0.00    -0.275 OA
ENDBRANCH  23  24
ENDBRANCH  18  23
ENDBRANCH  17  18
ENDBRANCH  16  17
ENDBRANCH  15  16
ENDBRANCH   8  15
ENDBRANCH   4   5
ENDBRANCH   3   4
TORSDOF 8
ENDMDL
MODEL 5
REMARK VINA RESULT: -6.227973138      2.055      3.490
REMARK  8 active torsions:
REMARK  status: ('A' for Active; 'I' for Inactive)
REMARK    1  A    between atoms: C3_3  and  C4_4 
REMARK    2  A    between atoms: C4_4  and  N1_5 
REMARK    3  A    between atoms: N2_8  and  C7_9 
REMARK    4  A    between atoms: C7_9  and  C8_10 
REMARK    5  A    between atoms: C8_10  and  C9_11 
REMARK    6  A    between atoms: C9_11  and  N3_12 
REMARK    7  A    between atoms: N3_12  and  C10_13 
REMARK    8  A    between atoms: C10_13  and  C11_14 
ROOT
HETATM    1  C1  UNL     1      16.307 -11.648  14.763  1.00  0.00     0.112 C 
HETATM    2  C2  UNL     1      15.915 -11.622  16.192  1.00  0.00    -0.109 C 
HETATM    3  C3  UNL     1      15.573 -11.613  17.355  1.00  0.00    -0.077 C 
ENDROOT
BRANCH   3   4
HETATM    4  C4  UNL     1      15.120 -11.598  18.717  1.00  0.00     0.369 C 
BRANCH   4   5
HETATM    5  N1  UNL     1      16.148 -11.391  19.700  1.00  0.00     0.135 N 
HETATM    6  C5  UNL     1      17.379 -11.884  19.019  1.00  0.00     0.305 C 
HETATM    7  C6  UNL     1      18.553 -11.839  19.927  1.00  0.00     0.270 C 
HETATM    8  N2  UNL     1      18.567 -12.877  20.925  1.00  0.00    -0.044 N 
HETATM    9  C16 UNL     1      17.636 -13.967  20.556  1.00  0.00     0.245 C 
HETATM   10  C20 UNL     1      17.991 -12.319  22.138  1.00  0.00     0.407 C 
HETATM   11  C17 UNL     1      16.214 -13.616  20.782  1.00  0.00     0.099 C 
HETATM   12  C18 UNL     1      16.000 -12.149  20.924  1.00  0.00     0.261 C 
HETATM   13  C19 UNL     1      14.615 -11.959  21.497  1.00  0.00     0.081 C 
HETATM   14  O2  UNL     1      16.865 -11.590  21.863  1.00  0.00    -0.324 OA
BRANCH   8  15
HETATM   15  C7  UNL     1      19.821 -13.492  21.117  1.00  0.00     0.241 C 
BRANCH  15  16
HETATM   16  C8  UNL     1      20.012 -14.293  22.384  1.00  0.00     0.056 C 
BRANCH  16  17
HETATM   17  C9  UNL     1      21.291 -13.808  22.973  1.00  0.00     0.239 C 
BRANCH  17  18
HETATM   18  N3  UNL     1      21.520 -14.031  24.359  1.00  0.00    -0.059 N 
HETATM   19  C12 UNL     1      22.119 -12.909  25.015  1.00  0.00     0.238 C 
HETATM   20  C13 UNL     1      20.921 -11.986  25.305  1.00  0.00     0.029 C 
HETATM   21  C14 UNL     1      19.992 -13.036  25.914  1.00  0.00     0.029 C 
HETATM   22  C15 UNL     1      20.152 -14.158  24.941  1.00  0.00     0.238 C 
BRANCH  18  23
HETATM   23  C10 UNL     1      22.145 -15.292  24.663  1.00  0.00     0.336 C 
BRANCH  23  24
HETATM   24  C11 UNL     1      23.248 -15.698  23.781  1.00  0.00     0.257 C 
HETATM   25  N4  UNL     1      23.164 -16.834  22.924  1.00  0.00    -0.061 NA
HETATM   26  O1  UNL     1      24.365 -15.073  23.712  1.00  0.00    -0.275 OA
ENDBRANCH  23  24
ENDBRANCH  18  23
ENDBRANCH  17  18
ENDBRANCH  16  17
ENDBRANCH  15  16
ENDBRANCH   8  15
ENDBRANCH   4   5
ENDBRANCH   3   4
TORSDOF 8
ENDMDL
