MODEL 1
REMARK VINA RESULT: -7.479103979      0.000      0.000
REMARK  10 active torsions:
REMARK  status: ('A' for Active; 'I' for Inactive)
REMARK    1  A    between atoms: C4_4  and  C5_5 
REMARK    2  A    between atoms: C5_5  and  C6_6 
REMARK    3  A    between atoms: C6_6  and  N1_7 
REMARK    4  A    between atoms: C7_8  and  C8_9 
REMARK    5  A    between atoms: C8_9  and  C9_10 
REMARK    6  A    between atoms: C10_11  and  N2_12 
REMARK    7  A    between atoms: N2_12  and  N3_14 
REMARK    8  A    between atoms: C13_21  and  C14_22 
REMARK    9  A    between atoms: C14_22  and  C15_23 
REMARK   10  A    between atoms: C15_23  and  O1_24 
ROOT
HETATM    1  C9  UNL     1      14.047 -12.039  21.640  1.00  0.00     0.022 A 
HETATM    2  C10 UNL     1      13.444 -13.269  21.286  1.00  0.00     0.075 A 
HETATM    3  C11 UNL     1      12.087 -13.127  21.348  1.00  0.00     0.120 A 
HETATM    4  N4  UNL     1      11.802 -11.885  21.717  1.00  0.00    -0.363 N 
ATOM      5  H4  UNL     1      10.867 -11.496  21.846  1.00  0.00     0.165 HD
HETATM    6  C12 UNL     1      12.990 -11.214  21.894  1.00  0.00     0.041 A 
HETATM    7  C13 UNL     1      13.039  -9.921  22.210  1.00  0.00     0.006 C 
ENDROOT
BRANCH   1   8
HETATM    8  C8  UNL     1      15.335 -11.864  21.699  1.00  0.00     0.047 C 
BRANCH   8   9
HETATM    9  C7  UNL     1      16.362 -11.765  20.706  1.00  0.00     0.053 A 
HETATM   10  N1  UNL     1      17.719 -11.839  20.926  1.00  0.00    -0.326 N 
HETATM   11  C18 UNL     1      18.284 -11.613  19.737  1.00  0.00     0.158 A 
HETATM   12  N5  UNL     1      17.351 -11.400  18.764  1.00  0.00    -0.339 N 
HETATM   13 BR1  UNL     1      20.130 -11.491  19.319  1.00  0.00    -0.010 Br
HETATM   14  C16 UNL     1      16.171 -11.497  19.374  1.00  0.00     0.122 A 
HETATM   15  C17 UNL     1      17.585 -11.125  17.351  1.00  0.00     0.158 C 
BRANCH  10  16
HETATM   16  C6  UNL     1      18.276 -12.065  22.237  1.00  0.00     0.136 C 
BRANCH  16  17
HETATM   17  C5  UNL     1      19.143 -13.220  22.449  1.00  0.00     0.060 C 
BRANCH  17  18
HETATM   18  C4  UNL     1      20.287 -12.981  23.339  1.00  0.00    -0.046 A 
HETATM   19  C2  UNL     1      20.868 -12.576  24.641  1.00  0.00    -0.039 A 
HETATM   20  C1  UNL     1      20.595 -12.149  25.864  1.00  0.00     0.024 C 
HETATM   21  C3  UNL     1      21.647 -12.990  23.547  1.00  0.00     0.019 A 
ENDBRANCH  17  18
ENDBRANCH  16  17
ENDBRANCH  10  16
ENDBRANCH   8   9
ENDBRANCH   1   8
BRANCH   2  22
HETATM   22  N2  UNL     1      14.180 -14.436  20.931  1.00  0.00    -0.305 N 
ATOM     23  H2  UNL     1      14.503 -14.554  19.970  1.00  0.00     0.186 HD
BRANCH  22  24
HETATM   24  N3  UNL     1      14.439 -15.336  21.800  1.00  0.00    -0.345 N 
ATOM     25  H32 UNL     1      13.976 -15.286  22.707  1.00  0.00     0.176 HD
ATOM     26  H31 UNL     1      15.094 -16.090  21.592  1.00  0.00     0.176 HD
ENDBRANCH  22  24
ENDBRANCH   2  22
BRANCH   7  27
HETATM   27  C14 UNL     1      11.766  -9.207  22.456  1.00  0.00     0.055 C 
BRANCH  27  28
HETATM   28  C15 UNL     1      11.347  -9.175  23.899  1.00  0.00     0.168 C 
BRANCH  28  29
HETATM   29  O1  UNL     1      10.577 -10.247  24.285  1.00  0.00    -0.401 OA
ATOM     30  H1  UNL     1       9.971 -10.055  24.991  1.00  0.00     0.209 HD
ENDBRANCH  28  29
ENDBRANCH  27  28
ENDBRANCH   7  27
TORSDOF 10
ENDMDL
MODEL 2
REMARK VINA RESULT: -7.234041983      3.283      5.338
REMARK  10 active torsions:
REMARK  status: ('A' for Active; 'I' for Inactive)
REMARK    1  A    between atoms: C4_4  and  C5_5 
REMARK    2  A    between atoms: C5_5  and  C6_6 
REMARK    3  A    between atoms: C6_6  and  N1_7 
REMARK    4  A    between atoms: C7_8  and  C8_9 
REMARK    5  A    between atoms: C8_9  and  C9_10 
REMARK    6  A    between atoms: C10_11  and  N2_12 
REMARK    7  A    between atoms: N2_12  and  N3_14 
REMARK    8  A    between atoms: C13_21  and  C14_22 
REMARK    9  A    between atoms: C14_22  and  C15_23 
REMARK   10  A    between atoms: C15_23  and  O1_24 
ROOT
HETATM    1  C9  UNL     1      12.557 -12.527  21.322  1.00  0.00     0.022 A 
HETATM    2  C10 UNL     1      11.883 -11.542  22.080  1.00  0.00     0.075 A 
HETATM    3  C11 UNL     1      12.274 -10.307  21.646  1.00  0.00     0.120 A 
HETATM    4  N4  UNL     1      13.151 -10.457  20.660  1.00  0.00    -0.363 N 
ATOM      5  H4  UNL     1      13.613  -9.706  20.147  1.00  0.00     0.165 HD
HETATM    6  C12 UNL     1      13.327 -11.806  20.455  1.00  0.00     0.041 A 
HETATM    7  C13 UNL     1      14.106 -12.285  19.486  1.00  0.00     0.006 C 
ENDROOT
BRANCH   1   8
HETATM    8  C8  UNL     1      12.413 -13.805  21.518  1.00  0.00     0.047 C 
BRANCH   8   9
HETATM    9  C7  UNL     1      12.551 -14.952  20.672  1.00  0.00     0.053 A 
HETATM   10  N1  UNL     1      13.648 -15.780  20.595  1.00  0.00    -0.326 N 
HETATM   11  C18 UNL     1      13.367 -16.654  19.624  1.00  0.00     0.158 A 
HETATM   12  N5  UNL     1      12.137 -16.424  19.077  1.00  0.00    -0.339 N 
HETATM   13 BR1  UNL     1      14.467 -18.035  18.932  1.00  0.00    -0.010 Br
HETATM   14  C16 UNL     1      11.646 -15.373  19.732  1.00  0.00     0.122 A 
HETATM   15  C17 UNL     1      11.488 -17.168  18.003  1.00  0.00     0.158 C 
BRANCH  10  16
HETATM   16  C6  UNL     1      14.817 -15.591  21.418  1.00  0.00     0.136 C 
BRANCH  16  17
HETATM   17  C5  UNL     1      16.068 -15.178  20.790  1.00  0.00     0.060 C 
BRANCH  17  18
HETATM   18  C4  UNL     1      16.725 -14.023  21.418  1.00  0.00    -0.046 A 
HETATM   19  C2  UNL     1      17.885 -13.119  21.600  1.00  0.00    -0.039 A 
HETATM   20  C1  UNL     1      19.128 -12.860  21.224  1.00  0.00     0.024 C 
HETATM   21  C3  UNL     1      16.673 -12.964  22.294  1.00  0.00     0.019 A 
ENDBRANCH  17  18
ENDBRANCH  16  17
ENDBRANCH  10  16
ENDBRANCH   8   9
ENDBRANCH   1   8
BRANCH   2  22
HETATM   22  N2  UNL     1      10.955 -11.842  23.118  1.00  0.00    -0.305 N 
ATOM     23  H2  UNL     1      10.555 -12.778  23.180  1.00  0.00     0.186 HD
BRANCH  22  24
HETATM   24  N3  UNL     1      10.618 -10.953  23.972  1.00  0.00    -0.345 N 
ATOM     25  H32 UNL     1      10.850  -9.979  23.780  1.00  0.00     0.176 HD
ATOM     26  H31 UNL     1      10.128 -11.211  24.829  1.00  0.00     0.176 HD
ENDBRANCH  22  24
ENDBRANCH   2  22
BRANCH   7  27
HETATM   27  C14 UNL     1      14.870 -11.324  18.657  1.00  0.00     0.055 C 
BRANCH  27  28
HETATM   28  C15 UNL     1      16.269 -11.068  19.144  1.00  0.00     0.168 C 
BRANCH  28  29
HETATM   29  O1  UNL     1      16.357 -10.100  20.116  1.00  0.00    -0.401 OA
ATOM     30  H1  UNL     1      17.005 -10.282  20.787  1.00  0.00     0.209 HD
ENDBRANCH  28  29
ENDBRANCH  27  28
ENDBRANCH   7  27
TORSDOF 10
ENDMDL
MODEL 3
REMARK VINA RESULT: -7.134888851      3.389      5.317
REMARK  10 active torsions:
REMARK  status: ('A' for Active; 'I' for Inactive)
REMARK    1  A    between atoms: C4_4  and  C5_5 
REMARK    2  A    between atoms: C5_5  and  C6_6 
REMARK    3  A    between atoms: C6_6  and  N1_7 
REMARK    4  A    between atoms: C7_8  and  C8_9 
REMARK    5  A    between atoms: C8_9  and  C9_10 
REMARK    6  A    between atoms: C10_11  and  N2_12 
REMARK    7  A    between atoms: N2_12  and  N3_14 
REMARK    8  A    between atoms: C13_21  and  C14_22 
REMARK    9  A    between atoms: C14_22  and  C15_23 
REMARK   10  A    between atoms: C15_23  and  O1_24 
ROOT
HETATM    1  C9  UNL     1      14.246 -12.995  20.092  1.00  0.00     0.022 A 
HETATM    2  C10 UNL     1      13.449 -12.179  20.927  1.00  0.00     0.075 A 
HETATM    3  C11 UNL     1      13.622 -10.874  20.563  1.00  0.00     0.120 A 
HETATM    4  N4  UNL     1      14.477 -10.821  19.549  1.00  0.00    -0.363 N 
ATOM      5  H4  UNL     1      14.794  -9.976  19.073  1.00  0.00     0.165 HD
HETATM    6  C12 UNL     1      14.861 -12.109  19.254  1.00  0.00     0.041 A 
HETATM    7  C13 UNL     1      15.673 -12.398  18.238  1.00  0.00     0.006 C 
ENDROOT
BRANCH   1   8
HETATM    8  C8  UNL     1      14.317 -14.289  20.211  1.00  0.00     0.047 C 
BRANCH   8   9
HETATM    9  C7  UNL     1      14.865 -15.157  21.209  1.00  0.00     0.053 A 
HETATM   10  N1  UNL     1      16.193 -15.268  21.552  1.00  0.00    -0.326 N 
HETATM   11  C18 UNL     1      16.246 -16.248  22.458  1.00  0.00     0.158 A 
HETATM   12  N5  UNL     1      15.010 -16.769  22.713  1.00  0.00    -0.339 N 
HETATM   13 BR1  UNL     1      17.776 -16.984  23.304  1.00  0.00    -0.010 Br
HETATM   14  C16 UNL     1      14.169 -16.088  21.937  1.00  0.00     0.122 A 
HETATM   15  C17 UNL     1      14.672 -17.845  23.639  1.00  0.00     0.158 C 
BRANCH  10  16
HETATM   16  C6  UNL     1      17.219 -14.462  20.935  1.00  0.00     0.136 C 
BRANCH  16  17
HETATM   17  C5  UNL     1      17.929 -13.477  21.745  1.00  0.00     0.060 C 
BRANCH  17  18
HETATM   18  C4  UNL     1      18.344 -12.266  21.024  1.00  0.00    -0.046 A 
HETATM   19  C2  UNL     1      19.271 -11.528  20.134  1.00  0.00    -0.039 A 
HETATM   20  C1  UNL     1      20.386 -11.606  19.425  1.00  0.00     0.024 C 
HETATM   21  C3  UNL     1      18.113 -10.953  20.686  1.00  0.00     0.019 A 
ENDBRANCH  17  18
ENDBRANCH  16  17
ENDBRANCH  10  16
ENDBRANCH   8   9
ENDBRANCH   1   8
BRANCH   2  22
HETATM   22  N2  UNL     1      12.618 -12.686  21.967  1.00  0.00    -0.305 N 
ATOM     23  H2  UNL     1      12.751 -13.642  22.296  1.00  0.00     0.186 HD
BRANCH  22  24
HETATM   24  N3  UNL     1      11.708 -11.958  22.491  1.00  0.00    -0.345 N 
ATOM     25  H32 UNL     1      11.958 -11.350  23.271  1.00  0.00     0.176 HD
ATOM     26  H31 UNL     1      10.751 -11.982  22.139  1.00  0.00     0.176 HD
ENDBRANCH  22  24
ENDBRANCH   2  22
BRANCH   7  27
HETATM   27  C14 UNL     1      16.243 -11.279  17.454  1.00  0.00     0.055 C 
BRANCH  27  28
HETATM   28  C15 UNL     1      15.500 -10.977  16.182  1.00  0.00     0.168 C 
BRANCH  28  29
HETATM   29  O1  UNL     1      14.425 -10.135  16.346  1.00  0.00    -0.401 OA
ATOM     30  H1  UNL     1      14.643  -9.303  16.751  1.00  0.00     0.209 HD
ENDBRANCH  28  29
ENDBRANCH  27  28
ENDBRANCH   7  27
TORSDOF 10
ENDMDL
MODEL 4
REMARK VINA RESULT: -7.104203179      3.593      5.412
REMARK  10 active torsions:
REMARK  status: ('A' for Active; 'I' for Inactive)
REMARK    1  A    between atoms: C4_4  and  C5_5 
REMARK    2  A    between atoms: C5_5  and  C6_6 
REMARK    3  A    between atoms: C6_6  and  N1_7 
REMARK    4  A    between atoms: C7_8  and  C8_9 
REMARK    5  A    between atoms: C8_9  and  C9_10 
REMARK    6  A    between atoms: C10_11  and  N2_12 
REMARK    7  A    between atoms: N2_12  and  N3_14 
REMARK    8  A    between atoms: C13_21  and  C14_22 
REMARK    9  A    between atoms: C14_22  and  C15_23 
REMARK   10  A    between atoms: C15_23  and  O1_24 
ROOT
HETATM    1  C9  UNL     1      13.345 -11.357  21.011  1.00  0.00     0.022 A 
HETATM    2  C10 UNL     1      12.773 -10.166  21.516  1.00  0.00     0.075 A 
HETATM    3  C11 UNL     1      12.914  -9.179  20.583  1.00  0.00     0.120 A 
HETATM    4  N4  UNL     1      13.538  -9.677  19.523  1.00  0.00    -0.363 N 
ATOM      5  H4  UNL     1      13.779  -9.167  18.672  1.00  0.00     0.165 HD
HETATM    6  C12 UNL     1      13.802 -11.004  19.774  1.00  0.00     0.041 A 
HETATM    7  C13 UNL     1      14.371 -11.802  18.871  1.00  0.00     0.006 C 
ENDROOT
BRANCH   1   8
HETATM    8  C8  UNL     1      13.390 -12.471  21.681  1.00  0.00     0.047 C 
BRANCH   8   9
HETATM    9  C7  UNL     1      13.465 -13.848  21.297  1.00  0.00     0.053 A 
HETATM   10  N1  UNL     1      14.606 -14.614  21.226  1.00  0.00    -0.326 N 
HETATM   11  C18 UNL     1      14.212 -15.797  20.746  1.00  0.00     0.158 A 
HETATM   12  N5  UNL     1      12.868 -15.824  20.509  1.00  0.00    -0.339 N 
HETATM   13 BR1  UNL     1      15.279 -17.307  20.322  1.00  0.00    -0.010 Br
HETATM   14  C16 UNL     1      12.420 -14.618  20.852  1.00  0.00     0.122 A 
HETATM   15  C17 UNL     1      12.079 -16.936  19.989  1.00  0.00     0.158 C 
BRANCH  10  16
HETATM   16  C6  UNL     1      15.906 -14.096  21.578  1.00  0.00     0.136 C 
BRANCH  16  17
HETATM   17  C5  UNL     1      16.893 -13.882  20.525  1.00  0.00     0.060 C 
BRANCH  17  18
HETATM   18  C4  UNL     1      17.572 -12.579  20.568  1.00  0.00    -0.046 A 
HETATM   19  C2  UNL     1      18.743 -11.707  20.315  1.00  0.00    -0.039 A 
HETATM   20  C1  UNL     1      19.980 -11.661  19.846  1.00  0.00     0.024 C 
HETATM   21  C3  UNL     1      17.546 -11.241  20.886  1.00  0.00     0.019 A 
ENDBRANCH  17  18
ENDBRANCH  16  17
ENDBRANCH  10  16
ENDBRANCH   8   9
ENDBRANCH   1   8
BRANCH   2  22
HETATM   22  N2  UNL     1      12.161 -10.067  22.799  1.00  0.00    -0.305 N 
ATOM     23  H2  UNL     1      11.720 -10.889  23.211  1.00  0.00     0.186 HD
BRANCH  22  24
HETATM   24  N3  UNL     1      12.158  -8.961  23.439  1.00  0.00    -0.345 N 
ATOM     25  H32 UNL     1      11.275  -8.618  23.817  1.00  0.00     0.176 HD
ATOM     26  H31 UNL     1      13.020  -8.430  23.570  1.00  0.00     0.176 HD
ENDBRANCH  22  24
ENDBRANCH   2  22
BRANCH   7  27
HETATM   27  C14 UNL     1      14.805 -11.211  17.584  1.00  0.00     0.055 C 
BRANCH  27  28
HETATM   28  C15 UNL     1      16.293 -11.228  17.370  1.00  0.00     0.168 C 
BRANCH  28  29
HETATM   29  O1  UNL     1      16.777 -10.122  16.711  1.00  0.00    -0.401 OA
ATOM     30  H1  UNL     1      16.601  -9.299  17.154  1.00  0.00     0.209 HD
ENDBRANCH  28  29
ENDBRANCH  27  28
ENDBRANCH   7  27
TORSDOF 10
ENDMDL
MODEL 5
REMARK VINA RESULT: -7.056331755      3.744      5.610
REMARK  10 active torsions:
REMARK  status: ('A' for Active; 'I' for Inactive)
REMARK    1  A    between atoms: C4_4  and  C5_5 
REMARK    2  A    between atoms: C5_5  and  C6_6 
REMARK    3  A    between atoms: C6_6  and  N1_7 
REMARK    4  A    between atoms: C7_8  and  C8_9 
REMARK    5  A    between atoms: C8_9  and  C9_10 
REMARK    6  A    between atoms: C10_11  and  N2_12 
REMARK    7  A    between atoms: N2_12  and  N3_14 
REMARK    8  A    between atoms: C13_21  and  C14_22 
REMARK    9  A    between atoms: C14_22  and  C15_23 
REMARK   10  A    between atoms: C15_23  and  O1_24 
ROOT
HETATM    1  C9  UNL     1      15.838 -13.271  21.180  1.00  0.00     0.022 A 
HETATM    2  C10 UNL     1      14.624 -12.583  21.408  1.00  0.00     0.075 A 
HETATM    3  C11 UNL     1      14.862 -11.239  21.352  1.00  0.00     0.120 A 
HETATM    4  N4  UNL     1      16.150 -11.041  21.101  1.00  0.00    -0.363 N 
ATOM      5  H4  UNL     1      16.613 -10.137  21.006  1.00  0.00     0.165 HD
HETATM    6  C12 UNL     1      16.752 -12.274  20.992  1.00  0.00     0.041 A 
HETATM    7  C13 UNL     1      18.040 -12.414  20.682  1.00  0.00     0.006 C 
ENDROOT
BRANCH   1   8
HETATM    8  C8  UNL     1      15.941 -14.568  21.197  1.00  0.00     0.047 C 
BRANCH   8   9
HETATM    9  C7  UNL     1      15.904 -15.544  22.244  1.00  0.00     0.053 A 
HETATM   10  N1  UNL     1      16.869 -15.745  23.205  1.00  0.00    -0.326 N 
HETATM   11  C18 UNL     1      16.455 -16.802  23.909  1.00  0.00     0.158 A 
HETATM   12  N5  UNL     1      15.266 -17.286  23.444  1.00  0.00    -0.339 N 
HETATM   13 BR1  UNL     1      17.337 -17.678  25.341  1.00  0.00    -0.010 Br
HETATM   14  C16 UNL     1      14.938 -16.502  22.418  1.00  0.00     0.122 A 
HETATM   15  C17 UNL     1      14.506 -18.421  23.956  1.00  0.00     0.158 C 
BRANCH  10  16
HETATM   16  C6  UNL     1      18.061 -14.937  23.283  1.00  0.00     0.136 C 
BRANCH  16  17
HETATM   17  C5  UNL     1      18.107 -13.829  24.233  1.00  0.00     0.060 C 
BRANCH  17  18
HETATM   18  C4  UNL     1      19.408 -13.155  24.337  1.00  0.00    -0.046 A 
HETATM   19  C2  UNL     1      20.453 -12.443  25.109  1.00  0.00    -0.039 A 
HETATM   20  C1  UNL     1      20.790 -11.974  26.300  1.00  0.00     0.024 C 
HETATM   21  C3  UNL     1      20.573 -12.733  23.739  1.00  0.00     0.019 A 
ENDBRANCH  17  18
ENDBRANCH  16  17
ENDBRANCH  10  16
ENDBRANCH   8   9
ENDBRANCH   1   8
BRANCH   2  22
HETATM   22  N2  UNL     1      13.381 -13.234  21.653  1.00  0.00    -0.305 N 
ATOM     23  H2  UNL     1      13.215 -14.163  21.266  1.00  0.00     0.186 HD
BRANCH  22  24
HETATM   24  N3  UNL     1      12.472 -12.669  22.350  1.00  0.00    -0.345 N 
ATOM     25  H32 UNL     1      12.641 -11.726  22.701  1.00  0.00     0.176 HD
ATOM     26  H31 UNL     1      11.594 -13.148  22.552  1.00  0.00     0.176 HD
ENDBRANCH  22  24
ENDBRANCH   2  22
BRANCH   7  27
HETATM   27  C14 UNL     1      18.865 -11.194  20.529  1.00  0.00     0.055 C 
BRANCH  27  28
HETATM   28  C15 UNL     1      20.304 -11.462  20.186  1.00  0.00     0.168 C 
BRANCH  28  29
HETATM   29  O1  UNL     1      20.567 -11.468  18.837  1.00  0.00    -0.401 OA
ATOM     30  H1  UNL     1      20.246 -12.238  18.382  1.00  0.00     0.209 HD
ENDBRANCH  28  29
ENDBRANCH  27  28
ENDBRANCH   7  27
TORSDOF 10
ENDMDL
