MODEL 1
REMARK VINA RESULT: -7.892891229      0.000      0.000
REMARK  0 active torsions:
REMARK  status: ('A' for Active; 'I' for Inactive)
ROOT
HETATM    1  C1  UNL     1      -4.575 -17.712  13.398  1.00  0.00     0.090 C 
HETATM    2  C2  UNL     1      -3.601 -18.766  12.991  1.00  0.00     0.094 A 
HETATM    3  N1  UNL     1      -3.870 -20.041  12.669  1.00  0.00    -0.327 N 
ATOM      4  H1  UNL     1      -4.795 -20.470  12.659  1.00  0.00     0.169 HD
HETATM    5  C3  UNL     1      -2.704 -20.664  12.359  1.00  0.00     0.169 A 
HETATM    6  C4  UNL     1      -2.396 -21.952  11.965  1.00  0.00     0.147 A 
HETATM    7  S1  UNL     1      -3.582 -23.070  11.795  1.00  0.00    -0.056 SA
HETATM    8  N2  UNL     1      -1.109 -22.268  11.725  1.00  0.00    -0.344 N 
ATOM      9  H2  UNL     1      -0.867 -23.215  11.434  1.00  0.00     0.167 HD
HETATM   10  C5  UNL     1      -0.132 -21.339  11.868  1.00  0.00     0.060 A 
HETATM   11  C6  UNL     1      -0.476 -20.065  12.262  1.00  0.00     0.149 A 
HETATM   12  N3  UNL     1      -1.760 -19.717  12.510  1.00  0.00    -0.217 N 
HETATM   13  N4  UNL     1      -2.282 -18.577  12.888  1.00  0.00    -0.279 N 
ATOM     14  H4  UNL     1      -1.777 -17.710  13.069  1.00  0.00     0.189 HD
HETATM   15  N5  UNL     1       0.578 -19.124  12.400  1.00  0.00    -0.365 N 
ATOM     16  H5  UNL     1       0.361 -18.139  12.250  1.00  0.00     0.162 HD
HETATM   17  C7  UNL     1       1.932 -19.471  12.736  1.00  0.00     0.025 C 
HETATM   18  C8  UNL     1       2.297 -19.096  14.158  1.00  0.00     0.038 C 
HETATM   19  C9  UNL     1       2.822 -18.618  11.826  1.00  0.00     0.038 C 
HETATM   20  C10 UNL     1       2.224 -20.935  12.564  1.00  0.00     0.040 C 
HETATM   21  C11 UNL     1       1.280 -21.626  11.620  1.00  0.00     0.038 C 
HETATM   22  C12 UNL     1       1.587 -23.096  11.573  1.00  0.00     0.016 C 
ENDROOT
TORSDOF 0
ENDMDL
MODEL 2
REMARK VINA RESULT: -7.453452581      2.261      5.817
REMARK  0 active torsions:
REMARK  status: ('A' for Active; 'I' for Inactive)
ROOT
HETATM    1  C1  UNL     1       1.747 -23.614  11.191  1.00  0.00     0.090 C 
HETATM    2  C2  UNL     1       0.897 -22.444  11.554  1.00  0.00     0.094 A 
HETATM    3  N1  UNL     1       1.304 -21.190  11.807  1.00  0.00    -0.327 N 
ATOM      4  H1  UNL     1       2.269 -20.862  11.784  1.00  0.00     0.169 HD
HETATM    5  C3  UNL     1       0.215 -20.432  12.098  1.00  0.00     0.169 A 
HETATM    6  C4  UNL     1       0.051 -19.101  12.427  1.00  0.00     0.147 A 
HETATM    7  S1  UNL     1       1.351 -18.108  12.526  1.00  0.00    -0.056 SA
HETATM    8  N2  UNL     1      -1.192 -18.638  12.664  1.00  0.00    -0.344 N 
ATOM      9  H2  UNL     1      -1.328 -17.657  12.909  1.00  0.00     0.167 HD
HETATM   10  C5  UNL     1      -2.263 -19.464  12.581  1.00  0.00     0.060 A 
HETATM   11  C6  UNL     1      -2.062 -20.786  12.249  1.00  0.00     0.149 A 
HETATM   12  N3  UNL     1      -0.826 -21.280  12.005  1.00  0.00    -0.217 N 
HETATM   13  N4  UNL     1      -0.434 -22.487  11.682  1.00  0.00    -0.279 N 
ATOM     14  H4  UNL     1      -1.029 -23.304  11.551  1.00  0.00     0.189 HD
HETATM   15  N5  UNL     1      -3.211 -21.616  12.173  1.00  0.00    -0.365 N 
ATOM     16  H5  UNL     1      -3.182 -22.414  11.540  1.00  0.00     0.162 HD
HETATM   17  C7  UNL     1      -4.413 -21.403  12.933  1.00  0.00     0.025 C 
HETATM   18  C8  UNL     1      -4.578 -22.401  14.061  1.00  0.00     0.038 C 
HETATM   19  C9  UNL     1      -5.572 -21.656  11.964  1.00  0.00     0.038 C 
HETATM   20  C10 UNL     1      -4.495 -20.026  13.531  1.00  0.00     0.040 C 
HETATM   21  C11 UNL     1      -3.634 -19.017  12.825  1.00  0.00     0.038 C 
HETATM   22  C12 UNL     1      -3.707 -17.694  13.536  1.00  0.00     0.016 C 
ENDROOT
TORSDOF 0
ENDMDL
MODEL 3
REMARK VINA RESULT: -6.890985706      4.900      7.247
REMARK  0 active torsions:
REMARK  status: ('A' for Active; 'I' for Inactive)
ROOT
HETATM    1  C1  UNL     1      -9.632 -23.071  17.370  1.00  0.00     0.090 C 
HETATM    2  C2  UNL     1      -8.811 -22.000  16.736  1.00  0.00     0.094 A 
HETATM    3  N1  UNL     1      -9.047 -20.679  16.748  1.00  0.00    -0.327 N 
ATOM      4  H1  UNL     1      -9.836 -20.220  17.201  1.00  0.00     0.169 HD
HETATM    5  C3  UNL     1      -8.059 -20.056  16.054  1.00  0.00     0.169 A 
HETATM    6  C4  UNL     1      -7.805 -18.732  15.755  1.00  0.00     0.147 A 
HETATM    7  S1  UNL     1      -8.821 -17.557  16.277  1.00  0.00    -0.056 SA
HETATM    8  N2  UNL     1      -6.712 -18.428  15.028  1.00  0.00    -0.344 N 
ATOM      9  H2  UNL     1      -6.512 -17.454  14.799  1.00  0.00     0.167 HD
HETATM   10  C5  UNL     1      -5.877 -19.404  14.598  1.00  0.00     0.060 A 
HETATM   11  C6  UNL     1      -6.161 -20.714  14.917  1.00  0.00     0.149 A 
HETATM   12  N3  UNL     1      -7.250 -21.051  15.645  1.00  0.00    -0.217 N 
HETATM   13  N4  UNL     1      -7.687 -22.219  16.044  1.00  0.00    -0.279 N 
ATOM     14  H4  UNL     1      -7.253 -23.123  15.863  1.00  0.00     0.189 HD
HETATM   15  N5  UNL     1      -5.259 -21.704  14.446  1.00  0.00    -0.365 N 
ATOM     16  H5  UNL     1      -5.168 -22.563  14.988  1.00  0.00     0.162 HD
HETATM   17  C7  UNL     1      -4.466 -21.574  13.253  1.00  0.00     0.025 C 
HETATM   18  C8  UNL     1      -4.973 -22.437  12.116  1.00  0.00     0.038 C 
HETATM   19  C9  UNL     1      -3.077 -22.112  13.613  1.00  0.00     0.038 C 
HETATM   20  C10 UNL     1      -4.389 -20.160  12.750  1.00  0.00     0.040 C 
HETATM   21  C11 UNL     1      -4.676 -19.133  13.809  1.00  0.00     0.038 C 
HETATM   22  C12 UNL     1      -4.662 -17.757  13.205  1.00  0.00     0.016 C 
ENDROOT
TORSDOF 0
ENDMDL
MODEL 4
REMARK VINA RESULT: -6.742667652      4.509      6.632
REMARK  0 active torsions:
REMARK  status: ('A' for Active; 'I' for Inactive)
ROOT
HETATM    1  C1  UNL     1       3.065 -13.520  13.513  1.00  0.00     0.090 C 
HETATM    2  C2  UNL     1       3.569 -14.814  12.971  1.00  0.00     0.094 A 
HETATM    3  N1  UNL     1       4.657 -15.008  12.209  1.00  0.00    -0.327 N 
ATOM      4  H1  UNL     1       5.298 -14.282  11.891  1.00  0.00     0.169 HD
HETATM    5  C3  UNL     1       4.760 -16.334  11.931  1.00  0.00     0.169 A 
HETATM    6  C4  UNL     1       5.668 -17.079  11.205  1.00  0.00     0.147 A 
HETATM    7  S1  UNL     1       6.936 -16.348  10.467  1.00  0.00    -0.056 SA
HETATM    8  N2  UNL     1       5.491 -18.411  11.115  1.00  0.00    -0.344 N 
ATOM      9  H2  UNL     1       6.154 -18.974  10.581  1.00  0.00     0.167 HD
HETATM   10  C5  UNL     1       4.441 -19.010  11.727  1.00  0.00     0.060 A 
HETATM   11  C6  UNL     1       3.556 -18.236  12.444  1.00  0.00     0.149 A 
HETATM   12  N3  UNL     1       3.707 -16.895  12.552  1.00  0.00    -0.217 N 
HETATM   13  N4  UNL     1       2.985 -15.999  13.177  1.00  0.00    -0.279 N 
ATOM     14  H4  UNL     1       2.139 -16.172  13.719  1.00  0.00     0.189 HD
HETATM   15  N5  UNL     1       2.470 -18.904  13.068  1.00  0.00    -0.365 N 
ATOM     16  H5  UNL     1       2.081 -18.492  13.916  1.00  0.00     0.162 HD
HETATM   17  C7  UNL     1       1.884 -20.124  12.582  1.00  0.00     0.025 C 
HETATM   18  C8  UNL     1       0.527 -19.908  11.945  1.00  0.00     0.038 C 
HETATM   19  C9  UNL     1       1.644 -20.995  13.819  1.00  0.00     0.038 C 
HETATM   20  C10 UNL     1       2.749 -20.831  11.577  1.00  0.00     0.040 C 
HETATM   21  C11 UNL     1       4.200 -20.452  11.665  1.00  0.00     0.038 C 
HETATM   22  C12 UNL     1       4.977 -21.135  10.575  1.00  0.00     0.016 C 
ENDROOT
TORSDOF 0
ENDMDL
MODEL 5
REMARK VINA RESULT: -6.452010672      5.309      7.856
REMARK  0 active torsions:
REMARK  status: ('A' for Active; 'I' for Inactive)
ROOT
HETATM    1  C1  UNL     1       5.547 -21.124  10.467  1.00  0.00     0.090 C 
HETATM    2  C2  UNL     1       5.051 -19.844  11.047  1.00  0.00     0.094 A 
HETATM    3  N1  UNL     1       3.866 -19.624  11.639  1.00  0.00    -0.327 N 
ATOM      4  H1  UNL     1       3.131 -20.317  11.774  1.00  0.00     0.169 HD
HETATM    5  C3  UNL     1       3.811 -18.324  12.027  1.00  0.00     0.169 A 
HETATM    6  C4  UNL     1       2.849 -17.570  12.670  1.00  0.00     0.147 A 
HETATM    7  S1  UNL     1       1.426 -18.251  13.116  1.00  0.00    -0.056 SA
HETATM    8  N2  UNL     1       3.101 -16.270  12.920  1.00  0.00    -0.344 N 
ATOM      9  H2  UNL     1       2.400 -15.701  13.394  1.00  0.00     0.167 HD
HETATM   10  C5  UNL     1       4.279 -15.713  12.548  1.00  0.00     0.060 A 
HETATM   11  C6  UNL     1       5.216 -16.495  11.910  1.00  0.00     0.149 A 
HETATM   12  N3  UNL     1       4.992 -17.803  11.645  1.00  0.00    -0.217 N 
HETATM   13  N4  UNL     1       5.743 -18.700  11.057  1.00  0.00    -0.279 N 
ATOM     14  H4  UNL     1       6.679 -18.554  10.679  1.00  0.00     0.189 HD
HETATM   15  N5  UNL     1       6.435 -15.871  11.538  1.00  0.00    -0.365 N 
ATOM     16  H5  UNL     1       7.272 -16.451  11.487  1.00  0.00     0.162 HD
HETATM   17  C7  UNL     1       6.566 -14.472  11.230  1.00  0.00     0.025 C 
HETATM   18  C8  UNL     1       6.746 -14.214   9.748  1.00  0.00     0.038 C 
HETATM   19  C9  UNL     1       7.862 -14.013  11.906  1.00  0.00     0.038 C 
HETATM   20  C10 UNL     1       5.392 -13.656  11.693  1.00  0.00     0.040 C 
HETATM   21  C11 UNL     1       4.608 -14.309  12.796  1.00  0.00     0.038 C 
HETATM   22  C12 UNL     1       3.409 -13.471  13.138  1.00  0.00     0.016 C 
ENDROOT
TORSDOF 0
ENDMDL
