MODEL 1
REMARK VINA RESULT: -6.775908542      0.000      0.000
REMARK  8 active torsions:
REMARK  status: ('A' for Active; 'I' for Inactive)
REMARK    1  A    between atoms: C2_2  and  N1_3 
REMARK       I    between atoms: N1_3  and  C3_4 
REMARK    2  A    between atoms: N1_3  and  C5_7 
REMARK    3  A    between atoms: C5_7  and  N2_9 
REMARK    4  A    between atoms: N2_9  and  N3_11 
REMARK    5  A    between atoms: N5_17  and  C8_18 
REMARK    6  A    between atoms: C8_18  and  C9_19 
REMARK    7  A    between atoms: C9_19  and  C10_20 
REMARK    8  A    between atoms: C10_20  and  C11_21 
ROOT
HETATM    1  N3  UNL     1      17.986 -13.062  21.428  1.00  0.00    -0.130 N 
ATOM      2  H3  UNL     1      18.563 -12.223  21.469  1.00  0.00     0.205 HD
HETATM    3  C6  UNL     1      16.774 -12.783  21.341  1.00  0.00     0.701 A 
HETATM    4  N4  UNL     1      16.439 -11.454  21.317  1.00  0.00    -0.186 N 
ATOM      5  H4  UNL     1      17.180 -10.755  21.370  1.00  0.00     0.185 HD
HETATM    6  C7  UNL     1      15.174 -11.047  21.227  1.00  0.00     0.202 A 
HETATM    7  N5  UNL     1      14.147 -11.928  21.154  1.00  0.00    -0.332 N 
HETATM    8  C12 UNL     1      14.431 -13.222  21.174  1.00  0.00     0.098 A 
HETATM    9  C13 UNL     1      13.363 -14.245  21.079  1.00  0.00     0.090 C 
HETATM   10  N6  UNL     1      15.728 -13.635  21.267  1.00  0.00    -0.175 N 
HETATM   11  C14 UNL     1      15.995 -15.064  21.293  1.00  0.00     0.177 C 
ENDROOT
BRANCH   1  12
HETATM   12  N2  UNL     1      18.741 -14.191  21.481  1.00  0.00    -0.262 N 
ATOM     13  H2  UNL     1      18.907 -14.690  20.608  1.00  0.00     0.190 HD
BRANCH  12  14
HETATM   14  C5  UNL     1      19.313 -14.723  22.657  1.00  0.00     0.196 C 
HETATM   15  S1  UNL     1      19.427 -16.375  22.701  1.00  0.00    -0.039 SA
BRANCH  14  16
HETATM   16  N1  UNL     1      19.788 -14.017  23.776  1.00  0.00    -0.294 N 
HETATM   17  C3  UNL     1      20.879 -13.110  23.804  1.00  0.00     0.222 C 
HETATM   18  C4  UNL     1      21.237 -12.451  25.111  1.00  0.00     0.117 C 
HETATM   19  O1  UNL     1      21.586 -12.803  22.813  1.00  0.00    -0.273 OA
BRANCH  16  20
HETATM   20  C2  UNL     1      19.105 -14.211  25.086  1.00  0.00     0.130 C 
HETATM   21  C1  UNL     1      17.644 -13.914  25.003  1.00  0.00     0.027 C 
ENDBRANCH  16  20
ENDBRANCH  14  16
ENDBRANCH  12  14
ENDBRANCH   1  12
BRANCH   7  22
HETATM   22  C8  UNL     1      12.816 -11.385  21.076  1.00  0.00     0.131 C 
BRANCH  22  23
HETATM   23  C9  UNL     1      12.222 -11.135  22.449  1.00  0.00     0.021 C 
BRANCH  23  24
HETATM   24  C10 UNL     1      12.051  -9.652  22.680  1.00  0.00     0.012 C 
BRANCH  24  25
HETATM   25  C11 UNL     1      11.631  -9.337  24.084  1.00  0.00     0.085 C 
HETATM   26 BR1  UNL     1      12.041  -7.490  24.515  1.00  0.00    -0.097 Br
ENDBRANCH  24  25
ENDBRANCH  23  24
ENDBRANCH  22  23
ENDBRANCH   7  22
TORSDOF 8
ENDMDL
MODEL 2
REMARK VINA RESULT: -6.577518296      0.731      1.651
REMARK  8 active torsions:
REMARK  status: ('A' for Active; 'I' for Inactive)
REMARK    1  A    between atoms: C2_2  and  N1_3 
REMARK       I    between atoms: N1_3  and  C3_4 
REMARK    2  A    between atoms: N1_3  and  C5_7 
REMARK    3  A    between atoms: C5_7  and  N2_9 
REMARK    4  A    between atoms: N2_9  and  N3_11 
REMARK    5  A    between atoms: N5_17  and  C8_18 
REMARK    6  A    between atoms: C8_18  and  C9_19 
REMARK    7  A    between atoms: C9_19  and  C10_20 
REMARK    8  A    between atoms: C10_20  and  C11_21 
ROOT
HETATM    1  N3  UNL     1      16.905 -14.725  21.639  1.00  0.00    -0.130 N 
ATOM      2  H3  UNL     1      16.571 -15.671  21.821  1.00  0.00     0.205 HD
HETATM    3  C6  UNL     1      15.961 -13.922  21.507  1.00  0.00     0.701 A 
HETATM    4  N4  UNL     1      14.691 -14.425  21.623  1.00  0.00    -0.186 N 
ATOM      5  H4  UNL     1      14.568 -15.420  21.810  1.00  0.00     0.185 HD
HETATM    6  C7  UNL     1      13.612 -13.653  21.498  1.00  0.00     0.202 A 
HETATM    7  N5  UNL     1      13.713 -12.325  21.249  1.00  0.00    -0.332 N 
HETATM    8  C12 UNL     1      14.924 -11.802  21.132  1.00  0.00     0.098 A 
HETATM    9  C13 UNL     1      15.114 -10.353  20.879  1.00  0.00     0.090 C 
HETATM   10  N6  UNL     1      16.026 -12.595  21.259  1.00  0.00    -0.175 N 
HETATM   11  C14 UNL     1      17.336 -11.981  21.115  1.00  0.00     0.177 C 
ENDROOT
BRANCH   1  12
HETATM   12  N2  UNL     1      18.263 -14.672  21.606  1.00  0.00    -0.262 N 
ATOM     13  H2  UNL     1      18.701 -14.323  20.754  1.00  0.00     0.190 HD
BRANCH  12  14
HETATM   14  C5  UNL     1      19.111 -15.066  22.663  1.00  0.00     0.196 C 
HETATM   15  S1  UNL     1      19.508 -16.674  22.688  1.00  0.00    -0.039 SA
BRANCH  14  16
HETATM   16  N1  UNL     1      19.645 -14.257  23.682  1.00  0.00    -0.294 N 
HETATM   17  C3  UNL     1      20.606 -13.226  23.527  1.00  0.00     0.222 C 
HETATM   18  C4  UNL     1      21.058 -12.469  24.749  1.00  0.00     0.117 C 
HETATM   19  O1  UNL     1      21.122 -12.881  22.436  1.00  0.00    -0.273 OA
BRANCH  16  20
HETATM   20  C2  UNL     1      19.182 -14.473  25.082  1.00  0.00     0.130 C 
HETATM   21  C1  UNL     1      17.719 -14.215  25.232  1.00  0.00     0.027 C 
ENDBRANCH  16  20
ENDBRANCH  14  16
ENDBRANCH  12  14
ENDBRANCH   1  12
BRANCH   7  22
HETATM   22  C8  UNL     1      12.486 -11.584  21.116  1.00  0.00     0.131 C 
BRANCH  22  23
HETATM   23  C9  UNL     1      11.879 -11.242  22.463  1.00  0.00     0.021 C 
BRANCH  23  24
HETATM   24  C10 UNL     1      12.041  -9.767  22.747  1.00  0.00     0.012 C 
BRANCH  24  25
HETATM   25  C11 UNL     1      11.556  -9.392  24.115  1.00  0.00     0.085 C 
HETATM   26 BR1  UNL     1      12.016  -7.550  24.516  1.00  0.00    -0.097 Br
ENDBRANCH  24  25
ENDBRANCH  23  24
ENDBRANCH  22  23
ENDBRANCH   7  22
TORSDOF 8
ENDMDL
MODEL 3
REMARK VINA RESULT: -6.571906868      1.400      1.693
REMARK  8 active torsions:
REMARK  status: ('A' for Active; 'I' for Inactive)
REMARK    1  A    between atoms: C2_2  and  N1_3 
REMARK       I    between atoms: N1_3  and  C3_4 
REMARK    2  A    between atoms: N1_3  and  C5_7 
REMARK    3  A    between atoms: C5_7  and  N2_9 
REMARK    4  A    between atoms: N2_9  and  N3_11 
REMARK    5  A    between atoms: N5_17  and  C8_18 
REMARK    6  A    between atoms: C8_18  and  C9_19 
REMARK    7  A    between atoms: C9_19  and  C10_20 
REMARK    8  A    between atoms: C10_20  and  C11_21 
ROOT
HETATM    1  N3  UNL     1      18.208 -12.822  22.165  1.00  0.00    -0.130 N 
ATOM      2  H3  UNL     1      18.890 -12.064  22.160  1.00  0.00     0.205 HD
HETATM    3  C6  UNL     1      17.143 -12.485  21.613  1.00  0.00     0.701 A 
HETATM    4  N4  UNL     1      17.071 -11.210  21.116  1.00  0.00    -0.186 N 
ATOM      5  H4  UNL     1      17.879 -10.594  21.214  1.00  0.00     0.185 HD
HETATM    6  C7  UNL     1      15.979 -10.749  20.508  1.00  0.00     0.202 A 
HETATM    7  N5  UNL     1      14.876 -11.520  20.349  1.00  0.00    -0.332 N 
HETATM    8  C12 UNL     1      14.906 -12.759  20.816  1.00  0.00     0.098 A 
HETATM    9  C13 UNL     1      13.745 -13.668  20.662  1.00  0.00     0.090 C 
HETATM   10  N6  UNL     1      16.026 -13.227  21.438  1.00  0.00    -0.175 N 
HETATM   11  C14 UNL     1      16.014 -14.591  21.943  1.00  0.00     0.177 C 
ENDROOT
BRANCH   1  12
HETATM   12  N2  UNL     1      18.702 -13.934  22.771  1.00  0.00    -0.262 N 
ATOM     13  H2  UNL     1      18.688 -14.806  22.243  1.00  0.00     0.190 HD
BRANCH  12  14
HETATM   14  C5  UNL     1      19.233 -13.970  24.078  1.00  0.00     0.196 C 
HETATM   15  S1  UNL     1      18.192 -14.513  25.248  1.00  0.00    -0.039 SA
BRANCH  14  16
HETATM   16  N1  UNL     1      20.525 -13.602  24.491  1.00  0.00    -0.294 N 
HETATM   17  C3  UNL     1      21.564 -13.095  23.668  1.00  0.00     0.222 C 
HETATM   18  C4  UNL     1      22.889 -12.759  24.302  1.00  0.00     0.117 C 
HETATM   19  O1  UNL     1      21.472 -12.899  22.432  1.00  0.00    -0.273 OA
BRANCH  16  20
HETATM   20  C2  UNL     1      20.883 -13.742  25.931  1.00  0.00     0.130 C 
HETATM   21  C1  UNL     1      20.731 -12.454  26.671  1.00  0.00     0.027 C 
ENDBRANCH  16  20
ENDBRANCH  14  16
ENDBRANCH  12  14
ENDBRANCH   1  12
BRANCH   7  22
HETATM   22  C8  UNL     1      13.742 -10.922  19.694  1.00  0.00     0.131 C 
BRANCH  22  23
HETATM   23  C9  UNL     1      13.265  -9.672  20.409  1.00  0.00     0.021 C 
BRANCH  23  24
HETATM   24  C10 UNL     1      12.357 -10.044  21.558  1.00  0.00     0.012 C 
BRANCH  24  25
HETATM   25  C11 UNL     1      12.557  -9.162  22.753  1.00  0.00     0.085 C 
HETATM   26 BR1  UNL     1      11.411  -9.729  24.213  1.00  0.00    -0.097 Br
ENDBRANCH  24  25
ENDBRANCH  23  24
ENDBRANCH  22  23
ENDBRANCH   7  22
TORSDOF 8
ENDMDL
MODEL 4
REMARK VINA RESULT: -6.570064860      3.697      7.295
REMARK  8 active torsions:
REMARK  status: ('A' for Active; 'I' for Inactive)
REMARK    1  A    between atoms: C2_2  and  N1_3 
REMARK       I    between atoms: N1_3  and  C3_4 
REMARK    2  A    between atoms: N1_3  and  C5_7 
REMARK    3  A    between atoms: C5_7  and  N2_9 
REMARK    4  A    between atoms: N2_9  and  N3_11 
REMARK    5  A    between atoms: N5_17  and  C8_18 
REMARK    6  A    between atoms: C8_18  and  C9_19 
REMARK    7  A    between atoms: C9_19  and  C10_20 
REMARK    8  A    between atoms: C10_20  and  C11_21 
ROOT
HETATM    1  N3  UNL     1      15.795 -12.740  22.368  1.00  0.00    -0.130 N 
ATOM      2  H3  UNL     1      15.096 -13.295  22.860  1.00  0.00     0.205 HD
HETATM    3  C6  UNL     1      16.937 -13.221  22.497  1.00  0.00     0.701 A 
HETATM    4  N4  UNL     1      17.054 -14.364  23.245  1.00  0.00    -0.186 N 
ATOM      5  H4  UNL     1      16.217 -14.771  23.661  1.00  0.00     0.185 HD
HETATM    6  C7  UNL     1      18.229 -14.959  23.445  1.00  0.00     0.202 A 
HETATM    7  N5  UNL     1      19.375 -14.464  22.918  1.00  0.00    -0.332 N 
HETATM    8  C12 UNL     1      19.303 -13.362  22.188  1.00  0.00     0.098 A 
HETATM    9  C13 UNL     1      20.511 -12.772  21.563  1.00  0.00     0.090 C 
HETATM   10  N6  UNL     1      18.098 -12.755  21.986  1.00  0.00    -0.175 N 
HETATM   11  C14 UNL     1      18.065 -11.541  21.185  1.00  0.00     0.177 C 
ENDROOT
BRANCH   1  12
HETATM   12  N2  UNL     1      15.234 -11.670  21.744  1.00  0.00    -0.262 N 
ATOM     13  H2  UNL     1      15.520 -10.741  22.052  1.00  0.00     0.190 HD
BRANCH  12  14
HETATM   14  C5  UNL     1      14.285 -11.751  20.702  1.00  0.00     0.196 C 
HETATM   15  S1  UNL     1      12.804 -11.091  21.044  1.00  0.00    -0.039 SA
BRANCH  14  16
HETATM   16  N1  UNL     1      14.455 -12.321  19.428  1.00  0.00    -0.294 N 
HETATM   17  C3  UNL     1      15.312 -11.853  18.400  1.00  0.00     0.222 C 
HETATM   18  C4  UNL     1      15.352 -12.604  17.095  1.00  0.00     0.117 C 
HETATM   19  O1  UNL     1      16.056 -10.845  18.485  1.00  0.00    -0.273 OA
BRANCH  16  20
HETATM   20  C2  UNL     1      13.674 -13.542  19.082  1.00  0.00     0.130 C 
HETATM   21  C1  UNL     1      14.060 -14.710  19.929  1.00  0.00     0.027 C 
ENDBRANCH  16  20
ENDBRANCH  14  16
ENDBRANCH  12  14
ENDBRANCH   1  12
BRANCH   7  22
HETATM   22  C8  UNL     1      20.594 -15.174  23.208  1.00  0.00     0.131 C 
BRANCH  22  23
HETATM   23  C9  UNL     1      21.065 -14.938  24.630  1.00  0.00     0.021 C 
BRANCH  23  24
HETATM   24  C10 UNL     1      22.393 -14.216  24.626  1.00  0.00     0.012 C 
BRANCH  24  25
HETATM   25  C11 UNL     1      22.240 -12.737  24.816  1.00  0.00     0.085 C 
HETATM   26 BR1  UNL     1      20.776 -12.358  26.032  1.00  0.00    -0.097 Br
ENDBRANCH  24  25
ENDBRANCH  23  24
ENDBRANCH  22  23
ENDBRANCH   7  22
TORSDOF 8
ENDMDL
MODEL 5
REMARK VINA RESULT: -6.534611778      3.795      7.459
REMARK  8 active torsions:
REMARK  status: ('A' for Active; 'I' for Inactive)
REMARK    1  A    between atoms: C2_2  and  N1_3 
REMARK       I    between atoms: N1_3  and  C3_4 
REMARK    2  A    between atoms: N1_3  and  C5_7 
REMARK    3  A    between atoms: C5_7  and  N2_9 
REMARK    4  A    between atoms: N2_9  and  N3_11 
REMARK    5  A    between atoms: N5_17  and  C8_18 
REMARK    6  A    between atoms: C8_18  and  C9_19 
REMARK    7  A    between atoms: C9_19  and  C10_20 
REMARK    8  A    between atoms: C10_20  and  C11_21 
ROOT
HETATM    1  N3  UNL     1      15.662 -11.975  21.998  1.00  0.00    -0.130 N 
ATOM      2  H3  UNL     1      14.901 -12.384  22.540  1.00  0.00     0.205 HD
HETATM    3  C6  UNL     1      16.725 -12.607  22.151  1.00  0.00     0.701 A 
HETATM    4  N4  UNL     1      16.693 -13.695  22.983  1.00  0.00    -0.186 N 
ATOM      5  H4  UNL     1      15.815 -13.944  23.439  1.00  0.00     0.185 HD
HETATM    6  C7  UNL     1      17.773 -14.439  23.215  1.00  0.00     0.202 A 
HETATM    7  N5  UNL     1      18.967 -14.158  22.638  1.00  0.00    -0.332 N 
HETATM    8  C12 UNL     1      19.038 -13.114  21.827  1.00  0.00     0.098 A 
HETATM    9  C13 UNL     1      20.305 -12.755  21.145  1.00  0.00     0.090 C 
HETATM   10  N6  UNL     1      17.930 -12.354  21.592  1.00  0.00    -0.175 N 
HETATM   11  C14 UNL     1      18.055 -11.212  20.701  1.00  0.00     0.177 C 
ENDROOT
BRANCH   1  12
HETATM   12  N2  UNL     1      15.248 -10.884  21.300  1.00  0.00    -0.262 N 
ATOM     13  H2  UNL     1      15.946 -10.384  20.749  1.00  0.00     0.190 HD
BRANCH  12  14
HETATM   14  C5  UNL     1      13.926 -10.393  21.283  1.00  0.00     0.196 C 
HETATM   15  S1  UNL     1      13.555  -9.409  20.002  1.00  0.00    -0.039 SA
BRANCH  14  16
HETATM   16  N1  UNL     1      12.905 -10.641  22.217  1.00  0.00    -0.294 N 
HETATM   17  C3  UNL     1      12.405  -9.732  23.185  1.00  0.00     0.222 C 
HETATM   18  C4  UNL     1      11.302 -10.190  24.104  1.00  0.00     0.117 C 
HETATM   19  O1  UNL     1      12.811  -8.556  23.345  1.00  0.00    -0.273 OA
BRANCH  16  20
HETATM   20  C2  UNL     1      12.254 -11.982  22.226  1.00  0.00     0.130 C 
HETATM   21  C1  UNL     1      12.433 -12.697  20.927  1.00  0.00     0.027 C 
ENDBRANCH  16  20
ENDBRANCH  14  16
ENDBRANCH  12  14
ENDBRANCH   1  12
BRANCH   7  22
HETATM   22  C8  UNL     1      20.077 -15.014  22.968  1.00  0.00     0.131 C 
BRANCH  22  23
HETATM   23  C9  UNL     1      20.608 -14.745  24.363  1.00  0.00     0.021 C 
BRANCH  23  24
HETATM   24  C10 UNL     1      22.005 -14.174  24.288  1.00  0.00     0.012 C 
BRANCH  24  25
HETATM   25  C11 UNL     1      22.055 -12.732  24.695  1.00  0.00     0.085 C 
HETATM   26 BR1  UNL     1      20.691 -12.354  26.021  1.00  0.00    -0.097 Br
ENDBRANCH  24  25
ENDBRANCH  23  24
ENDBRANCH  22  23
ENDBRANCH   7  22
TORSDOF 8
ENDMDL
