MODEL 1
REMARK VINA RESULT: -6.839823820      0.000      0.000
REMARK  5 active torsions:
REMARK  status: ('A' for Active; 'I' for Inactive)
REMARK    1  A    between atoms: N1_2  and  C2_5 
REMARK    2  A    between atoms: C2_5  and  C3_6 
REMARK    3  A    between atoms: C3_6  and  N2_7 
REMARK    4  A    between atoms: N2_7  and  C4_9 
REMARK    5  A    between atoms: C5_12  and  N4_13 
ROOT
HETATM    1  C4  UNL     1      18.406   2.765  12.882  1.00  0.00     0.125 A 
HETATM    2  N3  UNL     1      17.468   2.215  13.660  1.00  0.00    -0.176 N 
ATOM      3  H3  UNL     1      17.302   1.212  13.578  1.00  0.00     0.186 HD
HETATM    4  C5  UNL     1      16.718   2.925  14.561  1.00  0.00     0.682 A 
HETATM    5  N5  UNL     1      16.971   4.241  14.631  1.00  0.00    -0.195 N 
ATOM      6  H5  UNL     1      16.430   4.801  15.290  1.00  0.00     0.184 HD
HETATM    7  C11 UNL     1      17.910   4.870  13.870  1.00  0.00     0.036 A 
HETATM    8  C12 UNL     1      18.644   4.118  12.977  1.00  0.00     0.009 A 
HETATM    9  C13 UNL     1      19.720   4.513  12.024  1.00  0.00     0.044 C 
HETATM   10  C14 UNL     1      19.738   6.047  11.984  1.00  0.00     0.005 C 
HETATM   11  C15 UNL     1      20.305   6.505  13.285  1.00  0.00     0.001 C 
HETATM   12  C16 UNL     1      19.315   6.886  14.326  1.00  0.00     0.006 C 
HETATM   13  C17 UNL     1      17.948   6.295  14.176  1.00  0.00     0.058 C 
ENDROOT
BRANCH   1  14
HETATM   14  N2  UNL     1      19.105   2.090  12.044  1.00  0.00    -0.374 N 
ATOM     15  H2  UNL     1      20.117   2.130  12.165  1.00  0.00     0.161 HD
BRANCH  14  16
HETATM   16  C3  UNL     1      18.632   1.293  10.964  1.00  0.00     0.148 C 
BRANCH  16  17
HETATM   17  C2  UNL     1      18.679  -0.198  11.289  1.00  0.00     0.251 C 
BRANCH  17  18
HETATM   18  N1  UNL     1      17.328  -0.687  11.579  1.00  0.00    -0.077 N 
HETATM   19  C1  UNL     1      16.339   0.103  10.849  1.00  0.00     0.267 C 
ATOM     20  H12 UNL     1      17.137  -0.707  12.581  1.00  0.00     0.276 HD
ATOM     21  H11 UNL     1      17.235  -1.685  11.389  1.00  0.00     0.276 HD
ENDBRANCH  17  18
ENDBRANCH  16  17
ENDBRANCH  14  16
ENDBRANCH   1  14
BRANCH   4  22
HETATM   22  N4  UNL     1      15.744   2.243  15.337  1.00  0.00    -0.218 N 
HETATM   23  C6  UNL     1      15.989   0.866  15.738  1.00  0.00     0.141 C 
HETATM   24  C7  UNL     1      15.956   0.709  17.250  1.00  0.00     0.020 C 
HETATM   25  C8  UNL     1      14.616   1.257  17.701  1.00  0.00     0.003 C 
HETATM   26  C9  UNL     1      14.436   2.689  17.277  1.00  0.00     0.020 C 
HETATM   27  C10 UNL     1      14.511   2.829  15.763  1.00  0.00     0.141 C 
ENDBRANCH   4  22
TORSDOF 5
ENDMDL
MODEL 2
REMARK VINA RESULT: -6.734011956      1.661      5.361
REMARK  5 active torsions:
REMARK  status: ('A' for Active; 'I' for Inactive)
REMARK    1  A    between atoms: N1_2  and  C2_5 
REMARK    2  A    between atoms: C2_5  and  C3_6 
REMARK    3  A    between atoms: C3_6  and  N2_7 
REMARK    4  A    between atoms: N2_7  and  C4_9 
REMARK    5  A    between atoms: C5_12  and  N4_13 
ROOT
HETATM    1  C4  UNL     1      17.085   2.097  13.913  1.00  0.00     0.125 A 
HETATM    2  N3  UNL     1      17.118   3.300  13.330  1.00  0.00    -0.176 N 
ATOM      3  H3  UNL     1      17.679   3.411  12.486  1.00  0.00     0.186 HD
HETATM    4  C5  UNL     1      16.440   4.392  13.806  1.00  0.00     0.682 A 
HETATM    5  N5  UNL     1      15.717   4.199  14.920  1.00  0.00    -0.195 N 
ATOM      6  H5  UNL     1      15.200   4.990  15.302  1.00  0.00     0.184 HD
HETATM    7  C11 UNL     1      15.636   3.003  15.568  1.00  0.00     0.036 A 
HETATM    8  C12 UNL     1      16.333   1.929  15.055  1.00  0.00     0.009 A 
HETATM    9  C13 UNL     1      16.442   0.521  15.532  1.00  0.00     0.044 C 
HETATM   10  C14 UNL     1      15.819   0.476  16.934  1.00  0.00     0.005 C 
HETATM   11  C15 UNL     1      14.346   0.620  16.754  1.00  0.00     0.001 C 
HETATM   12  C16 UNL     1      13.802   1.992  16.931  1.00  0.00     0.006 C 
HETATM   13  C17 UNL     1      14.777   3.111  16.740  1.00  0.00     0.058 C 
ENDROOT
BRANCH   1  14
HETATM   14  N2  UNL     1      17.721   1.081  13.458  1.00  0.00    -0.374 N 
ATOM     15  H2  UNL     1      18.016   0.388  14.147  1.00  0.00     0.161 HD
BRANCH  14  16
HETATM   16  C3  UNL     1      18.062   0.807  12.104  1.00  0.00     0.148 C 
BRANCH  16  17
HETATM   17  C2  UNL     1      16.999  -0.036  11.403  1.00  0.00     0.251 C 
BRANCH  17  18
HETATM   18  N1  UNL     1      17.006  -1.398  11.946  1.00  0.00    -0.077 N 
HETATM   19  C1  UNL     1      18.155  -2.139  11.429  1.00  0.00     0.267 C 
ATOM     20  H12 UNL     1      16.126  -1.884  11.768  1.00  0.00     0.276 HD
ATOM     21  H11 UNL     1      16.975  -1.402  12.965  1.00  0.00     0.276 HD
ENDBRANCH  17  18
ENDBRANCH  16  17
ENDBRANCH  14  16
ENDBRANCH   1  14
BRANCH   4  22
HETATM   22  N4  UNL     1      16.546   5.626  13.111  1.00  0.00    -0.218 N 
HETATM   23  C6  UNL     1      17.746   6.434  13.272  1.00  0.00     0.141 C 
HETATM   24  C7  UNL     1      18.432   6.689  11.941  1.00  0.00     0.020 C 
HETATM   25  C8  UNL     1      17.383   7.310  11.038  1.00  0.00     0.003 C 
HETATM   26  C9  UNL     1      16.181   6.416  10.894  1.00  0.00     0.020 C 
HETATM   27  C10 UNL     1      15.533   6.143  12.243  1.00  0.00     0.141 C 
ENDBRANCH   4  22
TORSDOF 5
ENDMDL
MODEL 3
REMARK VINA RESULT: -6.730550286      1.354      2.131
REMARK  5 active torsions:
REMARK  status: ('A' for Active; 'I' for Inactive)
REMARK    1  A    between atoms: N1_2  and  C2_5 
REMARK    2  A    between atoms: C2_5  and  C3_6 
REMARK    3  A    between atoms: C3_6  and  N2_7 
REMARK    4  A    between atoms: N2_7  and  C4_9 
REMARK    5  A    between atoms: C5_12  and  N4_13 
ROOT
HETATM    1  C4  UNL     1      16.708   2.320  12.178  1.00  0.00     0.125 A 
HETATM    2  N3  UNL     1      16.251   2.006  13.395  1.00  0.00    -0.176 N 
ATOM      3  H3  UNL     1      15.538   1.282  13.469  1.00  0.00     0.186 HD
HETATM    4  C5  UNL     1      16.689   2.605  14.547  1.00  0.00     0.682 A 
HETATM    5  N5  UNL     1      17.626   3.554  14.400  1.00  0.00    -0.195 N 
ATOM      6  H5  UNL     1      17.975   4.022  15.237  1.00  0.00     0.184 HD
HETATM    7  C11 UNL     1      18.138   3.927  13.194  1.00  0.00     0.036 A 
HETATM    8  C12 UNL     1      17.672   3.298  12.058  1.00  0.00     0.009 A 
HETATM    9  C13 UNL     1      18.029   3.485  10.623  1.00  0.00     0.044 C 
HETATM   10  C14 UNL     1      18.885   4.756  10.541  1.00  0.00     0.005 C 
HETATM   11  C15 UNL     1      20.209   4.424  11.140  1.00  0.00     0.001 C 
HETATM   12  C16 UNL     1      20.391   4.807  12.565  1.00  0.00     0.006 C 
HETATM   13  C17 UNL     1      19.135   4.977  13.361  1.00  0.00     0.058 C 
ENDROOT
BRANCH   1  14
HETATM   14  N2  UNL     1      16.294   1.751  11.106  1.00  0.00    -0.374 N 
ATOM     15  H2  UNL     1      16.016   2.371  10.345  1.00  0.00     0.161 HD
BRANCH  14  16
HETATM   16  C3  UNL     1      16.178   0.355  10.854  1.00  0.00     0.148 C 
BRANCH  16  17
HETATM   17  C2  UNL     1      17.526  -0.358  10.943  1.00  0.00     0.251 C 
BRANCH  17  18
HETATM   18  N1  UNL     1      17.441  -1.466  11.898  1.00  0.00    -0.077 N 
HETATM   19  C1  UNL     1      18.297  -2.569  11.464  1.00  0.00     0.267 C 
ATOM     20  H12 UNL     1      16.477  -1.768  12.048  1.00  0.00     0.276 HD
ATOM     21  H11 UNL     1      17.655  -1.168  12.849  1.00  0.00     0.276 HD
ENDBRANCH  17  18
ENDBRANCH  16  17
ENDBRANCH  14  16
ENDBRANCH   1  14
BRANCH   4  22
HETATM   22  N4  UNL     1      16.134   2.199  15.789  1.00  0.00    -0.218 N 
HETATM   23  C6  UNL     1      14.924   2.844  16.275  1.00  0.00     0.141 C 
HETATM   24  C7  UNL     1      13.806   1.840  16.504  1.00  0.00     0.020 C 
HETATM   25  C8  UNL     1      14.368   0.791  17.443  1.00  0.00     0.003 C 
HETATM   26  C9  UNL     1      15.602   0.145  16.872  1.00  0.00     0.020 C 
HETATM   27  C10 UNL     1      16.694   1.173  16.616  1.00  0.00     0.141 C 
ENDBRANCH   4  22
TORSDOF 5
ENDMDL
MODEL 4
REMARK VINA RESULT: -6.706948702      1.920      3.070
REMARK  5 active torsions:
REMARK  status: ('A' for Active; 'I' for Inactive)
REMARK    1  A    between atoms: N1_2  and  C2_5 
REMARK    2  A    between atoms: C2_5  and  C3_6 
REMARK    3  A    between atoms: C3_6  and  N2_7 
REMARK    4  A    between atoms: N2_7  and  C4_9 
REMARK    5  A    between atoms: C5_12  and  N4_13 
ROOT
HETATM    1  C4  UNL     1      19.599   2.335  11.615  1.00  0.00     0.125 A 
HETATM    2  N3  UNL     1      18.712   2.527  12.597  1.00  0.00    -0.176 N 
ATOM      3  H3  UNL     1      18.016   1.801  12.765  1.00  0.00     0.186 HD
HETATM    4  C5  UNL     1      18.687   3.645  13.389  1.00  0.00     0.682 A 
HETATM    5  N5  UNL     1      19.620   4.574  13.129  1.00  0.00    -0.195 N 
ATOM      6  H5  UNL     1      19.631   5.419  13.699  1.00  0.00     0.184 HD
HETATM    7  C11 UNL     1      20.555   4.447  12.146  1.00  0.00     0.036 A 
HETATM    8  C12 UNL     1      20.547   3.306  11.372  1.00  0.00     0.009 A 
HETATM    9  C13 UNL     1      21.423   2.888  10.241  1.00  0.00     0.044 C 
HETATM   10  C14 UNL     1      22.260   4.113   9.851  1.00  0.00     0.005 C 
HETATM   11  C15 UNL     1      23.255   4.321  10.942  1.00  0.00     0.001 C 
HETATM   12  C16 UNL     1      22.887   5.328  11.972  1.00  0.00     0.006 C 
HETATM   13  C17 UNL     1      21.426   5.616  12.112  1.00  0.00     0.058 C 
ENDROOT
BRANCH   1  14
HETATM   14  N2  UNL     1      19.616   1.283  10.882  1.00  0.00    -0.374 N 
ATOM     15  H2  UNL     1      20.079   1.372   9.977  1.00  0.00     0.161 HD
BRANCH  14  16
HETATM   16  C3  UNL     1      19.063   0.007  11.183  1.00  0.00     0.148 C 
BRANCH  16  17
HETATM   17  C2  UNL     1      17.792  -0.271  10.385  1.00  0.00     0.251 C 
BRANCH  17  18
HETATM   18  N1  UNL     1      16.629  -0.250  11.276  1.00  0.00    -0.077 N 
HETATM   19  C1  UNL     1      17.035  -0.588  12.640  1.00  0.00     0.267 C 
ATOM     20  H12 UNL     1      15.879  -0.856  10.940  1.00  0.00     0.276 HD
ATOM     21  H11 UNL     1      16.133   0.639  11.235  1.00  0.00     0.276 HD
ENDBRANCH  17  18
ENDBRANCH  16  17
ENDBRANCH  14  16
ENDBRANCH   1  14
BRANCH   4  22
HETATM   22  N4  UNL     1      17.699   3.750  14.403  1.00  0.00    -0.218 N 
HETATM   23  C6  UNL     1      17.023   5.021  14.612  1.00  0.00     0.141 C 
HETATM   24  C7  UNL     1      15.517   4.888  14.452  1.00  0.00     0.020 C 
HETATM   25  C8  UNL     1      15.087   3.794  15.410  1.00  0.00     0.003 C 
HETATM   26  C9  UNL     1      15.803   2.501  15.126  1.00  0.00     0.020 C 
HETATM   27  C10 UNL     1      17.310   2.666  15.254  1.00  0.00     0.141 C 
ENDBRANCH   4  22
TORSDOF 5
ENDMDL
MODEL 5
REMARK VINA RESULT: -6.657261745      1.544      6.052
REMARK  5 active torsions:
REMARK  status: ('A' for Active; 'I' for Inactive)
REMARK    1  A    between atoms: N1_2  and  C2_5 
REMARK    2  A    between atoms: C2_5  and  C3_6 
REMARK    3  A    between atoms: C3_6  and  N2_7 
REMARK    4  A    between atoms: N2_7  and  C4_9 
REMARK    5  A    between atoms: C5_12  and  N4_13 
ROOT
HETATM    1  C4  UNL     1      15.887   3.232  14.482  1.00  0.00     0.125 A 
HETATM    2  N3  UNL     1      16.590   2.514  13.599  1.00  0.00    -0.176 N 
ATOM      3  H3  UNL     1      16.948   2.988  12.770  1.00  0.00     0.186 HD
HETATM    4  C5  UNL     1      16.855   1.178  13.747  1.00  0.00     0.682 A 
HETATM    5  N5  UNL     1      16.361   0.597  14.852  1.00  0.00    -0.195 N 
ATOM      6  H5  UNL     1      16.538  -0.397  14.994  1.00  0.00     0.184 HD
HETATM    7  C11 UNL     1      15.636   1.264  15.794  1.00  0.00     0.036 A 
HETATM    8  C12 UNL     1      15.393   2.609  15.607  1.00  0.00     0.009 A 
HETATM    9  C13 UNL     1      14.645   3.589  16.444  1.00  0.00     0.044 C 
HETATM   10  C14 UNL     1      13.901   2.783  17.516  1.00  0.00     0.005 C 
HETATM   11  C15 UNL     1      14.931   2.292  18.476  1.00  0.00     0.001 C 
HETATM   12  C16 UNL     1      15.414   0.903  18.256  1.00  0.00     0.006 C 
HETATM   13  C17 UNL     1      15.243   0.364  16.871  1.00  0.00     0.058 C 
ENDROOT
BRANCH   1  14
HETATM   14  N2  UNL     1      15.647   4.483  14.335  1.00  0.00    -0.374 N 
ATOM     15  H2  UNL     1      14.814   4.841  14.803  1.00  0.00     0.161 HD
BRANCH  14  16
HETATM   16  C3  UNL     1      16.409   5.431  13.595  1.00  0.00     0.148 C 
BRANCH  16  17
HETATM   17  C2  UNL     1      17.675   5.854  14.336  1.00  0.00     0.251 C 
BRANCH  17  18
HETATM   18  N1  UNL     1      18.858   5.447  13.574  1.00  0.00    -0.077 N 
HETATM   19  C1  UNL     1      19.530   4.336  14.245  1.00  0.00     0.267 C 
ATOM     20  H12 UNL     1      19.491   6.230  13.405  1.00  0.00     0.276 HD
ATOM     21  H11 UNL     1      18.630   5.226  12.605  1.00  0.00     0.276 HD
ENDBRANCH  17  18
ENDBRANCH  16  17
ENDBRANCH  14  16
ENDBRANCH   1  14
BRANCH   4  22
HETATM   22  N4  UNL     1      17.609   0.510  12.747  1.00  0.00    -0.218 N 
HETATM   23  C6  UNL     1      17.276  -0.864  12.402  1.00  0.00     0.141 C 
HETATM   24  C7  UNL     1      16.937  -1.005  10.927  1.00  0.00     0.020 C 
HETATM   25  C8  UNL     1      18.124  -0.445  10.167  1.00  0.00     0.003 C 
HETATM   26  C9  UNL     1      18.400   0.984  10.551  1.00  0.00     0.020 C 
HETATM   27  C10 UNL     1      18.699   1.107  12.038  1.00  0.00     0.141 C 
ENDBRANCH   4  22
TORSDOF 5
ENDMDL
