MODEL 1
REMARK VINA RESULT: -6.359242137      0.000      0.000
REMARK  7 active torsions:
REMARK  status: ('A' for Active; 'I' for Inactive)
REMARK    1  A    between atoms: C2_2  and  C4_4 
REMARK    2  A    between atoms: C5_5  and  O1_6 
REMARK    3  A    between atoms: O1_6  and  C6_7 
REMARK    4  A    between atoms: C6_7  and  C7_8 
REMARK    5  A    between atoms: C7_8  and  N1_9 
REMARK    6  A    between atoms: N1_9  and  C9_11 
REMARK    7  A    between atoms: C10_14  and  N3_15 
ROOT
HETATM    1  C9  UNL     1      17.771   2.763  12.941  1.00  0.00     0.681 A 
HETATM    2  N2  UNL     1      18.760   2.351  12.133  1.00  0.00    -0.176 N 
ATOM      3  H2  UNL     1      19.486   3.020  11.876  1.00  0.00     0.186 HD
HETATM    4  C10 UNL     1      18.843   1.101  11.643  1.00  0.00     0.133 A 
HETATM    5  C11 UNL     1      17.884   0.175  11.967  1.00  0.00     0.070 A 
HETATM    6 BR1  UNL     1      18.001  -1.587  11.276  1.00  0.00    -0.046 Br
HETATM    7  C12 UNL     1      16.862   0.593  12.799  1.00  0.00     0.129 A 
HETATM    8  N4  UNL     1      16.823   1.866  13.267  1.00  0.00    -0.200 N 
ATOM      9  H4  UNL     1      16.058   2.149  13.879  1.00  0.00     0.183 HD
ENDROOT
BRANCH   1  10
HETATM   10  N1  UNL     1      17.671   4.072  13.461  1.00  0.00    -0.220 N 
HETATM   11  C8  UNL     1      18.839   4.610  14.190  1.00  0.00     0.168 C 
BRANCH  10  12
HETATM   12  C7  UNL     1      16.560   4.959  13.369  1.00  0.00     0.168 C 
BRANCH  12  13
HETATM   13  C6  UNL     1      15.678   5.075  14.555  1.00  0.00     0.208 C 
BRANCH  13  14
HETATM   14  O1  UNL     1      14.762   3.962  14.489  1.00  0.00    -0.302 OA
BRANCH  14  15
HETATM   15  C5  UNL     1      14.638   3.103  15.544  1.00  0.00     0.054 C 
HETATM   16  C4  UNL     1      14.538   2.334  16.463  1.00  0.00    -0.072 C 
BRANCH  16  17
HETATM   17  C2  UNL     1      14.422   1.380  17.560  1.00  0.00     0.059 C 
HETATM   18  C1  UNL     1      15.265   0.174  17.289  1.00  0.00     0.023 C 
HETATM   19  C3  UNL     1      14.909   2.060  18.841  1.00  0.00     0.023 C 
ENDBRANCH  16  17
ENDBRANCH  14  15
ENDBRANCH  13  14
ENDBRANCH  12  13
ENDBRANCH  10  12
ENDBRANCH   1  10
BRANCH   4  20
HETATM   20  N3  UNL     1      19.851   0.835  10.873  1.00  0.00    -0.384 N 
ATOM     21  H32 UNL     1      20.758   0.533  11.230  1.00  0.00     0.157 HD
ATOM     22  H31 UNL     1      19.708   0.939   9.868  1.00  0.00     0.157 HD
ENDBRANCH   4  20
TORSDOF 7
ENDMDL
MODEL 2
REMARK VINA RESULT: -6.328593108      2.963      5.384
REMARK  7 active torsions:
REMARK  status: ('A' for Active; 'I' for Inactive)
REMARK    1  A    between atoms: C2_2  and  C4_4 
REMARK    2  A    between atoms: C5_5  and  O1_6 
REMARK    3  A    between atoms: O1_6  and  C6_7 
REMARK    4  A    between atoms: C6_7  and  C7_8 
REMARK    5  A    between atoms: C7_8  and  N1_9 
REMARK    6  A    between atoms: N1_9  and  C9_11 
REMARK    7  A    between atoms: C10_14  and  N3_15 
ROOT
HETATM    1  C9  UNL     1      17.164   3.074  13.885  1.00  0.00     0.681 A 
HETATM    2  N2  UNL     1      17.462   1.884  14.430  1.00  0.00    -0.176 N 
ATOM      3  H2  UNL     1      18.325   1.422  14.143  1.00  0.00     0.186 HD
HETATM    4  C10 UNL     1      16.680   1.268  15.335  1.00  0.00     0.133 A 
HETATM    5  C11 UNL     1      15.512   1.861  15.744  1.00  0.00     0.070 A 
HETATM    6 BR1  UNL     1      14.410   0.992  17.020  1.00  0.00    -0.046 Br
HETATM    7  C12 UNL     1      15.200   3.086  15.187  1.00  0.00     0.129 A 
HETATM    8  N4  UNL     1      16.021   3.666  14.277  1.00  0.00    -0.200 N 
ATOM      9  H4  UNL     1      15.768   4.571  13.881  1.00  0.00     0.183 HD
ENDROOT
BRANCH   1  10
HETATM   10  N1  UNL     1      17.976   3.731  12.934  1.00  0.00    -0.220 N 
HETATM   11  C8  UNL     1      17.309   4.317  11.753  1.00  0.00     0.168 C 
BRANCH  10  12
HETATM   12  C7  UNL     1      19.390   3.902  12.972  1.00  0.00     0.168 C 
BRANCH  12  13
HETATM   13  C6  UNL     1      20.144   3.644  11.723  1.00  0.00     0.208 C 
BRANCH  13  14
HETATM   14  O1  UNL     1      20.510   2.248  11.751  1.00  0.00    -0.302 OA
BRANCH  14  15
HETATM   15  C5  UNL     1      19.620   1.290  11.357  1.00  0.00     0.054 C 
HETATM   16  C4  UNL     1      18.822   0.456  11.019  1.00  0.00    -0.072 C 
BRANCH  16  17
HETATM   17  C2  UNL     1      17.836  -0.544  10.626  1.00  0.00     0.059 C 
HETATM   18  C1  UNL     1      18.062  -1.817  11.379  1.00  0.00     0.023 C 
HETATM   19  C3  UNL     1      16.444  -0.001  10.955  1.00  0.00     0.023 C 
ENDBRANCH  16  17
ENDBRANCH  14  15
ENDBRANCH  13  14
ENDBRANCH  12  13
ENDBRANCH  10  12
ENDBRANCH   1  10
BRANCH   4  20
HETATM   20  N3  UNL     1      17.085   0.122  15.782  1.00  0.00    -0.384 N 
ATOM     21  H32 UNL     1      17.589  -0.552  15.206  1.00  0.00     0.157 HD
ATOM     22  H31 UNL     1      16.879  -0.096  16.757  1.00  0.00     0.157 HD
ENDBRANCH   4  20
TORSDOF 7
ENDMDL
MODEL 3
REMARK VINA RESULT: -6.192027959      1.170      1.370
REMARK  7 active torsions:
REMARK  status: ('A' for Active; 'I' for Inactive)
REMARK    1  A    between atoms: C2_2  and  C4_4 
REMARK    2  A    between atoms: C5_5  and  O1_6 
REMARK    3  A    between atoms: O1_6  and  C6_7 
REMARK    4  A    between atoms: C6_7  and  C7_8 
REMARK    5  A    between atoms: C7_8  and  N1_9 
REMARK    6  A    between atoms: N1_9  and  C9_11 
REMARK    7  A    between atoms: C10_14  and  N3_15 
ROOT
HETATM    1  C9  UNL     1      17.150   3.144  11.580  1.00  0.00     0.681 A 
HETATM    2  N2  UNL     1      18.386   2.622  11.546  1.00  0.00    -0.176 N 
ATOM      3  H2  UNL     1      19.181   3.260  11.565  1.00  0.00     0.186 HD
HETATM    4  C10 UNL     1      18.630   1.300  11.487  1.00  0.00     0.133 A 
HETATM    5  C11 UNL     1      17.584   0.413  11.459  1.00  0.00     0.070 A 
HETATM    6 BR1  UNL     1      17.928  -1.450  11.375  1.00  0.00    -0.046 Br
HETATM    7  C12 UNL     1      16.308   0.944  11.494  1.00  0.00     0.129 A 
HETATM    8  N4  UNL     1      16.114   2.285  11.554  1.00  0.00    -0.200 N 
ATOM      9  H4  UNL     1      15.162   2.651  11.578  1.00  0.00     0.183 HD
ENDROOT
BRANCH   1  10
HETATM   10  N1  UNL     1      16.880   4.529  11.642  1.00  0.00    -0.220 N 
HETATM   11  C8  UNL     1      17.074   5.320  10.410  1.00  0.00     0.168 C 
BRANCH  10  12
HETATM   12  C7  UNL     1      16.433   5.275  12.771  1.00  0.00     0.168 C 
BRANCH  12  13
HETATM   13  C6  UNL     1      16.446   4.596  14.088  1.00  0.00     0.208 C 
BRANCH  13  14
HETATM   14  O1  UNL     1      15.170   3.936  14.217  1.00  0.00    -0.302 OA
BRANCH  14  15
HETATM   15  C5  UNL     1      14.915   3.123  15.284  1.00  0.00     0.054 C 
HETATM   16  C4  UNL     1      14.693   2.391  16.213  1.00  0.00    -0.072 C 
BRANCH  16  17
HETATM   17  C2  UNL     1      14.421   1.484  17.321  1.00  0.00     0.059 C 
HETATM   18  C1  UNL     1      15.241   0.240  17.186  1.00  0.00     0.023 C 
HETATM   19  C3  UNL     1      14.791   2.195  18.625  1.00  0.00     0.023 C 
ENDBRANCH  16  17
ENDBRANCH  14  15
ENDBRANCH  13  14
ENDBRANCH  12  13
ENDBRANCH  10  12
ENDBRANCH   1  10
BRANCH   4  20
HETATM   20  N3  UNL     1      19.871   0.931  11.459  1.00  0.00    -0.384 N 
ATOM     21  H32 UNL     1      20.632   1.511  11.812  1.00  0.00     0.157 HD
ATOM     22  H31 UNL     1      20.074   0.013  11.061  1.00  0.00     0.157 HD
ENDBRANCH   4  20
TORSDOF 7
ENDMDL
MODEL 4
REMARK VINA RESULT: -6.118650547      2.948      5.553
REMARK  7 active torsions:
REMARK  status: ('A' for Active; 'I' for Inactive)
REMARK    1  A    between atoms: C2_2  and  C4_4 
REMARK    2  A    between atoms: C5_5  and  O1_6 
REMARK    3  A    between atoms: O1_6  and  C6_7 
REMARK    4  A    between atoms: C6_7  and  C7_8 
REMARK    5  A    between atoms: C7_8  and  N1_9 
REMARK    6  A    between atoms: N1_9  and  C9_11 
REMARK    7  A    between atoms: C10_14  and  N3_15 
ROOT
HETATM    1  C9  UNL     1      17.219   2.966  13.889  1.00  0.00     0.681 A 
HETATM    2  N2  UNL     1      16.178   3.504  14.544  1.00  0.00    -0.176 N 
ATOM      3  H2  UNL     1      15.904   4.460  14.316  1.00  0.00     0.186 HD
HETATM    4  C10 UNL     1      15.479   2.848  15.488  1.00  0.00     0.133 A 
HETATM    5  C11 UNL     1      15.821   1.561  15.820  1.00  0.00     0.070 A 
HETATM    6 BR1  UNL     1      14.835   0.636  17.149  1.00  0.00    -0.046 Br
HETATM    7  C12 UNL     1      16.892   1.002  15.148  1.00  0.00     0.129 A 
HETATM    8  N4  UNL     1      17.566   1.705  14.205  1.00  0.00    -0.200 N 
ATOM      9  H4  UNL     1      18.352   1.269  13.724  1.00  0.00     0.183 HD
ENDROOT
BRANCH   1  10
HETATM   10  N1  UNL     1      17.962   3.645  12.897  1.00  0.00    -0.220 N 
HETATM   11  C8  UNL     1      17.228   4.154  11.720  1.00  0.00     0.168 C 
BRANCH  10  12
HETATM   12  C7  UNL     1      19.363   3.905  12.891  1.00  0.00     0.168 C 
BRANCH  12  13
HETATM   13  C6  UNL     1      20.100   3.645  11.632  1.00  0.00     0.208 C 
BRANCH  13  14
HETATM   14  O1  UNL     1      20.483   2.254  11.666  1.00  0.00    -0.302 OA
BRANCH  14  15
HETATM   15  C5  UNL     1      19.600   1.283  11.289  1.00  0.00     0.054 C 
HETATM   16  C4  UNL     1      18.807   0.437  10.967  1.00  0.00    -0.072 C 
BRANCH  16  17
HETATM   17  C2  UNL     1      17.830  -0.579  10.597  1.00  0.00     0.059 C 
HETATM   18  C1  UNL     1      18.038  -1.818  11.409  1.00  0.00     0.023 C 
HETATM   19  C3  UNL     1      16.431  -0.023  10.872  1.00  0.00     0.023 C 
ENDBRANCH  16  17
ENDBRANCH  14  15
ENDBRANCH  13  14
ENDBRANCH  12  13
ENDBRANCH  10  12
ENDBRANCH   1  10
BRANCH   4  20
HETATM   20  N3  UNL     1      14.497   3.483  16.043  1.00  0.00    -0.384 N 
ATOM     21  H32 UNL     1      14.271   4.455  15.828  1.00  0.00     0.157 HD
ATOM     22  H31 UNL     1      13.936   2.970  16.723  1.00  0.00     0.157 HD
ENDBRANCH   4  20
TORSDOF 7
ENDMDL
MODEL 5
REMARK VINA RESULT: -6.065146860      0.726      1.533
REMARK  7 active torsions:
REMARK  status: ('A' for Active; 'I' for Inactive)
REMARK    1  A    between atoms: C2_2  and  C4_4 
REMARK    2  A    between atoms: C5_5  and  O1_6 
REMARK    3  A    between atoms: O1_6  and  C6_7 
REMARK    4  A    between atoms: C6_7  and  C7_8 
REMARK    5  A    between atoms: C7_8  and  N1_9 
REMARK    6  A    between atoms: N1_9  and  C9_11 
REMARK    7  A    between atoms: C10_14  and  N3_15 
ROOT
HETATM    1  C9  UNL     1      17.924   2.881  12.590  1.00  0.00     0.681 A 
HETATM    2  N2  UNL     1      17.389   1.918  13.356  1.00  0.00    -0.176 N 
ATOM      3  H2  UNL     1      16.966   2.186  14.245  1.00  0.00     0.186 HD
HETATM    4  C10 UNL     1      17.381   0.617  13.013  1.00  0.00     0.133 A 
HETATM    5  C11 UNL     1      17.941   0.221  11.824  1.00  0.00     0.070 A 
HETATM    6 BR1  UNL     1      17.931  -1.612  11.340  1.00  0.00    -0.046 Br
HETATM    7  C12 UNL     1      18.495   1.209  11.030  1.00  0.00     0.129 A 
HETATM    8  N4  UNL     1      18.477   2.507  11.421  1.00  0.00    -0.200 N 
ATOM      9  H4  UNL     1      18.893   3.216  10.817  1.00  0.00     0.183 HD
ENDROOT
BRANCH   1  10
HETATM   10  N1  UNL     1      17.939   4.249  12.939  1.00  0.00    -0.220 N 
HETATM   11  C8  UNL     1      19.255   4.888  13.150  1.00  0.00     0.168 C 
BRANCH  10  12
HETATM   12  C7  UNL     1      16.818   5.110  13.117  1.00  0.00     0.168 C 
BRANCH  12  13
HETATM   13  C6  UNL     1      16.138   5.084  14.433  1.00  0.00     0.208 C 
BRANCH  13  14
HETATM   14  O1  UNL     1      15.113   4.073  14.341  1.00  0.00    -0.302 OA
BRANCH  14  15
HETATM   15  C5  UNL     1      14.893   3.212  15.378  1.00  0.00     0.054 C 
HETATM   16  C4  UNL     1      14.689   2.442  16.279  1.00  0.00    -0.072 C 
BRANCH  16  17
HETATM   17  C2  UNL     1      14.421   1.499  17.358  1.00  0.00     0.059 C 
HETATM   18  C1  UNL     1      15.213   0.245  17.158  1.00  0.00     0.023 C 
HETATM   19  C3  UNL     1      14.831   2.152  18.679  1.00  0.00     0.023 C 
ENDBRANCH  16  17
ENDBRANCH  14  15
ENDBRANCH  13  14
ENDBRANCH  12  13
ENDBRANCH  10  12
ENDBRANCH   1  10
BRANCH   4  20
HETATM   20  N3  UNL     1      16.831  -0.209  13.844  1.00  0.00    -0.384 N 
ATOM     21  H32 UNL     1      16.978  -0.163  14.853  1.00  0.00     0.157 HD
ATOM     22  H31 UNL     1      16.227  -0.932  13.451  1.00  0.00     0.157 HD
ENDBRANCH   4  20
TORSDOF 7
ENDMDL
