MODEL 1
REMARK VINA RESULT: -9.077541585      0.000      0.000
REMARK  7 active torsions:
REMARK  status: ('A' for Active; 'I' for Inactive)
REMARK    1  A    between atoms: C3_5  and  C4_6 
REMARK    2  A    between atoms: C4_6  and  S1_7 
REMARK    3  A    between atoms: C4_6  and  C15_25 
REMARK    4  A    between atoms: S1_7  and  C5_8 
REMARK    5  A    between atoms: C6_13  and  C7_14 
REMARK    6  A    between atoms: C7_14  and  C8_15 
REMARK    7  A    between atoms: C8_15  and  C9_16 
ROOT
HETATM    1  C4  UNL     1      11.240  -1.992  54.993  1.00  0.00     0.147 C 
ENDROOT
BRANCH   1   2
HETATM    2  C3  UNL     1      10.131  -2.425  55.885  1.00  0.00     0.052 A 
HETATM    3  N1  UNL     1       8.826  -2.000  55.794  1.00  0.00    -0.347 N 
HETATM    4  C2  UNL     1       8.093  -2.578  56.747  1.00  0.00     0.077 A 
ATOM      5  H1  UNL     1       8.472  -1.342  55.101  1.00  0.00     0.167 HD
HETATM    6  C1  UNL     1       6.641  -2.344  56.940  1.00  0.00     0.089 C 
HETATM    7  N6  UNL     1       8.858  -3.378  57.478  1.00  0.00    -0.348 N 
HETATM    8  C19 UNL     1      10.112  -3.284  56.949  1.00  0.00     0.030 A 
ATOM      9  H6  UNL     1       8.568  -3.948  58.272  1.00  0.00     0.167 HD
HETATM   10  C20 UNL     1      11.243  -4.040  57.518  1.00  0.00     0.070 C 
ENDBRANCH   1   2
BRANCH   1  11
HETATM   11  S1  UNL     1      10.615  -1.357  53.439  1.00  0.00    -0.069 SA
BRANCH  11  12
HETATM   12  C5  UNL     1      11.901  -1.069  52.220  1.00  0.00     0.204 A 
HETATM   13  N2  UNL     1      11.604  -1.031  50.899  1.00  0.00    -0.272 N 
HETATM   14  N3  UNL     1      12.724  -0.808  50.273  1.00  0.00    -0.281 N 
ATOM     15  H2  UNL     1      10.684  -1.154  50.478  1.00  0.00     0.189 HD
HETATM   16  C6  UNL     1      13.731  -0.699  51.139  1.00  0.00     0.142 A 
ATOM     17  H3  UNL     1      12.817  -0.727  49.260  1.00  0.00     0.189 HD
HETATM   18  O3  UNL     1      13.166  -0.869  52.328  1.00  0.00    -0.272 OA
BRANCH  16  19
HETATM   19  C7  UNL     1      15.144  -0.448  50.835  1.00  0.00     0.106 C 
BRANCH  19  20
HETATM   20  C8  UNL     1      16.080  -1.550  51.168  1.00  0.00     0.055 C 
HETATM   21  C10 UNL     1      15.525  -2.928  51.122  1.00  0.00     0.021 C 
HETATM   22  C11 UNL     1      16.735  -3.876  51.138  1.00  0.00     0.001 C 
HETATM   23  C12 UNL     1      17.367  -3.774  52.493  1.00  0.00     0.000 C 
HETATM   24  C13 UNL     1      17.652  -2.393  52.960  1.00  0.00     0.001 C 
HETATM   25  C14 UNL     1      16.731  -1.319  52.514  1.00  0.00     0.021 C 
BRANCH  20  26
HETATM   26  C9  UNL     1      17.180  -1.491  50.134  1.00  0.00     0.182 C 
HETATM   27  O1  UNL     1      17.304  -2.406  49.320  1.00  0.00    -0.647 OA
HETATM   28  O2  UNL     1      18.009  -0.401  50.144  1.00  0.00    -0.647 OA
ENDBRANCH  20  26
ENDBRANCH  19  20
ENDBRANCH  16  19
ENDBRANCH  11  12
ENDBRANCH   1  11
BRANCH   1  29
HETATM   29  C15 UNL     1      12.225  -1.123  55.666  1.00  0.00     0.045 A 
HETATM   30  C16 UNL     1      13.524  -1.590  55.900  1.00  0.00     0.129 A 
HETATM   31 CL1  UNL     1      14.013  -3.206  55.371  1.00  0.00    -0.062 Cl
HETATM   32  N4  UNL     1      14.449  -0.841  56.518  1.00  0.00    -0.287 N 
HETATM   33  N5  UNL     1      14.181   0.379  56.937  1.00  0.00    -0.272 N 
ATOM     34  H4  UNL     1      15.382  -1.226  56.666  1.00  0.00     0.188 HD
HETATM   35  C17 UNL     1      12.960   0.866  56.735  1.00  0.00     0.242 A 
ATOM     36  H5  UNL     1      14.895   0.938  57.406  1.00  0.00     0.189 HD
HETATM   37  F1  UNL     1      12.702   2.124  57.172  1.00  0.00    -0.181 F 
HETATM   38  C18 UNL     1      11.956   0.140  56.101  1.00  0.00     0.184 A 
HETATM   39  F2  UNL     1      10.773   0.754  55.956  1.00  0.00    -0.200 F 
ENDBRANCH   1  29
TORSDOF 7
ENDMDL
MODEL 2
REMARK VINA RESULT: -8.578184468      3.395      6.968
REMARK  7 active torsions:
REMARK  status: ('A' for Active; 'I' for Inactive)
REMARK    1  A    between atoms: C3_5  and  C4_6 
REMARK    2  A    between atoms: C4_6  and  S1_7 
REMARK    3  A    between atoms: C4_6  and  C15_25 
REMARK    4  A    between atoms: S1_7  and  C5_8 
REMARK    5  A    between atoms: C6_13  and  C7_14 
REMARK    6  A    between atoms: C7_14  and  C8_15 
REMARK    7  A    between atoms: C8_15  and  C9_16 
ROOT
HETATM    1  C4  UNL     1      14.472  -1.529  50.878  1.00  0.00     0.147 C 
ENDROOT
BRANCH   1   2
HETATM    2  C3  UNL     1      14.858  -1.941  52.255  1.00  0.00     0.052 A 
HETATM    3  N1  UNL     1      15.529  -1.155  53.161  1.00  0.00    -0.347 N 
HETATM    4  C2  UNL     1      15.720  -1.830  54.296  1.00  0.00     0.077 A 
ATOM      5  H1  UNL     1      15.836  -0.198  52.991  1.00  0.00     0.167 HD
HETATM    6  C1  UNL     1      16.412  -1.282  55.487  1.00  0.00     0.089 C 
HETATM    7  N6  UNL     1      15.199  -3.045  54.187  1.00  0.00    -0.348 N 
HETATM    8  C19 UNL     1      14.669  -3.115  52.932  1.00  0.00     0.030 A 
ATOM      9  H6  UNL     1      15.195  -3.778  54.896  1.00  0.00     0.167 HD
HETATM   10  C20 UNL     1      14.004  -4.338  52.447  1.00  0.00     0.070 C 
ENDBRANCH   1   2
BRANCH   1  11
HETATM   11  S1  UNL     1      12.757  -1.019  50.809  1.00  0.00    -0.069 SA
BRANCH  11  12
HETATM   12  C5  UNL     1      11.894  -1.213  52.372  1.00  0.00     0.204 A 
HETATM   13  N2  UNL     1      10.544  -1.317  52.406  1.00  0.00    -0.272 N 
HETATM   14  N3  UNL     1      10.213  -1.447  53.660  1.00  0.00    -0.281 N 
ATOM     15  H2  UNL     1       9.910  -1.298  51.607  1.00  0.00     0.189 HD
HETATM   16  C6  UNL     1      11.298  -1.431  54.434  1.00  0.00     0.142 A 
ATOM     17  H3  UNL     1       9.257  -1.547  54.001  1.00  0.00     0.189 HD
HETATM   18  O3  UNL     1      12.309  -1.284  53.586  1.00  0.00    -0.272 OA
BRANCH  16  19
HETATM   19  C7  UNL     1      11.351  -1.550  55.895  1.00  0.00     0.106 C 
BRANCH  19  20
HETATM   20  C8  UNL     1      11.380  -2.935  56.427  1.00  0.00     0.055 C 
HETATM   21  C10 UNL     1      11.697  -4.013  55.455  1.00  0.00     0.021 C 
HETATM   22  C11 UNL     1      12.021  -5.261  56.292  1.00  0.00     0.001 C 
HETATM   23  C12 UNL     1      10.747  -5.708  56.943  1.00  0.00     0.000 C 
HETATM   24  C13 UNL     1       9.996  -4.651  57.666  1.00  0.00     0.001 C 
HETATM   25  C14 UNL     1      10.086  -3.268  57.137  1.00  0.00     0.021 C 
BRANCH  20  26
HETATM   26  C9  UNL     1      12.471  -2.958  57.473  1.00  0.00     0.182 C 
HETATM   27  O1  UNL     1      12.172  -2.952  58.668  1.00  0.00    -0.647 OA
HETATM   28  O2  UNL     1      13.770  -2.986  57.041  1.00  0.00    -0.647 OA
ENDBRANCH  20  26
ENDBRANCH  19  20
ENDBRANCH  16  19
ENDBRANCH  11  12
ENDBRANCH   1  11
BRANCH   1  29
HETATM   29  C15 UNL     1      15.425  -0.585  50.264  1.00  0.00     0.045 A 
HETATM   30  C16 UNL     1      16.667  -1.042  49.809  1.00  0.00     0.129 A 
HETATM   31 CL1  UNL     1      17.102  -2.752  49.932  1.00  0.00    -0.062 Cl
HETATM   32  N4  UNL     1      17.569  -0.219  49.254  1.00  0.00    -0.287 N 
HETATM   33  N5  UNL     1      17.330   1.069  49.108  1.00  0.00    -0.272 N 
ATOM     34  H4  UNL     1      18.461  -0.599  48.937  1.00  0.00     0.188 HD
HETATM   35  C17 UNL     1      16.162   1.549  49.526  1.00  0.00     0.242 A 
ATOM     36  H5  UNL     1      18.026   1.684  48.685  1.00  0.00     0.189 HD
HETATM   37  F1  UNL     1      15.933   2.877  49.367  1.00  0.00    -0.181 F 
HETATM   38  C18 UNL     1      15.185   0.748  50.110  1.00  0.00     0.184 A 
HETATM   39  F2  UNL     1      14.050   1.360  50.478  1.00  0.00    -0.200 F 
ENDBRANCH   1  29
TORSDOF 7
ENDMDL
MODEL 3
REMARK VINA RESULT: -8.516401099      1.704      1.892
REMARK  7 active torsions:
REMARK  status: ('A' for Active; 'I' for Inactive)
REMARK    1  A    between atoms: C3_5  and  C4_6 
REMARK    2  A    between atoms: C4_6  and  S1_7 
REMARK    3  A    between atoms: C4_6  and  C15_25 
REMARK    4  A    between atoms: S1_7  and  C5_8 
REMARK    5  A    between atoms: C6_13  and  C7_14 
REMARK    6  A    between atoms: C7_14  and  C8_15 
REMARK    7  A    between atoms: C8_15  and  C9_16 
ROOT
HETATM    1  C4  UNL     1      11.353  -2.297  54.824  1.00  0.00     0.147 C 
ENDROOT
BRANCH   1   2
HETATM    2  C3  UNL     1      10.297  -2.491  55.854  1.00  0.00     0.052 A 
HETATM    3  N1  UNL     1       8.970  -2.166  55.703  1.00  0.00    -0.347 N 
HETATM    4  C2  UNL     1       8.299  -2.465  56.816  1.00  0.00     0.077 A 
ATOM      5  H1  UNL     1       8.559  -1.758  54.864  1.00  0.00     0.167 HD
HETATM    6  C1  UNL     1       6.843  -2.245  56.999  1.00  0.00     0.089 C 
HETATM    7  N6  UNL     1       9.128  -2.981  57.714  1.00  0.00    -0.348 N 
HETATM    8  C19 UNL     1      10.357  -2.996  57.124  1.00  0.00     0.030 A 
ATOM      9  H6  UNL     1       8.894  -3.301  58.654  1.00  0.00     0.167 HD
HETATM   10  C20 UNL     1      11.544  -3.503  57.837  1.00  0.00     0.070 C 
ENDBRANCH   1   2
BRANCH   1  11
HETATM   11  S1  UNL     1      10.722  -1.397  53.409  1.00  0.00    -0.069 SA
BRANCH  11  12
HETATM   12  C5  UNL     1      11.971  -1.072  52.161  1.00  0.00     0.204 A 
HETATM   13  N2  UNL     1      11.626  -0.939  50.858  1.00  0.00    -0.272 N 
HETATM   14  N3  UNL     1      12.729  -0.711  50.202  1.00  0.00    -0.281 N 
ATOM     15  H2  UNL     1      10.687  -1.005  50.466  1.00  0.00     0.189 HD
HETATM   16  C6  UNL     1      13.771  -0.691  51.033  1.00  0.00     0.142 A 
ATOM     17  H3  UNL     1      12.786  -0.567  49.194  1.00  0.00     0.189 HD
HETATM   18  O3  UNL     1      13.246  -0.920  52.231  1.00  0.00    -0.272 OA
BRANCH  16  19
HETATM   19  C7  UNL     1      15.179  -0.466  50.690  1.00  0.00     0.106 C 
BRANCH  19  20
HETATM   20  C8  UNL     1      16.119  -1.542  51.091  1.00  0.00     0.055 C 
HETATM   21  C10 UNL     1      15.600  -2.933  51.030  1.00  0.00     0.021 C 
HETATM   22  C11 UNL     1      16.828  -3.852  51.130  1.00  0.00     0.001 C 
HETATM   23  C12 UNL     1      17.378  -3.719  52.518  1.00  0.00     0.000 C 
HETATM   24  C13 UNL     1      17.603  -2.326  52.983  1.00  0.00     0.001 C 
HETATM   25  C14 UNL     1      16.685  -1.280  52.470  1.00  0.00     0.021 C 
BRANCH  20  26
HETATM   26  C9  UNL     1      17.277  -1.468  50.122  1.00  0.00     0.182 C 
HETATM   27  O1  UNL     1      17.438  -2.364  49.293  1.00  0.00    -0.647 OA
HETATM   28  O2  UNL     1      18.114  -0.388  50.208  1.00  0.00    -0.647 OA
ENDBRANCH  20  26
ENDBRANCH  19  20
ENDBRANCH  16  19
ENDBRANCH  11  12
ENDBRANCH   1  11
BRANCH   1  29
HETATM   29  C15 UNL     1      12.618  -1.776  55.376  1.00  0.00     0.045 A 
HETATM   30  C16 UNL     1      12.678  -0.469  55.874  1.00  0.00     0.129 A 
HETATM   31 CL1  UNL     1      11.241   0.564  55.878  1.00  0.00    -0.062 Cl
HETATM   32  N4  UNL     1      13.808   0.051  56.375  1.00  0.00    -0.287 N 
HETATM   33  N5  UNL     1      14.925  -0.646  56.425  1.00  0.00    -0.272 N 
ATOM     34  H4  UNL     1      13.802   1.009  56.726  1.00  0.00     0.188 HD
HETATM   35  C17 UNL     1      14.916  -1.894  55.964  1.00  0.00     0.242 A 
ATOM     36  H5  UNL     1      15.778  -0.238  56.809  1.00  0.00     0.189 HD
HETATM   37  F1  UNL     1      16.074  -2.597  56.025  1.00  0.00    -0.181 F 
HETATM   38  C18 UNL     1      13.777  -2.491  55.432  1.00  0.00     0.184 A 
HETATM   39  F2  UNL     1      13.905  -3.758  55.011  1.00  0.00    -0.200 F 
ENDBRANCH   1  29
TORSDOF 7
ENDMDL
MODEL 4
REMARK VINA RESULT: -8.318313163      2.516      4.687
REMARK  7 active torsions:
REMARK  status: ('A' for Active; 'I' for Inactive)
REMARK    1  A    between atoms: C3_5  and  C4_6 
REMARK    2  A    between atoms: C4_6  and  S1_7 
REMARK    3  A    between atoms: C4_6  and  C15_25 
REMARK    4  A    between atoms: S1_7  and  C5_8 
REMARK    5  A    between atoms: C6_13  and  C7_14 
REMARK    6  A    between atoms: C7_14  and  C8_15 
REMARK    7  A    between atoms: C8_15  and  C9_16 
ROOT
HETATM    1  C4  UNL     1      12.412  -2.222  55.488  1.00  0.00     0.147 C 
ENDROOT
BRANCH   1   2
HETATM    2  C3  UNL     1      13.099  -1.276  56.409  1.00  0.00     0.052 A 
HETATM    3  N1  UNL     1      14.081  -1.616  57.309  1.00  0.00    -0.347 N 
HETATM    4  C2  UNL     1      14.479  -0.534  57.979  1.00  0.00     0.077 A 
ATOM      5  H1  UNL     1      14.452  -2.557  57.444  1.00  0.00     0.167 HD
HETATM    6  C1  UNL     1      15.527  -0.540  59.029  1.00  0.00     0.089 C 
HETATM    7  N6  UNL     1      13.799   0.526  57.561  1.00  0.00    -0.348 N 
HETATM    8  C19 UNL     1      12.950   0.070  56.596  1.00  0.00     0.030 A 
ATOM      9  H6  UNL     1      13.892   1.486  57.894  1.00  0.00     0.167 HD
HETATM   10  C20 UNL     1      12.019   0.979  55.902  1.00  0.00     0.070 C 
ENDBRANCH   1   2
BRANCH   1  11
HETATM   11  S1  UNL     1      13.272  -3.791  55.406  1.00  0.00    -0.069 SA
BRANCH  11  12
HETATM   12  C5  UNL     1      14.554  -3.833  54.149  1.00  0.00     0.204 A 
HETATM   13  N2  UNL     1      14.789  -4.963  53.441  1.00  0.00    -0.272 N 
HETATM   14  N3  UNL     1      15.760  -4.690  52.617  1.00  0.00    -0.281 N 
ATOM     15  H2  UNL     1      14.300  -5.853  53.534  1.00  0.00     0.189 HD
HETATM   16  C6  UNL     1      16.160  -3.427  52.767  1.00  0.00     0.142 A 
ATOM     17  H3  UNL     1      16.159  -5.351  51.949  1.00  0.00     0.189 HD
HETATM   18  O3  UNL     1      15.381  -2.944  53.728  1.00  0.00    -0.272 OA
BRANCH  16  19
HETATM   19  C7  UNL     1      17.224  -2.737  52.031  1.00  0.00     0.106 C 
BRANCH  19  20
HETATM   20  C8  UNL     1      16.779  -1.903  50.887  1.00  0.00     0.055 C 
HETATM   21  C10 UNL     1      17.187  -0.474  50.909  1.00  0.00     0.021 C 
HETATM   22  C11 UNL     1      16.933   0.065  49.492  1.00  0.00     0.001 C 
HETATM   23  C12 UNL     1      15.449   0.104  49.286  1.00  0.00     0.000 C 
HETATM   24  C13 UNL     1      14.727  -1.152  49.613  1.00  0.00     0.001 C 
HETATM   25  C14 UNL     1      15.279  -1.991  50.706  1.00  0.00     0.021 C 
BRANCH  20  26
HETATM   26  C9  UNL     1      17.405  -2.514  49.655  1.00  0.00     0.182 C 
HETATM   27  O1  UNL     1      18.366  -1.961  49.120  1.00  0.00    -0.647 OA
HETATM   28  O2  UNL     1      16.869  -3.679  49.176  1.00  0.00    -0.647 OA
ENDBRANCH  20  26
ENDBRANCH  19  20
ENDBRANCH  16  19
ENDBRANCH  11  12
ENDBRANCH   1  11
BRANCH   1  29
HETATM   29  C15 UNL     1      10.960  -2.323  55.733  1.00  0.00     0.045 A 
HETATM   30  C16 UNL     1      10.055  -1.887  54.758  1.00  0.00     0.129 A 
HETATM   31 CL1  UNL     1      10.630  -1.241  53.215  1.00  0.00    -0.062 Cl
HETATM   32  N4  UNL     1       8.728  -1.949  54.941  1.00  0.00    -0.287 N 
HETATM   33  N5  UNL     1       8.206  -2.426  56.053  1.00  0.00    -0.272 N 
ATOM     34  H4  UNL     1       8.108  -1.619  54.201  1.00  0.00     0.188 HD
HETATM   35  C17 UNL     1       9.028  -2.853  57.007  1.00  0.00     0.242 A 
ATOM     36  H5  UNL     1       7.194  -2.467  56.178  1.00  0.00     0.189 HD
HETATM   37  F1  UNL     1       8.473  -3.342  58.145  1.00  0.00    -0.181 F 
HETATM   38  C18 UNL     1      10.413  -2.816  56.880  1.00  0.00     0.184 A 
HETATM   39  F2  UNL     1      11.124  -3.285  57.916  1.00  0.00    -0.200 F 
ENDBRANCH   1  29
TORSDOF 7
ENDMDL
MODEL 5
REMARK VINA RESULT: -8.142437757      3.488      6.933
REMARK  7 active torsions:
REMARK  status: ('A' for Active; 'I' for Inactive)
REMARK    1  A    between atoms: C3_5  and  C4_6 
REMARK    2  A    between atoms: C4_6  and  S1_7 
REMARK    3  A    between atoms: C4_6  and  C15_25 
REMARK    4  A    between atoms: S1_7  and  C5_8 
REMARK    5  A    between atoms: C6_13  and  C7_14 
REMARK    6  A    between atoms: C7_14  and  C8_15 
REMARK    7  A    between atoms: C8_15  and  C9_16 
ROOT
HETATM    1  C4  UNL     1      14.917  -2.016  51.025  1.00  0.00     0.147 C 
ENDROOT
BRANCH   1   2
HETATM    2  C3  UNL     1      15.371  -2.313  52.410  1.00  0.00     0.052 A 
HETATM    3  N1  UNL     1      15.823  -1.382  53.315  1.00  0.00    -0.347 N 
HETATM    4  C2  UNL     1      16.153  -1.982  54.459  1.00  0.00     0.077 A 
ATOM      5  H1  UNL     1      15.895  -0.380  53.138  1.00  0.00     0.167 HD
HETATM    6  C1  UNL     1      16.678  -1.275  55.652  1.00  0.00     0.089 C 
HETATM    7  N6  UNL     1      15.939  -3.287  54.358  1.00  0.00    -0.348 N 
HETATM    8  C19 UNL     1      15.458  -3.492  53.098  1.00  0.00     0.030 A 
ATOM      9  H6  UNL     1      16.099  -3.994  55.076  1.00  0.00     0.167 HD
HETATM   10  C20 UNL     1      15.111  -4.843  52.620  1.00  0.00     0.070 C 
ENDBRANCH   1   2
BRANCH   1  11
HETATM   11  S1  UNL     1      13.138  -1.826  50.949  1.00  0.00    -0.069 SA
BRANCH  11  12
HETATM   12  C5  UNL     1      12.365  -1.733  52.568  1.00  0.00     0.204 A 
HETATM   13  N2  UNL     1      12.176  -0.536  53.174  1.00  0.00    -0.272 N 
HETATM   14  N3  UNL     1      11.601  -0.785  54.316  1.00  0.00    -0.281 N 
ATOM     15  H2  UNL     1      12.433   0.380  52.807  1.00  0.00     0.189 HD
HETATM   16  C6  UNL     1      11.413  -2.095  54.469  1.00  0.00     0.142 A 
ATOM     17  H3  UNL     1      11.333  -0.075  54.998  1.00  0.00     0.189 HD
HETATM   18  O3  UNL     1      11.904  -2.634  53.359  1.00  0.00    -0.272 OA
BRANCH  16  19
HETATM   19  C7  UNL     1      10.799  -2.779  55.613  1.00  0.00     0.106 C 
BRANCH  19  20
HETATM   20  C8  UNL     1      11.744  -3.316  56.624  1.00  0.00     0.055 C 
HETATM   21  C10 UNL     1      11.234  -3.427  58.015  1.00  0.00     0.021 C 
HETATM   22  C11 UNL     1      12.233  -4.322  58.766  1.00  0.00     0.001 C 
HETATM   23  C12 UNL     1      13.513  -3.555  58.898  1.00  0.00     0.000 C 
HETATM   24  C13 UNL     1      14.032  -2.961  57.639  1.00  0.00     0.001 C 
HETATM   25  C14 UNL     1      13.037  -2.531  56.627  1.00  0.00     0.021 C 
BRANCH  20  26
HETATM   26  C9  UNL     1      12.085  -4.718  56.174  1.00  0.00     0.182 C 
HETATM   27  O1  UNL     1      11.304  -5.642  56.406  1.00  0.00    -0.647 OA
HETATM   28  O2  UNL     1      13.269  -4.908  55.514  1.00  0.00    -0.647 OA
ENDBRANCH  20  26
ENDBRANCH  19  20
ENDBRANCH  16  19
ENDBRANCH  11  12
ENDBRANCH   1  11
BRANCH   1  29
HETATM   29  C15 UNL     1      15.684  -0.933  50.379  1.00  0.00     0.045 A 
HETATM   30  C16 UNL     1      16.949  -1.197  49.842  1.00  0.00     0.129 A 
HETATM   31 CL1  UNL     1      17.634  -2.827  49.900  1.00  0.00    -0.062 Cl
HETATM   32  N4  UNL     1      17.688  -0.242  49.256  1.00  0.00    -0.287 N 
HETATM   33  N5  UNL     1      17.256   0.999  49.156  1.00  0.00    -0.272 N 
ATOM     34  H4  UNL     1      18.604  -0.483  48.880  1.00  0.00     0.188 HD
HETATM   35  C17 UNL     1      16.058   1.296  49.651  1.00  0.00     0.242 A 
ATOM     36  H5  UNL     1      17.828   1.715  48.708  1.00  0.00     0.189 HD
HETATM   37  F1  UNL     1      15.629   2.579  49.538  1.00  0.00    -0.181 F 
HETATM   38  C18 UNL     1      15.244   0.352  50.271  1.00  0.00     0.184 A 
HETATM   39  F2  UNL     1      14.057   0.786  50.719  1.00  0.00    -0.200 F 
ENDBRANCH   1  29
TORSDOF 7
ENDMDL
