MODEL 1
REMARK VINA RESULT: -4.962681556      0.000      0.000
REMARK  3 active torsions:
REMARK  status: ('A' for Active; 'I' for Inactive)
REMARK    1  A    between atoms: N1_1  and  N2_4 
REMARK       I    between atoms: N2_4  and  C1_6 
REMARK    2  A    between atoms: C1_6  and  C2_8 
REMARK    3  A    between atoms: C2_8  and  N3_9 
ROOT
HETATM    1  N3  UNL     1      23.211  70.189  57.421  1.00  0.00    -0.312 N 
HETATM    2  C3  UNL     1      24.536  70.350  57.130  1.00  0.00     0.112 A 
HETATM    3  C4  UNL     1      24.962  71.070  56.040  1.00  0.00     0.107 A 
HETATM    4  N4  UNL     1      24.046  71.642  55.222  1.00  0.00    -0.349 N 
ATOM      5  H4  UNL     1      24.354  72.179  54.410  1.00  0.00     0.166 HD
HETATM    6  C5  UNL     1      22.722  71.504  55.480  1.00  0.00     0.185 A 
HETATM    7  N5  UNL     1      21.786  72.115  54.605  1.00  0.00    -0.077 NA
HETATM    8  C6  UNL     1      22.354  70.772  56.585  1.00  0.00     0.289 A 
HETATM    9  O2  UNL     1      21.124  70.657  56.804  1.00  0.00    -0.264 OA
ENDROOT
BRANCH   1  10
HETATM   10  C2  UNL     1      22.844  69.416  58.592  1.00  0.00     0.236 C 
BRANCH  10  11
HETATM   11  C1  UNL     1      22.627  70.263  59.792  1.00  0.00     0.253 C 
HETATM   12  N2  UNL     1      21.378  70.879  60.039  1.00  0.00    -0.275 N 
ATOM     13  H2  UNL     1      20.599  70.751  59.393  1.00  0.00     0.189 HD
HETATM   14  O1  UNL     1      23.580  70.420  60.586  1.00  0.00    -0.270 OA
BRANCH  12  15
HETATM   15  N1  UNL     1      21.230  71.665  61.183  1.00  0.00    -0.343 N 
ATOM     16  H12 UNL     1      21.766  71.441  62.021  1.00  0.00     0.176 HD
ATOM     17  H11 UNL     1      20.584  72.454  61.157  1.00  0.00     0.176 HD
ENDBRANCH  12  15
ENDBRANCH  10  11
ENDBRANCH   1  10
TORSDOF 3
ENDMDL
MODEL 2
REMARK VINA RESULT: -4.831102984      1.211      1.211
REMARK  3 active torsions:
REMARK  status: ('A' for Active; 'I' for Inactive)
REMARK    1  A    between atoms: N1_1  and  N2_4 
REMARK       I    between atoms: N2_4  and  C1_6 
REMARK    2  A    between atoms: C1_6  and  C2_8 
REMARK    3  A    between atoms: C2_8  and  N3_9 
ROOT
HETATM    1  N3  UNL     1      23.220  70.190  57.416  1.00  0.00    -0.312 N 
HETATM    2  C3  UNL     1      24.542  70.365  57.122  1.00  0.00     0.112 A 
HETATM    3  C4  UNL     1      24.957  71.089  56.030  1.00  0.00     0.107 A 
HETATM    4  N4  UNL     1      24.033  71.650  55.213  1.00  0.00    -0.349 N 
ATOM      5  H4  UNL     1      24.333  72.189  54.400  1.00  0.00     0.166 HD
HETATM    6  C5  UNL     1      22.711  71.497  55.474  1.00  0.00     0.185 A 
HETATM    7  N5  UNL     1      21.766  72.097  54.600  1.00  0.00    -0.077 NA
HETATM    8  C6  UNL     1      22.354  70.763  56.581  1.00  0.00     0.289 A 
HETATM    9  O2  UNL     1      21.125  70.634  56.802  1.00  0.00    -0.264 OA
ENDROOT
BRANCH   1  10
HETATM   10  C2  UNL     1      22.864  69.415  58.588  1.00  0.00     0.236 C 
BRANCH  10  11
HETATM   11  C1  UNL     1      22.848  70.228  59.830  1.00  0.00     0.253 C 
HETATM   12  N2  UNL     1      23.995  70.337  60.651  1.00  0.00    -0.275 N 
ATOM     13  H2  UNL     1      24.859  69.856  60.402  1.00  0.00     0.189 HD
HETATM   14  O1  UNL     1      21.790  70.819  60.137  1.00  0.00    -0.270 OA
BRANCH  12  15
HETATM   15  N1  UNL     1      23.923  71.115  61.807  1.00  0.00    -0.343 N 
ATOM     16  H12 UNL     1      24.520  71.937  61.899  1.00  0.00     0.176 HD
ATOM     17  H11 UNL     1      23.271  70.843  62.543  1.00  0.00     0.176 HD
ENDBRANCH  12  15
ENDBRANCH  10  11
ENDBRANCH   1  10
TORSDOF 3
ENDMDL
MODEL 3
REMARK VINA RESULT: -4.733218080      1.975      2.679
REMARK  3 active torsions:
REMARK  status: ('A' for Active; 'I' for Inactive)
REMARK    1  A    between atoms: N1_1  and  N2_4 
REMARK       I    between atoms: N2_4  and  C1_6 
REMARK    2  A    between atoms: C1_6  and  C2_8 
REMARK    3  A    between atoms: C2_8  and  N3_9 
ROOT
HETATM    1  N3  UNL     1      23.216  70.114  57.358  1.00  0.00    -0.312 N 
HETATM    2  C3  UNL     1      24.537  70.327  57.086  1.00  0.00     0.112 A 
HETATM    3  C4  UNL     1      24.949  71.114  56.036  1.00  0.00     0.107 A 
HETATM    4  N4  UNL     1      24.021  71.701  55.241  1.00  0.00    -0.349 N 
ATOM      5  H4  UNL     1      24.318  72.286  54.460  1.00  0.00     0.166 HD
HETATM    6  C5  UNL     1      22.700  71.511  55.482  1.00  0.00     0.185 A 
HETATM    7  N5  UNL     1      21.752  72.139  54.632  1.00  0.00    -0.077 NA
HETATM    8  C6  UNL     1      22.347  70.714  56.546  1.00  0.00     0.289 A 
HETATM    9  O2  UNL     1      21.119  70.553  56.749  1.00  0.00    -0.264 OA
ENDROOT
BRANCH   1  10
HETATM   10  C2  UNL     1      22.864  69.273  58.485  1.00  0.00     0.236 C 
BRANCH  10  11
HETATM   11  C1  UNL     1      22.724  67.844  58.112  1.00  0.00     0.253 C 
HETATM   12  N2  UNL     1      21.635  67.392  57.330  1.00  0.00    -0.275 N 
ATOM     13  H2  UNL     1      20.922  68.046  57.006  1.00  0.00     0.189 HD
HETATM   14  O1  UNL     1      23.596  67.039  58.506  1.00  0.00    -0.270 OA
BRANCH  12  15
HETATM   15  N1  UNL     1      21.553  66.037  57.009  1.00  0.00    -0.343 N 
ATOM     16  H12 UNL     1      22.396  65.462  57.026  1.00  0.00     0.176 HD
ATOM     17  H11 UNL     1      20.644  65.644  56.761  1.00  0.00     0.176 HD
ENDBRANCH  12  15
ENDBRANCH  10  11
ENDBRANCH   1  10
TORSDOF 3
ENDMDL
MODEL 4
REMARK VINA RESULT: -4.675938227      1.764      2.399
REMARK  3 active torsions:
REMARK  status: ('A' for Active; 'I' for Inactive)
REMARK    1  A    between atoms: N1_1  and  N2_4 
REMARK       I    between atoms: N2_4  and  C1_6 
REMARK    2  A    between atoms: C1_6  and  C2_8 
REMARK    3  A    between atoms: C2_8  and  N3_9 
ROOT
HETATM    1  N3  UNL     1      21.897  71.162  57.202  1.00  0.00    -0.312 N 
HETATM    2  C3  UNL     1      21.488  72.151  56.354  1.00  0.00     0.112 A 
HETATM    3  C4  UNL     1      22.314  72.671  55.386  1.00  0.00     0.107 A 
HETATM    4  N4  UNL     1      23.576  72.195  55.263  1.00  0.00    -0.349 N 
ATOM      5  H4  UNL     1      24.196  72.575  54.548  1.00  0.00     0.166 HD
HETATM    6  C5  UNL     1      24.017  71.212  56.088  1.00  0.00     0.185 A 
HETATM    7  N5  UNL     1      25.344  70.733  55.935  1.00  0.00    -0.077 NA
HETATM    8  C6  UNL     1      23.146  70.730  57.037  1.00  0.00     0.289 A 
HETATM    9  O2  UNL     1      23.576  69.822  57.790  1.00  0.00    -0.264 OA
ENDROOT
BRANCH   1  10
HETATM   10  C2  UNL     1      20.963  70.665  58.194  1.00  0.00     0.236 C 
BRANCH  10  11
HETATM   11  C1  UNL     1      21.008  71.436  59.461  1.00  0.00     0.253 C 
HETATM   12  N2  UNL     1      20.298  72.650  59.607  1.00  0.00    -0.275 N 
ATOM     13  H2  UNL     1      19.736  73.019  58.839  1.00  0.00     0.189 HD
HETATM   14  O1  UNL     1      21.695  70.986  60.405  1.00  0.00    -0.270 OA
BRANCH  12  15
HETATM   15  N1  UNL     1      20.377  73.335  60.821  1.00  0.00    -0.343 N 
ATOM     16  H12 UNL     1      21.070  74.074  60.938  1.00  0.00     0.176 HD
ATOM     17  H11 UNL     1      19.736  73.080  61.572  1.00  0.00     0.176 HD
ENDBRANCH  12  15
ENDBRANCH  10  11
ENDBRANCH   1  10
TORSDOF 3
ENDMDL
MODEL 5
REMARK VINA RESULT: -4.626573484      2.280      4.953
REMARK  3 active torsions:
REMARK  status: ('A' for Active; 'I' for Inactive)
REMARK    1  A    between atoms: N1_1  and  N2_4 
REMARK       I    between atoms: N2_4  and  C1_6 
REMARK    2  A    between atoms: C1_6  and  C2_8 
REMARK    3  A    between atoms: C2_8  and  N3_9 
ROOT
HETATM    1  N3  UNL     1      21.045  71.286  57.836  1.00  0.00    -0.312 N 
HETATM    2  C3  UNL     1      21.246  69.989  57.458  1.00  0.00     0.112 A 
HETATM    3  C4  UNL     1      21.050  68.938  58.321  1.00  0.00     0.107 A 
HETATM    4  N4  UNL     1      20.645  69.186  59.590  1.00  0.00    -0.349 N 
ATOM      5  H4  UNL     1      20.497  68.411  60.237  1.00  0.00     0.166 HD
HETATM    6  C5  UNL     1      20.435  70.461  60.001  1.00  0.00     0.185 A 
HETATM    7  N5  UNL     1      20.010  70.690  61.336  1.00  0.00    -0.077 NA
HETATM    8  C6  UNL     1      20.647  71.473  59.094  1.00  0.00     0.289 A 
HETATM    9  O2  UNL     1      20.447  72.645  59.496  1.00  0.00    -0.264 OA
ENDROOT
BRANCH   1  10
HETATM   10  C2  UNL     1      21.271  72.338  56.864  1.00  0.00     0.236 C 
BRANCH  10  11
HETATM   11  C1  UNL     1      22.245  71.949  55.815  1.00  0.00     0.253 C 
HETATM   12  N2  UNL     1      23.563  71.558  56.145  1.00  0.00    -0.275 N 
ATOM     13  H2  UNL     1      23.870  71.537  57.117  1.00  0.00     0.189 HD
HETATM   14  O1  UNL     1      21.871  71.974  54.621  1.00  0.00    -0.270 OA
BRANCH  12  15
HETATM   15  N1  UNL     1      24.437  71.203  55.116  1.00  0.00    -0.343 N 
ATOM     16  H12 UNL     1      25.016  70.368  55.213  1.00  0.00     0.176 HD
ATOM     17  H11 UNL     1      24.481  71.789  54.283  1.00  0.00     0.176 HD
ENDBRANCH  12  15
ENDBRANCH  10  11
ENDBRANCH   1  10
TORSDOF 3
ENDMDL
