MODEL 1
REMARK VINA RESULT: -5.005125721      0.000      0.000
REMARK  3 active torsions:
REMARK  status: ('A' for Active; 'I' for Inactive)
REMARK    1  A    between atoms: N1_1  and  N2_4 
REMARK    2  A    between atoms: N2_4  and  N3_5 
REMARK       I    between atoms: N3_5  and  C1_7 
REMARK    3  A    between atoms: N5_9  and  C2_11 
ROOT
HETATM    1  N3  UNL     1      -2.409  -2.834 -20.042  1.00  0.00    -0.187 N 
ATOM      2  H3  UNL     1      -2.059  -3.716 -19.668  1.00  0.00     0.206 HD
HETATM    3  C1  UNL     1      -1.814  -1.620 -19.617  1.00  0.00     0.221 C 
HETATM    4  N4  UNL     1      -1.117  -1.633 -18.380  1.00  0.00    -0.061 NA
HETATM    5  N5  UNL     1      -1.912  -0.543 -20.339  1.00  0.00    -0.307 N 
ATOM      6  H5  UNL     1      -2.422  -0.577 -21.222  1.00  0.00     0.170 HD
ENDROOT
BRANCH   1   7
HETATM    7  N2  UNL     1      -3.350  -2.852 -20.863  1.00  0.00    -0.241 NA
BRANCH   7   8
HETATM    8  N1  UNL     1      -4.372  -3.229 -21.475  1.00  0.00    -0.260 N 
ATOM      9  H12 UNL     1      -4.429  -4.152 -21.045  1.00  0.00     0.193 HD
ATOM     10  H11 UNL     1      -5.170  -3.221 -22.110  1.00  0.00     0.193 HD
ENDBRANCH   7   8
ENDBRANCH   1   7
BRANCH   5  11
HETATM   11  C2  UNL     1      -1.320   0.679 -19.921  1.00  0.00     0.355 C 
HETATM   12  O1  UNL     1      -1.759   1.807 -20.294  1.00  0.00    -0.283 OA
ENDBRANCH   5  11
TORSDOF 3
ENDMDL
MODEL 2
REMARK VINA RESULT: -4.818207384      6.516      6.957
REMARK  3 active torsions:
REMARK  status: ('A' for Active; 'I' for Inactive)
REMARK    1  A    between atoms: N1_1  and  N2_4 
REMARK    2  A    between atoms: N2_4  and  N3_5 
REMARK       I    between atoms: N3_5  and  C1_7 
REMARK    3  A    between atoms: N5_9  and  C2_11 
ROOT
HETATM    1  N3  UNL     1      -2.802   4.744 -20.983  1.00  0.00    -0.187 N 
ATOM      2  H3  UNL     1      -2.426   5.279 -20.200  1.00  0.00     0.206 HD
HETATM    3  C1  UNL     1      -4.203   4.551 -21.077  1.00  0.00     0.221 C 
HETATM    4  N4  UNL     1      -4.961   4.681 -19.884  1.00  0.00    -0.061 NA
HETATM    5  N5  UNL     1      -4.759   4.266 -22.217  1.00  0.00    -0.307 N 
ATOM      6  H5  UNL     1      -4.178   4.182 -23.051  1.00  0.00     0.170 HD
ENDROOT
BRANCH   1   7
HETATM    7  N2  UNL     1      -2.016   4.276 -21.833  1.00  0.00    -0.241 NA
BRANCH   7   8
HETATM    8  N1  UNL     1      -0.951   3.933 -22.390  1.00  0.00    -0.260 N 
ATOM      9  H12 UNL     1      -1.208   2.957 -22.537  1.00  0.00     0.193 HD
ATOM     10  H11 UNL     1      -0.013   3.987 -22.786  1.00  0.00     0.193 HD
ENDBRANCH   7   8
ENDBRANCH   1   7
BRANCH   5  11
HETATM   11  C2  UNL     1      -6.163   4.070 -22.322  1.00  0.00     0.355 C 
HETATM   12  O1  UNL     1      -6.666   3.116 -22.985  1.00  0.00    -0.283 OA
ENDBRANCH   5  11
TORSDOF 3
ENDMDL
MODEL 3
REMARK VINA RESULT: -4.803426157      2.105      2.509
REMARK  3 active torsions:
REMARK  status: ('A' for Active; 'I' for Inactive)
REMARK    1  A    between atoms: N1_1  and  N2_4 
REMARK    2  A    between atoms: N2_4  and  N3_5 
REMARK       I    between atoms: N3_5  and  C1_7 
REMARK    3  A    between atoms: N5_9  and  C2_11 
ROOT
HETATM    1  N3  UNL     1      -3.134  -1.143 -21.260  1.00  0.00    -0.187 N 
ATOM      2  H3  UNL     1      -3.522  -0.359 -21.784  1.00  0.00     0.206 HD
HETATM    3  C1  UNL     1      -2.086  -0.905 -20.335  1.00  0.00     0.221 C 
HETATM    4  N4  UNL     1      -1.316   0.274 -20.512  1.00  0.00    -0.061 NA
HETATM    5  N5  UNL     1      -1.852  -1.741 -19.368  1.00  0.00    -0.307 N 
ATOM      6  H5  UNL     1      -2.429  -2.576 -19.276  1.00  0.00     0.170 HD
ENDROOT
BRANCH   1   7
HETATM    7  N2  UNL     1      -3.593  -2.288 -21.450  1.00  0.00    -0.241 NA
BRANCH   7   8
HETATM    8  N1  UNL     1      -4.390  -3.251 -21.461  1.00  0.00    -0.260 N 
ATOM      9  H12 UNL     1      -3.683  -3.985 -21.476  1.00  0.00     0.193 HD
ATOM     10  H11 UNL     1      -5.266  -3.774 -21.465  1.00  0.00     0.193 HD
ENDBRANCH   7   8
ENDBRANCH   1   7
BRANCH   5  11
HETATM   11  C2  UNL     1      -0.804  -1.511 -18.436  1.00  0.00     0.355 C 
HETATM   12  O1  UNL     1      -0.656  -2.217 -17.394  1.00  0.00    -0.283 OA
ENDBRANCH   5  11
TORSDOF 3
ENDMDL
MODEL 4
REMARK VINA RESULT: -4.787901340      6.551      6.924
REMARK  3 active torsions:
REMARK  status: ('A' for Active; 'I' for Inactive)
REMARK    1  A    between atoms: N1_1  and  N2_4 
REMARK    2  A    between atoms: N2_4  and  N3_5 
REMARK       I    between atoms: N3_5  and  C1_7 
REMARK    3  A    between atoms: N5_9  and  C2_11 
ROOT
HETATM    1  N3  UNL     1      -2.276   4.686 -20.845  1.00  0.00    -0.187 N 
ATOM      2  H3  UNL     1      -1.716   5.116 -20.109  1.00  0.00     0.206 HD
HETATM    3  C1  UNL     1      -3.688   4.678 -20.723  1.00  0.00     0.221 C 
HETATM    4  N4  UNL     1      -4.230   4.825 -19.419  1.00  0.00    -0.061 NA
HETATM    5  N5  UNL     1      -4.444   4.541 -21.771  1.00  0.00    -0.307 N 
ATOM      6  H5  UNL     1      -4.014   4.439 -22.690  1.00  0.00     0.170 HD
ENDROOT
BRANCH   1   7
HETATM    7  N2  UNL     1      -1.699   4.179 -21.829  1.00  0.00    -0.241 NA
BRANCH   7   8
HETATM    8  N1  UNL     1      -0.786   3.824 -22.606  1.00  0.00    -0.260 N 
ATOM      9  H12 UNL     1      -0.078   4.466 -22.251  1.00  0.00     0.193 HD
ATOM     10  H11 UNL     1      -0.294   3.325 -23.347  1.00  0.00     0.193 HD
ENDBRANCH   7   8
ENDBRANCH   1   7
BRANCH   5  11
HETATM   11  C2  UNL     1      -5.861   4.531 -21.659  1.00  0.00     0.355 C 
HETATM   12  O1  UNL     1      -6.563   5.567 -21.851  1.00  0.00    -0.283 OA
ENDBRANCH   5  11
TORSDOF 3
ENDMDL
MODEL 5
REMARK VINA RESULT: -4.657206208      4.106      5.453
REMARK  3 active torsions:
REMARK  status: ('A' for Active; 'I' for Inactive)
REMARK    1  A    between atoms: N1_1  and  N2_4 
REMARK    2  A    between atoms: N2_4  and  N3_5 
REMARK       I    between atoms: N3_5  and  C1_7 
REMARK    3  A    between atoms: N5_9  and  C2_11 
ROOT
HETATM    1  N3  UNL     1      -1.768   3.058 -20.527  1.00  0.00    -0.187 N 
ATOM      2  H3  UNL     1      -0.911   3.575 -20.721  1.00  0.00     0.206 HD
HETATM    3  C1  UNL     1      -3.014   3.725 -20.632  1.00  0.00     0.221 C 
HETATM    4  N4  UNL     1      -3.007   5.141 -20.532  1.00  0.00    -0.061 NA
HETATM    5  N5  UNL     1      -4.113   3.054 -20.813  1.00  0.00    -0.307 N 
ATOM      6  H5  UNL     1      -4.074   2.037 -20.880  1.00  0.00     0.170 HD
ENDROOT
BRANCH   1   7
HETATM    7  N2  UNL     1      -1.692   1.855 -20.202  1.00  0.00    -0.241 NA
BRANCH   7   8
HETATM    8  N1  UNL     1      -1.638   0.610 -20.298  1.00  0.00    -0.260 N 
ATOM      9  H12 UNL     1      -0.624   0.545 -20.377  1.00  0.00     0.193 HD
ATOM     10  H11 UNL     1      -1.936  -0.365 -20.348  1.00  0.00     0.193 HD
ENDBRANCH   7   8
ENDBRANCH   1   7
BRANCH   5  11
HETATM   11  C2  UNL     1      -5.368   3.712 -20.919  1.00  0.00     0.355 C 
HETATM   12  O1  UNL     1      -6.418   3.264 -20.371  1.00  0.00    -0.283 OA
ENDBRANCH   5  11
TORSDOF 3
ENDMDL
