MODEL 1
REMARK VINA RESULT: -5.765795838      0.000      0.000
REMARK  9 active torsions:
REMARK  status: ('A' for Active; 'I' for Inactive)
REMARK    1  A    between atoms: C2_2  and  C3_3 
REMARK    2  A    between atoms: C3_3  and  C5_5 
REMARK    3  A    between atoms: C6_6  and  O1_7 
REMARK    4  A    between atoms: C12_17  and  C13_18 
REMARK    5  A    between atoms: C16_22  and  O5_23 
REMARK    6  A    between atoms: C17_27  and  C18_28 
REMARK    7  A    between atoms: C22_35  and  C23_36 
REMARK    8  A    between atoms: C23_36  and  C24_37 
REMARK    9  A    between atoms: C24_37  and  S1_38 
ROOT
HETATM    1  C5  UNL     1       1.794   1.150 -12.356  1.00  0.00     0.076 C 
HETATM    2  C6  UNL     1       2.296  -0.232 -12.587  1.00  0.00     0.203 C 
HETATM    3  O2  UNL     1       2.383  -1.125 -11.631  1.00  0.00    -0.314 OA
HETATM    4  C7  UNL     1       3.116  -2.109 -11.058  1.00  0.00     0.226 C 
HETATM    5  C8  UNL     1       4.622  -1.942 -11.052  1.00  0.00     0.051 C 
HETATM    6  C9  UNL     1       2.712  -3.441 -11.659  1.00  0.00     0.288 C 
HETATM    7  O3  UNL     1       2.674  -4.371 -10.800  1.00  0.00    -0.262 OA
HETATM    8  O4  UNL     1       2.461  -3.456 -12.967  1.00  0.00    -0.312 OA
HETATM    9  C10 UNL     1       2.767  -4.126 -14.127  1.00  0.00     0.150 C 
HETATM   10  C11 UNL     1       4.234  -4.344 -14.211  1.00  0.00     0.042 C 
HETATM   11  C12 UNL     1       1.875  -5.298 -14.389  1.00  0.00     0.116 C 
HETATM   12  N1  UNL     1       0.903  -5.047 -15.455  1.00  0.00    -0.345 N 
HETATM   13  C15 UNL     1       0.454  -6.230 -16.170  1.00  0.00     0.154 C 
HETATM   14  C16 UNL     1       0.393  -3.800 -15.833  1.00  0.00     0.215 C 
HETATM   15  N2  UNL     1      -0.158  -2.721 -15.136  1.00  0.00    -0.343 N 
ATOM     16  H2  UNL     1       0.463  -1.913 -15.105  1.00  0.00     0.164 HD
HETATM   17  C17 UNL     1      -1.390  -2.496 -14.460  1.00  0.00     0.180 C 
HETATM   18  C21 UNL     1      -1.316  -1.963 -13.101  1.00  0.00     0.241 C 
HETATM   19  O6  UNL     1      -0.766  -2.765 -12.253  1.00  0.00    -0.271 OA
HETATM   20  N3  UNL     1      -1.730  -0.752 -12.555  1.00  0.00    -0.346 N 
ATOM     21  H3  UNL     1      -2.245  -0.866 -11.683  1.00  0.00     0.163 HD
HETATM   22  C22 UNL     1      -1.595   0.600 -12.943  1.00  0.00     0.177 C 
HETATM   23  C26 UNL     1      -0.418   1.027 -13.690  1.00  0.00     0.246 C 
HETATM   24  O7  UNL     1      -0.512   0.830 -14.967  1.00  0.00    -0.271 OA
HETATM   25  N4  UNL     1       0.801   1.614 -13.307  1.00  0.00    -0.319 N 
HETATM   26  C27 UNL     1       1.173   2.918 -13.964  1.00  0.00     0.159 C 
ENDROOT
BRANCH   1  27
HETATM   27  C3  UNL     1       1.637   1.619 -10.971  1.00  0.00     0.036 C 
HETATM   28  C4  UNL     1       0.677   0.927 -10.072  1.00  0.00     0.016 C 
BRANCH  27  29
HETATM   29  C2  UNL     1       2.962   1.780 -10.257  1.00  0.00     0.006 C 
HETATM   30  C1  UNL     1       2.947   1.073  -8.911  1.00  0.00     0.006 C 
ENDBRANCH  27  29
ENDBRANCH   1  27
BRANCH   2  31
HETATM   31  O1  UNL     1       2.608  -0.364 -13.847  1.00  0.00    -0.339 OA
ATOM     32  H1  UNL     1       3.518  -0.631 -13.913  1.00  0.00     0.220 HD
ENDBRANCH   2  31
BRANCH  22  33
HETATM   33  C23 UNL     1      -2.884   0.919 -13.748  1.00  0.00     0.045 C 
BRANCH  33  34
HETATM   34  C24 UNL     1      -4.098   0.632 -12.963  1.00  0.00     0.076 C 
BRANCH  34  35
HETATM   35  S1  UNL     1      -4.359   1.853 -11.641  1.00  0.00    -0.173 SA
HETATM   36  C25 UNL     1      -5.696   1.313 -10.513  1.00  0.00     0.089 C 
ENDBRANCH  34  35
ENDBRANCH  33  34
ENDBRANCH  22  33
BRANCH  17  37
HETATM   37  C18 UNL     1      -2.419  -3.586 -14.507  1.00  0.00     0.009 C 
HETATM   38  C19 UNL     1      -3.660  -3.144 -13.743  1.00  0.00     0.012 C 
HETATM   39  C20 UNL     1      -2.707  -4.219 -15.796  1.00  0.00     0.012 C 
ENDBRANCH  17  37
BRANCH  11  40
HETATM   40  C13 UNL     1       2.531  -6.621 -14.486  1.00  0.00     0.023 C 
HETATM   41  C14 UNL     1       2.622  -7.484 -13.297  1.00  0.00     0.007 C 
ENDBRANCH  11  40
BRANCH  14  42
HETATM   42  O5  UNL     1       0.454  -3.622 -17.129  1.00  0.00    -0.333 OA
ATOM     43  H5  UNL     1       0.847  -2.787 -17.352  1.00  0.00     0.220 HD
ENDBRANCH  14  42
TORSDOF 9
ENDMDL
MODEL 2
REMARK VINA RESULT: -5.669578784      6.170     10.866
REMARK  9 active torsions:
REMARK  status: ('A' for Active; 'I' for Inactive)
REMARK    1  A    between atoms: C2_2  and  C3_3 
REMARK    2  A    between atoms: C3_3  and  C5_5 
REMARK    3  A    between atoms: C6_6  and  O1_7 
REMARK    4  A    between atoms: C12_17  and  C13_18 
REMARK    5  A    between atoms: C16_22  and  O5_23 
REMARK    6  A    between atoms: C17_27  and  C18_28 
REMARK    7  A    between atoms: C22_35  and  C23_36 
REMARK    8  A    between atoms: C23_36  and  C24_37 
REMARK    9  A    between atoms: C24_37  and  S1_38 
ROOT
HETATM    1  C5  UNL     1       1.952  -9.811 -21.530  1.00  0.00     0.076 C 
HETATM    2  C6  UNL     1       2.702  -8.525 -21.544  1.00  0.00     0.203 C 
HETATM    3  O2  UNL     1       2.416  -7.545 -22.366  1.00  0.00    -0.314 OA
HETATM    4  C7  UNL     1       2.887  -6.587 -23.200  1.00  0.00     0.226 C 
HETATM    5  C8  UNL     1       4.129  -6.913 -24.004  1.00  0.00     0.051 C 
HETATM    6  C9  UNL     1       3.055  -5.295 -22.425  1.00  0.00     0.288 C 
HETATM    7  O3  UNL     1       2.719  -4.276 -23.098  1.00  0.00    -0.262 OA
HETATM    8  O4  UNL     1       3.520  -5.400 -21.181  1.00  0.00    -0.312 OA
HETATM    9  C10 UNL     1       4.476  -4.901 -20.331  1.00  0.00     0.150 C 
HETATM   10  C11 UNL     1       5.790  -4.851 -21.022  1.00  0.00     0.042 C 
HETATM   11  C12 UNL     1       4.034  -3.677 -19.592  1.00  0.00     0.116 C 
HETATM   12  N1  UNL     1       3.725  -3.940 -18.185  1.00  0.00    -0.345 N 
HETATM   13  C15 UNL     1       3.892  -2.803 -17.295  1.00  0.00     0.154 C 
HETATM   14  C16 UNL     1       3.304  -5.160 -17.645  1.00  0.00     0.215 C 
HETATM   15  N2  UNL     1       2.319  -6.089 -17.989  1.00  0.00    -0.343 N 
ATOM     16  H2  UNL     1       2.706  -6.950 -18.374  1.00  0.00     0.164 HD
HETATM   17  C17 UNL     1       0.896  -6.104 -17.925  1.00  0.00     0.180 C 
HETATM   18  C21 UNL     1       0.178  -6.487 -19.139  1.00  0.00     0.241 C 
HETATM   19  O6  UNL     1       0.325  -5.658 -20.117  1.00  0.00    -0.271 OA
HETATM   20  N3  UNL     1      -0.633  -7.578 -19.432  1.00  0.00    -0.346 N 
ATOM     21  H3  UNL     1      -1.500  -7.313 -19.898  1.00  0.00     0.163 HD
HETATM   22  C22 UNL     1      -0.521  -8.971 -19.227  1.00  0.00     0.177 C 
HETATM   23  C26 UNL     1       0.792  -9.602 -19.228  1.00  0.00     0.246 C 
HETATM   24  O7  UNL     1       1.401  -9.541 -18.087  1.00  0.00    -0.271 OA
HETATM   25  N4  UNL     1       1.536 -10.269 -20.218  1.00  0.00    -0.319 N 
HETATM   26  C27 UNL     1       1.994 -11.671 -19.907  1.00  0.00     0.159 C 
ENDROOT
BRANCH   1  27
HETATM   27  C3  UNL     1       1.036 -10.103 -22.643  1.00  0.00     0.036 C 
HETATM   28  C4  UNL     1      -0.002  -9.105 -23.011  1.00  0.00     0.016 C 
BRANCH  27  29
HETATM   29  C2  UNL     1       1.762 -10.552 -23.893  1.00  0.00     0.006 C 
HETATM   30  C1  UNL     1       1.467  -9.625 -25.060  1.00  0.00     0.006 C 
ENDBRANCH  27  29
ENDBRANCH   1  27
BRANCH   2  31
HETATM   31  O1  UNL     1       3.635  -8.569 -20.633  1.00  0.00    -0.339 OA
ATOM     32  H1  UNL     1       3.489  -7.869 -20.007  1.00  0.00     0.220 HD
ENDBRANCH   2  31
BRANCH  22  33
HETATM   33  C23 UNL     1      -1.243  -9.239 -17.878  1.00  0.00     0.045 C 
BRANCH  33  34
HETATM   34  C24 UNL     1      -2.697  -9.035 -17.991  1.00  0.00     0.076 C 
BRANCH  34  35
HETATM   35  S1  UNL     1      -3.408  -8.341 -16.468  1.00  0.00    -0.173 SA
HETATM   36  C25 UNL     1      -5.230  -8.526 -16.460  1.00  0.00     0.089 C 
ENDBRANCH  34  35
ENDBRANCH  33  34
ENDBRANCH  22  33
BRANCH  17  37
HETATM   37  C18 UNL     1       0.216  -4.923 -17.300  1.00  0.00     0.009 C 
HETATM   38  C19 UNL     1      -1.288  -5.164 -17.268  1.00  0.00     0.012 C 
HETATM   39  C20 UNL     1       0.760  -4.382 -16.053  1.00  0.00     0.012 C 
ENDBRANCH  17  37
BRANCH  11  40
HETATM   40  C13 UNL     1       4.836  -2.451 -19.803  1.00  0.00     0.023 C 
HETATM   41  C14 UNL     1       4.507  -1.542 -20.913  1.00  0.00     0.007 C 
ENDBRANCH  11  40
BRANCH  14  42
HETATM   42  O5  UNL     1       3.997  -5.487 -16.583  1.00  0.00    -0.333 OA
ATOM     43  H5  UNL     1       3.938  -6.417 -16.396  1.00  0.00     0.220 HD
ENDBRANCH  14  42
TORSDOF 9
ENDMDL
MODEL 3
REMARK VINA RESULT: -5.493836084      1.025      1.084
REMARK  9 active torsions:
REMARK  status: ('A' for Active; 'I' for Inactive)
REMARK    1  A    between atoms: C2_2  and  C3_3 
REMARK    2  A    between atoms: C3_3  and  C5_5 
REMARK    3  A    between atoms: C6_6  and  O1_7 
REMARK    4  A    between atoms: C12_17  and  C13_18 
REMARK    5  A    between atoms: C16_22  and  O5_23 
REMARK    6  A    between atoms: C17_27  and  C18_28 
REMARK    7  A    between atoms: C22_35  and  C23_36 
REMARK    8  A    between atoms: C23_36  and  C24_37 
REMARK    9  A    between atoms: C24_37  and  S1_38 
ROOT
HETATM    1  C5  UNL     1       2.534   0.225 -12.271  1.00  0.00     0.076 C 
HETATM    2  C6  UNL     1       2.830  -1.173 -12.689  1.00  0.00     0.203 C 
HETATM    3  O2  UNL     1       2.858  -2.175 -11.844  1.00  0.00    -0.314 OA
HETATM    4  C7  UNL     1       3.488  -3.304 -11.439  1.00  0.00     0.226 C 
HETATM    5  C8  UNL     1       5.000  -3.329 -11.534  1.00  0.00     0.051 C 
HETATM    6  C9  UNL     1       2.872  -4.495 -12.146  1.00  0.00     0.288 C 
HETATM    7  O3  UNL     1       2.764  -5.507 -11.391  1.00  0.00    -0.262 OA
HETATM    8  O4  UNL     1       2.537  -4.325 -13.424  1.00  0.00    -0.312 OA
HETATM    9  C10 UNL     1       2.676  -4.889 -14.669  1.00  0.00     0.150 C 
HETATM   10  C11 UNL     1       4.091  -5.279 -14.892  1.00  0.00     0.042 C 
HETATM   11  C12 UNL     1       1.619  -5.900 -14.984  1.00  0.00     0.116 C 
HETATM   12  N1  UNL     1       0.623  -5.406 -15.937  1.00  0.00    -0.345 N 
HETATM   13  C15 UNL     1      -0.025  -6.432 -16.737  1.00  0.00     0.154 C 
HETATM   14  C16 UNL     1       0.262  -4.070 -16.138  1.00  0.00     0.215 C 
HETATM   15  N2  UNL     1      -0.094  -3.019 -15.288  1.00  0.00    -0.343 N 
ATOM     16  H2  UNL     1       0.631  -2.305 -15.220  1.00  0.00     0.164 HD
HETATM   17  C17 UNL     1      -1.239  -2.721 -14.496  1.00  0.00     0.180 C 
HETATM   18  C21 UNL     1      -1.007  -2.363 -13.098  1.00  0.00     0.241 C 
HETATM   19  O6  UNL     1      -0.516  -3.322 -12.387  1.00  0.00    -0.271 OA
HETATM   20  N3  UNL     1      -1.218  -1.182 -12.395  1.00  0.00    -0.346 N 
ATOM     21  H3  UNL     1      -1.687  -1.331 -11.502  1.00  0.00     0.163 HD
HETATM   22  C22 UNL     1      -0.929   0.178 -12.645  1.00  0.00     0.177 C 
HETATM   23  C26 UNL     1       0.244   0.538 -13.432  1.00  0.00     0.246 C 
HETATM   24  O7  UNL     1       0.043   0.505 -14.711  1.00  0.00    -0.271 OA
HETATM   25  N4  UNL     1       1.553   0.917 -13.086  1.00  0.00    -0.319 N 
HETATM   26  C27 UNL     1       2.053   2.232 -13.627  1.00  0.00     0.159 C 
ENDROOT
BRANCH   1  27
HETATM   27  C3  UNL     1       2.531   0.545 -10.836  1.00  0.00     0.036 C 
HETATM   28  C4  UNL     1       1.538  -0.111  -9.946  1.00  0.00     0.016 C 
BRANCH  27  29
HETATM   29  C2  UNL     1       3.906   0.441 -10.213  1.00  0.00     0.006 C 
HETATM   30  C1  UNL     1       3.879  -0.440  -8.974  1.00  0.00     0.006 C 
ENDBRANCH  27  29
ENDBRANCH   1  27
BRANCH   2  31
HETATM   31  O1  UNL     1       3.041  -1.196 -13.976  1.00  0.00    -0.339 OA
ATOM     32  H1  UNL     1       3.616  -1.923 -14.182  1.00  0.00     0.220 HD
ENDBRANCH   2  31
BRANCH  22  33
HETATM   33  C23 UNL     1      -2.213   0.749 -13.306  1.00  0.00     0.045 C 
BRANCH  33  34
HETATM   34  C24 UNL     1      -2.691   1.956 -12.609  1.00  0.00     0.076 C 
BRANCH  34  35
HETATM   35  S1  UNL     1      -4.353   1.725 -11.909  1.00  0.00    -0.173 SA
HETATM   36  C25 UNL     1      -5.046   0.104 -12.404  1.00  0.00     0.089 C 
ENDBRANCH  34  35
ENDBRANCH  33  34
ENDBRANCH  22  33
BRANCH  17  37
HETATM   37  C18 UNL     1      -2.405  -3.659 -14.579  1.00  0.00     0.009 C 
HETATM   38  C19 UNL     1      -3.586  -3.067 -13.821  1.00  0.00     0.012 C 
HETATM   39  C20 UNL     1      -2.756  -4.224 -15.884  1.00  0.00     0.012 C 
ENDBRANCH  17  37
BRANCH  11  40
HETATM   40  C13 UNL     1       2.085  -7.275 -15.274  1.00  0.00     0.023 C 
HETATM   41  C14 UNL     1       2.042  -8.301 -14.220  1.00  0.00     0.007 C 
ENDBRANCH  11  40
BRANCH  14  42
HETATM   42  O5  UNL     1       0.263  -3.751 -17.408  1.00  0.00    -0.333 OA
ATOM     43  H5  UNL     1      -0.521  -3.273 -17.652  1.00  0.00     0.220 HD
ENDBRANCH  14  42
TORSDOF 9
ENDMDL
MODEL 4
REMARK VINA RESULT: -5.238449086      4.335      7.944
REMARK  9 active torsions:
REMARK  status: ('A' for Active; 'I' for Inactive)
REMARK    1  A    between atoms: C2_2  and  C3_3 
REMARK    2  A    between atoms: C3_3  and  C5_5 
REMARK    3  A    between atoms: C6_6  and  O1_7 
REMARK    4  A    between atoms: C12_17  and  C13_18 
REMARK    5  A    between atoms: C16_22  and  O5_23 
REMARK    6  A    between atoms: C17_27  and  C18_28 
REMARK    7  A    between atoms: C22_35  and  C23_36 
REMARK    8  A    between atoms: C23_36  and  C24_37 
REMARK    9  A    between atoms: C24_37  and  S1_38 
ROOT
HETATM    1  C5  UNL     1       1.015  -6.342 -19.578  1.00  0.00     0.076 C 
HETATM    2  C6  UNL     1       2.247  -5.807 -18.937  1.00  0.00     0.203 C 
HETATM    3  O2  UNL     1       2.669  -4.580 -19.123  1.00  0.00    -0.314 OA
HETATM    4  C7  UNL     1       3.726  -3.762 -19.347  1.00  0.00     0.226 C 
HETATM    5  C8  UNL     1       4.839  -4.290 -20.230  1.00  0.00     0.051 C 
HETATM    6  C9  UNL     1       4.263  -3.272 -18.017  1.00  0.00     0.288 C 
HETATM    7  O3  UNL     1       4.621  -2.057 -18.055  1.00  0.00    -0.262 OA
HETATM    8  O4  UNL     1       4.286  -4.154 -17.019  1.00  0.00    -0.312 OA
HETATM    9  C10 UNL     1       5.107  -4.683 -16.054  1.00  0.00     0.150 C 
HETATM   10  C11 UNL     1       6.425  -5.029 -16.646  1.00  0.00     0.042 C 
HETATM   11  C12 UNL     1       5.104  -3.902 -14.777  1.00  0.00     0.116 C 
HETATM   12  N1  UNL     1       4.356  -4.564 -13.706  1.00  0.00    -0.345 N 
HETATM   13  C15 UNL     1       4.790  -4.236 -12.358  1.00  0.00     0.154 C 
HETATM   14  C16 UNL     1       3.296  -5.463 -13.870  1.00  0.00     0.215 C 
HETATM   15  N2  UNL     1       2.121  -5.455 -14.627  1.00  0.00    -0.343 N 
ATOM     16  H2  UNL     1       2.153  -6.106 -15.411  1.00  0.00     0.164 HD
HETATM   17  C17 UNL     1       0.890  -4.744 -14.549  1.00  0.00     0.180 C 
HETATM   18  C21 UNL     1       0.419  -4.093 -15.770  1.00  0.00     0.241 C 
HETATM   19  O6  UNL     1       1.179  -3.133 -16.177  1.00  0.00    -0.271 OA
HETATM   20  N3  UNL     1      -0.695  -4.317 -16.571  1.00  0.00    -0.346 N 
ATOM     21  H3  UNL     1      -1.189  -3.458 -16.812  1.00  0.00     0.163 HD
HETATM   22  C22 UNL     1      -1.295  -5.471 -17.122  1.00  0.00     0.177 C 
HETATM   23  C26 UNL     1      -0.471  -6.618 -17.480  1.00  0.00     0.246 C 
HETATM   24  O7  UNL     1      -0.222  -7.410 -16.486  1.00  0.00    -0.271 OA
HETATM   25  N4  UNL     1       0.110  -7.044 -18.688  1.00  0.00    -0.319 N 
HETATM   26  C27 UNL     1      -0.227  -8.435 -19.160  1.00  0.00     0.159 C 
ENDROOT
BRANCH   1  27
HETATM   27  C3  UNL     1       0.392  -5.566 -20.661  1.00  0.00     0.036 C 
HETATM   28  C4  UNL     1      -0.140  -4.208 -20.370  1.00  0.00     0.016 C 
BRANCH  27  29
HETATM   29  C2  UNL     1       1.249  -5.510 -21.906  1.00  0.00     0.006 C 
HETATM   30  C1  UNL     1       1.372  -4.086 -22.423  1.00  0.00     0.006 C 
ENDBRANCH  27  29
ENDBRANCH   1  27
BRANCH   2  31
HETATM   31  O1  UNL     1       2.783  -6.742 -18.201  1.00  0.00    -0.339 OA
ATOM     32  H1  UNL     1       2.462  -6.657 -17.311  1.00  0.00     0.220 HD
ENDBRANCH   2  31
BRANCH  22  33
HETATM   33  C23 UNL     1      -2.381  -5.892 -16.094  1.00  0.00     0.045 C 
BRANCH  33  34
HETATM   34  C24 UNL     1      -3.559  -6.477 -16.759  1.00  0.00     0.076 C 
BRANCH  34  35
HETATM   35  S1  UNL     1      -3.756  -8.241 -16.365  1.00  0.00    -0.173 SA
HETATM   36  C25 UNL     1      -5.508  -8.750 -16.527  1.00  0.00     0.089 C 
ENDBRANCH  34  35
ENDBRANCH  33  34
ENDBRANCH  22  33
BRANCH  17  37
HETATM   37  C18 UNL     1       0.694  -3.817 -13.388  1.00  0.00     0.009 C 
HETATM   38  C19 UNL     1      -0.628  -3.078 -13.547  1.00  0.00     0.012 C 
HETATM   39  C20 UNL     1       0.931  -4.330 -12.036  1.00  0.00     0.012 C 
ENDBRANCH  17  37
BRANCH  11  40
HETATM   40  C13 UNL     1       6.404  -3.349 -14.336  1.00  0.00     0.023 C 
HETATM   41  C14 UNL     1       6.731  -1.940 -14.610  1.00  0.00     0.007 C 
ENDBRANCH  11  40
BRANCH  14  42
HETATM   42  O5  UNL     1       3.458  -6.543 -13.149  1.00  0.00    -0.333 OA
ATOM     43  H5  UNL     1       2.795  -6.619 -12.472  1.00  0.00     0.220 HD
ENDBRANCH  14  42
TORSDOF 9
ENDMDL
MODEL 5
REMARK VINA RESULT: -5.236913837      8.366     11.819
REMARK  9 active torsions:
REMARK  status: ('A' for Active; 'I' for Inactive)
REMARK    1  A    between atoms: C2_2  and  C3_3 
REMARK    2  A    between atoms: C3_3  and  C5_5 
REMARK    3  A    between atoms: C6_6  and  O1_7 
REMARK    4  A    between atoms: C12_17  and  C13_18 
REMARK    5  A    between atoms: C16_22  and  O5_23 
REMARK    6  A    between atoms: C17_27  and  C18_28 
REMARK    7  A    between atoms: C22_35  and  C23_36 
REMARK    8  A    between atoms: C23_36  and  C24_37 
REMARK    9  A    between atoms: C24_37  and  S1_38 
ROOT
HETATM    1  C5  UNL     1      -0.248  -7.143 -19.119  1.00  0.00     0.076 C 
HETATM    2  C6  UNL     1      -0.076  -8.098 -20.248  1.00  0.00     0.203 C 
HETATM    3  O2  UNL     1       0.921  -8.022 -21.096  1.00  0.00    -0.314 OA
HETATM    4  C7  UNL     1       1.322  -8.094 -22.388  1.00  0.00     0.226 C 
HETATM    5  C8  UNL     1       0.371  -7.566 -23.443  1.00  0.00     0.051 C 
HETATM    6  C9  UNL     1       1.751  -9.515 -22.695  1.00  0.00     0.288 C 
HETATM    7  O3  UNL     1       2.772  -9.565 -23.443  1.00  0.00    -0.262 OA
HETATM    8  O4  UNL     1       1.022 -10.491 -22.155  1.00  0.00    -0.312 OA
HETATM    9  C10 UNL     1       0.361 -11.654 -22.465  1.00  0.00     0.150 C 
HETATM   10  C11 UNL     1      -0.455 -11.461 -23.691  1.00  0.00     0.042 C 
HETATM   11  C12 UNL     1       1.233 -12.868 -22.397  1.00  0.00     0.116 C 
HETATM   12  N1  UNL     1       0.968 -13.694 -21.217  1.00  0.00    -0.345 N 
HETATM   13  C15 UNL     1       1.280 -15.106 -21.371  1.00  0.00     0.154 C 
HETATM   14  C16 UNL     1       0.450 -13.251 -19.996  1.00  0.00     0.215 C 
HETATM   15  N2  UNL     1       0.757 -12.195 -19.134  1.00  0.00    -0.343 N 
ATOM     16  H2  UNL     1       0.051 -11.459 -19.145  1.00  0.00     0.164 HD
HETATM   17  C17 UNL     1       1.833 -11.914 -18.244  1.00  0.00     0.180 C 
HETATM   18  C21 UNL     1       2.468 -10.602 -18.359  1.00  0.00     0.241 C 
HETATM   19  O6  UNL     1       3.079 -10.413 -19.479  1.00  0.00    -0.271 OA
HETATM   20  N3  UNL     1       2.533  -9.524 -17.484  1.00  0.00    -0.346 N 
ATOM     21  H3  UNL     1       3.474  -9.142 -17.394  1.00  0.00     0.163 HD
HETATM   22  C22 UNL     1       1.584  -8.840 -16.691  1.00  0.00     0.177 C 
HETATM   23  C26 UNL     1       0.200  -8.743 -17.137  1.00  0.00     0.246 C 
HETATM   24  O7  UNL     1      -0.519  -9.776 -16.833  1.00  0.00    -0.271 OA
HETATM   25  N4  UNL     1      -0.518  -7.752 -17.831  1.00  0.00    -0.319 N 
HETATM   26  C27 UNL     1      -1.766  -7.221 -17.174  1.00  0.00     0.159 C 
ENDROOT
BRANCH   1  27
HETATM   27  C3  UNL     1       0.568  -5.919 -19.102  1.00  0.00     0.036 C 
HETATM   28  C4  UNL     1       2.049  -6.032 -19.143  1.00  0.00     0.016 C 
BRANCH  27  29
HETATM   29  C2  UNL     1       0.116  -4.903 -20.129  1.00  0.00     0.006 C 
HETATM   30  C1  UNL     1       1.254  -4.526 -21.063  1.00  0.00     0.006 C 
ENDBRANCH  27  29
ENDBRANCH   1  27
BRANCH   2  31
HETATM   31  O1  UNL     1      -1.049  -8.966 -20.221  1.00  0.00    -0.339 OA
ATOM     32  H1  UNL     1      -1.104  -9.395 -21.067  1.00  0.00     0.220 HD
ENDBRANCH   2  31
BRANCH  22  33
HETATM   33  C23 UNL     1       1.651  -9.527 -15.300  1.00  0.00     0.045 C 
BRANCH  33  34
HETATM   34  C24 UNL     1       2.974  -9.358 -14.675  1.00  0.00     0.076 C 
BRANCH  34  35
HETATM   35  S1  UNL     1       3.585 -10.907 -13.944  1.00  0.00    -0.173 SA
HETATM   36  C25 UNL     1       2.337 -12.237 -14.107  1.00  0.00     0.089 C 
ENDBRANCH  34  35
ENDBRANCH  33  34
ENDBRANCH  22  33
BRANCH  17  37
HETATM   37  C18 UNL     1       2.892 -12.962 -18.082  1.00  0.00     0.009 C 
HETATM   38  C19 UNL     1       4.108 -12.352 -17.397  1.00  0.00     0.012 C 
HETATM   39  C20 UNL     1       2.504 -14.271 -17.552  1.00  0.00     0.012 C 
ENDBRANCH  17  37
BRANCH  11  40
HETATM   40  C13 UNL     1       1.378 -13.650 -23.646  1.00  0.00     0.023 C 
HETATM   41  C14 UNL     1       2.566 -13.460 -24.495  1.00  0.00     0.007 C 
ENDBRANCH  11  40
BRANCH  14  42
HETATM   42  O5  UNL     1      -0.541 -14.002 -19.586  1.00  0.00    -0.333 OA
ATOM     43  H5  UNL     1      -1.075 -13.559 -18.938  1.00  0.00     0.220 HD
ENDBRANCH  14  42
TORSDOF 9
ENDMDL
