MODEL 1
REMARK VINA RESULT: -6.239741412      0.000      0.000
REMARK  4 active torsions:
REMARK  status: ('A' for Active; 'I' for Inactive)
REMARK    1  A    between atoms: N1_2  and  C2_3 
REMARK    2  A    between atoms: N1_2  and  C5_14 
REMARK    3  A    between atoms: C2_3  and  C3_4 
REMARK    4  A    between atoms: C4_10  and  N4_11 
ROOT
HETATM    1  C3  UNL     1     -11.017 -32.109   9.957  1.00  0.00     0.112 A 
HETATM    2  N2  UNL     1     -10.573 -30.876   9.520  1.00  0.00    -0.237 N 
ATOM      3  H2  UNL     1      -9.979 -30.719   8.705  1.00  0.00     0.197 HD
HETATM    4  O1  UNL     1     -11.022 -29.956  10.297  1.00  0.00    -0.155 OA
HETATM    5  N3  UNL     1     -11.747 -30.442  11.242  1.00  0.00    -0.224 N 
ATOM      6  H3  UNL     1     -12.217 -29.919  11.982  1.00  0.00     0.198 HD
HETATM    7  C4  UNL     1     -11.764 -31.783  11.061  1.00  0.00     0.151 A 
ENDROOT
BRANCH   1   8
HETATM    8  C2  UNL     1     -10.737 -33.342   9.248  1.00  0.00     0.095 C 
BRANCH   8   9
HETATM    9  N1  UNL     1     -11.848 -34.078   8.737  1.00  0.00    -0.290 NA
HETATM   10  C1  UNL     1     -11.930 -34.046   7.301  1.00  0.00     0.116 C 
BRANCH   9  11
HETATM   11  C5  UNL     1     -11.960 -35.401   9.225  1.00  0.00     0.062 C 
HETATM   12  C6  UNL     1     -10.793 -35.844  10.060  1.00  0.00     0.020 C 
HETATM   13  C7  UNL     1     -10.360 -37.262   9.774  1.00  0.00     0.002 C 
HETATM   14  C8  UNL     1     -11.566 -38.187   9.677  1.00  0.00     0.000 C 
HETATM   15  C9  UNL     1     -12.588 -37.681   8.678  1.00  0.00     0.002 C 
HETATM   16  C10 UNL     1     -12.049 -36.403   8.072  1.00  0.00     0.020 C 
ENDBRANCH   9  11
ENDBRANCH   8   9
ENDBRANCH   1   8
BRANCH   7  17
HETATM   17  N4  UNL     1     -12.366 -32.596  11.841  1.00  0.00    -0.382 N 
ATOM     18  H42 UNL     1     -13.000 -33.326  11.517  1.00  0.00     0.157 HD
ATOM     19  H41 UNL     1     -12.321 -32.608  12.860  1.00  0.00     0.157 HD
ENDBRANCH   7  17
TORSDOF 4
ENDMDL
MODEL 2
REMARK VINA RESULT: -6.152896701      2.992      5.622
REMARK  4 active torsions:
REMARK  status: ('A' for Active; 'I' for Inactive)
REMARK    1  A    between atoms: N1_2  and  C2_3 
REMARK    2  A    between atoms: N1_2  and  C5_14 
REMARK    3  A    between atoms: C2_3  and  C3_4 
REMARK    4  A    between atoms: C4_10  and  N4_11 
ROOT
HETATM    1  C3  UNL     1     -10.759 -34.015  10.870  1.00  0.00     0.112 A 
HETATM    2  N2  UNL     1     -10.213 -35.031  11.631  1.00  0.00    -0.237 N 
ATOM      3  H2  UNL     1      -9.289 -35.011  12.064  1.00  0.00     0.197 HD
HETATM    4  O1  UNL     1     -11.047 -36.005  11.712  1.00  0.00    -0.155 OA
HETATM    5  N3  UNL     1     -12.135 -35.756  11.072  1.00  0.00    -0.224 N 
ATOM      6  H3  UNL     1     -12.947 -36.366  10.988  1.00  0.00     0.198 HD
HETATM    7  C4  UNL     1     -11.988 -34.523  10.532  1.00  0.00     0.151 A 
ENDROOT
BRANCH   1   8
HETATM    8  C2  UNL     1     -10.088 -32.749  10.651  1.00  0.00     0.095 C 
BRANCH   8   9
HETATM    9  N1  UNL     1     -10.874 -31.660  10.167  1.00  0.00    -0.290 NA
HETATM   10  C1  UNL     1     -11.529 -30.928  11.218  1.00  0.00     0.116 C 
BRANCH   9  11
HETATM   11  C5  UNL     1     -10.199 -30.787   9.282  1.00  0.00     0.062 C 
HETATM   12  C6  UNL     1     -10.751 -29.390   9.263  1.00  0.00     0.020 C 
HETATM   13  C7  UNL     1     -10.832 -28.800   7.875  1.00  0.00     0.002 C 
HETATM   14  C8  UNL     1      -9.555 -29.080   7.094  1.00  0.00     0.000 C 
HETATM   15  C9  UNL     1      -9.212 -30.556   7.076  1.00  0.00     0.002 C 
HETATM   16  C10 UNL     1     -10.293 -31.290   7.840  1.00  0.00     0.020 C 
ENDBRANCH   9  11
ENDBRANCH   8   9
ENDBRANCH   1   8
BRANCH   7  17
HETATM   17  N4  UNL     1     -12.869 -33.962   9.797  1.00  0.00    -0.382 N 
ATOM     18  H42 UNL     1     -12.711 -33.703   8.823  1.00  0.00     0.157 HD
ATOM     19  H41 UNL     1     -13.808 -33.682  10.078  1.00  0.00     0.157 HD
ENDBRANCH   7  17
TORSDOF 4
ENDMDL
MODEL 3
REMARK VINA RESULT: -6.085422293      3.341      5.655
REMARK  4 active torsions:
REMARK  status: ('A' for Active; 'I' for Inactive)
REMARK    1  A    between atoms: N1_2  and  C2_3 
REMARK    2  A    between atoms: N1_2  and  C5_14 
REMARK    3  A    between atoms: C2_3  and  C3_4 
REMARK    4  A    between atoms: C4_10  and  N4_11 
ROOT
HETATM    1  C3  UNL     1     -11.235 -32.600   9.944  1.00  0.00     0.112 A 
HETATM    2  N2  UNL     1     -11.174 -33.706   9.118  1.00  0.00    -0.237 N 
ATOM      3  H2  UNL     1     -10.557 -33.805   8.312  1.00  0.00     0.197 HD
HETATM    4  O1  UNL     1     -12.014 -34.592   9.521  1.00  0.00    -0.155 OA
HETATM    5  N3  UNL     1     -12.658 -34.200  10.563  1.00  0.00    -0.224 N 
ATOM      6  H3  UNL     1     -13.373 -34.720  11.070  1.00  0.00     0.198 HD
HETATM    7  C4  UNL     1     -12.199 -32.960  10.853  1.00  0.00     0.151 A 
ENDROOT
BRANCH   1   8
HETATM    8  C2  UNL     1     -10.359 -31.456   9.793  1.00  0.00     0.095 C 
BRANCH   8   9
HETATM    9  N1  UNL     1     -10.714 -30.476   8.818  1.00  0.00    -0.290 NA
HETATM   10  C1  UNL     1     -10.866 -29.158   9.375  1.00  0.00     0.116 C 
BRANCH   9  11
HETATM   11  C5  UNL     1      -9.888 -30.452   7.670  1.00  0.00     0.062 C 
HETATM   12  C6  UNL     1      -8.498 -30.969   7.908  1.00  0.00     0.020 C 
HETATM   13  C7  UNL     1      -7.431 -30.148   7.222  1.00  0.00     0.002 C 
HETATM   14  C8  UNL     1      -7.841 -29.818   5.793  1.00  0.00     0.000 C 
HETATM   15  C9  UNL     1      -9.205 -29.161   5.731  1.00  0.00     0.002 C 
HETATM   16  C10 UNL     1      -9.716 -29.024   7.149  1.00  0.00     0.020 C 
ENDBRANCH   9  11
ENDBRANCH   8   9
ENDBRANCH   1   8
BRANCH   7  17
HETATM   17  N4  UNL     1     -12.643 -32.248  11.816  1.00  0.00    -0.382 N 
ATOM     18  H42 UNL     1     -12.777 -31.238  11.757  1.00  0.00     0.157 HD
ATOM     19  H41 UNL     1     -12.889 -32.573  12.750  1.00  0.00     0.157 HD
ENDBRANCH   7  17
TORSDOF 4
ENDMDL
MODEL 4
REMARK VINA RESULT: -6.075993561      3.005      5.600
REMARK  4 active torsions:
REMARK  status: ('A' for Active; 'I' for Inactive)
REMARK    1  A    between atoms: N1_2  and  C2_3 
REMARK    2  A    between atoms: N1_2  and  C5_14 
REMARK    3  A    between atoms: C2_3  and  C3_4 
REMARK    4  A    between atoms: C4_10  and  N4_11 
ROOT
HETATM    1  C3  UNL     1     -10.778 -34.030  10.724  1.00  0.00     0.112 A 
HETATM    2  N2  UNL     1     -10.096 -34.982  11.458  1.00  0.00    -0.237 N 
ATOM      3  H2  UNL     1      -9.127 -34.902  11.770  1.00  0.00     0.197 HD
HETATM    4  O1  UNL     1     -10.867 -35.983  11.687  1.00  0.00    -0.155 OA
HETATM    5  N3  UNL     1     -12.036 -35.813  11.177  1.00  0.00    -0.224 N 
ATOM      6  H3  UNL     1     -12.823 -36.459  11.224  1.00  0.00     0.198 HD
HETATM    7  C4  UNL     1     -12.014 -34.604  10.567  1.00  0.00     0.151 A 
ENDROOT
BRANCH   1   8
HETATM    8  C2  UNL     1     -10.199 -32.750  10.365  1.00  0.00     0.095 C 
BRANCH   8   9
HETATM    9  N1  UNL     1     -11.094 -31.698  10.004  1.00  0.00    -0.290 NA
HETATM   10  C1  UNL     1     -11.377 -30.803  11.094  1.00  0.00     0.116 C 
BRANCH   9  11
HETATM   11  C5  UNL     1     -10.732 -30.984   8.837  1.00  0.00     0.062 C 
HETATM   12  C6  UNL     1      -9.427 -31.421   8.235  1.00  0.00     0.020 C 
HETATM   13  C7  UNL     1      -8.576 -30.267   7.758  1.00  0.00     0.002 C 
HETATM   14  C8  UNL     1      -9.419 -29.255   6.993  1.00  0.00     0.000 C 
HETATM   15  C9  UNL     1     -10.619 -28.795   7.795  1.00  0.00     0.002 C 
HETATM   16  C10 UNL     1     -10.573 -29.493   9.138  1.00  0.00     0.020 C 
ENDBRANCH   9  11
ENDBRANCH   8   9
ENDBRANCH   1   8
BRANCH   7  17
HETATM   17  N4  UNL     1     -13.004 -34.119   9.922  1.00  0.00    -0.382 N 
ATOM     18  H42 UNL     1     -13.919 -34.566   9.869  1.00  0.00     0.157 HD
ATOM     19  H41 UNL     1     -13.008 -33.263   9.367  1.00  0.00     0.157 HD
ENDBRANCH   7  17
TORSDOF 4
ENDMDL
MODEL 5
REMARK VINA RESULT: -6.074976830      0.693      1.390
REMARK  4 active torsions:
REMARK  status: ('A' for Active; 'I' for Inactive)
REMARK    1  A    between atoms: N1_2  and  C2_3 
REMARK    2  A    between atoms: N1_2  and  C5_14 
REMARK    3  A    between atoms: C2_3  and  C3_4 
REMARK    4  A    between atoms: C4_10  and  N4_11 
ROOT
HETATM    1  C3  UNL     1     -10.888 -31.976  10.036  1.00  0.00     0.112 A 
HETATM    2  N2  UNL     1     -10.602 -30.735   9.501  1.00  0.00    -0.237 N 
ATOM      3  H2  UNL     1     -10.060 -30.570   8.652  1.00  0.00     0.197 HD
HETATM    4  O1  UNL     1     -11.122 -29.819  10.237  1.00  0.00    -0.155 OA
HETATM    5  N3  UNL     1     -11.752 -30.314  11.243  1.00  0.00    -0.224 N 
ATOM      6  H3  UNL     1     -12.249 -29.797  11.968  1.00  0.00     0.198 HD
HETATM    7  C4  UNL     1     -11.624 -31.658  11.150  1.00  0.00     0.151 A 
ENDROOT
BRANCH   1   8
HETATM    8  C2  UNL     1     -10.498 -33.217   9.397  1.00  0.00     0.095 C 
BRANCH   8   9
HETATM    9  N1  UNL     1     -11.523 -34.174   9.129  1.00  0.00    -0.290 NA
HETATM   10  C1  UNL     1     -12.019 -34.102   7.780  1.00  0.00     0.116 C 
BRANCH   9  11
HETATM   11  C5  UNL     1     -11.202 -35.505   9.484  1.00  0.00     0.062 C 
HETATM   12  C6  UNL     1     -11.848 -36.542   8.611  1.00  0.00     0.020 C 
HETATM   13  C7  UNL     1     -12.371 -37.730   9.384  1.00  0.00     0.002 C 
HETATM   14  C8  UNL     1     -11.352 -38.193  10.418  1.00  0.00     0.000 C 
HETATM   15  C9  UNL     1     -10.911 -37.061  11.324  1.00  0.00     0.002 C 
HETATM   16  C10 UNL     1     -11.664 -35.815  10.909  1.00  0.00     0.020 C 
ENDBRANCH   9  11
ENDBRANCH   8   9
ENDBRANCH   1   8
BRANCH   7  17
HETATM   17  N4  UNL     1     -12.102 -32.476  12.007  1.00  0.00    -0.382 N 
ATOM     18  H42 UNL     1     -12.381 -33.432  11.783  1.00  0.00     0.157 HD
ATOM     19  H41 UNL     1     -12.290 -32.286  12.991  1.00  0.00     0.157 HD
ENDBRANCH   7  17
TORSDOF 4
ENDMDL
