MODEL 1
REMARK VINA RESULT: -6.240174494      0.000      0.000
REMARK  3 active torsions:
REMARK  status: ('A' for Active; 'I' for Inactive)
REMARK    1  A    between atoms: C4_6  and  C5_7 
REMARK    2  A    between atoms: C5_7  and  C6_8 
REMARK    3  A    between atoms: C6_8  and  C7_9 
ROOT
HETATM    1  C6  UNL     1      -6.052 -30.172   5.972  1.00  0.00     0.081 C 
ENDROOT
BRANCH   1   2
HETATM    2  C5  UNL     1      -5.549 -29.193   4.935  1.00  0.00     0.032 C 
BRANCH   2   3
HETATM    3  C4  UNL     1      -4.154 -28.721   5.276  1.00  0.00     0.077 C 
HETATM    4  N1  UNL     1      -3.600 -28.054   4.151  1.00  0.00    -0.417 N 
HETATM    5  C3  UNL     1      -2.718 -28.847   3.344  1.00  0.00     0.114 C 
ATOM      6  H1  UNL     1      -3.813 -27.081   3.933  1.00  0.00     0.153 HD
HETATM    7  C2  UNL     1      -1.288 -28.818   3.786  1.00  0.00     0.019 C 
HETATM    8  C1  UNL     1      -1.020 -29.682   4.993  1.00  0.00     0.002 C 
HETATM    9  C9  UNL     1      -1.923 -29.225   6.104  1.00  0.00     0.002 C 
HETATM   10  C8  UNL     1      -3.296 -29.826   5.828  1.00  0.00     0.024 C 
ENDBRANCH   2   3
ENDBRANCH   1   2
BRANCH   1  11
HETATM   11  C7  UNL     1      -7.469 -29.944   6.268  1.00  0.00     0.113 A 
HETATM   12  N2  UNL     1      -8.240 -30.318   7.306  1.00  0.00    -0.272 N 
HETATM   13  N3  UNL     1      -9.474 -29.850   7.090  1.00  0.00    -0.227 N 
ATOM     14  H2  UNL     1      -7.937 -30.862   8.114  1.00  0.00     0.190 HD
HETATM   15  N4  UNL     1      -9.499 -29.193   5.949  1.00  0.00    -0.227 N 
ATOM     16  H3  UNL     1     -10.271 -29.982   7.712  1.00  0.00     0.210 HD
HETATM   17  N5  UNL     1      -8.304 -29.241   5.447  1.00  0.00    -0.272 N 
ATOM     18  H4  UNL     1     -10.309 -28.732   5.537  1.00  0.00     0.210 HD
ATOM     19  H5  UNL     1      -8.027 -28.815   4.562  1.00  0.00     0.190 HD
ENDBRANCH   1  11
TORSDOF 3
ENDMDL
MODEL 2
REMARK VINA RESULT: -6.077517794      4.102      5.455
REMARK  3 active torsions:
REMARK  status: ('A' for Active; 'I' for Inactive)
REMARK    1  A    between atoms: C4_6  and  C5_7 
REMARK    2  A    between atoms: C5_7  and  C6_8 
REMARK    3  A    between atoms: C6_8  and  C7_9 
ROOT
HETATM    1  C6  UNL     1      -4.332 -32.049   9.341  1.00  0.00     0.081 C 
ENDROOT
BRANCH   1   2
HETATM    2  C5  UNL     1      -3.876 -31.844   7.914  1.00  0.00     0.032 C 
BRANCH   2   3
HETATM    3  C4  UNL     1      -4.267 -30.470   7.419  1.00  0.00     0.077 C 
HETATM    4  N1  UNL     1      -5.684 -30.378   7.367  1.00  0.00    -0.417 N 
HETATM    5  C3  UNL     1      -6.262 -30.587   6.070  1.00  0.00     0.114 C 
ATOM      6  H1  UNL     1      -6.249 -30.178   8.191  1.00  0.00     0.153 HD
HETATM    7  C2  UNL     1      -6.372 -29.348   5.240  1.00  0.00     0.019 C 
HETATM    8  C1  UNL     1      -5.062 -28.921   4.627  1.00  0.00     0.002 C 
HETATM    9  C9  UNL     1      -4.070 -28.722   5.739  1.00  0.00     0.002 C 
HETATM   10  C8  UNL     1      -3.573 -30.107   6.136  1.00  0.00     0.024 C 
ENDBRANCH   2   3
ENDBRANCH   1   2
BRANCH   1  11
HETATM   11  C7  UNL     1      -4.446 -33.476   9.657  1.00  0.00     0.113 A 
HETATM   12  N2  UNL     1      -3.922 -34.569   9.070  1.00  0.00    -0.272 N 
HETATM   13  N3  UNL     1      -4.337 -35.640   9.754  1.00  0.00    -0.227 N 
ATOM     14  H2  UNL     1      -3.316 -34.578   8.250  1.00  0.00     0.190 HD
HETATM   15  N4  UNL     1      -5.104 -35.252  10.752  1.00  0.00    -0.227 N 
ATOM     16  H3  UNL     1      -4.097 -36.607   9.537  1.00  0.00     0.210 HD
HETATM   17  N5  UNL     1      -5.177 -33.957  10.705  1.00  0.00    -0.272 N 
ATOM     18  H4  UNL     1      -5.557 -35.858  11.435  1.00  0.00     0.210 HD
ATOM     19  H5  UNL     1      -5.706 -33.380  11.359  1.00  0.00     0.190 HD
ENDBRANCH   1  11
TORSDOF 3
ENDMDL
MODEL 3
REMARK VINA RESULT: -6.033586130      7.123      9.553
REMARK  3 active torsions:
REMARK  status: ('A' for Active; 'I' for Inactive)
REMARK    1  A    between atoms: C4_6  and  C5_7 
REMARK    2  A    between atoms: C5_7  and  C6_8 
REMARK    3  A    between atoms: C6_8  and  C7_9 
ROOT
HETATM    1  C6  UNL     1     -10.378 -32.019   9.273  1.00  0.00     0.081 C 
ENDROOT
BRANCH   1   2
HETATM    2  C5  UNL     1     -11.342 -32.576  10.296  1.00  0.00     0.032 C 
BRANCH   2   3
HETATM    3  C4  UNL     1     -12.095 -33.760   9.734  1.00  0.00     0.077 C 
HETATM    4  N1  UNL     1     -12.415 -34.654  10.790  1.00  0.00    -0.417 N 
HETATM    5  C3  UNL     1     -11.530 -35.775  10.932  1.00  0.00     0.114 C 
ATOM      6  H1  UNL     1     -13.216 -34.511  11.405  1.00  0.00     0.153 HD
HETATM    7  C2  UNL     1     -11.908 -36.964  10.108  1.00  0.00     0.019 C 
HETATM    8  C1  UNL     1     -11.551 -36.819   8.650  1.00  0.00     0.002 C 
HETATM    9  C9  UNL     1     -12.223 -35.581   8.126  1.00  0.00     0.002 C 
HETATM   10  C8  UNL     1     -11.376 -34.398   8.577  1.00  0.00     0.024 C 
ENDBRANCH   2   3
ENDBRANCH   1   2
BRANCH   1  11
HETATM   11  C7  UNL     1     -10.525 -30.566   9.148  1.00  0.00     0.113 A 
HETATM   12  N2  UNL     1     -10.255 -29.721   8.135  1.00  0.00    -0.272 N 
HETATM   13  N3  UNL     1     -10.571 -28.485   8.537  1.00  0.00    -0.227 N 
ATOM     14  H2  UNL     1      -9.877 -29.977   7.224  1.00  0.00     0.190 HD
HETATM   15  N4  UNL     1     -11.031 -28.531   9.770  1.00  0.00    -0.227 N 
ATOM     16  H3  UNL     1     -10.471 -27.639   7.976  1.00  0.00     0.210 HD
HETATM   17  N5  UNL     1     -11.009 -29.771  10.148  1.00  0.00    -0.272 N 
ATOM     18  H4  UNL     1     -11.347 -27.736  10.326  1.00  0.00     0.210 HD
ATOM     19  H5  UNL     1     -11.311 -30.107  11.063  1.00  0.00     0.190 HD
ENDBRANCH   1  11
TORSDOF 3
ENDMDL
MODEL 4
REMARK VINA RESULT: -6.027335070      4.535      7.011
REMARK  3 active torsions:
REMARK  status: ('A' for Active; 'I' for Inactive)
REMARK    1  A    between atoms: C4_6  and  C5_7 
REMARK    2  A    between atoms: C5_7  and  C6_8 
REMARK    3  A    between atoms: C6_8  and  C7_9 
ROOT
HETATM    1  C6  UNL     1     -10.281 -31.804  10.196  1.00  0.00     0.081 C 
ENDROOT
BRANCH   1   2
HETATM    2  C5  UNL     1     -10.628 -30.504   9.506  1.00  0.00     0.032 C 
BRANCH   2   3
HETATM    3  C4  UNL     1     -10.344 -30.592   8.023  1.00  0.00     0.077 C 
HETATM    4  N1  UNL     1      -9.078 -31.206   7.826  1.00  0.00    -0.417 N 
HETATM    5  C3  UNL     1      -7.990 -30.301   7.589  1.00  0.00     0.114 C 
ATOM      6  H1  UNL     1      -8.951 -32.217   7.851  1.00  0.00     0.153 HD
HETATM    7  C2  UNL     1      -7.792 -29.942   6.150  1.00  0.00     0.019 C 
HETATM    8  C1  UNL     1      -8.792 -28.932   5.644  1.00  0.00     0.002 C 
HETATM    9  C9  UNL     1     -10.170 -29.490   5.862  1.00  0.00     0.002 C 
HETATM   10  C8  UNL     1     -10.506 -29.267   7.331  1.00  0.00     0.024 C 
ENDBRANCH   2   3
ENDBRANCH   1   2
BRANCH   1  11
HETATM   11  C7  UNL     1     -11.444 -32.693  10.258  1.00  0.00     0.113 A 
HETATM   12  N2  UNL     1     -12.445 -32.800  11.153  1.00  0.00    -0.272 N 
HETATM   13  N3  UNL     1     -13.259 -33.778  10.742  1.00  0.00    -0.227 N 
ATOM     14  H2  UNL     1     -12.562 -32.235  11.994  1.00  0.00     0.190 HD
HETATM   15  N4  UNL     1     -12.799 -34.287   9.618  1.00  0.00    -0.227 N 
ATOM     16  H3  UNL     1     -14.104 -34.083  11.226  1.00  0.00     0.210 HD
HETATM   17  N5  UNL     1     -11.713 -33.645   9.317  1.00  0.00    -0.272 N 
ATOM     18  H4  UNL     1     -13.220 -35.046   9.083  1.00  0.00     0.210 HD
ATOM     19  H5  UNL     1     -11.139 -33.827   8.493  1.00  0.00     0.190 HD
ENDBRANCH   1  11
TORSDOF 3
ENDMDL
MODEL 5
REMARK VINA RESULT: -6.009198194      8.726     10.170
REMARK  3 active torsions:
REMARK  status: ('A' for Active; 'I' for Inactive)
REMARK    1  A    between atoms: C4_6  and  C5_7 
REMARK    2  A    between atoms: C5_7  and  C6_8 
REMARK    3  A    between atoms: C6_8  and  C7_9 
ROOT
HETATM    1  C6  UNL     1      -9.669 -34.663  10.800  1.00  0.00     0.081 C 
ENDROOT
BRANCH   1   2
HETATM    2  C5  UNL     1     -11.135 -34.328  10.952  1.00  0.00     0.032 C 
BRANCH   2   3
HETATM    3  C4  UNL     1     -11.689 -33.751   9.669  1.00  0.00     0.077 C 
HETATM    4  N1  UNL     1     -12.778 -34.551   9.230  1.00  0.00    -0.417 N 
HETATM    5  C3  UNL     1     -12.460 -35.508   8.210  1.00  0.00     0.114 C 
ATOM      6  H1  UNL     1     -13.718 -34.451   9.612  1.00  0.00     0.153 HD
HETATM    7  C2  UNL     1     -12.573 -34.980   6.814  1.00  0.00     0.019 C 
HETATM    8  C1  UNL     1     -11.411 -34.108   6.410  1.00  0.00     0.002 C 
HETATM    9  C9  UNL     1     -11.312 -32.976   7.395  1.00  0.00     0.002 C 
HETATM   10  C8  UNL     1     -10.621 -33.533   8.634  1.00  0.00     0.024 C 
ENDBRANCH   2   3
ENDBRANCH   1   2
BRANCH   1  11
HETATM   11  C7  UNL     1      -9.445 -36.107  10.911  1.00  0.00     0.113 A 
HETATM   12  N2  UNL     1      -9.024 -36.874  11.935  1.00  0.00    -0.272 N 
HETATM   13  N3  UNL     1      -8.990 -38.141  11.511  1.00  0.00    -0.227 N 
ATOM     14  H2  UNL     1      -8.776 -36.546  12.868  1.00  0.00     0.190 HD
HETATM   15  N4  UNL     1      -9.377 -38.192  10.253  1.00  0.00    -0.227 N 
ATOM     16  H3  UNL     1      -8.707 -38.943  12.074  1.00  0.00     0.210 HD
HETATM   17  N5  UNL     1      -9.653 -36.980   9.882  1.00  0.00    -0.272 N 
ATOM     18  H4  UNL     1      -9.446 -39.030   9.677  1.00  0.00     0.210 HD
ATOM     19  H5  UNL     1      -9.979 -36.716   8.952  1.00  0.00     0.190 HD
ENDBRANCH   1  11
TORSDOF 3
ENDMDL
