MODEL 1
REMARK VINA RESULT: -7.034387298      0.000      0.000
REMARK  8 active torsions:
REMARK  status: ('A' for Active; 'I' for Inactive)
REMARK    1  A    between atoms: N1_1  and  C1_4 
REMARK    2  A    between atoms: N5_14  and  C5_15 
REMARK    3  A    between atoms: C5_15  and  C6_16 
REMARK    4  A    between atoms: C6_16  and  N6_17 
REMARK    5  A    between atoms: N6_17  and  C7_19 
REMARK    6  A    between atoms: C7_19  and  C8_20 
REMARK    7  A    between atoms: C8_20  and  C9_21 
REMARK    8  A    between atoms: C9_21  and  N7_22 
ROOT
HETATM    1  C1  UNL     1     -30.403  21.733  33.859  1.00  0.00     0.132 A 
HETATM    2  N2  UNL     1     -31.678  21.926  34.217  1.00  0.00    -0.337 N 
ATOM      3  H2  UNL     1     -32.249  22.607  33.715  1.00  0.00     0.168 HD
HETATM    4  C2  UNL     1     -32.207  21.231  35.228  1.00  0.00     0.183 A 
HETATM    5  N3  UNL     1     -31.434  20.342  35.870  1.00  0.00    -0.335 N 
ATOM      6  H3  UNL     1     -31.843  19.815  36.641  1.00  0.00     0.168 HD
HETATM    7  C3  UNL     1     -30.151  20.109  35.552  1.00  0.00     0.155 A 
HETATM    8  C4  UNL     1     -29.576  20.819  34.505  1.00  0.00     0.138 A 
HETATM    9  N4  UNL     1     -28.408  20.183  34.683  1.00  0.00    -0.290 N 
ATOM     10  H4  UNL     1     -27.491  20.212  34.238  1.00  0.00     0.187 HD
HETATM   11  N5  UNL     1     -28.947  19.510  35.674  1.00  0.00    -0.272 N 
ENDROOT
BRANCH  11  12
HETATM   12  C5  UNL     1     -28.465  18.487  36.615  1.00  0.00     0.170 C 
BRANCH  12  13
HETATM   13  C6  UNL     1     -26.966  18.372  36.423  1.00  0.00     0.135 C 
BRANCH  13  14
HETATM   14  N6  UNL     1     -26.504  17.102  36.015  1.00  0.00    -0.419 N 
ATOM     15  H6  UNL     1     -25.713  16.662  36.484  1.00  0.00     0.153 HD
BRANCH  14  16
HETATM   16  C7  UNL     1     -27.160  16.453  34.940  1.00  0.00     0.115 C 
BRANCH  16  17
HETATM   17  C8  UNL     1     -27.801  15.134  35.319  1.00  0.00     0.046 C 
BRANCH  17  18
HETATM   18  C9  UNL     1     -29.310  15.248  35.092  1.00  0.00     0.231 C 
BRANCH  18  19
HETATM   19  N7  UNL     1     -29.907  13.942  34.958  1.00  0.00    -0.079 N 
ATOM     20  H73 UNL     1     -30.897  13.951  35.206  1.00  0.00     0.274 HD
ATOM     21  H72 UNL     1     -29.997  13.666  33.980  1.00  0.00     0.274 HD
ATOM     22  H71 UNL     1     -29.389  13.250  35.499  1.00  0.00     0.274 HD
ENDBRANCH  18  19
ENDBRANCH  17  18
ENDBRANCH  16  17
ENDBRANCH  14  16
ENDBRANCH  13  14
ENDBRANCH  12  13
ENDBRANCH  11  12
BRANCH   1  23
HETATM   23  N1  UNL     1     -29.831  22.386  32.883  1.00  0.00    -0.383 N 
ATOM     24  H12 UNL     1     -30.329  23.226  32.587  1.00  0.00     0.157 HD
ATOM     25  H11 UNL     1     -28.960  22.084  32.448  1.00  0.00     0.157 HD
ENDBRANCH   1  23
TORSDOF 8
ENDMDL
MODEL 2
REMARK VINA RESULT: -6.976911717      1.184      1.476
REMARK  8 active torsions:
REMARK  status: ('A' for Active; 'I' for Inactive)
REMARK    1  A    between atoms: N1_1  and  C1_4 
REMARK    2  A    between atoms: N5_14  and  C5_15 
REMARK    3  A    between atoms: C5_15  and  C6_16 
REMARK    4  A    between atoms: C6_16  and  N6_17 
REMARK    5  A    between atoms: N6_17  and  C7_19 
REMARK    6  A    between atoms: C7_19  and  C8_20 
REMARK    7  A    between atoms: C8_20  and  C9_21 
REMARK    8  A    between atoms: C9_21  and  N7_22 
ROOT
HETATM    1  C1  UNL     1     -30.371  21.702  33.863  1.00  0.00     0.132 A 
HETATM    2  N2  UNL     1     -31.644  21.932  34.211  1.00  0.00    -0.337 N 
ATOM      3  H2  UNL     1     -32.182  22.646  33.722  1.00  0.00     0.168 HD
HETATM    4  C2  UNL     1     -32.210  21.230  35.197  1.00  0.00     0.183 A 
HETATM    5  N3  UNL     1     -31.478  20.296  35.823  1.00  0.00    -0.335 N 
ATOM      6  H3  UNL     1     -31.916  19.764  36.574  1.00  0.00     0.168 HD
HETATM    7  C3  UNL     1     -30.200  20.024  35.515  1.00  0.00     0.155 A 
HETATM    8  C4  UNL     1     -29.587  20.740  34.493  1.00  0.00     0.138 A 
HETATM    9  N4  UNL     1     -28.445  20.058  34.668  1.00  0.00    -0.290 N 
ATOM     10  H4  UNL     1     -27.523  20.065  34.235  1.00  0.00     0.187 HD
HETATM   11  N5  UNL     1     -29.020  19.379  35.634  1.00  0.00    -0.272 N 
ENDROOT
BRANCH  11  12
HETATM   12  C5  UNL     1     -28.588  18.314  36.553  1.00  0.00     0.170 C 
BRANCH  12  13
HETATM   13  C6  UNL     1     -28.303  17.086  35.713  1.00  0.00     0.135 C 
BRANCH  13  14
HETATM   14  N6  UNL     1     -29.420  16.531  35.052  1.00  0.00    -0.419 N 
ATOM     15  H6  UNL     1     -30.100  17.131  34.587  1.00  0.00     0.153 HD
BRANCH  14  16
HETATM   16  C7  UNL     1     -29.577  15.122  35.048  1.00  0.00     0.115 C 
BRANCH  16  17
HETATM   17  C8  UNL     1     -28.268  14.359  35.029  1.00  0.00     0.046 C 
BRANCH  17  18
HETATM   18  C9  UNL     1     -28.108  13.710  33.652  1.00  0.00     0.231 C 
BRANCH  18  19
HETATM   19  N7  UNL     1     -28.369  12.293  33.722  1.00  0.00    -0.079 N 
ATOM     20  H73 UNL     1     -29.210  12.090  34.261  1.00  0.00     0.274 HD
ATOM     21  H72 UNL     1     -28.669  11.920  32.822  1.00  0.00     0.274 HD
ATOM     22  H71 UNL     1     -27.557  11.794  34.085  1.00  0.00     0.274 HD
ENDBRANCH  18  19
ENDBRANCH  17  18
ENDBRANCH  16  17
ENDBRANCH  14  16
ENDBRANCH  13  14
ENDBRANCH  12  13
ENDBRANCH  11  12
BRANCH   1  23
HETATM   23  N1  UNL     1     -29.764  22.359  32.912  1.00  0.00    -0.383 N 
ATOM     24  H12 UNL     1     -30.140  22.196  31.978  1.00  0.00     0.157 HD
ATOM     25  H11 UNL     1     -28.976  22.984  33.084  1.00  0.00     0.157 HD
ENDBRANCH   1  23
TORSDOF 8
ENDMDL
MODEL 3
REMARK VINA RESULT: -6.965254869      1.694      2.980
REMARK  8 active torsions:
REMARK  status: ('A' for Active; 'I' for Inactive)
REMARK    1  A    between atoms: N1_1  and  C1_4 
REMARK    2  A    between atoms: N5_14  and  C5_15 
REMARK    3  A    between atoms: C5_15  and  C6_16 
REMARK    4  A    between atoms: C6_16  and  N6_17 
REMARK    5  A    between atoms: N6_17  and  C7_19 
REMARK    6  A    between atoms: C7_19  and  C8_20 
REMARK    7  A    between atoms: C8_20  and  C9_21 
REMARK    8  A    between atoms: C9_21  and  N7_22 
ROOT
HETATM    1  C1  UNL     1     -30.679  21.447  33.599  1.00  0.00     0.132 A 
HETATM    2  N2  UNL     1     -31.546  22.055  34.418  1.00  0.00    -0.337 N 
ATOM      3  H2  UNL     1     -31.816  23.023  34.244  1.00  0.00     0.168 HD
HETATM    4  C2  UNL     1     -32.059  21.399  35.462  1.00  0.00     0.183 A 
HETATM    5  N3  UNL     1     -31.688  20.126  35.667  1.00  0.00    -0.335 N 
ATOM      6  H3  UNL     1     -32.084  19.631  36.466  1.00  0.00     0.168 HD
HETATM    7  C3  UNL     1     -30.823  19.469  34.878  1.00  0.00     0.155 A 
HETATM    8  C4  UNL     1     -30.274  20.129  33.785  1.00  0.00     0.138 A 
HETATM    9  N4  UNL     1     -29.572  19.037  33.448  1.00  0.00    -0.290 N 
ATOM     10  H4  UNL     1     -28.916  18.796  32.706  1.00  0.00     0.187 HD
HETATM   11  N5  UNL     1     -30.088  18.409  34.480  1.00  0.00    -0.272 N 
ENDROOT
BRANCH  11  12
HETATM   12  C5  UNL     1     -29.945  17.061  35.052  1.00  0.00     0.170 C 
BRANCH  12  13
HETATM   13  C6  UNL     1     -28.504  16.914  35.498  1.00  0.00     0.135 C 
BRANCH  13  14
HETATM   14  N6  UNL     1     -28.189  17.513  36.737  1.00  0.00    -0.419 N 
ATOM     15  H6  UNL     1     -28.739  17.303  37.570  1.00  0.00     0.153 HD
BRANCH  14  16
HETATM   16  C7  UNL     1     -27.095  18.411  36.800  1.00  0.00     0.115 C 
BRANCH  16  17
HETATM   17  C8  UNL     1     -27.496  19.851  37.046  1.00  0.00     0.046 C 
BRANCH  17  18
HETATM   18  C9  UNL     1     -27.149  20.668  35.799  1.00  0.00     0.231 C 
BRANCH  18  19
HETATM   19  N7  UNL     1     -26.389  19.875  34.864  1.00  0.00    -0.079 N 
ATOM     20  H73 UNL     1     -25.413  20.167  34.827  1.00  0.00     0.274 HD
ATOM     21  H72 UNL     1     -26.253  18.922  35.200  1.00  0.00     0.274 HD
ATOM     22  H71 UNL     1     -26.823  19.891  33.941  1.00  0.00     0.274 HD
ENDBRANCH  18  19
ENDBRANCH  17  18
ENDBRANCH  16  17
ENDBRANCH  14  16
ENDBRANCH  13  14
ENDBRANCH  12  13
ENDBRANCH  11  12
BRANCH   1  23
HETATM   23  N1  UNL     1     -30.141  22.039  32.567  1.00  0.00    -0.383 N 
ATOM     24  H12 UNL     1     -30.806  22.518  31.960  1.00  0.00     0.157 HD
ATOM     25  H11 UNL     1     -29.139  22.025  32.378  1.00  0.00     0.157 HD
ENDBRANCH   1  23
TORSDOF 8
ENDMDL
MODEL 4
REMARK VINA RESULT: -6.945316917      2.461      5.575
REMARK  8 active torsions:
REMARK  status: ('A' for Active; 'I' for Inactive)
REMARK    1  A    between atoms: N1_1  and  C1_4 
REMARK    2  A    between atoms: N5_14  and  C5_15 
REMARK    3  A    between atoms: C5_15  and  C6_16 
REMARK    4  A    between atoms: C6_16  and  N6_17 
REMARK    5  A    between atoms: N6_17  and  C7_19 
REMARK    6  A    between atoms: C7_19  and  C8_20 
REMARK    7  A    between atoms: C8_20  and  C9_21 
REMARK    8  A    between atoms: C9_21  and  N7_22 
ROOT
HETATM    1  C1  UNL     1     -28.066  18.655  34.470  1.00  0.00     0.132 A 
HETATM    2  N2  UNL     1     -27.723  18.167  35.669  1.00  0.00    -0.337 N 
ATOM      3  H2  UNL     1     -26.952  17.504  35.745  1.00  0.00     0.168 HD
HETATM    4  C2  UNL     1     -28.386  18.547  36.765  1.00  0.00     0.183 A 
HETATM    5  N3  UNL     1     -29.395  19.422  36.635  1.00  0.00    -0.335 N 
ATOM      6  H3  UNL     1     -29.896  19.707  37.476  1.00  0.00     0.168 HD
HETATM    7  C3  UNL     1     -29.779  19.942  35.459  1.00  0.00     0.155 A 
HETATM    8  C4  UNL     1     -29.107  19.564  34.303  1.00  0.00     0.138 A 
HETATM    9  N4  UNL     1     -29.893  20.355  33.558  1.00  0.00    -0.290 N 
ATOM     10  H4  UNL     1     -29.965  20.580  32.567  1.00  0.00     0.187 HD
HETATM   11  N5  UNL     1     -30.532  20.715  34.648  1.00  0.00    -0.272 N 
ENDROOT
BRANCH  11  12
HETATM   12  C5  UNL     1     -31.664  21.608  34.939  1.00  0.00     0.170 C 
BRANCH  12  13
HETATM   13  C6  UNL     1     -32.762  20.758  35.546  1.00  0.00     0.135 C 
BRANCH  13  14
HETATM   14  N6  UNL     1     -33.734  21.462  36.288  1.00  0.00    -0.419 N 
ATOM     15  H6  UNL     1     -34.262  22.224  35.862  1.00  0.00     0.153 HD
BRANCH  14  16
HETATM   16  C7  UNL     1     -33.963  21.090  37.636  1.00  0.00     0.115 C 
BRANCH  16  17
HETATM   17  C8  UNL     1     -33.435  19.715  37.991  1.00  0.00     0.046 C 
BRANCH  17  18
HETATM   18  C9  UNL     1     -34.588  18.890  38.566  1.00  0.00     0.231 C 
BRANCH  18  19
HETATM   19  N7  UNL     1     -35.704  18.866  37.653  1.00  0.00    -0.079 N 
ATOM     20  H73 UNL     1     -35.453  18.442  36.759  1.00  0.00     0.274 HD
ATOM     21  H72 UNL     1     -36.417  18.197  37.944  1.00  0.00     0.274 HD
ATOM     22  H71 UNL     1     -36.092  19.801  37.531  1.00  0.00     0.274 HD
ENDBRANCH  18  19
ENDBRANCH  17  18
ENDBRANCH  16  17
ENDBRANCH  14  16
ENDBRANCH  13  14
ENDBRANCH  12  13
ENDBRANCH  11  12
BRANCH   1  23
HETATM   23  N1  UNL     1     -27.458  18.318  33.365  1.00  0.00    -0.383 N 
ATOM     24  H12 UNL     1     -26.589  17.802  33.500  1.00  0.00     0.157 HD
ATOM     25  H11 UNL     1     -27.818  18.551  32.439  1.00  0.00     0.157 HD
ENDBRANCH   1  23
TORSDOF 8
ENDMDL
MODEL 5
REMARK VINA RESULT: -6.910362018      1.016      1.933
REMARK  8 active torsions:
REMARK  status: ('A' for Active; 'I' for Inactive)
REMARK    1  A    between atoms: N1_1  and  C1_4 
REMARK    2  A    between atoms: N5_14  and  C5_15 
REMARK    3  A    between atoms: C5_15  and  C6_16 
REMARK    4  A    between atoms: C6_16  and  N6_17 
REMARK    5  A    between atoms: N6_17  and  C7_19 
REMARK    6  A    between atoms: C7_19  and  C8_20 
REMARK    7  A    between atoms: C8_20  and  C9_21 
REMARK    8  A    between atoms: C9_21  and  N7_22 
ROOT
HETATM    1  C1  UNL     1     -31.547  20.545  35.138  1.00  0.00     0.132 A 
HETATM    2  N2  UNL     1     -31.583  21.429  34.134  1.00  0.00    -0.337 N 
ATOM      3  H2  UNL     1     -32.481  21.771  33.791  1.00  0.00     0.168 HD
HETATM    4  C2  UNL     1     -30.449  21.865  33.579  1.00  0.00     0.183 A 
HETATM    5  N3  UNL     1     -29.282  21.399  34.051  1.00  0.00    -0.335 N 
ATOM      6  H3  UNL     1     -28.420  21.736  33.623  1.00  0.00     0.168 HD
HETATM    7  C3  UNL     1     -29.189  20.513  35.055  1.00  0.00     0.155 A 
HETATM    8  C4  UNL     1     -30.354  20.043  35.649  1.00  0.00     0.138 A 
HETATM    9  N4  UNL     1     -29.644  19.276  36.490  1.00  0.00    -0.290 N 
ATOM     10  H4  UNL     1     -29.867  18.626  37.243  1.00  0.00     0.187 HD
HETATM   11  N5  UNL     1     -28.540  19.716  35.931  1.00  0.00    -0.272 N 
ENDROOT
BRANCH  11  12
HETATM   12  C5  UNL     1     -27.105  19.462  36.129  1.00  0.00     0.170 C 
BRANCH  12  13
HETATM   13  C6  UNL     1     -26.712  18.348  35.179  1.00  0.00     0.135 C 
BRANCH  13  14
HETATM   14  N6  UNL     1     -26.296  17.147  35.793  1.00  0.00    -0.419 N 
ATOM     15  H6  UNL     1     -25.305  16.922  35.876  1.00  0.00     0.153 HD
BRANCH  14  16
HETATM   16  C7  UNL     1     -27.283  16.261  36.292  1.00  0.00     0.115 C 
BRANCH  16  17
HETATM   17  C8  UNL     1     -28.446  16.042  35.346  1.00  0.00     0.046 C 
BRANCH  17  18
HETATM   18  C9  UNL     1     -28.488  14.560  34.968  1.00  0.00     0.231 C 
BRANCH  18  19
HETATM   19  N7  UNL     1     -29.836  14.052  35.038  1.00  0.00    -0.079 N 
ATOM     20  H73 UNL     1     -30.486  14.753  35.396  1.00  0.00     0.274 HD
ATOM     21  H72 UNL     1     -30.242  13.926  34.111  1.00  0.00     0.274 HD
ATOM     22  H71 UNL     1     -29.870  13.192  35.585  1.00  0.00     0.274 HD
ENDBRANCH  18  19
ENDBRANCH  17  18
ENDBRANCH  16  17
ENDBRANCH  14  16
ENDBRANCH  13  14
ENDBRANCH  12  13
ENDBRANCH  11  12
BRANCH   1  23
HETATM   23  N1  UNL     1     -32.622  20.080  35.715  1.00  0.00    -0.383 N 
ATOM     24  H12 UNL     1     -32.554  19.991  36.729  1.00  0.00     0.157 HD
ATOM     25  H11 UNL     1     -33.463  19.822  35.198  1.00  0.00     0.157 HD
ENDBRANCH   1  23
TORSDOF 8
ENDMDL
