MODEL 1
REMARK VINA RESULT: -7.378840114      0.000      0.000
REMARK  4 active torsions:
REMARK  status: ('A' for Active; 'I' for Inactive)
REMARK       I    between atoms: C1_4  and  N3_6 
REMARK    1  A    between atoms: N3_6  and  C2_8 
REMARK    2  A    between atoms: C2_8  and  C3_9 
REMARK    3  A    between atoms: C3_9  and  C4_10 
REMARK    4  A    between atoms: C3_9  and  N5_17 
ROOT
HETATM    1  C3  UNL     1     -27.409 -17.712  10.501  1.00  0.00     0.152 C 
ENDROOT
BRANCH   1   2
HETATM    2  C2  UNL     1     -26.808 -16.843   9.475  1.00  0.00     0.093 C 
BRANCH   2   3
HETATM    3  N3  UNL     1     -27.302 -15.577   9.173  1.00  0.00    -0.342 N 
HETATM    4  C1  UNL     1     -28.677 -15.396   8.801  1.00  0.00     0.185 C 
HETATM    5  N1  UNL     1     -29.141 -15.661   7.643  1.00  0.00    -0.374 N 
HETATM    6  N2  UNL     1     -29.576 -14.887   9.760  1.00  0.00    -0.064 NA
ATOM      7  H12 UNL     1     -30.118 -15.533   7.379  1.00  0.00     0.158 HD
ATOM      8  H11 UNL     1     -28.491 -16.030   6.949  1.00  0.00     0.158 HD
ATOM      9  H3  UNL     1     -26.681 -14.769   9.218  1.00  0.00     0.167 HD
ENDBRANCH   2   3
ENDBRANCH   1   2
BRANCH   1  10
HETATM   10  C4  UNL     1     -26.374 -17.999  11.545  1.00  0.00    -0.015 A 
HETATM   11  C5  UNL     1     -26.052 -17.045  12.519  1.00  0.00     0.012 A 
HETATM   12  C6  UNL     1     -25.079 -17.344  13.451  1.00  0.00     0.018 A 
HETATM   13  C7  UNL     1     -24.431 -18.572  13.418  1.00  0.00     0.087 A 
HETATM   14  N4  UNL     1     -24.771 -19.457  12.466  1.00  0.00    -0.375 N 
HETATM   15  C8  UNL     1     -25.720 -19.196  11.544  1.00  0.00     0.097 A 
ATOM     16  H4  UNL     1     -24.295 -20.359  12.440  1.00  0.00     0.164 HD
ENDBRANCH   1  10
BRANCH   1  17
HETATM   17  N5  UNL     1     -28.097 -18.892  10.162  1.00  0.00    -0.400 N 
HETATM   18  C9  UNL     1     -28.206 -19.211   8.772  1.00  0.00     0.118 C 
HETATM   19  C10 UNL     1     -29.595 -19.491   8.262  1.00  0.00     0.019 C 
HETATM   20  C11 UNL     1     -30.454 -20.325   9.144  1.00  0.00     0.003 C 
HETATM   21  C12 UNL     1     -29.936 -20.442  10.537  1.00  0.00     0.019 C 
HETATM   22  C13 UNL     1     -29.319 -19.097  10.883  1.00  0.00     0.118 C 
ENDBRANCH   1  17
TORSDOF 4
ENDMDL
MODEL 2
REMARK VINA RESULT: -7.377951525      1.793      3.516
REMARK  4 active torsions:
REMARK  status: ('A' for Active; 'I' for Inactive)
REMARK       I    between atoms: C1_4  and  N3_6 
REMARK    1  A    between atoms: N3_6  and  C2_8 
REMARK    2  A    between atoms: C2_8  and  C3_9 
REMARK    3  A    between atoms: C3_9  and  C4_10 
REMARK    4  A    between atoms: C3_9  and  N5_17 
ROOT
HETATM    1  C3  UNL     1     -26.601 -18.863  10.760  1.00  0.00     0.152 C 
ENDROOT
BRANCH   1   2
HETATM    2  C2  UNL     1     -27.458 -20.038  10.996  1.00  0.00     0.093 C 
BRANCH   2   3
HETATM    3  N3  UNL     1     -27.828 -20.919   9.984  1.00  0.00    -0.342 N 
HETATM    4  C1  UNL     1     -28.802 -20.537   9.000  1.00  0.00     0.185 C 
HETATM    5  N1  UNL     1     -30.059 -20.527   9.212  1.00  0.00    -0.374 N 
HETATM    6  N2  UNL     1     -28.355 -20.158   7.717  1.00  0.00    -0.064 NA
ATOM      7  H12 UNL     1     -30.751 -20.256   8.513  1.00  0.00     0.158 HD
ATOM      8  H11 UNL     1     -30.383 -20.801  10.140  1.00  0.00     0.158 HD
ATOM      9  H3  UNL     1     -27.402 -21.844   9.940  1.00  0.00     0.167 HD
ENDBRANCH   2   3
ENDBRANCH   1   2
BRANCH   1  10
HETATM   10  C4  UNL     1     -25.691 -18.696  11.938  1.00  0.00    -0.015 A 
HETATM   11  C5  UNL     1     -25.636 -17.484  12.638  1.00  0.00     0.012 A 
HETATM   12  C6  UNL     1     -24.771 -17.367  13.707  1.00  0.00     0.018 A 
HETATM   13  C7  UNL     1     -23.967 -18.436  14.076  1.00  0.00     0.087 A 
HETATM   14  N4  UNL     1     -24.050 -19.581  13.377  1.00  0.00    -0.375 N 
HETATM   15  C8  UNL     1     -24.888 -19.727  12.332  1.00  0.00     0.097 A 
ATOM     16  H4  UNL     1     -23.459 -20.367  13.648  1.00  0.00     0.164 HD
ENDBRANCH   1  10
BRANCH   1  17
HETATM   17  N5  UNL     1     -27.137 -17.619  10.381  1.00  0.00    -0.400 N 
HETATM   18  C9  UNL     1     -28.524 -17.394  10.649  1.00  0.00     0.118 C 
HETATM   19  C10 UNL     1     -29.361 -16.938   9.482  1.00  0.00     0.019 C 
HETATM   20  C11 UNL     1     -28.741 -15.914   8.601  1.00  0.00     0.003 C 
HETATM   21  C12 UNL     1     -27.270 -15.774   8.799  1.00  0.00     0.019 C 
HETATM   22  C13 UNL     1     -26.737 -17.169   9.080  1.00  0.00     0.118 C 
ENDBRANCH   1  17
TORSDOF 4
ENDMDL
MODEL 3
REMARK VINA RESULT: -7.214364516      0.668      1.126
REMARK  4 active torsions:
REMARK  status: ('A' for Active; 'I' for Inactive)
REMARK       I    between atoms: C1_4  and  N3_6 
REMARK    1  A    between atoms: N3_6  and  C2_8 
REMARK    2  A    between atoms: C2_8  and  C3_9 
REMARK    3  A    between atoms: C3_9  and  C4_10 
REMARK    4  A    between atoms: C3_9  and  N5_17 
ROOT
HETATM    1  C3  UNL     1     -27.391 -17.707  10.574  1.00  0.00     0.152 C 
ENDROOT
BRANCH   1   2
HETATM    2  C2  UNL     1     -26.808 -16.885   9.499  1.00  0.00     0.093 C 
BRANCH   2   3
HETATM    3  N3  UNL     1     -27.273 -15.610   9.187  1.00  0.00    -0.342 N 
HETATM    4  C1  UNL     1     -28.641 -15.403   8.802  1.00  0.00     0.185 C 
HETATM    5  N1  UNL     1     -29.100 -15.665   7.641  1.00  0.00    -0.374 N 
HETATM    6  N2  UNL     1     -29.537 -14.869   9.751  1.00  0.00    -0.064 NA
ATOM      7  H12 UNL     1     -30.072 -15.517   7.368  1.00  0.00     0.158 HD
ATOM      8  H11 UNL     1     -28.452 -16.051   6.955  1.00  0.00     0.158 HD
ATOM      9  H3  UNL     1     -26.635 -14.816   9.232  1.00  0.00     0.167 HD
ENDBRANCH   2   3
ENDBRANCH   1   2
BRANCH   1  10
HETATM   10  C4  UNL     1     -26.333 -17.958  11.604  1.00  0.00    -0.015 A 
HETATM   11  C5  UNL     1     -25.681 -19.195  11.678  1.00  0.00     0.012 A 
HETATM   12  C6  UNL     1     -24.725 -19.390  12.655  1.00  0.00     0.018 A 
HETATM   13  C7  UNL     1     -24.420 -18.372  13.549  1.00  0.00     0.087 A 
HETATM   14  N4  UNL     1     -25.071 -17.202  13.443  1.00  0.00    -0.375 N 
HETATM   15  C8  UNL     1     -26.006 -16.980  12.498  1.00  0.00     0.097 A 
ATOM     16  H4  UNL     1     -24.848 -16.454  14.101  1.00  0.00     0.164 HD
ENDBRANCH   1  10
BRANCH   1  17
HETATM   17  N5  UNL     1     -28.093 -18.895  10.300  1.00  0.00    -0.400 N 
HETATM   18  C9  UNL     1     -28.254 -19.260   8.927  1.00  0.00     0.118 C 
HETATM   19  C10 UNL     1     -29.662 -19.552   8.478  1.00  0.00     0.019 C 
HETATM   20  C11 UNL     1     -30.490 -20.353   9.418  1.00  0.00     0.003 C 
HETATM   21  C12 UNL     1     -29.921 -20.425  10.794  1.00  0.00     0.019 C 
HETATM   22  C13 UNL     1     -29.288 -19.072  11.072  1.00  0.00     0.118 C 
ENDBRANCH   1  17
TORSDOF 4
ENDMDL
MODEL 4
REMARK VINA RESULT: -7.106864212      1.156      4.494
REMARK  4 active torsions:
REMARK  status: ('A' for Active; 'I' for Inactive)
REMARK       I    between atoms: C1_4  and  N3_6 
REMARK    1  A    between atoms: N3_6  and  C2_8 
REMARK    2  A    between atoms: C2_8  and  C3_9 
REMARK    3  A    between atoms: C3_9  and  C4_10 
REMARK    4  A    between atoms: C3_9  and  N5_17 
ROOT
HETATM    1  C3  UNL     1     -26.912 -18.088  10.605  1.00  0.00     0.152 C 
ENDROOT
BRANCH   1   2
HETATM    2  C2  UNL     1     -27.513 -16.767  10.354  1.00  0.00     0.093 C 
BRANCH   2   3
HETATM    3  N3  UNL     1     -27.459 -16.136   9.114  1.00  0.00    -0.342 N 
HETATM    4  C1  UNL     1     -28.657 -15.903   8.358  1.00  0.00     0.185 C 
HETATM    5  N1  UNL     1     -29.255 -16.802   7.678  1.00  0.00    -0.374 N 
HETATM    6  N2  UNL     1     -29.210 -14.606   8.348  1.00  0.00    -0.064 NA
ATOM      7  H12 UNL     1     -30.106 -16.636   7.141  1.00  0.00     0.158 HD
ATOM      8  H11 UNL     1     -28.855 -17.740   7.685  1.00  0.00     0.158 HD
ATOM      9  H3  UNL     1     -26.559 -15.836   8.740  1.00  0.00     0.167 HD
ENDBRANCH   2   3
ENDBRANCH   1   2
BRANCH   1  10
HETATM   10  C4  UNL     1     -27.875 -19.141  10.150  1.00  0.00    -0.015 A 
HETATM   11  C5  UNL     1     -28.875 -19.620  11.007  1.00  0.00     0.012 A 
HETATM   12  C6  UNL     1     -29.731 -20.603  10.553  1.00  0.00     0.018 A 
HETATM   13  C7  UNL     1     -29.596 -21.109   9.267  1.00  0.00     0.087 A 
HETATM   14  N4  UNL     1     -28.623 -20.623   8.479  1.00  0.00    -0.375 N 
HETATM   15  C8  UNL     1     -27.775 -19.660   8.892  1.00  0.00     0.097 A 
ATOM     16  H4  UNL     1     -28.522 -20.995   7.534  1.00  0.00     0.164 HD
ENDBRANCH   1  10
BRANCH   1  17
HETATM   17  N5  UNL     1     -26.375 -18.431  11.859  1.00  0.00    -0.400 N 
HETATM   18  C9  UNL     1     -26.270 -17.391  12.835  1.00  0.00     0.118 C 
HETATM   19  C10 UNL     1     -24.916 -17.207  13.468  1.00  0.00     0.019 C 
HETATM   20  C11 UNL     1     -24.197 -18.455  13.835  1.00  0.00     0.003 C 
HETATM   21  C12 UNL     1     -24.764 -19.676  13.194  1.00  0.00     0.019 C 
HETATM   22  C13 UNL     1     -25.210 -19.265  11.800  1.00  0.00     0.118 C 
ENDBRANCH   1  17
TORSDOF 4
ENDMDL
MODEL 5
REMARK VINA RESULT: -7.030018249      1.173      4.585
REMARK  4 active torsions:
REMARK  status: ('A' for Active; 'I' for Inactive)
REMARK       I    between atoms: C1_4  and  N3_6 
REMARK    1  A    between atoms: N3_6  and  C2_8 
REMARK    2  A    between atoms: C2_8  and  C3_9 
REMARK    3  A    between atoms: C3_9  and  C4_10 
REMARK    4  A    between atoms: C3_9  and  N5_17 
ROOT
HETATM    1  C3  UNL     1     -27.182 -18.245  10.758  1.00  0.00     0.152 C 
ENDROOT
BRANCH   1   2
HETATM    2  C2  UNL     1     -27.811 -16.927  10.564  1.00  0.00     0.093 C 
BRANCH   2   3
HETATM    3  N3  UNL     1     -27.512 -16.098   9.486  1.00  0.00    -0.342 N 
HETATM    4  C1  UNL     1     -28.479 -15.867   8.450  1.00  0.00     0.185 C 
HETATM    5  N1  UNL     1     -28.733 -16.698   7.516  1.00  0.00    -0.374 N 
HETATM    6  N2  UNL     1     -29.190 -14.649   8.447  1.00  0.00    -0.064 NA
ATOM      7  H12 UNL     1     -29.420 -16.534   6.780  1.00  0.00     0.158 HD
ATOM      8  H11 UNL     1     -28.219 -17.580   7.518  1.00  0.00     0.158 HD
ATOM      9  H3  UNL     1     -26.598 -15.651   9.433  1.00  0.00     0.167 HD
ENDBRANCH   2   3
ENDBRANCH   1   2
BRANCH   1  10
HETATM   10  C4  UNL     1     -28.185 -19.304  10.417  1.00  0.00    -0.015 A 
HETATM   11  C5  UNL     1     -28.291 -19.800   9.112  1.00  0.00     0.012 A 
HETATM   12  C6  UNL     1     -29.241 -20.764   8.838  1.00  0.00     0.018 A 
HETATM   13  C7  UNL     1     -30.078 -21.228   9.844  1.00  0.00     0.087 A 
HETATM   14  N4  UNL     1     -29.942 -20.724  11.082  1.00  0.00    -0.375 N 
HETATM   15  C8  UNL     1     -29.021 -19.785  11.381  1.00  0.00     0.097 A 
ATOM     16  H4  UNL     1     -30.557 -21.063  11.822  1.00  0.00     0.164 HD
ENDBRANCH   1  10
BRANCH   1  17
HETATM   17  N5  UNL     1     -26.511 -18.578  11.949  1.00  0.00    -0.400 N 
HETATM   18  C9  UNL     1     -26.420 -17.565  12.955  1.00  0.00     0.118 C 
HETATM   19  C10 UNL     1     -25.039 -17.274  13.483  1.00  0.00     0.019 C 
HETATM   20  C11 UNL     1     -24.180 -18.460  13.738  1.00  0.00     0.003 C 
HETATM   21  C12 UNL     1     -24.684 -19.707  13.094  1.00  0.00     0.019 C 
HETATM   22  C13 UNL     1     -25.283 -19.293  11.760  1.00  0.00     0.118 C 
ENDBRANCH   1  17
TORSDOF 4
ENDMDL
