MODEL 1
REMARK VINA RESULT: -7.332945389      0.000      0.000
REMARK  3 active torsions:
REMARK  status: ('A' for Active; 'I' for Inactive)
REMARK    1  A    between atoms: C5_16  and  C6_17 
REMARK    2  A    between atoms: C6_17  and  O3_18 
REMARK    3  A    between atoms: O3_18  and  C7_19 
ROOT
HETATM    1  O1  UNL     1       8.577   5.721  28.654  1.00  0.00    -0.260 OA
HETATM    2  C1  UNL     1       8.894   4.552  28.317  1.00  0.00     0.292 A 
HETATM    3  N1  UNL     1       8.412   3.928  27.243  1.00  0.00    -0.284 N 
ATOM      4  H1  UNL     1       7.749   4.458  26.677  1.00  0.00     0.172 HD
HETATM    5  C2  UNL     1       8.691   2.691  26.814  1.00  0.00     0.259 A 
HETATM    6  O2  UNL     1       8.069   2.388  25.750  1.00  0.00    -0.267 OA
HETATM    7  C3  UNL     1       9.525   1.754  27.346  1.00  0.00     0.071 A 
HETATM    8  C4  UNL     1      10.231   2.045  28.494  1.00  0.00     0.109 A 
HETATM    9  S1  UNL     1       9.990   3.610  29.199  1.00  0.00    -0.009 SA
HETATM   10  N2  UNL     1      11.299   1.201  29.000  1.00  0.00    -0.279 N 
ATOM     11  H2  UNL     1      11.783   1.443  29.864  1.00  0.00     0.189 HD
HETATM   12  N3  UNL     1      11.618   0.169  28.360  1.00  0.00    -0.245 N 
ATOM     13  H3  UNL     1      12.357  -0.445  28.704  1.00  0.00     0.208 HD
HETATM   14  N4  UNL     1      10.954  -0.125  27.183  1.00  0.00    -0.310 N 
ATOM     15  H4  UNL     1      11.425  -0.694  26.478  1.00  0.00     0.182 HD
HETATM   16  C5  UNL     1       9.626   0.343  26.923  1.00  0.00     0.166 C 
ENDROOT
BRANCH  16  17
HETATM   17  C6  UNL     1       9.102  -0.030  25.599  1.00  0.00     0.210 C 
BRANCH  17  18
HETATM   18  O3  UNL     1       9.734  -1.104  24.967  1.00  0.00    -0.320 OA
BRANCH  18  19
HETATM   19  C7  UNL     1       9.382  -2.417  25.041  1.00  0.00     0.215 C 
HETATM   20  N5  UNL     1      10.087  -3.225  25.712  1.00  0.00    -0.355 N 
HETATM   21  C8  UNL     1       9.578  -4.569  25.686  1.00  0.00     0.143 C 
ATOM     22  H5  UNL     1      10.929  -2.951  26.218  1.00  0.00     0.163 HD
HETATM   23  C9  UNL     1       8.193  -4.444  25.077  1.00  0.00     0.143 C 
HETATM   24  N6  UNL     1       8.284  -3.114  24.460  1.00  0.00    -0.355 N 
ATOM     25  H6  UNL     1       7.663  -2.751  23.736  1.00  0.00     0.163 HD
ENDBRANCH  18  19
ENDBRANCH  17  18
ENDBRANCH  16  17
TORSDOF 3
ENDMDL
MODEL 2
REMARK VINA RESULT: -6.695256080      0.884      1.058
REMARK  3 active torsions:
REMARK  status: ('A' for Active; 'I' for Inactive)
REMARK    1  A    between atoms: C5_16  and  C6_17 
REMARK    2  A    between atoms: C6_17  and  O3_18 
REMARK    3  A    between atoms: O3_18  and  C7_19 
ROOT
HETATM    1  O1  UNL     1       8.680   5.642  28.802  1.00  0.00    -0.260 OA
HETATM    2  C1  UNL     1       8.935   4.474  28.411  1.00  0.00     0.292 A 
HETATM    3  N1  UNL     1       8.406   3.918  27.322  1.00  0.00    -0.284 N 
ATOM      4  H1  UNL     1       7.759   4.502  26.791  1.00  0.00     0.172 HD
HETATM    5  C2  UNL     1       8.619   2.689  26.837  1.00  0.00     0.259 A 
HETATM    6  O2  UNL     1       7.964   2.460  25.775  1.00  0.00    -0.267 OA
HETATM    7  C3  UNL     1       9.416   1.692  27.315  1.00  0.00     0.071 A 
HETATM    8  C4  UNL     1      10.155   1.903  28.460  1.00  0.00     0.109 A 
HETATM    9  S1  UNL     1      10.001   3.446  29.232  1.00  0.00    -0.009 SA
HETATM   10  N2  UNL     1      11.191   0.989  28.910  1.00  0.00    -0.279 N 
ATOM     11  H2  UNL     1      11.701   1.172  29.774  1.00  0.00     0.189 HD
HETATM   12  N3  UNL     1      11.449  -0.029  28.223  1.00  0.00    -0.245 N 
ATOM     13  H3  UNL     1      12.164  -0.690  28.527  1.00  0.00     0.208 HD
HETATM   14  N4  UNL     1      10.752  -0.243  27.047  1.00  0.00    -0.310 N 
ATOM     15  H4  UNL     1      11.183  -0.803  26.311  1.00  0.00     0.182 HD
HETATM   16  C5  UNL     1       9.443   0.297  26.833  1.00  0.00     0.166 C 
ENDROOT
BRANCH  16  17
HETATM   17  C6  UNL     1       8.879   0.004  25.505  1.00  0.00     0.210 C 
BRANCH  17  18
HETATM   18  O3  UNL     1       9.695  -0.723  24.635  1.00  0.00    -0.320 OA
BRANCH  18  19
HETATM   19  C7  UNL     1       9.498  -1.999  24.205  1.00  0.00     0.215 C 
HETATM   20  N5  UNL     1       8.528  -2.676  24.652  1.00  0.00    -0.355 N 
HETATM   21  C8  UNL     1       8.465  -4.000  24.095  1.00  0.00     0.143 C 
ATOM     22  H5  UNL     1       7.860  -2.320  25.335  1.00  0.00     0.163 HD
HETATM   23  C9  UNL     1       9.450  -3.980  22.940  1.00  0.00     0.143 C 
HETATM   24  N6  UNL     1      10.236  -2.784  23.271  1.00  0.00    -0.355 N 
ATOM     25  H6  UNL     1      11.156  -2.553  22.895  1.00  0.00     0.163 HD
ENDBRANCH  18  19
ENDBRANCH  17  18
ENDBRANCH  16  17
TORSDOF 3
ENDMDL
MODEL 3
REMARK VINA RESULT: -6.639961574      1.457      1.720
REMARK  3 active torsions:
REMARK  status: ('A' for Active; 'I' for Inactive)
REMARK    1  A    between atoms: C5_16  and  C6_17 
REMARK    2  A    between atoms: C6_17  and  O3_18 
REMARK    3  A    between atoms: O3_18  and  C7_19 
ROOT
HETATM    1  O1  UNL     1       8.631   5.678  28.873  1.00  0.00    -0.260 OA
HETATM    2  C1  UNL     1       8.903   4.517  28.473  1.00  0.00     0.292 A 
HETATM    3  N1  UNL     1       8.362   3.953  27.394  1.00  0.00    -0.284 N 
ATOM      4  H1  UNL     1       7.691   4.523  26.880  1.00  0.00     0.172 HD
HETATM    5  C2  UNL     1       8.592   2.730  26.901  1.00  0.00     0.259 A 
HETATM    6  O2  UNL     1       7.919   2.489  25.852  1.00  0.00    -0.267 OA
HETATM    7  C3  UNL     1       9.422   1.750  27.357  1.00  0.00     0.071 A 
HETATM    8  C4  UNL     1      10.181   1.974  28.486  1.00  0.00     0.109 A 
HETATM    9  S1  UNL     1      10.010   3.511  29.266  1.00  0.00    -0.009 SA
HETATM   10  N2  UNL     1      11.247   1.082  28.910  1.00  0.00    -0.279 N 
ATOM     11  H2  UNL     1      11.772   1.274  29.763  1.00  0.00     0.189 HD
HETATM   12  N3  UNL     1      11.512   0.072  28.214  1.00  0.00    -0.245 N 
ATOM     13  H3  UNL     1      12.249  -0.574  28.500  1.00  0.00     0.208 HD
HETATM   14  N4  UNL     1      10.794  -0.154  27.054  1.00  0.00    -0.310 N 
ATOM     15  H4  UNL     1      11.221  -0.702  26.307  1.00  0.00     0.182 HD
HETATM   16  C5  UNL     1       9.468   0.357  26.870  1.00  0.00     0.166 C 
ENDROOT
BRANCH  16  17
HETATM   17  C6  UNL     1       8.882   0.055  25.554  1.00  0.00     0.210 C 
BRANCH  17  18
HETATM   18  O3  UNL     1       9.096  -1.236  25.065  1.00  0.00    -0.320 OA
BRANCH  18  19
HETATM   19  C7  UNL     1       9.336  -1.591  23.773  1.00  0.00     0.215 C 
HETATM   20  N5  UNL     1      10.424  -1.265  23.217  1.00  0.00    -0.355 N 
HETATM   21  C8  UNL     1      10.516  -1.717  21.856  1.00  0.00     0.143 C 
ATOM     22  H5  UNL     1      11.160  -0.738  23.687  1.00  0.00     0.163 HD
HETATM   23  C9  UNL     1       9.356  -2.682  21.691  1.00  0.00     0.143 C 
HETATM   24  N6  UNL     1       8.529  -2.317  22.850  1.00  0.00    -0.355 N 
ATOM     25  H6  UNL     1       7.542  -2.546  22.972  1.00  0.00     0.163 HD
ENDBRANCH  18  19
ENDBRANCH  17  18
ENDBRANCH  16  17
TORSDOF 3
ENDMDL
MODEL 4
REMARK VINA RESULT: -6.609885735      3.103      3.840
REMARK  3 active torsions:
REMARK  status: ('A' for Active; 'I' for Inactive)
REMARK    1  A    between atoms: C5_16  and  C6_17 
REMARK    2  A    between atoms: C6_17  and  O3_18 
REMARK    3  A    between atoms: O3_18  and  C7_19 
ROOT
HETATM    1  O1  UNL     1      10.396   3.830  29.979  1.00  0.00    -0.260 OA
HETATM    2  C1  UNL     1      10.054   3.100  29.014  1.00  0.00     0.292 A 
HETATM    3  N1  UNL     1       9.297   3.512  27.997  1.00  0.00    -0.284 N 
ATOM      4  H1  UNL     1       8.994   4.485  28.031  1.00  0.00     0.172 HD
HETATM    5  C2  UNL     1       8.886   2.806  26.937  1.00  0.00     0.259 A 
HETATM    6  O2  UNL     1       8.176   3.489  26.138  1.00  0.00    -0.267 OA
HETATM    7  C3  UNL     1       9.123   1.503  26.615  1.00  0.00     0.071 A 
HETATM    8  C4  UNL     1       9.900   0.727  27.449  1.00  0.00     0.109 A 
HETATM    9  S1  UNL     1      10.520   1.478  28.883  1.00  0.00    -0.009 SA
HETATM   10  N2  UNL     1      10.386  -0.590  27.077  1.00  0.00    -0.279 N 
ATOM     11  H2  UNL     1      10.942  -1.139  27.731  1.00  0.00     0.189 HD
HETATM   12  N3  UNL     1      10.110  -1.044  25.940  1.00  0.00    -0.245 N 
ATOM     13  H3  UNL     1      10.430  -1.972  25.662  1.00  0.00     0.208 HD
HETATM   14  N4  UNL     1       9.367  -0.270  25.067  1.00  0.00    -0.310 N 
ATOM     15  H4  UNL     1       9.461  -0.428  24.063  1.00  0.00     0.182 HD
HETATM   16  C5  UNL     1       8.469   0.745  25.530  1.00  0.00     0.166 C 
ENDROOT
BRANCH  16  17
HETATM   17  C6  UNL     1       7.801   1.497  24.455  1.00  0.00     0.210 C 
BRANCH  17  18
HETATM   18  O3  UNL     1       8.630   2.009  23.454  1.00  0.00    -0.320 OA
BRANCH  18  19
HETATM   19  C7  UNL     1       8.647   1.648  22.142  1.00  0.00     0.215 C 
HETATM   20  N5  UNL     1       9.484   0.794  21.730  1.00  0.00    -0.355 N 
HETATM   21  C8  UNL     1       9.367   0.527  20.323  1.00  0.00     0.143 C 
ATOM     22  H5  UNL     1      10.171   0.342  22.334  1.00  0.00     0.163 HD
HETATM   23  C9  UNL     1       8.060   1.182  19.914  1.00  0.00     0.143 C 
HETATM   24  N6  UNL     1       7.837   2.082  21.053  1.00  0.00    -0.355 N 
ATOM     25  H6  UNL     1       7.207   2.885  21.063  1.00  0.00     0.163 HD
ENDBRANCH  18  19
ENDBRANCH  17  18
ENDBRANCH  16  17
TORSDOF 3
ENDMDL
MODEL 5
REMARK VINA RESULT: -6.608540129      3.234      4.811
REMARK  3 active torsions:
REMARK  status: ('A' for Active; 'I' for Inactive)
REMARK    1  A    between atoms: C5_16  and  C6_17 
REMARK    2  A    between atoms: C6_17  and  O3_18 
REMARK    3  A    between atoms: O3_18  and  C7_19 
ROOT
HETATM    1  O1  UNL     1      11.518   0.073  29.286  1.00  0.00    -0.260 OA
HETATM    2  C1  UNL     1      10.781   0.909  28.705  1.00  0.00     0.292 A 
HETATM    3  N1  UNL     1      10.086   0.650  27.597  1.00  0.00    -0.284 N 
ATOM      4  H1  UNL     1      10.177  -0.294  27.223  1.00  0.00     0.172 HD
HETATM    5  C2  UNL     1       9.283   1.476  26.916  1.00  0.00     0.259 A 
HETATM    6  O2  UNL     1       8.760   0.925  25.900  1.00  0.00    -0.267 OA
HETATM    7  C3  UNL     1       8.965   2.778  27.162  1.00  0.00     0.071 A 
HETATM    8  C4  UNL     1       9.500   3.413  28.262  1.00  0.00     0.109 A 
HETATM    9  S1  UNL     1      10.573   2.493  29.265  1.00  0.00    -0.009 SA
HETATM   10  N2  UNL     1       9.046   4.713  28.723  1.00  0.00    -0.279 N 
ATOM     11  H2  UNL     1       9.482   5.157  29.530  1.00  0.00     0.189 HD
HETATM   12  N3  UNL     1       8.109   5.285  28.113  1.00  0.00    -0.245 N 
ATOM     13  H3  UNL     1       7.782   6.204  28.412  1.00  0.00     0.208 HD
HETATM   14  N4  UNL     1       7.525   4.652  27.030  1.00  0.00    -0.310 N 
ATOM     15  H4  UNL     1       6.565   4.887  26.779  1.00  0.00     0.182 HD
HETATM   16  C5  UNL     1       8.229   3.677  26.251  1.00  0.00     0.166 C 
ENDROOT
BRANCH  16  17
HETATM   17  C6  UNL     1       7.430   3.078  25.170  1.00  0.00     0.210 C 
BRANCH  17  18
HETATM   18  O3  UNL     1       7.721   3.513  23.874  1.00  0.00    -0.320 OA
BRANCH  18  19
HETATM   19  C7  UNL     1       8.037   2.735  22.803  1.00  0.00     0.215 C 
HETATM   20  N5  UNL     1       8.798   1.735  22.949  1.00  0.00    -0.355 N 
HETATM   21  C8  UNL     1       9.030   1.023  21.722  1.00  0.00     0.143 C 
ATOM     22  H5  UNL     1       9.203   1.461  23.844  1.00  0.00     0.163 HD
HETATM   23  C9  UNL     1       8.019   1.597  20.747  1.00  0.00     0.143 C 
HETATM   24  N6  UNL     1       7.646   2.839  21.437  1.00  0.00    -0.355 N 
ATOM     25  H6  UNL     1       7.184   3.642  21.009  1.00  0.00     0.163 HD
ENDBRANCH  18  19
ENDBRANCH  17  18
ENDBRANCH  16  17
TORSDOF 3
ENDMDL
