MODEL 1
REMARK VINA RESULT: -6.977897395      0.000      0.000
REMARK  5 active torsions:
REMARK  status: ('A' for Active; 'I' for Inactive)
REMARK    1  A    between atoms: C3_5  and  C4_6 
REMARK    2  A    between atoms: N3_9  and  N4_10 
REMARK    3  A    between atoms: C6_15  and  C7_16 
REMARK    4  A    between atoms: C9_21  and  N7_22 
REMARK    5  A    between atoms: N7_22  and  N8_24 
ROOT
HETATM    1  C1  UNL     1       7.615   4.312  27.125  1.00  0.00     0.069 C 
HETATM    2  C2  UNL     1       8.296   2.989  26.894  1.00  0.00     0.024 A 
HETATM    3  N1  UNL     1       8.862   2.379  27.991  1.00  0.00    -0.340 N 
ATOM      4  H1  UNL     1       8.819   2.851  28.894  1.00  0.00     0.167 HD
HETATM    5  C3  UNL     1       9.466   1.193  27.913  1.00  0.00     0.194 A 
HETATM    6  N3  UNL     1       9.543   0.542  26.739  1.00  0.00    -0.230 N 
HETATM    7  C5  UNL     1       9.002   1.126  25.685  1.00  0.00     0.140 A 
HETATM    8  S1  UNL     1       9.097   0.339  24.262  1.00  0.00    -0.057 SA
HETATM    9  C6  UNL     1       8.356   2.363  25.694  1.00  0.00     0.072 A 
ENDROOT
BRANCH   9  10
HETATM   10  C7  UNL     1       7.834   2.941  24.468  1.00  0.00     0.151 A 
HETATM   11  N5  UNL     1       6.683   2.420  23.898  1.00  0.00    -0.268 N 
HETATM   12  N6  UNL     1       6.345   3.080  22.828  1.00  0.00    -0.125 N 
ATOM     13  H5  UNL     1       6.167   1.623  24.269  1.00  0.00     0.189 HD
HETATM   14  C8  UNL     1       5.217   2.861  21.946  1.00  0.00     0.197 C 
HETATM   15  C9  UNL     1       7.257   4.035  22.676  1.00  0.00     0.714 A 
HETATM   16  N9  UNL     1       8.155   3.936  23.680  1.00  0.00    -0.172 N 
ATOM     17  H9  UNL     1       8.963   4.547  23.806  1.00  0.00     0.186 HD
BRANCH  15  18
HETATM   18  N7  UNL     1       7.345   4.947  21.751  1.00  0.00    -0.137 N 
ATOM     19  H7  UNL     1       8.019   4.817  20.996  1.00  0.00     0.205 HD
BRANCH  18  20
HETATM   20  N8  UNL     1       6.554   6.093  21.753  1.00  0.00    -0.331 N 
ATOM     21  H82 UNL     1       5.578   5.996  21.475  1.00  0.00     0.177 HD
ATOM     22  H81 UNL     1       6.917   7.009  22.020  1.00  0.00     0.177 HD
ENDBRANCH  18  20
ENDBRANCH  15  18
ENDBRANCH   9  10
BRANCH   6  23
HETATM   23  N4  UNL     1      10.181  -0.700  26.677  1.00  0.00    -0.336 N 
ATOM     24  H42 UNL     1      10.471  -1.217  27.507  1.00  0.00     0.177 HD
ATOM     25  H41 UNL     1      10.372  -1.124  25.769  1.00  0.00     0.177 HD
ENDBRANCH   6  23
BRANCH   5  26
HETATM   26  C4  UNL     1      10.068   0.556  29.105  1.00  0.00     0.300 C 
HETATM   27  N2  UNL     1      11.456   0.282  29.095  1.00  0.00    -0.054 NA
HETATM   28  O1  UNL     1       9.350   0.275  30.093  1.00  0.00    -0.268 OA
ENDBRANCH   5  26
TORSDOF 5
ENDMDL
MODEL 2
REMARK VINA RESULT: -6.449055902      3.143      3.917
REMARK  5 active torsions:
REMARK  status: ('A' for Active; 'I' for Inactive)
REMARK    1  A    between atoms: C3_5  and  C4_6 
REMARK    2  A    between atoms: N3_9  and  N4_10 
REMARK    3  A    between atoms: C6_15  and  C7_16 
REMARK    4  A    between atoms: C9_21  and  N7_22 
REMARK    5  A    between atoms: N7_22  and  N8_24 
ROOT
HETATM    1  C1  UNL     1       7.522   3.813  22.921  1.00  0.00     0.069 C 
HETATM    2  C2  UNL     1       7.959   3.101  24.174  1.00  0.00     0.024 A 
HETATM    3  N1  UNL     1       7.775   3.766  25.366  1.00  0.00    -0.340 N 
ATOM      4  H1  UNL     1       7.381   4.706  25.350  1.00  0.00     0.167 HD
HETATM    5  C3  UNL     1       8.097   3.223  26.540  1.00  0.00     0.194 A 
HETATM    6  N3  UNL     1       8.620   1.986  26.599  1.00  0.00    -0.230 N 
HETATM    7  C5  UNL     1       8.799   1.347  25.458  1.00  0.00     0.140 A 
HETATM    8  S1  UNL     1       9.435  -0.151  25.530  1.00  0.00    -0.057 SA
HETATM    9  C6  UNL     1       8.485   1.853  24.195  1.00  0.00     0.072 A 
ENDROOT
BRANCH   9  10
HETATM   10  C7  UNL     1       8.765   1.087  22.994  1.00  0.00     0.151 A 
HETATM   11  N5  UNL     1       7.791   0.249  22.470  1.00  0.00    -0.268 N 
HETATM   12  N6  UNL     1       8.202  -0.329  21.380  1.00  0.00    -0.125 N 
ATOM     13  H5  UNL     1       6.872   0.105  22.887  1.00  0.00     0.189 HD
HETATM   14  C8  UNL     1       7.498  -1.269  20.531  1.00  0.00     0.197 C 
HETATM   15  C9  UNL     1       9.438   0.110  21.168  1.00  0.00     0.714 A 
HETATM   16  N9  UNL     1       9.765   0.969  22.158  1.00  0.00    -0.172 N 
ATOM     17  H9  UNL     1      10.659   1.454  22.241  1.00  0.00     0.186 HD
BRANCH  15  18
HETATM   18  N7  UNL     1      10.261  -0.183  20.202  1.00  0.00    -0.137 N 
ATOM     19  H7  UNL     1      10.868  -0.996  20.304  1.00  0.00     0.205 HD
BRANCH  18  20
HETATM   20  N8  UNL     1      10.341   0.572  19.034  1.00  0.00    -0.331 N 
ATOM     21  H82 UNL     1      11.117   1.227  18.945  1.00  0.00     0.177 HD
ATOM     22  H81 UNL     1       9.659   0.488  18.280  1.00  0.00     0.177 HD
ENDBRANCH  18  20
ENDBRANCH  15  18
ENDBRANCH   9  10
BRANCH   6  23
HETATM   23  N4  UNL     1       8.952   1.434  27.840  1.00  0.00    -0.336 N 
ATOM     24  H42 UNL     1       8.560   1.771  28.720  1.00  0.00     0.177 HD
ATOM     25  H41 UNL     1       9.612   0.658  27.887  1.00  0.00     0.177 HD
ENDBRANCH   6  23
BRANCH   5  26
HETATM   26  C4  UNL     1       7.891   3.956  27.808  1.00  0.00     0.300 C 
HETATM   27  N2  UNL     1       8.950   4.750  28.308  1.00  0.00    -0.054 NA
HETATM   28  O1  UNL     1       6.796   3.866  28.412  1.00  0.00    -0.268 OA
ENDBRANCH   5  26
TORSDOF 5
ENDMDL
MODEL 3
REMARK VINA RESULT: -6.408318469      3.098      4.649
REMARK  5 active torsions:
REMARK  status: ('A' for Active; 'I' for Inactive)
REMARK    1  A    between atoms: C3_5  and  C4_6 
REMARK    2  A    between atoms: N3_9  and  N4_10 
REMARK    3  A    between atoms: C6_15  and  C7_16 
REMARK    4  A    between atoms: C9_21  and  N7_22 
REMARK    5  A    between atoms: N7_22  and  N8_24 
ROOT
HETATM    1  C1  UNL     1       7.447   2.749  23.218  1.00  0.00     0.069 C 
HETATM    2  C2  UNL     1       7.951   2.480  24.612  1.00  0.00     0.024 A 
HETATM    3  N1  UNL     1       7.595   3.384  25.588  1.00  0.00    -0.340 N 
ATOM      4  H1  UNL     1       7.036   4.195  25.328  1.00  0.00     0.167 HD
HETATM    5  C3  UNL     1       7.958   3.233  26.862  1.00  0.00     0.194 A 
HETATM    6  N3  UNL     1       8.697   2.176  27.241  1.00  0.00    -0.230 N 
HETATM    7  C5  UNL     1       9.040   1.309  26.306  1.00  0.00     0.140 A 
HETATM    8  S1  UNL     1       9.937   0.029  26.765  1.00  0.00    -0.057 SA
HETATM    9  C6  UNL     1       8.695   1.403  24.957  1.00  0.00     0.072 A 
ENDROOT
BRANCH   9  10
HETATM   10  C7  UNL     1       9.164   0.419  23.997  1.00  0.00     0.151 A 
HETATM   11  N5  UNL     1       8.523  -0.807  23.901  1.00  0.00    -0.268 N 
HETATM   12  N6  UNL     1       9.054  -1.545  22.970  1.00  0.00    -0.125 N 
ATOM     13  H5  UNL     1       7.737  -1.092  24.484  1.00  0.00     0.189 HD
HETATM   14  C8  UNL     1       8.683  -2.882  22.552  1.00  0.00     0.197 C 
HETATM   15  C9  UNL     1      10.042  -0.829  22.445  1.00  0.00     0.714 A 
HETATM   16  N9  UNL     1      10.096   0.361  23.080  1.00  0.00    -0.172 N 
ATOM     17  H9  UNL     1      10.764   1.105  22.875  1.00  0.00     0.186 HD
BRANCH  15  18
HETATM   18  N7  UNL     1      10.863  -1.143  21.483  1.00  0.00    -0.137 N 
ATOM     19  H7  UNL     1      10.594  -0.937  20.521  1.00  0.00     0.205 HD
BRANCH  18  20
HETATM   20  N8  UNL     1      12.095  -1.749  21.720  1.00  0.00    -0.331 N 
ATOM     21  H82 UNL     1      12.392  -1.858  22.689  1.00  0.00     0.177 HD
ATOM     22  H81 UNL     1      12.696  -2.080  20.965  1.00  0.00     0.177 HD
ENDBRANCH  18  20
ENDBRANCH  15  18
ENDBRANCH   9  10
BRANCH   6  23
HETATM   23  N4  UNL     1       9.068   2.037  28.582  1.00  0.00    -0.336 N 
ATOM     24  H42 UNL     1       8.401   1.825  29.323  1.00  0.00     0.177 HD
ATOM     25  H41 UNL     1      10.046   2.147  28.848  1.00  0.00     0.177 HD
ENDBRANCH   6  23
BRANCH   5  26
HETATM   26  C4  UNL     1       7.565   4.217  27.895  1.00  0.00     0.300 C 
HETATM   27  N2  UNL     1       8.435   5.301  28.160  1.00  0.00    -0.054 NA
HETATM   28  O1  UNL     1       6.482   4.078  28.510  1.00  0.00    -0.268 OA
ENDBRANCH   5  26
TORSDOF 5
ENDMDL
MODEL 4
REMARK VINA RESULT: -6.346449834      3.515      5.375
REMARK  5 active torsions:
REMARK  status: ('A' for Active; 'I' for Inactive)
REMARK    1  A    between atoms: C3_5  and  C4_6 
REMARK    2  A    between atoms: N3_9  and  N4_10 
REMARK    3  A    between atoms: C6_15  and  C7_16 
REMARK    4  A    between atoms: C9_21  and  N7_22 
REMARK    5  A    between atoms: N7_22  and  N8_24 
ROOT
HETATM    1  C1  UNL     1      10.445  -0.481  27.802  1.00  0.00     0.069 C 
HETATM    2  C2  UNL     1       9.800  -0.272  26.457  1.00  0.00     0.024 A 
HETATM    3  N1  UNL     1       9.881  -1.312  25.558  1.00  0.00    -0.340 N 
ATOM      4  H1  UNL     1      10.385  -2.156  25.826  1.00  0.00     0.167 HD
HETATM    5  C3  UNL     1       9.323  -1.251  24.349  1.00  0.00     0.194 A 
HETATM    6  N3  UNL     1       8.652  -0.153  23.961  1.00  0.00    -0.230 N 
HETATM    7  C5  UNL     1       8.574   0.846  24.821  1.00  0.00     0.140 A 
HETATM    8  S1  UNL     1       7.763   2.178  24.350  1.00  0.00    -0.057 SA
HETATM    9  C6  UNL     1       9.133   0.851  26.100  1.00  0.00     0.072 A 
ENDROOT
BRANCH   9  10
HETATM   10  C7  UNL     1       9.032   2.023  26.953  1.00  0.00     0.151 A 
HETATM   11  N5  UNL     1      10.161   2.500  27.602  1.00  0.00    -0.268 N 
HETATM   12  N6  UNL     1       9.891   3.570  28.292  1.00  0.00    -0.125 N 
ATOM     13  H5  UNL     1      11.083   2.068  27.545  1.00  0.00     0.189 HD
HETATM   14  C8  UNL     1      10.782   4.371  29.107  1.00  0.00     0.197 C 
HETATM   15  C9  UNL     1       8.597   3.812  28.114  1.00  0.00     0.714 A 
HETATM   16  N9  UNL     1       8.090   2.863  27.298  1.00  0.00    -0.172 N 
ATOM     17  H9  UNL     1       7.117   2.810  26.996  1.00  0.00     0.186 HD
BRANCH  15  18
HETATM   18  N7  UNL     1       7.867   4.774  28.601  1.00  0.00    -0.137 N 
ATOM     19  H7  UNL     1       7.386   4.624  29.488  1.00  0.00     0.205 HD
BRANCH  18  20
HETATM   20  N8  UNL     1       7.718   6.000  27.957  1.00  0.00    -0.331 N 
ATOM     21  H82 UNL     1       6.801   6.445  27.989  1.00  0.00     0.177 HD
ATOM     22  H81 UNL     1       8.486   6.457  27.465  1.00  0.00     0.177 HD
ENDBRANCH  18  20
ENDBRANCH  15  18
ENDBRANCH   9  10
BRANCH   6  23
HETATM   23  N4  UNL     1       8.074  -0.109  22.689  1.00  0.00    -0.336 N 
ATOM     24  H42 UNL     1       8.366  -0.718  21.925  1.00  0.00     0.177 HD
ATOM     25  H41 UNL     1       7.324   0.556  22.498  1.00  0.00     0.177 HD
ENDBRANCH   6  23
BRANCH   5  26
HETATM   26  C4  UNL     1       9.422  -2.381  23.399  1.00  0.00     0.300 C 
HETATM   27  N2  UNL     1       8.471  -3.425  23.490  1.00  0.00    -0.054 NA
HETATM   28  O1  UNL     1      10.334  -2.396  22.540  1.00  0.00    -0.268 OA
ENDBRANCH   5  26
TORSDOF 5
ENDMDL
MODEL 5
REMARK VINA RESULT: -6.309717607      1.947      2.856
REMARK  5 active torsions:
REMARK  status: ('A' for Active; 'I' for Inactive)
REMARK    1  A    between atoms: C3_5  and  C4_6 
REMARK    2  A    between atoms: N3_9  and  N4_10 
REMARK    3  A    between atoms: C6_15  and  C7_16 
REMARK    4  A    between atoms: C9_21  and  N7_22 
REMARK    5  A    between atoms: N7_22  and  N8_24 
ROOT
HETATM    1  C1  UNL     1       9.729  -1.294  24.402  1.00  0.00     0.069 C 
HETATM    2  C2  UNL     1       9.501  -0.173  25.382  1.00  0.00     0.024 A 
HETATM    3  N1  UNL     1       9.966  -0.361  26.664  1.00  0.00    -0.340 N 
ATOM      4  H1  UNL     1      10.416  -1.245  26.900  1.00  0.00     0.167 HD
HETATM    5  C3  UNL     1       9.847   0.573  27.608  1.00  0.00     0.194 A 
HETATM    6  N3  UNL     1       9.259   1.750  27.333  1.00  0.00    -0.230 N 
HETATM    7  C5  UNL     1       8.811   1.933  26.104  1.00  0.00     0.140 A 
HETATM    8  S1  UNL     1       8.096   3.358  25.772  1.00  0.00    -0.057 SA
HETATM    9  C6  UNL     1       8.902   1.001  25.069  1.00  0.00     0.072 A 
ENDROOT
BRANCH   9  10
HETATM   10  C7  UNL     1       8.334   1.281  23.761  1.00  0.00     0.151 A 
HETATM   11  N5  UNL     1       6.994   1.011  23.522  1.00  0.00    -0.268 N 
HETATM   12  N6  UNL     1       6.653   1.355  22.314  1.00  0.00    -0.125 N 
ATOM     13  H5  UNL     1       6.360   0.597  24.204  1.00  0.00     0.189 HD
HETATM   14  C8  UNL     1       5.359   1.242  21.672  1.00  0.00     0.197 C 
HETATM   15  C9  UNL     1       7.746   1.849  21.744  1.00  0.00     0.714 A 
HETATM   16  N9  UNL     1       8.759   1.797  22.636  1.00  0.00    -0.172 N 
ATOM     17  H9  UNL     1       9.712   2.112  22.459  1.00  0.00     0.186 HD
BRANCH  15  18
HETATM   18  N7  UNL     1       7.903   2.323  20.541  1.00  0.00    -0.137 N 
ATOM     19  H7  UNL     1       7.689   3.305  20.368  1.00  0.00     0.205 HD
BRANCH  18  20
HETATM   20  N8  UNL     1       8.352   1.539  19.481  1.00  0.00    -0.331 N 
ATOM     21  H82 UNL     1       8.770   0.635  19.703  1.00  0.00     0.177 HD
ATOM     22  H81 UNL     1       8.277   1.838  18.508  1.00  0.00     0.177 HD
ENDBRANCH  18  20
ENDBRANCH  15  18
ENDBRANCH   9  10
BRANCH   6  23
HETATM   23  N4  UNL     1       9.143   2.716  28.336  1.00  0.00    -0.336 N 
ATOM     24  H42 UNL     1       9.673   2.679  29.207  1.00  0.00     0.177 HD
ATOM     25  H41 UNL     1       8.506   3.503  28.209  1.00  0.00     0.177 HD
ENDBRANCH   6  23
BRANCH   5  26
HETATM   26  C4  UNL     1      10.354   0.348  28.980  1.00  0.00     0.300 C 
HETATM   27  N2  UNL     1      11.738   0.119  29.159  1.00  0.00    -0.054 NA
HETATM   28  O1  UNL     1       9.560   0.366  29.949  1.00  0.00    -0.268 OA
ENDBRANCH   5  26
TORSDOF 5
ENDMDL
