MODEL 1
REMARK VINA RESULT: -5.778947832      0.000      0.000
REMARK  5 active torsions:
REMARK  status: ('A' for Active; 'I' for Inactive)
REMARK    1  A    between atoms: C2_2  and  C3_3 
REMARK    2  A    between atoms: C3_3  and  C4_4 
REMARK    3  A    between atoms: C4_4  and  C5_5 
REMARK    4  A    between atoms: C5_5  and  C6_6 
REMARK    5  A    between atoms: C6_6  and  O1_7 
ROOT
HETATM    1  C6  UNL     1      23.328 -19.180  31.035  1.00  0.00     0.112 C 
HETATM    2  C7  UNL     1      23.185 -20.711  31.297  1.00  0.00     0.052 C 
HETATM    3  C8  UNL     1      21.807 -21.053  31.874  1.00  0.00     0.031 C 
HETATM    4  C9  UNL     1      21.379 -20.504  33.134  1.00  0.00     0.235 C 
HETATM    5  N1  UNL     1      20.599 -19.291  33.248  1.00  0.00    -0.049 N 
ATOM      6  H11 UNL     1      20.344 -19.111  34.219  1.00  0.00     0.279 HD
ATOM      7  H12 UNL     1      19.667 -19.418  32.851  1.00  0.00     0.279 HD
HETATM    8  C10 UNL     1      21.274 -18.100  32.648  1.00  0.00     0.360 C 
HETATM    9  C11 UNL     1      20.145 -17.384  31.984  1.00  0.00     0.104 C 
HETATM   10  N2  UNL     1      19.276 -16.834  31.449  1.00  0.00    -0.194 NA
HETATM   11  C12 UNL     1      22.342 -18.527  31.835  1.00  0.00    -0.098 C 
ENDROOT
BRANCH   1  12
HETATM   12  C5  UNL     1      23.216 -18.853  29.591  1.00  0.00     0.050 C 
BRANCH  12  13
HETATM   13  C4  UNL     1      22.996 -17.489  29.127  1.00  0.00     0.004 C 
BRANCH  13  14
HETATM   14  C3  UNL     1      23.675 -17.087  27.841  1.00  0.00    -0.000 C 
BRANCH  14  15
HETATM   15  C2  UNL     1      23.600 -18.207  26.806  1.00  0.00    -0.005 C 
HETATM   16  C1  UNL     1      22.351 -18.034  25.979  1.00  0.00     0.005 C 
ENDBRANCH  14  15
ENDBRANCH  13  14
ENDBRANCH  12  13
ENDBRANCH   1  12
BRANCH   1  17
HETATM   17  O1  UNL     1      24.666 -18.919  31.375  1.00  0.00    -0.378 OA
ATOM     18  H1  UNL     1      25.185 -19.319  30.688  1.00  0.00     0.211 HD
ENDBRANCH   1  17
TORSDOF 5
ENDMDL
MODEL 2
REMARK VINA RESULT: -5.557881981      0.941      1.219
REMARK  5 active torsions:
REMARK  status: ('A' for Active; 'I' for Inactive)
REMARK    1  A    between atoms: C2_2  and  C3_3 
REMARK    2  A    between atoms: C3_3  and  C4_4 
REMARK    3  A    between atoms: C4_4  and  C5_5 
REMARK    4  A    between atoms: C5_5  and  C6_6 
REMARK    5  A    between atoms: C6_6  and  O1_7 
ROOT
HETATM    1  C6  UNL     1      23.932 -18.443  30.727  1.00  0.00     0.112 C 
HETATM    2  C7  UNL     1      24.088 -19.962  30.411  1.00  0.00     0.052 C 
HETATM    3  C8  UNL     1      22.824 -20.745  30.780  1.00  0.00     0.031 C 
HETATM    4  C9  UNL     1      22.352 -20.783  32.140  1.00  0.00     0.235 C 
HETATM    5  N1  UNL     1      21.363 -19.864  32.662  1.00  0.00    -0.049 N 
ATOM      6  H11 UNL     1      21.119 -20.101  33.623  1.00  0.00     0.279 HD
ATOM      7  H12 UNL     1      20.457 -20.013  32.217  1.00  0.00     0.279 HD
HETATM    8  C10 UNL     1      21.778 -18.433  32.557  1.00  0.00     0.360 C 
HETATM    9  C11 UNL     1      20.508 -17.752  32.165  1.00  0.00     0.104 C 
HETATM   10  N2  UNL     1      19.531 -17.221  31.839  1.00  0.00    -0.194 NA
HETATM   11  C12 UNL     1      22.874 -18.325  31.679  1.00  0.00    -0.098 C 
ENDROOT
BRANCH   1  12
HETATM   12  C5  UNL     1      23.701 -17.642  29.498  1.00  0.00     0.050 C 
BRANCH  12  13
HETATM   13  C4  UNL     1      23.585 -18.266  28.186  1.00  0.00     0.004 C 
BRANCH  13  14
HETATM   14  C3  UNL     1      22.487 -17.758  27.284  1.00  0.00    -0.000 C 
BRANCH  14  15
HETATM   15  C2  UNL     1      22.733 -18.170  25.834  1.00  0.00    -0.005 C 
HETATM   16  C1  UNL     1      24.025 -18.942  25.751  1.00  0.00     0.005 C 
ENDBRANCH  14  15
ENDBRANCH  13  14
ENDBRANCH  12  13
ENDBRANCH   1  12
BRANCH   1  17
HETATM   17  O1  UNL     1      25.209 -18.075  31.180  1.00  0.00    -0.378 OA
ATOM     18  H1  UNL     1      25.380 -18.629  31.932  1.00  0.00     0.211 HD
ENDBRANCH   1  17
TORSDOF 5
ENDMDL
MODEL 3
REMARK VINA RESULT: -5.323103473      0.987      1.288
REMARK  5 active torsions:
REMARK  status: ('A' for Active; 'I' for Inactive)
REMARK    1  A    between atoms: C2_2  and  C3_3 
REMARK    2  A    between atoms: C3_3  and  C4_4 
REMARK    3  A    between atoms: C4_4  and  C5_5 
REMARK    4  A    between atoms: C5_5  and  C6_6 
REMARK    5  A    between atoms: C6_6  and  O1_7 
ROOT
HETATM    1  C6  UNL     1      22.753 -20.086  31.893  1.00  0.00     0.112 C 
HETATM    2  C7  UNL     1      22.098 -21.502  31.876  1.00  0.00     0.052 C 
HETATM    3  C8  UNL     1      20.572 -21.414  31.976  1.00  0.00     0.031 C 
HETATM    4  C9  UNL     1      19.942 -20.820  33.127  1.00  0.00     0.235 C 
HETATM    5  N1  UNL     1      19.552 -19.428  33.188  1.00  0.00    -0.049 N 
ATOM      6  H11 UNL     1      19.064 -19.225  34.060  1.00  0.00     0.279 HD
ATOM      7  H12 UNL     1      18.800 -19.231  32.526  1.00  0.00     0.279 HD
HETATM    8  C10 UNL     1      20.696 -18.488  32.988  1.00  0.00     0.360 C 
HETATM    9  C11 UNL     1      20.094 -17.416  32.141  1.00  0.00     0.104 C 
HETATM   10  N2  UNL     1      19.639 -16.591  31.465  1.00  0.00    -0.194 NA
HETATM   11  C12 UNL     1      21.796 -19.193  32.463  1.00  0.00    -0.098 C 
ENDROOT
BRANCH   1  12
HETATM   12  C5  UNL     1      23.206 -19.669  30.542  1.00  0.00     0.050 C 
BRANCH  12  13
HETATM   13  C4  UNL     1      23.634 -18.305  30.262  1.00  0.00     0.004 C 
BRANCH  13  14
HETATM   14  C3  UNL     1      22.787 -17.506  29.303  1.00  0.00    -0.000 C 
BRANCH  14  15
HETATM   15  C2  UNL     1      23.475 -17.363  27.949  1.00  0.00    -0.005 C 
HETATM   16  C1  UNL     1      22.524 -17.793  26.861  1.00  0.00     0.005 C 
ENDBRANCH  14  15
ENDBRANCH  13  14
ENDBRANCH  12  13
ENDBRANCH   1  12
BRANCH   1  17
HETATM   17  O1  UNL     1      23.928 -20.284  32.637  1.00  0.00    -0.378 OA
ATOM     18  H1  UNL     1      24.553 -20.659  32.029  1.00  0.00     0.211 HD
ENDBRANCH   1  17
TORSDOF 5
ENDMDL
MODEL 4
REMARK VINA RESULT: -5.252689876      1.786      2.547
REMARK  5 active torsions:
REMARK  status: ('A' for Active; 'I' for Inactive)
REMARK    1  A    between atoms: C2_2  and  C3_3 
REMARK    2  A    between atoms: C3_3  and  C4_4 
REMARK    3  A    between atoms: C4_4  and  C5_5 
REMARK    4  A    between atoms: C5_5  and  C6_6 
REMARK    5  A    between atoms: C6_6  and  O1_7 
ROOT
HETATM    1  C6  UNL     1      22.400 -20.009  32.713  1.00  0.00     0.112 C 
HETATM    2  C7  UNL     1      21.793 -21.202  31.913  1.00  0.00     0.052 C 
HETATM    3  C8  UNL     1      20.400 -21.574  32.433  1.00  0.00     0.031 C 
HETATM    4  C9  UNL     1      20.214 -22.016  33.791  1.00  0.00     0.235 C 
HETATM    5  N1  UNL     1      19.859 -21.123  34.873  1.00  0.00    -0.049 N 
ATOM      6  H11 UNL     1      19.711 -21.642  35.738  1.00  0.00     0.279 HD
ATOM      7  H12 UNL     1      18.920 -20.746  34.741  1.00  0.00     0.279 HD
HETATM    8  C10 UNL     1      20.851 -20.024  35.077  1.00  0.00     0.360 C 
HETATM    9  C11 UNL     1      19.979 -18.848  35.370  1.00  0.00     0.104 C 
HETATM   10  N2  UNL     1      19.307 -17.926  35.576  1.00  0.00    -0.194 NA
HETATM   11  C12 UNL     1      21.699 -19.944  33.956  1.00  0.00    -0.098 C 
ENDROOT
BRANCH   1  12
HETATM   12  C5  UNL     1      22.340 -18.740  31.945  1.00  0.00     0.050 C 
BRANCH  12  13
HETATM   13  C4  UNL     1      23.417 -18.333  31.052  1.00  0.00     0.004 C 
BRANCH  13  14
HETATM   14  C3  UNL     1      23.234 -18.628  29.583  1.00  0.00    -0.000 C 
BRANCH  14  15
HETATM   15  C2  UNL     1      22.922 -17.355  28.800  1.00  0.00    -0.005 C 
HETATM   16  C1  UNL     1      22.738 -17.701  27.345  1.00  0.00     0.005 C 
ENDBRANCH  14  15
ENDBRANCH  13  14
ENDBRANCH  12  13
ENDBRANCH   1  12
BRANCH   1  17
HETATM   17  O1  UNL     1      23.763 -20.336  32.794  1.00  0.00    -0.378 OA
ATOM     18  H1  UNL     1      23.830 -20.976  33.491  1.00  0.00     0.211 HD
ENDBRANCH   1  17
TORSDOF 5
ENDMDL
MODEL 5
REMARK VINA RESULT: -5.121653300      1.873      2.278
REMARK  5 active torsions:
REMARK  status: ('A' for Active; 'I' for Inactive)
REMARK    1  A    between atoms: C2_2  and  C3_3 
REMARK    2  A    between atoms: C3_3  and  C4_4 
REMARK    3  A    between atoms: C4_4  and  C5_5 
REMARK    4  A    between atoms: C5_5  and  C6_6 
REMARK    5  A    between atoms: C6_6  and  O1_7 
ROOT
HETATM    1  C6  UNL     1      21.633 -19.235  32.540  1.00  0.00     0.112 C 
HETATM    2  C7  UNL     1      22.158 -20.685  32.313  1.00  0.00     0.052 C 
HETATM    3  C8  UNL     1      21.014 -21.651  31.986  1.00  0.00     0.031 C 
HETATM    4  C9  UNL     1      19.949 -21.876  32.928  1.00  0.00     0.235 C 
HETATM    5  N1  UNL     1      18.702 -21.142  32.907  1.00  0.00    -0.049 N 
ATOM      6  H11 UNL     1      18.059 -21.498  33.613  1.00  0.00     0.279 HD
ATOM      7  H12 UNL     1      18.166 -21.360  32.066  1.00  0.00     0.279 HD
HETATM    8  C10 UNL     1      18.887 -19.666  33.052  1.00  0.00     0.360 C 
HETATM    9  C11 UNL     1      17.884 -19.115  32.093  1.00  0.00     0.104 C 
HETATM   10  N2  UNL     1      17.122 -18.681  31.334  1.00  0.00    -0.194 NA
HETATM   11  C12 UNL     1      20.240 -19.340  32.839  1.00  0.00    -0.098 C 
ENDROOT
BRANCH   1  12
HETATM   12  C5  UNL     1      21.913 -18.355  31.376  1.00  0.00     0.050 C 
BRANCH  12  13
HETATM   13  C4  UNL     1      23.228 -18.304  30.752  1.00  0.00     0.004 C 
BRANCH  13  14
HETATM   14  C3  UNL     1      23.294 -18.596  29.273  1.00  0.00    -0.000 C 
BRANCH  14  15
HETATM   15  C2  UNL     1      22.840 -17.391  28.454  1.00  0.00    -0.005 C 
HETATM   16  C1  UNL     1      22.614 -17.820  27.026  1.00  0.00     0.005 C 
ENDBRANCH  14  15
ENDBRANCH  13  14
ENDBRANCH  12  13
ENDBRANCH   1  12
BRANCH   1  17
HETATM   17  O1  UNL     1      22.449 -18.755  33.577  1.00  0.00    -0.378 OA
ATOM     18  H1  UNL     1      23.178 -18.324  33.147  1.00  0.00     0.211 HD
ENDBRANCH   1  17
TORSDOF 5
ENDMDL
