MODEL 1
REMARK VINA RESULT: -7.190601476      0.000      0.000
REMARK  3 active torsions:
REMARK  status: ('A' for Active; 'I' for Inactive)
REMARK    1  A    between atoms: C2_2  and  N1_5 
REMARK    2  A    between atoms: C6_10  and  N3_11 
REMARK    3  A    between atoms: N3_11  and  C7_13 
ROOT
HETATM    1  N1  UNL     1      12.337  -1.164  52.536  1.00  0.00    -0.244 N 
HETATM    2  N2  UNL     1      11.020  -1.306  52.398  1.00  0.00    -0.268 N 
ATOM      3  H2  UNL     1      10.631  -1.358  51.456  1.00  0.00     0.189 HD
HETATM    4  C5  UNL     1      10.184  -1.383  53.438  1.00  0.00     0.233 A 
HETATM    5  F1  UNL     1       8.861  -1.539  53.206  1.00  0.00    -0.182 F 
HETATM    6  C6  UNL     1      10.635  -1.321  54.730  1.00  0.00     0.131 A 
HETATM    7  C13 UNL     1      12.005  -1.174  54.901  1.00  0.00     0.216 A 
HETATM    8  F2  UNL     1      12.562  -1.100  56.130  1.00  0.00    -0.198 F 
HETATM    9  C14 UNL     1      12.802  -1.101  53.793  1.00  0.00     0.304 A 
HETATM   10  O1  UNL     1      14.032  -0.968  53.949  1.00  0.00    -0.263 OA
ENDROOT
BRANCH   6  11
HETATM   11  N3  UNL     1       9.847  -1.378  55.890  1.00  0.00    -0.379 N 
ATOM     12  H3  UNL     1       9.760  -0.558  56.490  1.00  0.00     0.160 HD
BRANCH  11  13
HETATM   13  C7  UNL     1       9.159  -2.600  56.233  1.00  0.00     0.082 C 
HETATM   14  C8  UNL     1       7.721  -2.371  56.598  1.00  0.00     0.025 C 
HETATM   15  C9  UNL     1       7.081  -3.404  57.415  1.00  0.00     0.002 C 
HETATM   16  C10 UNL     1       7.919  -4.434  58.050  1.00  0.00     0.000 C 
HETATM   17  C11 UNL     1       9.240  -4.697  57.407  1.00  0.00     0.002 C 
HETATM   18  C12 UNL     1       9.942  -3.336  57.268  1.00  0.00     0.025 C 
ENDBRANCH  11  13
ENDBRANCH   6  11
BRANCH   1  19
HETATM   19  C2  UNL     1      13.123  -1.093  51.360  1.00  0.00     0.046 C 
HETATM   20  C1  UNL     1      14.146  -2.234  51.278  1.00  0.00     0.040 C 
HETATM   21  C3  UNL     1      13.883   0.182  51.158  1.00  0.00     0.040 C 
HETATM   22  C4  UNL     1      12.206  -1.269  50.165  1.00  0.00     0.040 C 
ENDBRANCH   1  19
TORSDOF 3
ENDMDL
MODEL 2
REMARK VINA RESULT: -6.917047207      2.261      7.094
REMARK  3 active torsions:
REMARK  status: ('A' for Active; 'I' for Inactive)
REMARK    1  A    between atoms: C2_2  and  N1_5 
REMARK    2  A    between atoms: C6_10  and  N3_11 
REMARK    3  A    between atoms: N3_11  and  C7_13 
ROOT
HETATM    1  N1  UNL     1      11.357  -1.352  53.709  1.00  0.00    -0.244 N 
HETATM    2  N2  UNL     1      11.072  -1.232  52.413  1.00  0.00    -0.268 N 
ATOM      3  H2  UNL     1      10.095  -1.150  52.134  1.00  0.00     0.189 HD
HETATM    4  C5  UNL     1      12.011  -1.213  51.462  1.00  0.00     0.233 A 
HETATM    5  F1  UNL     1      11.633  -1.075  50.171  1.00  0.00    -0.182 F 
HETATM    6  C6  UNL     1      13.343  -1.316  51.763  1.00  0.00     0.131 A 
HETATM    7  C13 UNL     1      13.666  -1.442  53.108  1.00  0.00     0.216 A 
HETATM    8  F2  UNL     1      14.948  -1.552  53.522  1.00  0.00    -0.198 F 
HETATM    9  C14 UNL     1      12.656  -1.454  54.028  1.00  0.00     0.304 A 
HETATM   10  O1  UNL     1      12.948  -1.568  55.234  1.00  0.00    -0.263 OA
ENDROOT
BRANCH   6  11
HETATM   11  N3  UNL     1      14.406  -1.320  50.845  1.00  0.00    -0.379 N 
ATOM     12  H3  UNL     1      14.607  -2.160  50.302  1.00  0.00     0.160 HD
BRANCH  11  13
HETATM   13  C7  UNL     1      15.212  -0.136  50.673  1.00  0.00     0.082 C 
HETATM   14  C8  UNL     1      14.388   1.089  50.397  1.00  0.00     0.025 C 
HETATM   15  C9  UNL     1      15.072   2.201  49.732  1.00  0.00     0.002 C 
HETATM   16  C10 UNL     1      16.399   1.971  49.137  1.00  0.00     0.000 C 
HETATM   17  C11 UNL     1      17.185   0.835  49.701  1.00  0.00     0.002 C 
HETATM   18  C12 UNL     1      16.272  -0.401  49.657  1.00  0.00     0.025 C 
ENDBRANCH  11  13
ENDBRANCH   6  11
BRANCH   1  19
HETATM   19  C2  UNL     1      10.278  -1.361  54.627  1.00  0.00     0.046 C 
HETATM   20  C1  UNL     1      10.118  -0.013  55.345  1.00  0.00     0.040 C 
HETATM   21  C3  UNL     1      10.335  -2.412  55.693  1.00  0.00     0.040 C 
HETATM   22  C4  UNL     1       8.994  -1.573  53.848  1.00  0.00     0.040 C 
ENDBRANCH   1  19
TORSDOF 3
ENDMDL
MODEL 3
REMARK VINA RESULT: -6.866953090      1.771      6.383
REMARK  3 active torsions:
REMARK  status: ('A' for Active; 'I' for Inactive)
REMARK    1  A    between atoms: C2_2  and  N1_5 
REMARK    2  A    between atoms: C6_10  and  N3_11 
REMARK    3  A    between atoms: N3_11  and  C7_13 
ROOT
HETATM    1  N1  UNL     1       9.222  -2.987  56.514  1.00  0.00    -0.244 N 
HETATM    2  N2  UNL     1       8.846  -2.174  55.529  1.00  0.00    -0.268 N 
ATOM      3  H2  UNL     1       7.852  -2.087  55.322  1.00  0.00     0.189 HD
HETATM    4  C5  UNL     1       9.715  -1.465  54.801  1.00  0.00     0.233 A 
HETATM    5  F1  UNL     1       9.243  -0.654  53.827  1.00  0.00    -0.182 F 
HETATM    6  C6  UNL     1      11.064  -1.530  55.024  1.00  0.00     0.131 A 
HETATM    7  C13 UNL     1      11.482  -2.372  56.047  1.00  0.00     0.216 A 
HETATM    8  F2  UNL     1      12.789  -2.516  56.356  1.00  0.00    -0.198 F 
HETATM    9  C14 UNL     1      10.541  -3.067  56.752  1.00  0.00     0.304 A 
HETATM   10  O1  UNL     1      10.919  -3.822  57.669  1.00  0.00    -0.263 OA
ENDROOT
BRANCH   6  11
HETATM   11  N3  UNL     1      12.059  -0.842  54.313  1.00  0.00    -0.379 N 
ATOM     12  H3  UNL     1      12.325   0.103  54.591  1.00  0.00     0.160 HD
BRANCH  11  13
HETATM   13  C7  UNL     1      12.707  -1.472  53.187  1.00  0.00     0.082 C 
HETATM   14  C8  UNL     1      14.204  -1.436  53.287  1.00  0.00     0.025 C 
HETATM   15  C9  UNL     1      14.947  -1.580  52.032  1.00  0.00     0.002 C 
HETATM   16  C10 UNL     1      14.221  -1.474  50.756  1.00  0.00     0.000 C 
HETATM   17  C11 UNL     1      12.761  -1.774  50.802  1.00  0.00     0.002 C 
HETATM   18  C12 UNL     1      12.164  -0.901  51.920  1.00  0.00     0.025 C 
ENDBRANCH  11  13
ENDBRANCH   6  11
BRANCH   1  19
HETATM   19  C2  UNL     1       8.213  -3.689  57.218  1.00  0.00     0.046 C 
HETATM   20  C1  UNL     1       8.139  -3.271  58.693  1.00  0.00     0.040 C 
HETATM   21  C3  UNL     1       8.320  -5.183  57.197  1.00  0.00     0.040 C 
HETATM   22  C4  UNL     1       6.872  -3.321  56.613  1.00  0.00     0.040 C 
ENDBRANCH   1  19
TORSDOF 3
ENDMDL
MODEL 4
REMARK VINA RESULT: -6.802593442      5.201      7.198
REMARK  3 active torsions:
REMARK  status: ('A' for Active; 'I' for Inactive)
REMARK    1  A    between atoms: C2_2  and  N1_5 
REMARK    2  A    between atoms: C6_10  and  N3_11 
REMARK    3  A    between atoms: N3_11  and  C7_13 
ROOT
HETATM    1  N1  UNL     1      14.378  -1.605  50.707  1.00  0.00    -0.244 N 
HETATM    2  N2  UNL     1      14.014  -2.496  51.628  1.00  0.00    -0.268 N 
ATOM      3  H2  UNL     1      13.072  -2.440  52.014  1.00  0.00     0.189 HD
HETATM    4  C5  UNL     1      14.829  -3.460  52.067  1.00  0.00     0.233 A 
HETATM    5  F1  UNL     1      14.373  -4.330  52.996  1.00  0.00    -0.182 F 
HETATM    6  C6  UNL     1      16.106  -3.596  51.592  1.00  0.00     0.131 A 
HETATM    7  C13 UNL     1      16.509  -2.679  50.630  1.00  0.00     0.216 A 
HETATM    8  F2  UNL     1      17.747  -2.716  50.090  1.00  0.00    -0.198 F 
HETATM    9  C14 UNL     1      15.625  -1.718  50.226  1.00  0.00     0.304 A 
HETATM   10  O1  UNL     1      15.990  -0.896  49.363  1.00  0.00    -0.263 OA
ENDROOT
BRANCH   6  11
HETATM   11  N3  UNL     1      17.045  -4.559  51.992  1.00  0.00    -0.379 N 
ATOM     12  H3  UNL     1      17.446  -5.198  51.305  1.00  0.00     0.160 HD
BRANCH  11  13
HETATM   13  C7  UNL     1      17.442  -4.646  53.377  1.00  0.00     0.082 C 
HETATM   14  C8  UNL     1      18.273  -3.475  53.814  1.00  0.00     0.025 C 
HETATM   15  C9  UNL     1      19.123  -3.678  54.990  1.00  0.00     0.002 C 
HETATM   16  C10 UNL     1      19.328  -5.046  55.495  1.00  0.00     0.000 C 
HETATM   17  C11 UNL     1      18.270  -6.040  55.153  1.00  0.00     0.002 C 
HETATM   18  C12 UNL     1      18.076  -5.973  53.629  1.00  0.00     0.025 C 
ENDBRANCH  11  13
ENDBRANCH   6  11
BRANCH   1  19
HETATM   19  C2  UNL     1      13.429  -0.627  50.318  1.00  0.00     0.046 C 
HETATM   20  C1  UNL     1      12.935  -0.839  48.881  1.00  0.00     0.040 C 
HETATM   21  C3  UNL     1      13.883   0.798  50.412  1.00  0.00     0.040 C 
HETATM   22  C4  UNL     1      12.207  -0.774  51.205  1.00  0.00     0.040 C 
ENDBRANCH   1  19
TORSDOF 3
ENDMDL
MODEL 5
REMARK VINA RESULT: -6.747424902      2.434      7.184
REMARK  3 active torsions:
REMARK  status: ('A' for Active; 'I' for Inactive)
REMARK    1  A    between atoms: C2_2  and  N1_5 
REMARK    2  A    between atoms: C6_10  and  N3_11 
REMARK    3  A    between atoms: N3_11  and  C7_13 
ROOT
HETATM    1  N1  UNL     1      11.656  -1.311  53.517  1.00  0.00    -0.244 N 
HETATM    2  N2  UNL     1      11.282  -1.225  52.241  1.00  0.00    -0.268 N 
ATOM      3  H2  UNL     1      10.287  -1.178  52.027  1.00  0.00     0.189 HD
HETATM    4  C5  UNL     1      12.155  -1.197  51.229  1.00  0.00     0.233 A 
HETATM    5  F1  UNL     1      11.688  -1.096  49.963  1.00  0.00    -0.182 F 
HETATM    6  C6  UNL     1      13.506  -1.255  51.441  1.00  0.00     0.131 A 
HETATM    7  C13 UNL     1      13.922  -1.344  52.763  1.00  0.00     0.216 A 
HETATM    8  F2  UNL     1      15.231  -1.407  53.092  1.00  0.00    -0.198 F 
HETATM    9  C14 UNL     1      12.976  -1.368  53.749  1.00  0.00     0.304 A 
HETATM   10  O1  UNL     1      13.352  -1.449  54.935  1.00  0.00    -0.263 OA
ENDROOT
BRANCH   6  11
HETATM   11  N3  UNL     1      14.505  -1.245  50.454  1.00  0.00    -0.379 N 
ATOM     12  H3  UNL     1      14.989  -2.110  50.209  1.00  0.00     0.160 HD
BRANCH  11  13
HETATM   13  C7  UNL     1      14.847  -0.012  49.788  1.00  0.00     0.082 C 
HETATM   14  C8  UNL     1      16.328   0.152  49.600  1.00  0.00     0.025 C 
HETATM   15  C9  UNL     1      16.815   1.520  49.406  1.00  0.00     0.002 C 
HETATM   16  C10 UNL     1      15.907   2.647  49.675  1.00  0.00     0.000 C 
HETATM   17  C11 UNL     1      14.447   2.351  49.590  1.00  0.00     0.002 C 
HETATM   18  C12 UNL     1      14.190   1.129  50.489  1.00  0.00     0.025 C 
ENDBRANCH  11  13
ENDBRANCH   6  11
BRANCH   1  19
HETATM   19  C2  UNL     1      10.642  -1.333  54.505  1.00  0.00     0.046 C 
HETATM   20  C1  UNL     1      10.629  -0.052  55.351  1.00  0.00     0.040 C 
HETATM   21  C3  UNL     1      10.689  -2.483  55.464  1.00  0.00     0.040 C 
HETATM   22  C4  UNL     1       9.298  -1.382  53.804  1.00  0.00     0.040 C 
ENDBRANCH   1  19
TORSDOF 3
ENDMDL
