MODEL 1
REMARK VINA RESULT: -7.220564853      0.000      0.000
REMARK  6 active torsions:
REMARK  status: ('A' for Active; 'I' for Inactive)
REMARK    1  A    between atoms: C3_3  and  N1_4 
REMARK    2  A    between atoms: N1_4  and  C4_5 
REMARK    3  A    between atoms: N1_4  and  C5_7 
REMARK    4  A    between atoms: C7_9  and  O2_10 
REMARK    5  A    between atoms: C9_14  and  O3_15 
REMARK    6  A    between atoms: C10_17  and  O4_18 
ROOT
HETATM    1  C1  UNL     1     -19.144  -4.696 -20.328  1.00  0.00     0.014 C 
HETATM    2  C2  UNL     1     -19.745  -3.650 -20.301  1.00  0.00    -0.098 C 
HETATM    3  C3  UNL     1     -20.469  -2.368 -20.292  1.00  0.00     0.218 C 
ENDROOT
BRANCH   3   4
HETATM    4  N1  UNL     1     -19.766  -1.357 -19.539  1.00  0.00    -0.341 N 
BRANCH   4   5
HETATM    5  C4  UNL     1     -18.350  -1.359 -19.557  1.00  0.00     0.352 C 
HETATM    6  O1  UNL     1     -17.728  -1.046 -20.605  1.00  0.00    -0.283 OA
ENDBRANCH   4   5
BRANCH   4   7
HETATM    7  C5  UNL     1     -20.420  -0.345 -18.768  1.00  0.00     0.121 C 
HETATM    8  C6  UNL     1     -21.908  -0.490 -18.978  1.00  0.00     0.062 C 
HETATM    9  C7  UNL     1     -22.701   0.492 -18.131  1.00  0.00     0.156 C 
HETATM   10  C8  UNL     1     -22.274   1.881 -18.618  1.00  0.00     0.230 C 
HETATM   11  F1  UNL     1     -23.040   2.871 -18.091  1.00  0.00    -0.244 F 
HETATM   12  C9  UNL     1     -20.808   2.005 -18.261  1.00  0.00     0.185 C 
HETATM   13  C10 UNL     1     -20.019   1.058 -19.147  1.00  0.00     0.172 C 
BRANCH   9  14
HETATM   14  O2  UNL     1     -22.304   0.323 -16.819  1.00  0.00    -0.393 OA
ATOM     15  H2  UNL     1     -21.368   0.164 -16.823  1.00  0.00     0.210 HD
ENDBRANCH   9  14
BRANCH  12  16
HETATM   16  O3  UNL     1     -20.347   3.309 -18.422  1.00  0.00    -0.390 OA
ATOM     17  H3  UNL     1     -20.155   3.505 -19.331  1.00  0.00     0.210 HD
ENDBRANCH  12  16
BRANCH  13  18
HETATM   18  O4  UNL     1     -18.674   1.308 -18.876  1.00  0.00    -0.391 OA
ATOM     19  H4  UNL     1     -18.455   1.131 -17.968  1.00  0.00     0.210 HD
ENDBRANCH  13  18
ENDBRANCH   4   7
ENDBRANCH   3   4
TORSDOF 6
ENDMDL
MODEL 2
REMARK VINA RESULT: -7.167478886      2.563      4.879
REMARK  6 active torsions:
REMARK  status: ('A' for Active; 'I' for Inactive)
REMARK    1  A    between atoms: C3_3  and  N1_4 
REMARK    2  A    between atoms: N1_4  and  C4_5 
REMARK    3  A    between atoms: N1_4  and  C5_7 
REMARK    4  A    between atoms: C7_9  and  O2_10 
REMARK    5  A    between atoms: C9_14  and  O3_15 
REMARK    6  A    between atoms: C10_17  and  O4_18 
ROOT
HETATM    1  C1  UNL     1     -24.547   1.624 -19.895  1.00  0.00     0.014 C 
HETATM    2  C2  UNL     1     -23.420   1.995 -19.669  1.00  0.00    -0.098 C 
HETATM    3  C3  UNL     1     -22.040   2.439 -19.417  1.00  0.00     0.218 C 
ENDROOT
BRANCH   3   4
HETATM    4  N1  UNL     1     -21.262   1.430 -18.740  1.00  0.00    -0.341 N 
BRANCH   4   5
HETATM    5  C4  UNL     1     -21.042   1.563 -17.347  1.00  0.00     0.352 C 
HETATM    6  O1  UNL     1     -20.413   2.555 -16.896  1.00  0.00    -0.283 OA
ENDBRANCH   4   5
BRANCH   4   7
HETATM    7  C5  UNL     1     -20.694   0.292 -19.397  1.00  0.00     0.121 C 
HETATM    8  C6  UNL     1     -21.328  -0.946 -18.810  1.00  0.00     0.062 C 
HETATM    9  C7  UNL     1     -20.851  -2.212 -19.502  1.00  0.00     0.156 C 
HETATM   10  C8  UNL     1     -19.341  -2.269 -19.245  1.00  0.00     0.230 C 
HETATM   11  F1  UNL     1     -18.793  -3.449 -19.636  1.00  0.00    -0.244 F 
HETATM   12  C9  UNL     1     -18.760  -1.072 -19.966  1.00  0.00     0.185 C 
HETATM   13  C10 UNL     1     -19.200   0.185 -19.238  1.00  0.00     0.172 C 
BRANCH   9  14
HETATM   14  O2  UNL     1     -21.080  -2.057 -20.855  1.00  0.00    -0.393 OA
ATOM     15  H2  UNL     1     -21.555  -2.823 -21.154  1.00  0.00     0.210 HD
ENDBRANCH   9  14
BRANCH  12  16
HETATM   16  O3  UNL     1     -17.369  -1.131 -20.026  1.00  0.00    -0.390 OA
ATOM     17  H3  UNL     1     -17.024  -0.592 -20.728  1.00  0.00     0.210 HD
ENDBRANCH  12  16
BRANCH  13  18
HETATM   18  O4  UNL     1     -18.532   1.242 -19.855  1.00  0.00    -0.391 OA
ATOM     19  H4  UNL     1     -18.043   0.956 -20.618  1.00  0.00     0.210 HD
ENDBRANCH  13  18
ENDBRANCH   4   7
ENDBRANCH   3   4
TORSDOF 6
ENDMDL
MODEL 3
REMARK VINA RESULT: -7.008506388      1.372      2.418
REMARK  6 active torsions:
REMARK  status: ('A' for Active; 'I' for Inactive)
REMARK    1  A    between atoms: C3_3  and  N1_4 
REMARK    2  A    between atoms: N1_4  and  C4_5 
REMARK    3  A    between atoms: N1_4  and  C5_7 
REMARK    4  A    between atoms: C7_9  and  O2_10 
REMARK    5  A    between atoms: C9_14  and  O3_15 
REMARK    6  A    between atoms: C10_17  and  O4_18 
ROOT
HETATM    1  C1  UNL     1     -19.979  -4.415 -21.089  1.00  0.00     0.014 C 
HETATM    2  C2  UNL     1     -20.338  -3.480 -20.414  1.00  0.00    -0.098 C 
HETATM    3  C3  UNL     1     -20.787  -2.331 -19.611  1.00  0.00     0.218 C 
ENDROOT
BRANCH   3   4
HETATM    4  N1  UNL     1     -19.793  -1.287 -19.559  1.00  0.00    -0.341 N 
BRANCH   4   5
HETATM    5  C4  UNL     1     -18.429  -1.640 -19.708  1.00  0.00     0.352 C 
HETATM    6  O1  UNL     1     -17.782  -1.257 -20.717  1.00  0.00    -0.283 OA
ENDBRANCH   4   5
BRANCH   4   7
HETATM    7  C5  UNL     1     -20.104   0.096 -19.362  1.00  0.00     0.121 C 
HETATM    8  C6  UNL     1     -18.901   0.758 -18.735  1.00  0.00     0.062 C 
HETATM    9  C7  UNL     1     -19.100   2.254 -18.561  1.00  0.00     0.156 C 
HETATM   10  C8  UNL     1     -20.287   2.395 -17.602  1.00  0.00     0.230 C 
HETATM   11  F1  UNL     1     -20.471   3.676 -17.190  1.00  0.00    -0.244 F 
HETATM   12  C9  UNL     1     -21.479   1.828 -18.343  1.00  0.00     0.185 C 
HETATM   13  C10 UNL     1     -21.295   0.326 -18.468  1.00  0.00     0.172 C 
BRANCH   9  14
HETATM   14  O2  UNL     1     -19.442   2.773 -19.794  1.00  0.00    -0.393 OA
ATOM     15  H2  UNL     1     -19.031   3.626 -19.869  1.00  0.00     0.210 HD
ENDBRANCH   9  14
BRANCH  12  16
HETATM   16  O3  UNL     1     -22.675   2.113 -17.690  1.00  0.00    -0.390 OA
ATOM     17  H3  UNL     1     -23.429   1.854 -18.207  1.00  0.00     0.210 HD
ENDBRANCH  12  16
BRANCH  13  18
HETATM   18  O4  UNL     1     -22.474  -0.160 -19.032  1.00  0.00    -0.391 OA
ATOM     19  H4  UNL     1     -23.244   0.254 -18.659  1.00  0.00     0.210 HD
ENDBRANCH  13  18
ENDBRANCH   4   7
ENDBRANCH   3   4
TORSDOF 6
ENDMDL
MODEL 4
REMARK VINA RESULT: -6.978071775      1.406      2.396
REMARK  6 active torsions:
REMARK  status: ('A' for Active; 'I' for Inactive)
REMARK    1  A    between atoms: C3_3  and  N1_4 
REMARK    2  A    between atoms: N1_4  and  C4_5 
REMARK    3  A    between atoms: N1_4  and  C5_7 
REMARK    4  A    between atoms: C7_9  and  O2_10 
REMARK    5  A    between atoms: C9_14  and  O3_15 
REMARK    6  A    between atoms: C10_17  and  O4_18 
ROOT
HETATM    1  C1  UNL     1     -19.290  -4.204 -20.321  1.00  0.00     0.014 C 
HETATM    2  C2  UNL     1     -19.381  -3.310 -19.514  1.00  0.00    -0.098 C 
HETATM    3  C3  UNL     1     -19.517  -2.221 -18.533  1.00  0.00     0.218 C 
ENDROOT
BRANCH   3   4
HETATM    4  N1  UNL     1     -19.355  -0.923 -19.141  1.00  0.00    -0.341 N 
BRANCH   4   5
HETATM    5  C4  UNL     1     -18.088  -0.574 -19.669  1.00  0.00     0.352 C 
HETATM    6  O1  UNL     1     -17.738  -0.988 -20.804  1.00  0.00    -0.283 OA
ENDBRANCH   4   5
BRANCH   4   7
HETATM    7  C5  UNL     1     -20.407   0.042 -19.243  1.00  0.00     0.121 C 
HETATM    8  C6  UNL     1     -20.111   1.156 -18.268  1.00  0.00     0.062 C 
HETATM    9  C7  UNL     1     -21.131   2.279 -18.358  1.00  0.00     0.156 C 
HETATM   10  C8  UNL     1     -22.470   1.640 -17.975  1.00  0.00     0.230 C 
HETATM   11  F1  UNL     1     -23.457   2.560 -17.819  1.00  0.00    -0.244 F 
HETATM   12  C9  UNL     1     -22.763   0.627 -19.061  1.00  0.00     0.185 C 
HETATM   13  C10 UNL     1     -21.772  -0.515 -18.931  1.00  0.00     0.172 C 
BRANCH   9  14
HETATM   14  O2  UNL     1     -21.178   2.690 -19.675  1.00  0.00    -0.393 OA
ATOM     15  H2  UNL     1     -21.993   3.164 -19.797  1.00  0.00     0.210 HD
ENDBRANCH   9  14
BRANCH  12  16
HETATM   16  O3  UNL     1     -24.067   0.144 -18.977  1.00  0.00    -0.390 OA
ATOM     17  H3  UNL     1     -24.434  -0.028 -19.836  1.00  0.00     0.210 HD
ENDBRANCH  12  16
BRANCH  13  18
HETATM   18  O4  UNL     1     -22.168  -1.477 -19.860  1.00  0.00    -0.391 OA
ATOM     19  H4  UNL     1     -21.522  -1.595 -20.547  1.00  0.00     0.210 HD
ENDBRANCH  13  18
ENDBRANCH   4   7
ENDBRANCH   3   4
TORSDOF 6
ENDMDL
MODEL 5
REMARK VINA RESULT: -6.928163848      2.582      5.162
REMARK  6 active torsions:
REMARK  status: ('A' for Active; 'I' for Inactive)
REMARK    1  A    between atoms: C3_3  and  N1_4 
REMARK    2  A    between atoms: N1_4  and  C4_5 
REMARK    3  A    between atoms: N1_4  and  C5_7 
REMARK    4  A    between atoms: C7_9  and  O2_10 
REMARK    5  A    between atoms: C9_14  and  O3_15 
REMARK    6  A    between atoms: C10_17  and  O4_18 
ROOT
HETATM    1  C1  UNL     1     -19.650   3.544 -16.554  1.00  0.00     0.014 C 
HETATM    2  C2  UNL     1     -20.127   3.148 -17.590  1.00  0.00    -0.098 C 
HETATM    3  C3  UNL     1     -20.731   2.677 -18.846  1.00  0.00     0.218 C 
ENDROOT
BRANCH   3   4
HETATM    4  N1  UNL     1     -21.240   1.331 -18.730  1.00  0.00    -0.341 N 
BRANCH   4   5
HETATM    5  C4  UNL     1     -22.360   1.099 -17.895  1.00  0.00     0.352 C 
HETATM    6  O1  UNL     1     -23.298   1.936 -17.845  1.00  0.00    -0.283 OA
ENDBRANCH   4   5
BRANCH   4   7
HETATM    7  C5  UNL     1     -20.674   0.207 -19.412  1.00  0.00     0.121 C 
HETATM    8  C6  UNL     1     -21.327  -1.041 -18.869  1.00  0.00     0.062 C 
HETATM    9  C7  UNL     1     -20.853  -2.292 -19.592  1.00  0.00     0.156 C 
HETATM   10  C8  UNL     1     -19.348  -2.371 -19.316  1.00  0.00     0.230 C 
HETATM   11  F1  UNL     1     -18.806  -3.544 -19.733  1.00  0.00    -0.244 F 
HETATM   12  C9  UNL     1     -18.745  -1.159 -19.994  1.00  0.00     0.185 C 
HETATM   13  C10 UNL     1     -19.182   0.081 -19.236  1.00  0.00     0.172 C 
BRANCH   9  14
HETATM   14  O2  UNL     1     -21.062  -2.095 -20.942  1.00  0.00    -0.393 OA
ATOM     15  H2  UNL     1     -20.275  -1.700 -21.298  1.00  0.00     0.210 HD
ENDBRANCH   9  14
BRANCH  12  16
HETATM   16  O3  UNL     1     -17.354  -1.231 -20.036  1.00  0.00    -0.390 OA
ATOM     17  H3  UNL     1     -16.982  -0.526 -20.552  1.00  0.00     0.210 HD
ENDBRANCH  12  16
BRANCH  13  18
HETATM   18  O4  UNL     1     -18.496   1.148 -19.813  1.00  0.00    -0.391 OA
ATOM     19  H4  UNL     1     -18.119   1.724 -19.159  1.00  0.00     0.210 HD
ENDBRANCH  13  18
ENDBRANCH   4   7
ENDBRANCH   3   4
TORSDOF 6
ENDMDL
