MODEL 1
REMARK VINA RESULT: -5.472065096      0.000      0.000
REMARK  6 active torsions:
REMARK  status: ('A' for Active; 'I' for Inactive)
REMARK    1  A    between atoms: N1_2  and  C2_3 
REMARK    2  A    between atoms: C4_6  and  C5_7 
REMARK    3  A    between atoms: C5_7  and  O2_8 
REMARK    4  A    between atoms: C5_7  and  C6_10 
REMARK    5  A    between atoms: C7_12  and  O3_13 
REMARK    6  A    between atoms: C8_15  and  O4_16 
ROOT
HETATM    1  C2  UNL     1     -19.517  -1.806 -19.089  1.00  0.00     0.356 C 
HETATM    2  O1  UNL     1     -20.273  -0.728 -18.693  1.00  0.00    -0.356 OA
HETATM    3  C3  UNL     1     -20.021   0.446 -19.354  1.00  0.00     0.180 C 
HETATM    4  C4  UNL     1     -18.621   0.941 -19.260  1.00  0.00     0.072 C 
HETATM    5  C7  UNL     1     -17.768  -0.179 -18.682  1.00  0.00     0.159 C 
HETATM    6  C8  UNL     1     -18.106  -1.422 -19.480  1.00  0.00     0.204 C 
ENDROOT
BRANCH   4   7
HETATM    7  C5  UNL     1     -18.429   2.142 -18.394  1.00  0.00     0.155 C 
BRANCH   7   8
HETATM    8  O2  UNL     1     -17.574   3.020 -19.066  1.00  0.00    -0.393 OA
ATOM      9  H2  UNL     1     -16.842   2.516 -19.399  1.00  0.00     0.210 HD
ENDBRANCH   7   8
BRANCH   7  10
HETATM   10  C6  UNL     1     -19.687   2.880 -18.060  1.00  0.00     0.254 C 
HETATM   11  F1  UNL     1     -19.586   3.577 -16.874  1.00  0.00    -0.253 F 
ENDBRANCH   7  10
ENDBRANCH   4   7
BRANCH   5  12
HETATM   12  O3  UNL     1     -16.441   0.202 -18.862  1.00  0.00    -0.392 OA
ATOM     13  H3  UNL     1     -16.019  -0.506 -19.334  1.00  0.00     0.210 HD
ENDBRANCH   5  12
BRANCH   6  14
HETATM   14  O4  UNL     1     -17.999  -1.084 -20.822  1.00  0.00    -0.389 OA
ATOM     15  H4  UNL     1     -17.451  -1.689 -21.307  1.00  0.00     0.210 HD
ENDBRANCH   6  14
BRANCH   1  16
HETATM   16  N1  UNL     1     -20.163  -2.633 -20.060  1.00  0.00    -0.039 N 
HETATM   17  C1  UNL     1     -21.568  -2.378 -20.306  1.00  0.00     0.276 C 
HETATM   18  C9  UNL     1     -19.453  -3.151 -21.195  1.00  0.00     0.268 A 
HETATM   19  C10 UNL     1     -19.798  -4.089 -20.072  1.00  0.00     0.268 A 
ENDBRANCH   1  16
TORSDOF 6
ENDMDL
MODEL 2
REMARK VINA RESULT: -5.428935550      2.934      5.126
REMARK  6 active torsions:
REMARK  status: ('A' for Active; 'I' for Inactive)
REMARK    1  A    between atoms: N1_2  and  C2_3 
REMARK    2  A    between atoms: C4_6  and  C5_7 
REMARK    3  A    between atoms: C5_7  and  O2_8 
REMARK    4  A    between atoms: C5_7  and  C6_10 
REMARK    5  A    between atoms: C7_12  and  O3_13 
REMARK    6  A    between atoms: C8_15  and  O4_16 
ROOT
HETATM    1  C2  UNL     1     -19.851   1.366 -19.436  1.00  0.00     0.356 C 
HETATM    2  O1  UNL     1     -20.913   0.503 -19.309  1.00  0.00    -0.356 OA
HETATM    3  C3  UNL     1     -20.650  -0.665 -18.641  1.00  0.00     0.180 C 
HETATM    4  C4  UNL     1     -19.578  -1.509 -19.236  1.00  0.00     0.072 C 
HETATM    5  C7  UNL     1     -18.853  -0.673 -20.282  1.00  0.00     0.159 C 
HETATM    6  C8  UNL     1     -18.530   0.649 -19.617  1.00  0.00     0.204 C 
ENDROOT
BRANCH   4   7
HETATM    7  C5  UNL     1     -20.049  -2.756 -19.906  1.00  0.00     0.155 C 
BRANCH   7   8
HETATM    8  O2  UNL     1     -20.116  -2.504 -21.279  1.00  0.00    -0.393 OA
ATOM      9  H2  UNL     1     -20.138  -3.340 -21.728  1.00  0.00     0.210 HD
ENDBRANCH   7   8
BRANCH   7  10
HETATM   10  C6  UNL     1     -19.173  -3.950 -19.694  1.00  0.00     0.254 C 
HETATM   11  F1  UNL     1     -19.032  -4.707 -20.839  1.00  0.00    -0.253 F 
ENDBRANCH   7  10
ENDBRANCH   4   7
BRANCH   5  12
HETATM   12  O3  UNL     1     -17.699  -1.376 -20.617  1.00  0.00    -0.392 OA
ATOM     13  H3  UNL     1     -17.559  -1.236 -21.546  1.00  0.00     0.210 HD
ENDBRANCH   5  12
BRANCH   6  14
HETATM   14  O4  UNL     1     -17.914   0.356 -18.409  1.00  0.00    -0.389 OA
ATOM     15  H4  UNL     1     -17.672   1.135 -17.924  1.00  0.00     0.210 HD
ENDBRANCH   6  14
BRANCH   1  16
HETATM   16  N1  UNL     1     -19.807   2.375 -18.424  1.00  0.00    -0.039 N 
HETATM   17  C1  UNL     1     -18.534   3.032 -18.209  1.00  0.00     0.276 C 
HETATM   18  C9  UNL     1     -20.948   3.198 -18.136  1.00  0.00     0.268 A 
HETATM   19  C10 UNL     1     -20.577   2.114 -17.162  1.00  0.00     0.268 A 
ENDBRANCH   1  16
TORSDOF 6
ENDMDL
MODEL 3
REMARK VINA RESULT: -5.160515593      2.731      4.339
REMARK  6 active torsions:
REMARK  status: ('A' for Active; 'I' for Inactive)
REMARK    1  A    between atoms: N1_2  and  C2_3 
REMARK    2  A    between atoms: C4_6  and  C5_7 
REMARK    3  A    between atoms: C5_7  and  O2_8 
REMARK    4  A    between atoms: C5_7  and  C6_10 
REMARK    5  A    between atoms: C7_12  and  O3_13 
REMARK    6  A    between atoms: C8_15  and  O4_16 
ROOT
HETATM    1  C2  UNL     1     -21.940   0.292 -18.198  1.00  0.00     0.356 C 
HETATM    2  O1  UNL     1     -20.731   0.944 -18.124  1.00  0.00    -0.356 OA
HETATM    3  C3  UNL     1     -19.924   0.821 -19.225  1.00  0.00     0.180 C 
HETATM    4  C4  UNL     1     -19.552  -0.575 -19.586  1.00  0.00     0.072 C 
HETATM    5  C7  UNL     1     -20.437  -1.516 -18.783  1.00  0.00     0.159 C 
HETATM    6  C8  UNL     1     -21.856  -1.015 -18.957  1.00  0.00     0.204 C 
ENDROOT
BRANCH   4   7
HETATM    7  C5  UNL     1     -18.134  -0.946 -19.308  1.00  0.00     0.155 C 
BRANCH   7   8
HETATM    8  O2  UNL     1     -17.549  -1.334 -20.517  1.00  0.00    -0.393 OA
ATOM      9  H2  UNL     1     -16.722  -1.756 -20.318  1.00  0.00     0.210 HD
ENDBRANCH   7   8
BRANCH   7  10
HETATM   10  C6  UNL     1     -17.303   0.151 -18.719  1.00  0.00     0.254 C 
HETATM   11  F1  UNL     1     -16.097  -0.309 -18.233  1.00  0.00    -0.253 F 
ENDBRANCH   7  10
ENDBRANCH   4   7
BRANCH   5  12
HETATM   12  O3  UNL     1     -20.268  -2.784 -19.334  1.00  0.00    -0.392 OA
ATOM     13  H3  UNL     1     -21.055  -2.967 -19.833  1.00  0.00     0.210 HD
ENDBRANCH   5  12
BRANCH   6  14
HETATM   14  O4  UNL     1     -22.065  -0.854 -20.319  1.00  0.00    -0.389 OA
ATOM     15  H4  UNL     1     -22.985  -0.791 -20.542  1.00  0.00     0.210 HD
ENDBRANCH   6  14
BRANCH   1  16
HETATM   16  N1  UNL     1     -23.015   1.126 -18.635  1.00  0.00    -0.039 N 
HETATM   17  C1  UNL     1     -24.263   0.467 -18.963  1.00  0.00     0.276 C 
HETATM   18  C9  UNL     1     -23.172   2.467 -18.143  1.00  0.00     0.268 A 
HETATM   19  C10 UNL     1     -22.672   2.268 -19.547  1.00  0.00     0.268 A 
ENDBRANCH   1  16
TORSDOF 6
ENDMDL
MODEL 4
REMARK VINA RESULT: -5.119597706      3.060      5.100
REMARK  6 active torsions:
REMARK  status: ('A' for Active; 'I' for Inactive)
REMARK    1  A    between atoms: N1_2  and  C2_3 
REMARK    2  A    between atoms: C4_6  and  C5_7 
REMARK    3  A    between atoms: C5_7  and  O2_8 
REMARK    4  A    between atoms: C5_7  and  C6_10 
REMARK    5  A    between atoms: C7_12  and  O3_13 
REMARK    6  A    between atoms: C8_15  and  O4_16 
ROOT
HETATM    1  C2  UNL     1     -20.603   0.560 -19.332  1.00  0.00     0.356 C 
HETATM    2  O1  UNL     1     -21.304  -0.621 -19.409  1.00  0.00    -0.356 OA
HETATM    3  C3  UNL     1     -20.690  -1.711 -18.850  1.00  0.00     0.180 C 
HETATM    4  C4  UNL     1     -19.359  -2.053 -19.420  1.00  0.00     0.072 C 
HETATM    5  C7  UNL     1     -18.911  -0.887 -20.289  1.00  0.00     0.159 C 
HETATM    6  C8  UNL     1     -19.107   0.363 -19.455  1.00  0.00     0.204 C 
ENDROOT
BRANCH   4   7
HETATM    7  C5  UNL     1     -19.327  -3.281 -20.267  1.00  0.00     0.155 C 
BRANCH   7   8
HETATM    8  O2  UNL     1     -18.755  -4.307 -19.510  1.00  0.00    -0.393 OA
ATOM      9  H2  UNL     1     -19.408  -4.609 -18.889  1.00  0.00     0.210 HD
ENDBRANCH   7   8
BRANCH   7  10
HETATM   10  C6  UNL     1     -20.666  -3.746 -20.746  1.00  0.00     0.254 C 
HETATM   11  F1  UNL     1     -20.698  -5.107 -20.974  1.00  0.00    -0.253 F 
ENDBRANCH   7  10
ENDBRANCH   4   7
BRANCH   5  12
HETATM   12  O3  UNL     1     -17.566  -1.105 -20.580  1.00  0.00    -0.392 OA
ATOM     13  H3  UNL     1     -17.165  -1.417 -19.778  1.00  0.00     0.210 HD
ENDBRANCH   5  12
BRANCH   6  14
HETATM   14  O4  UNL     1     -18.499   0.131 -18.229  1.00  0.00    -0.389 OA
ATOM     15  H4  UNL     1     -19.039   0.403 -17.497  1.00  0.00     0.210 HD
ENDBRANCH   6  14
BRANCH   1  16
HETATM   16  N1  UNL     1     -20.972   1.374 -18.217  1.00  0.00    -0.039 N 
HETATM   17  C1  UNL     1     -21.807   0.759 -17.205  1.00  0.00     0.276 C 
HETATM   18  C9  UNL     1     -20.100   2.398 -17.715  1.00  0.00     0.268 A 
HETATM   19  C10 UNL     1     -21.315   2.808 -18.499  1.00  0.00     0.268 A 
ENDBRANCH   1  16
TORSDOF 6
ENDMDL
MODEL 5
REMARK VINA RESULT: -5.069177924      1.258      1.451
REMARK  6 active torsions:
REMARK  status: ('A' for Active; 'I' for Inactive)
REMARK    1  A    between atoms: N1_2  and  C2_3 
REMARK    2  A    between atoms: C4_6  and  C5_7 
REMARK    3  A    between atoms: C5_7  and  O2_8 
REMARK    4  A    between atoms: C5_7  and  C6_10 
REMARK    5  A    between atoms: C7_12  and  O3_13 
REMARK    6  A    between atoms: C8_15  and  O4_16 
ROOT
HETATM    1  C2  UNL     1     -19.662  -1.198 -18.850  1.00  0.00     0.356 C 
HETATM    2  O1  UNL     1     -20.770  -0.445 -18.540  1.00  0.00    -0.356 OA
HETATM    3  C3  UNL     1     -20.979   0.654 -19.332  1.00  0.00     0.180 C 
HETATM    4  C4  UNL     1     -19.869   1.646 -19.348  1.00  0.00     0.072 C 
HETATM    5  C7  UNL     1     -18.657   1.001 -18.692  1.00  0.00     0.159 C 
HETATM    6  C8  UNL     1     -18.500  -0.360 -19.339  1.00  0.00     0.204 C 
ENDROOT
BRANCH   4   7
HETATM    7  C5  UNL     1     -20.146   2.921 -18.624  1.00  0.00     0.155 C 
BRANCH   7   8
HETATM    8  O2  UNL     1     -21.305   3.479 -19.170  1.00  0.00    -0.393 OA
ATOM      9  H2  UNL     1     -21.244   4.423 -19.080  1.00  0.00     0.210 HD
ENDBRANCH   7   8
BRANCH   7  10
HETATM   10  C6  UNL     1     -20.350   2.771 -17.149  1.00  0.00     0.254 C 
HETATM   11  F1  UNL     1     -19.592   3.666 -16.422  1.00  0.00    -0.253 F 
ENDBRANCH   7  10
ENDBRANCH   4   7
BRANCH   5  12
HETATM   12  O3  UNL     1     -17.572   1.829 -18.966  1.00  0.00    -0.392 OA
ATOM     13  H3  UNL     1     -17.477   2.406 -18.218  1.00  0.00     0.210 HD
ENDBRANCH   5  12
BRANCH   6  14
HETATM   14  O4  UNL     1     -18.527  -0.162 -20.712  1.00  0.00    -0.389 OA
ATOM     15  H4  UNL     1     -18.534  -0.978 -21.198  1.00  0.00     0.210 HD
ENDBRANCH   6  14
BRANCH   1  16
HETATM   16  N1  UNL     1     -19.947  -2.312 -19.700  1.00  0.00    -0.039 N 
HETATM   17  C1  UNL     1     -21.313  -2.451 -20.161  1.00  0.00     0.276 C 
HETATM   18  C9  UNL     1     -18.965  -2.831 -20.611  1.00  0.00     0.268 A 
HETATM   19  C10 UNL     1     -19.281  -3.616 -19.368  1.00  0.00     0.268 A 
ENDBRANCH   1  16
TORSDOF 6
ENDMDL
