MODEL 1
REMARK VINA RESULT: -6.859228159      0.000      0.000
REMARK  5 active torsions:
REMARK  status: ('A' for Active; 'I' for Inactive)
REMARK       I    between atoms: C2_2  and  N1_4 
REMARK    1  A    between atoms: N1_4  and  C3_6 
REMARK    2  A    between atoms: C3_6  and  C4_7 
REMARK    3  A    between atoms: C4_7  and  S1_8 
REMARK    4  A    between atoms: S1_8  and  C5_9 
REMARK    5  A    between atoms: C13_19  and  C14_20 
ROOT
HETATM    1  C5  UNL     1      66.706  49.789  11.431  1.00  0.00     0.056 C 
HETATM    2  C6  UNL     1      65.875  48.627  12.014  1.00  0.00     0.045 C 
HETATM    3  C7  UNL     1      65.606  47.693  10.899  1.00  0.00     0.020 C 
HETATM    4  C8  UNL     1      65.172  46.312  11.344  1.00  0.00     0.037 C 
HETATM    5  C9  UNL     1      64.387  48.269  10.147  1.00  0.00     0.037 C 
HETATM    6  N2  UNL     1      66.665  47.710   9.991  1.00  0.00    -0.405 N 
ATOM      7  H2  UNL     1      66.520  47.558   8.993  1.00  0.00     0.154 HD
HETATM    8  C10 UNL     1      68.006  47.960  10.551  1.00  0.00     0.024 C 
HETATM    9  C11 UNL     1      68.872  47.731   9.329  1.00  0.00     0.038 C 
HETATM   10  C12 UNL     1      68.436  46.809  11.457  1.00  0.00     0.038 C 
HETATM   11  C13 UNL     1      68.103  49.259  11.240  1.00  0.00     0.034 C 
ENDROOT
BRANCH   1  12
HETATM   12  S1  UNL     1      66.457  51.095  12.606  1.00  0.00    -0.162 SA
BRANCH  12  13
HETATM   13  C4  UNL     1      64.834  51.811  12.386  1.00  0.00     0.094 C 
BRANCH  13  14
HETATM   14  C3  UNL     1      64.915  53.336  12.276  1.00  0.00     0.132 C 
BRANCH  14  15
HETATM   15  N1  UNL     1      66.163  53.736  11.668  1.00  0.00    -0.361 N 
HETATM   16  C2  UNL     1      66.225  54.816  10.755  1.00  0.00     0.213 C 
HETATM   17  C1  UNL     1      67.498  55.226  10.133  1.00  0.00     0.117 C 
HETATM   18  O1  UNL     1      65.166  55.429  10.476  1.00  0.00    -0.274 OA
ATOM     19  H1  UNL     1      67.017  53.231  11.902  1.00  0.00     0.162 HD
ENDBRANCH  14  15
ENDBRANCH  13  14
ENDBRANCH  12  13
ENDBRANCH   1  12
BRANCH  11  20
HETATM   20  C14 UNL     1      69.038  50.301  10.754  1.00  0.00    -0.044 C 
HETATM   21  C15 UNL     1      70.456  49.849  10.606  1.00  0.00     0.015 C 
HETATM   22  C16 UNL     1      68.576  50.820   9.410  1.00  0.00     0.015 C 
HETATM   23  C17 UNL     1      69.097  51.536  11.638  1.00  0.00     0.015 C 
ENDBRANCH  11  20
TORSDOF 5
ENDMDL
MODEL 2
REMARK VINA RESULT: -6.755000824      0.921      1.334
REMARK  5 active torsions:
REMARK  status: ('A' for Active; 'I' for Inactive)
REMARK       I    between atoms: C2_2  and  N1_4 
REMARK    1  A    between atoms: N1_4  and  C3_6 
REMARK    2  A    between atoms: C3_6  and  C4_7 
REMARK    3  A    between atoms: C4_7  and  S1_8 
REMARK    4  A    between atoms: S1_8  and  C5_9 
REMARK    5  A    between atoms: C13_19  and  C14_20 
ROOT
HETATM    1  C5  UNL     1      65.822  49.820  11.528  1.00  0.00     0.056 C 
HETATM    2  C6  UNL     1      65.139  48.499  11.940  1.00  0.00     0.045 C 
HETATM    3  C7  UNL     1      65.164  47.617  10.753  1.00  0.00     0.020 C 
HETATM    4  C8  UNL     1      64.923  46.155  11.067  1.00  0.00     0.037 C 
HETATM    5  C9  UNL     1      63.959  48.040   9.885  1.00  0.00     0.037 C 
HETATM    6  N2  UNL     1      66.302  47.872   9.987  1.00  0.00    -0.405 N 
ATOM      7  H2  UNL     1      66.301  47.771   8.973  1.00  0.00     0.154 HD
HETATM    8  C10 UNL     1      67.507  48.296  10.725  1.00  0.00     0.024 C 
HETATM    9  C11 UNL     1      68.534  48.300   9.611  1.00  0.00     0.038 C 
HETATM   10  C12 UNL     1      68.019  47.167  11.616  1.00  0.00     0.038 C 
HETATM   11  C13 UNL     1      67.301  49.539  11.488  1.00  0.00     0.034 C 
ENDROOT
BRANCH   1  12
HETATM   12  S1  UNL     1      65.220  50.979  12.730  1.00  0.00    -0.162 SA
BRANCH  12  13
HETATM   13  C4  UNL     1      63.584  51.536  12.272  1.00  0.00     0.094 C 
BRANCH  13  14
HETATM   14  C3  UNL     1      63.611  52.988  11.790  1.00  0.00     0.132 C 
BRANCH  14  15
HETATM   15  N1  UNL     1      64.973  53.452  11.650  1.00  0.00    -0.361 N 
HETATM   16  C2  UNL     1      65.273  54.669  10.993  1.00  0.00     0.213 C 
HETATM   17  C1  UNL     1      66.662  55.144  10.849  1.00  0.00     0.117 C 
HETATM   18  O1  UNL     1      64.327  55.350  10.526  1.00  0.00    -0.274 OA
ATOM     19  H1  UNL     1      65.733  52.891  12.032  1.00  0.00     0.162 HD
ENDBRANCH  14  15
ENDBRANCH  13  14
ENDBRANCH  12  13
ENDBRANCH   1  12
BRANCH  11  20
HETATM   20  C14 UNL     1      68.094  50.753  11.178  1.00  0.00    -0.044 C 
HETATM   21  C15 UNL     1      67.680  51.471   9.933  1.00  0.00     0.015 C 
HETATM   22  C16 UNL     1      68.005  51.732  12.328  1.00  0.00     0.015 C 
HETATM   23  C17 UNL     1      69.583  50.490  11.018  1.00  0.00     0.015 C 
ENDBRANCH  11  20
TORSDOF 5
ENDMDL
MODEL 3
REMARK VINA RESULT: -6.603115504      1.662      2.354
REMARK  5 active torsions:
REMARK  status: ('A' for Active; 'I' for Inactive)
REMARK       I    between atoms: C2_2  and  N1_4 
REMARK    1  A    between atoms: N1_4  and  C3_6 
REMARK    2  A    between atoms: C3_6  and  C4_7 
REMARK    3  A    between atoms: C4_7  and  S1_8 
REMARK    4  A    between atoms: S1_8  and  C5_9 
REMARK    5  A    between atoms: C13_19  and  C14_20 
ROOT
HETATM    1  C5  UNL     1      66.853  49.856  11.373  1.00  0.00     0.056 C 
HETATM    2  C6  UNL     1      65.888  48.862  12.053  1.00  0.00     0.045 C 
HETATM    3  C7  UNL     1      65.487  47.882  11.021  1.00  0.00     0.020 C 
HETATM    4  C8  UNL     1      64.885  46.610  11.581  1.00  0.00     0.037 C 
HETATM    5  C9  UNL     1      64.341  48.546  10.227  1.00  0.00     0.037 C 
HETATM    6  N2  UNL     1      66.527  47.688  10.111  1.00  0.00    -0.405 N 
ATOM      7  H2  UNL     1      66.349  47.474   9.130  1.00  0.00     0.154 HD
HETATM    8  C10 UNL     1      67.896  47.809  10.645  1.00  0.00     0.024 C 
HETATM    9  C11 UNL     1      68.709  47.371   9.444  1.00  0.00     0.038 C 
HETATM   10  C12 UNL     1      68.188  46.691  11.642  1.00  0.00     0.038 C 
HETATM   11  C13 UNL     1      68.167  49.137  11.223  1.00  0.00     0.034 C 
ENDROOT
BRANCH   1  12
HETATM   12  S1  UNL     1      66.789  51.276  12.436  1.00  0.00    -0.162 SA
BRANCH  12  13
HETATM   13  C4  UNL     1      66.040  52.649  11.572  1.00  0.00     0.094 C 
BRANCH  13  14
HETATM   14  C3  UNL     1      64.781  53.134  12.296  1.00  0.00     0.132 C 
BRANCH  14  15
HETATM   15  N1  UNL     1      63.596  52.773  11.553  1.00  0.00    -0.361 N 
HETATM   16  C2  UNL     1      62.819  51.645  11.908  1.00  0.00     0.213 C 
HETATM   17  C1  UNL     1      61.609  51.274  11.151  1.00  0.00     0.117 C 
HETATM   18  O1  UNL     1      63.180  50.951  12.890  1.00  0.00    -0.274 OA
ATOM     19  H1  UNL     1      63.312  53.343  10.757  1.00  0.00     0.162 HD
ENDBRANCH  14  15
ENDBRANCH  13  14
ENDBRANCH  12  13
ENDBRANCH   1  12
BRANCH  11  20
HETATM   20  C14 UNL     1      69.221  50.007  10.649  1.00  0.00    -0.044 C 
HETATM   21  C15 UNL     1      70.559  49.354  10.500  1.00  0.00     0.015 C 
HETATM   22  C16 UNL     1      68.794  50.500   9.283  1.00  0.00     0.015 C 
HETATM   23  C17 UNL     1      69.477  51.274  11.448  1.00  0.00     0.015 C 
ENDBRANCH  11  20
TORSDOF 5
ENDMDL
MODEL 4
REMARK VINA RESULT: -6.593935753      1.335      1.490
REMARK  5 active torsions:
REMARK  status: ('A' for Active; 'I' for Inactive)
REMARK       I    between atoms: C2_2  and  N1_4 
REMARK    1  A    between atoms: N1_4  and  C3_6 
REMARK    2  A    between atoms: C3_6  and  C4_7 
REMARK    3  A    between atoms: C4_7  and  S1_8 
REMARK    4  A    between atoms: S1_8  and  C5_9 
REMARK    5  A    between atoms: C13_19  and  C14_20 
ROOT
HETATM    1  C5  UNL     1      65.868  49.457  10.914  1.00  0.00     0.056 C 
HETATM    2  C6  UNL     1      65.343  48.011  11.032  1.00  0.00     0.045 C 
HETATM    3  C7  UNL     1      65.765  47.301   9.805  1.00  0.00     0.020 C 
HETATM    4  C8  UNL     1      65.709  45.792   9.916  1.00  0.00     0.037 C 
HETATM    5  C9  UNL     1      64.718  47.659   8.727  1.00  0.00     0.037 C 
HETATM    6  N2  UNL     1      66.981  47.811   9.348  1.00  0.00    -0.405 N 
ATOM      7  H2  UNL     1      67.211  47.843   8.355  1.00  0.00     0.154 HD
HETATM    8  C10 UNL     1      67.914  48.302  10.379  1.00  0.00     0.024 C 
HETATM    9  C11 UNL     1      69.139  48.595   9.536  1.00  0.00     0.038 C 
HETATM   10  C12 UNL     1      68.407  47.152  11.253  1.00  0.00     0.038 C 
HETATM   11  C13 UNL     1      67.347  49.395  11.188  1.00  0.00     0.034 C 
ENDROOT
BRANCH   1  12
HETATM   12  S1  UNL     1      64.841  50.355  12.049  1.00  0.00    -0.162 SA
BRANCH  12  13
HETATM   13  C4  UNL     1      63.387  50.963  11.205  1.00  0.00     0.094 C 
BRANCH  13  14
HETATM   14  C3  UNL     1      63.146  52.441  11.519  1.00  0.00     0.132 C 
BRANCH  14  15
HETATM   15  N1  UNL     1      64.366  53.072  11.967  1.00  0.00    -0.361 N 
HETATM   16  C2  UNL     1      64.712  54.381  11.559  1.00  0.00     0.213 C 
HETATM   17  C1  UNL     1      65.958  55.026  12.016  1.00  0.00     0.117 C 
HETATM   18  O1  UNL     1      63.935  54.997  10.789  1.00  0.00    -0.274 OA
ATOM     19  H1  UNL     1      64.991  52.562  12.592  1.00  0.00     0.162 HD
ENDBRANCH  14  15
ENDBRANCH  13  14
ENDBRANCH  12  13
ENDBRANCH   1  12
BRANCH  11  20
HETATM   20  C14 UNL     1      67.976  50.738  11.184  1.00  0.00    -0.044 C 
HETATM   21  C15 UNL     1      69.472  50.728  11.161  1.00  0.00     0.015 C 
HETATM   22  C16 UNL     1      67.500  51.525   9.983  1.00  0.00     0.015 C 
HETATM   23  C17 UNL     1      67.596  51.599  12.378  1.00  0.00     0.015 C 
ENDBRANCH  11  20
TORSDOF 5
ENDMDL
MODEL 5
REMARK VINA RESULT: -6.441337942      2.705      3.744
REMARK  5 active torsions:
REMARK  status: ('A' for Active; 'I' for Inactive)
REMARK       I    between atoms: C2_2  and  N1_4 
REMARK    1  A    between atoms: N1_4  and  C3_6 
REMARK    2  A    between atoms: C3_6  and  C4_7 
REMARK    3  A    between atoms: C4_7  and  S1_8 
REMARK    4  A    between atoms: S1_8  and  C5_9 
REMARK    5  A    between atoms: C13_19  and  C14_20 
ROOT
HETATM    1  C5  UNL     1      69.960  49.429   9.203  1.00  0.00     0.056 C 
HETATM    2  C6  UNL     1      69.768  48.555  10.460  1.00  0.00     0.045 C 
HETATM    3  C7  UNL     1      69.415  47.198   9.988  1.00  0.00     0.020 C 
HETATM    4  C8  UNL     1      69.592  46.117  11.033  1.00  0.00     0.037 C 
HETATM    5  C9  UNL     1      67.897  47.230   9.703  1.00  0.00     0.037 C 
HETATM    6  N2  UNL     1      70.033  46.938   8.764  1.00  0.00    -0.405 N 
ATOM      7  H2  UNL     1      69.599  46.343   8.059  1.00  0.00     0.154 HD
HETATM    8  C10 UNL     1      71.347  47.571   8.546  1.00  0.00     0.024 C 
HETATM    9  C11 UNL     1      71.757  46.930   7.236  1.00  0.00     0.038 C 
HETATM   10  C12 UNL     1      72.387  47.002   9.508  1.00  0.00     0.038 C 
HETATM   11  C13 UNL     1      71.291  49.042   8.615  1.00  0.00     0.034 C 
ENDROOT
BRANCH   1  12
HETATM   12  S1  UNL     1      69.764  51.080   9.823  1.00  0.00    -0.162 SA
BRANCH  12  13
HETATM   13  C4  UNL     1      68.667  51.075  11.234  1.00  0.00     0.094 C 
BRANCH  13  14
HETATM   14  C3  UNL     1      67.344  51.772  10.905  1.00  0.00     0.132 C 
BRANCH  14  15
HETATM   15  N1  UNL     1      67.575  52.944  10.092  1.00  0.00    -0.361 N 
HETATM   16  C2  UNL     1      67.298  54.244  10.578  1.00  0.00     0.213 C 
HETATM   17  C1  UNL     1      67.533  55.441   9.749  1.00  0.00     0.117 C 
HETATM   18  O1  UNL     1      66.840  54.367  11.740  1.00  0.00    -0.274 OA
ATOM     19  H1  UNL     1      67.947  52.832   9.149  1.00  0.00     0.162 HD
ENDBRANCH  14  15
ENDBRANCH  13  14
ENDBRANCH  12  13
ENDBRANCH   1  12
BRANCH  11  20
HETATM   20  C14 UNL     1      71.644  49.865   7.434  1.00  0.00    -0.044 C 
HETATM   21  C15 UNL     1      72.758  49.315   6.599  1.00  0.00     0.015 C 
HETATM   22  C16 UNL     1      70.434  50.027   6.540  1.00  0.00     0.015 C 
HETATM   23  C17 UNL     1      72.058  51.287   7.776  1.00  0.00     0.015 C 
ENDBRANCH  11  20
TORSDOF 5
ENDMDL
