MODEL 1
REMARK VINA RESULT: -9.370339739      0.000      0.000
REMARK  17 active torsions:
REMARK  status: ('A' for Active; 'I' for Inactive)
REMARK    1  A    between atoms: C1_4  and  O1_5 
REMARK    2  A    between atoms: C1_4  and  C2_7 
REMARK    3  A    between atoms: C2_7  and  N2_8 
REMARK    4  A    between atoms: C2_7  and  C10_20 
REMARK    5  A    between atoms: N2_8  and  C3_9 
REMARK    6  A    between atoms: C3_9  and  O2_10 
REMARK    7  A    between atoms: C3_9  and  C4_12 
REMARK    8  A    between atoms: C7_15  and  O3_16 
REMARK    9  A    between atoms: C10_20  and  O4_21 
REMARK   10  A    between atoms: C10_20  and  C11_23 
REMARK   11  A    between atoms: C11_23  and  O5_24 
REMARK   12  A    between atoms: C11_23  and  C12_26 
REMARK   13  A    between atoms: C12_26  and  O6_27 
REMARK   14  A    between atoms: C12_26  and  C13_29 
REMARK   15  A    between atoms: C13_29  and  N3_30 
REMARK   16  A    between atoms: C14_31  and  C15_32 
REMARK   17  A    between atoms: C15_32  and  N4_33 
ROOT
HETATM    1  C12 UNL     1      -4.060  -0.799   4.735  1.00  0.00     0.168 C 
ENDROOT
BRANCH   1   2
HETATM    2  C11 UNL     1      -5.425  -0.867   4.060  1.00  0.00     0.184 C 
BRANCH   2   3
HETATM    3  C10 UNL     1      -6.022  -2.248   4.053  1.00  0.00     0.218 C 
BRANCH   3   4
HETATM    4  C2  UNL     1      -7.543  -2.139   3.976  1.00  0.00     0.168 C 
BRANCH   4   5
HETATM    5  C1  UNL     1      -8.015  -2.852   2.734  1.00  0.00     0.174 C 
HETATM    6  N1  UNL     1      -8.259  -2.170   1.680  1.00  0.00    -0.378 N 
ATOM      7  H12 UNL     1      -8.578  -2.652   0.839  1.00  0.00     0.158 HD
ATOM      8  H11 UNL     1      -8.122  -1.160   1.721  1.00  0.00     0.158 HD
BRANCH   5   9
HETATM    9  O1  UNL     1      -8.203  -4.239   2.677  1.00  0.00    -0.344 OA
ATOM     10  H1  UNL     1      -7.442  -4.786   2.519  1.00  0.00     0.219 HD
ENDBRANCH   5   9
ENDBRANCH   4   5
BRANCH   4  11
HETATM   11  N2  UNL     1      -8.110  -0.939   4.319  1.00  0.00    -0.377 NA
BRANCH  11  12
HETATM   12  C3  UNL     1      -8.669   0.247   4.657  1.00  0.00     0.225 C 
BRANCH  12  13
HETATM   13  O2  UNL     1      -8.013   1.282   5.128  1.00  0.00    -0.335 OA
ATOM     14  H2  UNL     1      -8.015   2.151   4.743  1.00  0.00     0.220 HD
ENDBRANCH  12  13
BRANCH  12  15
HETATM   15  C4  UNL     1     -10.109   0.559   4.539  1.00  0.00     0.029 A 
HETATM   16  C5  UNL     1     -10.500   1.455   3.571  1.00  0.00     0.020 A 
HETATM   17  C6  UNL     1     -11.831   1.780   3.396  1.00  0.00     0.037 A 
HETATM   18  C7  UNL     1     -12.812   1.218   4.185  1.00  0.00     0.065 A 
HETATM   19  C8  UNL     1     -12.392   0.314   5.159  1.00  0.00     0.037 A 
HETATM   20  C9  UNL     1     -11.052  -0.017   5.338  1.00  0.00     0.020 A 
BRANCH  18  21
HETATM   21  O3  UNL     1     -14.166   1.552   4.003  1.00  0.00    -0.361 OA
ATOM     22  H3  UNL     1     -14.852   1.065   4.442  1.00  0.00     0.217 HD
ENDBRANCH  18  21
ENDBRANCH  12  15
ENDBRANCH  11  12
ENDBRANCH   4  11
ENDBRANCH   3   4
BRANCH   3  23
HETATM   23  O4  UNL     1      -5.649  -2.968   2.916  1.00  0.00    -0.386 OA
ATOM     24  H4  UNL     1      -6.091  -3.806   2.996  1.00  0.00     0.210 HD
ENDBRANCH   3  23
ENDBRANCH   2   3
BRANCH   2  25
HETATM   25  O5  UNL     1      -5.186  -0.421   2.754  1.00  0.00    -0.390 OA
ATOM     26  H5  UNL     1      -5.040   0.518   2.738  1.00  0.00     0.210 HD
ENDBRANCH   2  25
ENDBRANCH   1   2
BRANCH   1  27
HETATM   27  O6  UNL     1      -3.902  -2.016   5.429  1.00  0.00    -0.391 OA
ATOM     28  H6  UNL     1      -4.526  -1.997   6.145  1.00  0.00     0.210 HD
ENDBRANCH   1  27
BRANCH   1  29
HETATM   29  C13 UNL     1      -4.100   0.393   5.621  1.00  0.00     0.168 C 
BRANCH  29  30
HETATM   30  N3  UNL     1      -4.021   0.200   7.028  1.00  0.00    -0.299 N 
HETATM   31  C14 UNL     1      -2.842   0.195   7.719  1.00  0.00     0.111 A 
HETATM   32  N5  UNL     1      -2.821   0.036   9.053  1.00  0.00    -0.340 N 
HETATM   33  C16 UNL     1      -3.904  -0.126   9.820  1.00  0.00     0.105 A 
ATOM     34  H5  UNL     1      -1.912   0.040   9.515  1.00  0.00     0.167 HD
HETATM   35  C17 UNL     1      -5.122  -0.124   9.148  1.00  0.00     0.114 A 
HETATM   36  C26 UNL     1      -3.800  -0.271  11.278  1.00  0.00     0.210 A 
HETATM   37  C18 UNL     1      -5.142   0.036   7.785  1.00  0.00     0.265 A 
HETATM   38  C19 UNL     1      -6.319  -0.277   9.967  1.00  0.00     0.201 A 
HETATM   39  O9  UNL     1      -6.254   0.036   7.175  1.00  0.00    -0.267 OA
HETATM   40  O10 UNL     1      -7.429  -0.274   9.342  1.00  0.00    -0.286 OA
HETATM   41  C20 UNL     1      -6.222  -0.421  11.418  1.00  0.00     0.029 A 
HETATM   42  C21 UNL     1      -7.373  -0.554  12.170  1.00  0.00     0.016 A 
HETATM   43  C25 UNL     1      -5.019  -0.422  12.083  1.00  0.00     0.030 A 
HETATM   44  C22 UNL     1      -7.300  -0.683  13.559  1.00  0.00     0.001 A 
HETATM   45  C23 UNL     1      -6.094  -0.686  14.236  1.00  0.00     0.001 A 
HETATM   46  C24 UNL     1      -4.965  -0.552  13.464  1.00  0.00     0.016 A 
HETATM   47  O11 UNL     1      -2.690  -0.269  11.864  1.00  0.00    -0.285 OA
BRANCH  31  48
HETATM   48  C15 UNL     1      -1.613   0.407   6.932  1.00  0.00     0.277 C 
BRANCH  48  49
HETATM   49  N4  UNL     1      -0.531   0.832   7.760  1.00  0.00    -0.148 N 
HETATM   50  O7  UNL     1       0.327   0.051   8.169  1.00  0.00    -0.536 OA
HETATM   51  O8  UNL     1      -0.375   2.162   8.151  1.00  0.00    -0.536 OA
ENDBRANCH  48  49
ENDBRANCH  31  48
ENDBRANCH  29  30
ENDBRANCH   1  29
TORSDOF 17
ENDMDL
MODEL 2
REMARK VINA RESULT: -9.237358662      2.614      4.187
REMARK  17 active torsions:
REMARK  status: ('A' for Active; 'I' for Inactive)
REMARK    1  A    between atoms: C1_4  and  O1_5 
REMARK    2  A    between atoms: C1_4  and  C2_7 
REMARK    3  A    between atoms: C2_7  and  N2_8 
REMARK    4  A    between atoms: C2_7  and  C10_20 
REMARK    5  A    between atoms: N2_8  and  C3_9 
REMARK    6  A    between atoms: C3_9  and  O2_10 
REMARK    7  A    between atoms: C3_9  and  C4_12 
REMARK    8  A    between atoms: C7_15  and  O3_16 
REMARK    9  A    between atoms: C10_20  and  O4_21 
REMARK   10  A    between atoms: C10_20  and  C11_23 
REMARK   11  A    between atoms: C11_23  and  O5_24 
REMARK   12  A    between atoms: C11_23  and  C12_26 
REMARK   13  A    between atoms: C12_26  and  O6_27 
REMARK   14  A    between atoms: C12_26  and  C13_29 
REMARK   15  A    between atoms: C13_29  and  N3_30 
REMARK   16  A    between atoms: C14_31  and  C15_32 
REMARK   17  A    between atoms: C15_32  and  N4_33 
ROOT
HETATM    1  C12 UNL     1      -7.588  -0.646   4.742  1.00  0.00     0.168 C 
ENDROOT
BRANCH   1   2
HETATM    2  C11 UNL     1      -8.894  -0.175   4.113  1.00  0.00     0.184 C 
BRANCH   2   3
HETATM    3  C10 UNL     1     -10.047  -0.143   5.079  1.00  0.00     0.218 C 
BRANCH   3   4
HETATM    4  C2  UNL     1     -11.035   0.939   4.649  1.00  0.00     0.168 C 
BRANCH   4   5
HETATM    5  C1  UNL     1     -12.340   0.715   5.372  1.00  0.00     0.174 C 
HETATM    6  N1  UNL     1     -13.382   0.410   4.695  1.00  0.00    -0.378 N 
ATOM      7  H12 UNL     1     -14.265   0.259   5.184  1.00  0.00     0.158 HD
ATOM      8  H11 UNL     1     -13.288   0.330   3.683  1.00  0.00     0.158 HD
BRANCH   5   9
HETATM    9  O1  UNL     1     -12.468   0.826   6.762  1.00  0.00    -0.344 OA
ATOM     10  H1  UNL     1     -11.844   0.360   7.306  1.00  0.00     0.219 HD
ENDBRANCH   5   9
ENDBRANCH   4   5
BRANCH   4  11
HETATM   11  N2  UNL     1     -11.053   1.290   3.324  1.00  0.00    -0.377 NA
BRANCH  11  12
HETATM   12  C3  UNL     1     -11.071   1.636   2.015  1.00  0.00     0.225 C 
BRANCH  12  13
HETATM   13  O2  UNL     1     -11.919   1.173   1.125  1.00  0.00    -0.335 OA
ATOM     14  H2  UNL     1     -11.701   0.955   0.226  1.00  0.00     0.220 HD
ENDBRANCH  12  13
BRANCH  12  15
HETATM   15  C4  UNL     1     -10.139   2.597   1.388  1.00  0.00     0.029 A 
HETATM   16  C5  UNL     1     -10.671   3.614   0.631  1.00  0.00     0.020 A 
HETATM   17  C6  UNL     1      -9.858   4.555   0.031  1.00  0.00     0.037 A 
HETATM   18  C7  UNL     1      -8.487   4.506   0.169  1.00  0.00     0.065 A 
HETATM   19  C8  UNL     1      -7.971   3.466   0.940  1.00  0.00     0.037 A 
HETATM   20  C9  UNL     1      -8.787   2.516   1.548  1.00  0.00     0.020 A 
BRANCH  18  21
HETATM   21  O3  UNL     1      -7.663   5.467  -0.445  1.00  0.00    -0.361 OA
ATOM     22  H3  UNL     1      -7.600   6.349  -0.098  1.00  0.00     0.217 HD
ENDBRANCH  18  21
ENDBRANCH  12  15
ENDBRANCH  11  12
ENDBRANCH   4  11
ENDBRANCH   3   4
BRANCH   3  23
HETATM   23  O4  UNL     1     -10.776  -1.334   5.054  1.00  0.00    -0.386 OA
ATOM     24  H4  UNL     1     -10.180  -1.997   5.382  1.00  0.00     0.210 HD
ENDBRANCH   3  23
ENDBRANCH   2   3
BRANCH   2  25
HETATM   25  O5  UNL     1      -9.131  -1.094   3.083  1.00  0.00    -0.390 OA
ATOM     26  H5  UNL     1      -9.561  -0.673   2.347  1.00  0.00     0.210 HD
ENDBRANCH   2  25
ENDBRANCH   1   2
BRANCH   1  27
HETATM   27  O6  UNL     1      -7.913  -1.766   5.533  1.00  0.00    -0.391 OA
ATOM     28  H6  UNL     1      -8.295  -1.426   6.333  1.00  0.00     0.210 HD
ENDBRANCH   1  27
BRANCH   1  29
HETATM   29  C13 UNL     1      -7.070   0.507   5.523  1.00  0.00     0.168 C 
BRANCH  29  30
HETATM   30  N3  UNL     1      -6.431   0.255   6.768  1.00  0.00    -0.299 N 
HETATM   31  C14 UNL     1      -5.076   0.134   6.905  1.00  0.00     0.111 A 
HETATM   32  N5  UNL     1      -4.518  -0.076   8.109  1.00  0.00    -0.340 N 
HETATM   33  C16 UNL     1      -5.194  -0.186   9.257  1.00  0.00     0.105 A 
ATOM     34  H5  UNL     1      -3.502  -0.159   8.150  1.00  0.00     0.167 HD
HETATM   35  C17 UNL     1      -6.576  -0.066   9.154  1.00  0.00     0.114 A 
HETATM   36  C26 UNL     1      -4.508  -0.394  10.539  1.00  0.00     0.210 A 
HETATM   37  C18 UNL     1      -7.147   0.147   7.923  1.00  0.00     0.265 A 
HETATM   38  C19 UNL     1      -7.333  -0.160  10.396  1.00  0.00     0.201 A 
HETATM   39  O9  UNL     1      -8.407   0.254   7.832  1.00  0.00    -0.267 OA
HETATM   40  O10 UNL     1      -8.599  -0.049  10.290  1.00  0.00    -0.286 OA
HETATM   41  C20 UNL     1      -6.656  -0.366  11.674  1.00  0.00     0.029 A 
HETATM   42  C21 UNL     1      -7.399  -0.440  12.837  1.00  0.00     0.016 A 
HETATM   43  C25 UNL     1      -5.291  -0.483  11.778  1.00  0.00     0.030 A 
HETATM   44  C22 UNL     1      -6.767  -0.627  14.069  1.00  0.00     0.001 A 
HETATM   45  C23 UNL     1      -5.393  -0.747  14.182  1.00  0.00     0.001 A 
HETATM   46  C24 UNL     1      -4.680  -0.669  13.010  1.00  0.00     0.016 A 
HETATM   47  O11 UNL     1      -3.258  -0.498  10.609  1.00  0.00    -0.285 OA
BRANCH  31  48
HETATM   48  C15 UNL     1      -4.271   0.283   5.679  1.00  0.00     0.277 C 
BRANCH  48  49
HETATM   49  N4  UNL     1      -4.055  -0.975   5.042  1.00  0.00    -0.148 N 
HETATM   50  O7  UNL     1      -4.089  -1.105   3.819  1.00  0.00    -0.536 OA
HETATM   51  O8  UNL     1      -3.785  -2.137   5.766  1.00  0.00    -0.536 OA
ENDBRANCH  48  49
ENDBRANCH  31  48
ENDBRANCH  29  30
ENDBRANCH   1  29
TORSDOF 17
ENDMDL
MODEL 3
REMARK VINA RESULT: -9.103288590      2.460      3.952
REMARK  17 active torsions:
REMARK  status: ('A' for Active; 'I' for Inactive)
REMARK    1  A    between atoms: C1_4  and  O1_5 
REMARK    2  A    between atoms: C1_4  and  C2_7 
REMARK    3  A    between atoms: C2_7  and  N2_8 
REMARK    4  A    between atoms: C2_7  and  C10_20 
REMARK    5  A    between atoms: N2_8  and  C3_9 
REMARK    6  A    between atoms: C3_9  and  O2_10 
REMARK    7  A    between atoms: C3_9  and  C4_12 
REMARK    8  A    between atoms: C7_15  and  O3_16 
REMARK    9  A    between atoms: C10_20  and  O4_21 
REMARK   10  A    between atoms: C10_20  and  C11_23 
REMARK   11  A    between atoms: C11_23  and  O5_24 
REMARK   12  A    between atoms: C11_23  and  C12_26 
REMARK   13  A    between atoms: C12_26  and  O6_27 
REMARK   14  A    between atoms: C12_26  and  C13_29 
REMARK   15  A    between atoms: C13_29  and  N3_30 
REMARK   16  A    between atoms: C14_31  and  C15_32 
REMARK   17  A    between atoms: C15_32  and  N4_33 
ROOT
HETATM    1  C12 UNL     1      -7.498  -0.720   4.751  1.00  0.00     0.168 C 
ENDROOT
BRANCH   1   2
HETATM    2  C11 UNL     1      -8.800  -0.250   4.115  1.00  0.00     0.184 C 
BRANCH   2   3
HETATM    3  C10 UNL     1      -9.931  -0.111   5.098  1.00  0.00     0.218 C 
BRANCH   3   4
HETATM    4  C2  UNL     1     -10.940   0.904   4.566  1.00  0.00     0.168 C 
BRANCH   4   5
HETATM    5  C1  UNL     1     -12.264   0.672   5.250  1.00  0.00     0.174 C 
HETATM    6  N1  UNL     1     -12.380   0.951   6.492  1.00  0.00    -0.378 N 
ATOM      7  H12 UNL     1     -13.276   0.794   6.955  1.00  0.00     0.158 HD
ATOM      8  H11 UNL     1     -11.563   1.323   6.977  1.00  0.00     0.158 HD
BRANCH   5   9
HETATM    9  O1  UNL     1     -13.385   0.162   4.583  1.00  0.00    -0.344 OA
ATOM     10  H1  UNL     1     -14.191   0.663   4.618  1.00  0.00     0.219 HD
ENDBRANCH   5   9
ENDBRANCH   4   5
BRANCH   4  11
HETATM   11  N2  UNL     1     -10.917   1.174   3.221  1.00  0.00    -0.377 NA
BRANCH  11  12
HETATM   12  C3  UNL     1     -10.892   1.441   1.895  1.00  0.00     0.225 C 
BRANCH  12  13
HETATM   13  O2  UNL     1     -10.209   0.764   1.001  1.00  0.00    -0.335 OA
ATOM     14  H2  UNL     1      -9.499   1.114   0.477  1.00  0.00     0.220 HD
ENDBRANCH  12  13
BRANCH  12  15
HETATM   15  C4  UNL     1     -11.641   2.540   1.246  1.00  0.00     0.029 A 
HETATM   16  C5  UNL     1     -13.014   2.458   1.219  1.00  0.00     0.020 A 
HETATM   17  C6  UNL     1     -13.775   3.456   0.643  1.00  0.00     0.037 A 
HETATM   18  C7  UNL     1     -13.185   4.567   0.077  1.00  0.00     0.065 A 
HETATM   19  C8  UNL     1     -11.793   4.626   0.117  1.00  0.00     0.037 A 
HETATM   20  C9  UNL     1     -11.023   3.624   0.696  1.00  0.00     0.020 A 
BRANCH  18  21
HETATM   21  O3  UNL     1     -13.965   5.581  -0.508  1.00  0.00    -0.361 OA
ATOM     22  H3  UNL     1     -13.654   6.477  -0.542  1.00  0.00     0.217 HD
ENDBRANCH  18  21
ENDBRANCH  12  15
ENDBRANCH  11  12
ENDBRANCH   4  11
ENDBRANCH   3   4
BRANCH   3  23
HETATM   23  O4  UNL     1     -10.649  -1.302   5.233  1.00  0.00    -0.386 OA
ATOM     24  H4  UNL     1     -10.736  -1.434   6.171  1.00  0.00     0.210 HD
ENDBRANCH   3  23
ENDBRANCH   2   3
BRANCH   2  25
HETATM   25  O5  UNL     1      -9.090  -1.231   3.158  1.00  0.00    -0.390 OA
ATOM     26  H5  UNL     1      -9.365  -2.039   3.574  1.00  0.00     0.210 HD
ENDBRANCH   2  25
ENDBRANCH   1   2
BRANCH   1  27
HETATM   27  O6  UNL     1      -7.829  -1.832   5.552  1.00  0.00    -0.391 OA
ATOM     28  H6  UNL     1      -7.015  -2.132   5.940  1.00  0.00     0.210 HD
ENDBRANCH   1  27
BRANCH   1  29
HETATM   29  C13 UNL     1      -6.977   0.438   5.522  1.00  0.00     0.168 C 
BRANCH  29  30
HETATM   30  N3  UNL     1      -6.343   0.195   6.772  1.00  0.00    -0.299 N 
HETATM   31  C14 UNL     1      -4.989   0.075   6.916  1.00  0.00     0.111 A 
HETATM   32  N5  UNL     1      -4.436  -0.126   8.123  1.00  0.00    -0.340 N 
HETATM   33  C16 UNL     1      -5.117  -0.226   9.269  1.00  0.00     0.105 A 
ATOM     34  H5  UNL     1      -3.420  -0.209   8.169  1.00  0.00     0.167 HD
HETATM   35  C17 UNL     1      -6.499  -0.106   9.159  1.00  0.00     0.114 A 
HETATM   36  C26 UNL     1      -4.436  -0.424  10.555  1.00  0.00     0.210 A 
HETATM   37  C18 UNL     1      -7.064   0.097   7.925  1.00  0.00     0.265 A 
HETATM   38  C19 UNL     1      -7.261  -0.189  10.399  1.00  0.00     0.201 A 
HETATM   39  O9  UNL     1      -8.324   0.205   7.827  1.00  0.00    -0.267 OA
HETATM   40  O10 UNL     1      -8.526  -0.078  10.287  1.00  0.00    -0.286 OA
HETATM   41  C20 UNL     1      -6.589  -0.385  11.682  1.00  0.00     0.029 A 
HETATM   42  C21 UNL     1      -7.337  -0.449  12.842  1.00  0.00     0.016 A 
HETATM   43  C25 UNL     1      -5.224  -0.502  11.792  1.00  0.00     0.030 A 
HETATM   44  C22 UNL     1      -6.710  -0.626  14.078  1.00  0.00     0.001 A 
HETATM   45  C23 UNL     1      -5.337  -0.746  14.198  1.00  0.00     0.001 A 
HETATM   46  C24 UNL     1      -4.618  -0.679  13.028  1.00  0.00     0.016 A 
HETATM   47  O11 UNL     1      -3.187  -0.529  10.632  1.00  0.00    -0.285 OA
BRANCH  31  48
HETATM   48  C15 UNL     1      -4.179   0.212   5.691  1.00  0.00     0.277 C 
BRANCH  48  49
HETATM   49  N4  UNL     1      -4.030  -1.038   5.021  1.00  0.00    -0.148 N 
HETATM   50  O7  UNL     1      -4.114  -1.140   3.798  1.00  0.00    -0.536 OA
HETATM   51  O8  UNL     1      -3.773  -2.224   5.711  1.00  0.00    -0.536 OA
ENDBRANCH  48  49
ENDBRANCH  31  48
ENDBRANCH  29  30
ENDBRANCH   1  29
TORSDOF 17
ENDMDL
MODEL 4
REMARK VINA RESULT: -9.067956351      0.846      1.144
REMARK  17 active torsions:
REMARK  status: ('A' for Active; 'I' for Inactive)
REMARK    1  A    between atoms: C1_4  and  O1_5 
REMARK    2  A    between atoms: C1_4  and  C2_7 
REMARK    3  A    between atoms: C2_7  and  N2_8 
REMARK    4  A    between atoms: C2_7  and  C10_20 
REMARK    5  A    between atoms: N2_8  and  C3_9 
REMARK    6  A    between atoms: C3_9  and  O2_10 
REMARK    7  A    between atoms: C3_9  and  C4_12 
REMARK    8  A    between atoms: C7_15  and  O3_16 
REMARK    9  A    between atoms: C10_20  and  O4_21 
REMARK   10  A    between atoms: C10_20  and  C11_23 
REMARK   11  A    between atoms: C11_23  and  O5_24 
REMARK   12  A    between atoms: C11_23  and  C12_26 
REMARK   13  A    between atoms: C12_26  and  O6_27 
REMARK   14  A    between atoms: C12_26  and  C13_29 
REMARK   15  A    between atoms: C13_29  and  N3_30 
REMARK   16  A    between atoms: C14_31  and  C15_32 
REMARK   17  A    between atoms: C15_32  and  N4_33 
ROOT
HETATM    1  C12 UNL     1      -4.219  -0.717   4.712  1.00  0.00     0.168 C 
ENDROOT
BRANCH   1   2
HETATM    2  C11 UNL     1      -5.647  -0.874   4.205  1.00  0.00     0.184 C 
BRANCH   2   3
HETATM    3  C10 UNL     1      -6.106  -2.306   4.140  1.00  0.00     0.218 C 
BRANCH   3   4
HETATM    4  C2  UNL     1      -7.627  -2.343   4.012  1.00  0.00     0.168 C 
BRANCH   4   5
HETATM    5  C1  UNL     1      -7.986  -2.973   2.690  1.00  0.00     0.174 C 
HETATM    6  N1  UNL     1      -8.077  -2.233   1.651  1.00  0.00    -0.378 N 
ATOM      7  H12 UNL     1      -8.320  -2.659   0.756  1.00  0.00     0.158 HD
ATOM      8  H11 UNL     1      -7.902  -1.234   1.759  1.00  0.00     0.158 HD
BRANCH   5   9
HETATM    9  O1  UNL     1      -8.226  -4.345   2.542  1.00  0.00    -0.344 OA
ATOM     10  H1  UNL     1      -8.156  -4.719   1.671  1.00  0.00     0.219 HD
ENDBRANCH   5   9
ENDBRANCH   4   5
BRANCH   4  11
HETATM   11  N2  UNL     1      -8.326  -1.244   4.443  1.00  0.00    -0.377 NA
BRANCH  11  12
HETATM   12  C3  UNL     1      -9.014  -0.159   4.869  1.00  0.00     0.225 C 
BRANCH  12  13
HETATM   13  O2  UNL     1      -9.077   0.253   6.115  1.00  0.00    -0.335 OA
ATOM     14  H2  UNL     1      -8.687   1.054   6.445  1.00  0.00     0.220 HD
ENDBRANCH  12  13
BRANCH  12  15
HETATM   15  C4  UNL     1      -9.798   0.735   3.991  1.00  0.00     0.029 A 
HETATM   16  C5  UNL     1      -9.341   0.948   2.711  1.00  0.00     0.020 A 
HETATM   17  C6  UNL     1     -10.033   1.759   1.833  1.00  0.00     0.037 A 
HETATM   18  C7  UNL     1     -11.204   2.382   2.210  1.00  0.00     0.065 A 
HETATM   19  C8  UNL     1     -11.647   2.152   3.511  1.00  0.00     0.037 A 
HETATM   20  C9  UNL     1     -10.953   1.335   4.399  1.00  0.00     0.020 A 
BRANCH  18  21
HETATM   21  O3  UNL     1     -11.906   3.207   1.312  1.00  0.00    -0.361 OA
ATOM     22  H3  UNL     1     -12.428   3.936   1.625  1.00  0.00     0.217 HD
ENDBRANCH  18  21
ENDBRANCH  12  15
ENDBRANCH  11  12
ENDBRANCH   4  11
ENDBRANCH   3   4
BRANCH   3  23
HETATM   23  O4  UNL     1      -5.628  -2.951   2.996  1.00  0.00    -0.386 OA
ATOM     24  H4  UNL     1      -4.801  -3.338   3.257  1.00  0.00     0.210 HD
ENDBRANCH   3  23
ENDBRANCH   2   3
BRANCH   2  25
HETATM   25  O5  UNL     1      -5.626  -0.299   2.928  1.00  0.00    -0.390 OA
ATOM     26  H5  UNL     1      -5.736   0.643   2.980  1.00  0.00     0.210 HD
ENDBRANCH   2  25
ENDBRANCH   1   2
BRANCH   1  27
HETATM   27  O6  UNL     1      -3.899  -1.923   5.368  1.00  0.00    -0.391 OA
ATOM     28  H6  UNL     1      -2.952  -1.998   5.339  1.00  0.00     0.210 HD
ENDBRANCH   1  27
BRANCH   1  29
HETATM   29  C13 UNL     1      -4.229   0.467   5.608  1.00  0.00     0.168 C 
BRANCH  29  30
HETATM   30  N3  UNL     1      -4.127   0.261   7.011  1.00  0.00    -0.299 N 
HETATM   31  C14 UNL     1      -2.937   0.258   7.684  1.00  0.00     0.111 A 
HETATM   32  N5  UNL     1      -2.894   0.087   9.016  1.00  0.00    -0.340 N 
HETATM   33  C16 UNL     1      -3.964  -0.091   9.799  1.00  0.00     0.105 A 
ATOM     34  H5  UNL     1      -1.978   0.093   9.464  1.00  0.00     0.167 HD
HETATM   35  C17 UNL     1      -5.192  -0.091   9.146  1.00  0.00     0.114 A 
HETATM   36  C26 UNL     1      -3.836  -0.249  11.253  1.00  0.00     0.210 A 
HETATM   37  C18 UNL     1      -5.235   0.082   7.784  1.00  0.00     0.265 A 
HETATM   38  C19 UNL     1      -6.375  -0.261   9.981  1.00  0.00     0.201 A 
HETATM   39  O9  UNL     1      -6.356   0.079   7.192  1.00  0.00    -0.267 OA
HETATM   40  O10 UNL     1      -7.495  -0.260   9.373  1.00  0.00    -0.286 OA
HETATM   41  C20 UNL     1      -6.254  -0.418  11.429  1.00  0.00     0.029 A 
HETATM   42  C21 UNL     1      -7.393  -0.566  12.197  1.00  0.00     0.016 A 
HETATM   43  C25 UNL     1      -5.042  -0.417  12.076  1.00  0.00     0.030 A 
HETATM   44  C22 UNL     1      -7.297  -0.708  13.584  1.00  0.00     0.001 A 
HETATM   45  C23 UNL     1      -6.080  -0.709  14.242  1.00  0.00     0.001 A 
HETATM   46  C24 UNL     1      -4.964  -0.559  13.454  1.00  0.00     0.016 A 
HETATM   47  O11 UNL     1      -2.717  -0.245  11.822  1.00  0.00    -0.285 OA
BRANCH  31  48
HETATM   48  C15 UNL     1      -1.722   0.486   6.881  1.00  0.00     0.277 C 
BRANCH  48  49
HETATM   49  N4  UNL     1      -0.644   0.956   7.688  1.00  0.00    -0.148 N 
HETATM   50  O7  UNL     1      -0.495   2.148   7.954  1.00  0.00    -0.536 OA
HETATM   51  O8  UNL     1       0.307   0.092   8.233  1.00  0.00    -0.536 OA
ENDBRANCH  48  49
ENDBRANCH  31  48
ENDBRANCH  29  30
ENDBRANCH   1  29
TORSDOF 17
ENDMDL
MODEL 5
REMARK VINA RESULT: -8.820941906      1.267      1.772
REMARK  17 active torsions:
REMARK  status: ('A' for Active; 'I' for Inactive)
REMARK    1  A    between atoms: C1_4  and  O1_5 
REMARK    2  A    between atoms: C1_4  and  C2_7 
REMARK    3  A    between atoms: C2_7  and  N2_8 
REMARK    4  A    between atoms: C2_7  and  C10_20 
REMARK    5  A    between atoms: N2_8  and  C3_9 
REMARK    6  A    between atoms: C3_9  and  O2_10 
REMARK    7  A    between atoms: C3_9  and  C4_12 
REMARK    8  A    between atoms: C7_15  and  O3_16 
REMARK    9  A    between atoms: C10_20  and  O4_21 
REMARK   10  A    between atoms: C10_20  and  C11_23 
REMARK   11  A    between atoms: C11_23  and  O5_24 
REMARK   12  A    between atoms: C11_23  and  C12_26 
REMARK   13  A    between atoms: C12_26  and  O6_27 
REMARK   14  A    between atoms: C12_26  and  C13_29 
REMARK   15  A    between atoms: C13_29  and  N3_30 
REMARK   16  A    between atoms: C14_31  and  C15_32 
REMARK   17  A    between atoms: C15_32  and  N4_33 
ROOT
HETATM    1  C12 UNL     1      -4.169  -0.366   4.709  1.00  0.00     0.168 C 
ENDROOT
BRANCH   1   2
HETATM    2  C11 UNL     1      -4.908   0.129   3.472  1.00  0.00     0.184 C 
BRANCH   2   3
HETATM    3  C10 UNL     1      -5.213  -0.960   2.480  1.00  0.00     0.218 C 
BRANCH   3   4
HETATM    4  C2  UNL     1      -6.726  -1.083   2.314  1.00  0.00     0.168 C 
BRANCH   4   5
HETATM    5  C1  UNL     1      -7.152  -0.245   1.135  1.00  0.00     0.174 C 
HETATM    6  N1  UNL     1      -7.886  -0.771   0.230  1.00  0.00    -0.378 N 
ATOM      7  H12 UNL     1      -8.174  -0.205  -0.568  1.00  0.00     0.158 HD
ATOM      8  H11 UNL     1      -8.157  -1.748   0.343  1.00  0.00     0.158 HD
BRANCH   5   9
HETATM    9  O1  UNL     1      -6.779   1.097   0.981  1.00  0.00    -0.344 OA
ATOM     10  H1  UNL     1      -7.272   1.629   0.367  1.00  0.00     0.219 HD
ENDBRANCH   5   9
ENDBRANCH   4   5
BRANCH   4  11
HETATM   11  N2  UNL     1      -7.490  -1.077   3.454  1.00  0.00    -0.377 NA
BRANCH  11  12
HETATM   12  C3  UNL     1      -8.242  -1.071   4.578  1.00  0.00     0.225 C 
BRANCH  12  13
HETATM   13  O2  UNL     1      -8.012  -1.804   5.643  1.00  0.00    -0.335 OA
ATOM     14  H2  UNL     1      -8.575  -1.848   6.407  1.00  0.00     0.220 HD
ENDBRANCH  12  13
BRANCH  12  15
HETATM   15  C4  UNL     1      -9.441  -0.229   4.781  1.00  0.00     0.029 A 
HETATM   16  C5  UNL     1     -10.402  -0.673   5.659  1.00  0.00     0.020 A 
HETATM   17  C6  UNL     1     -11.538   0.071   5.908  1.00  0.00     0.037 A 
HETATM   18  C7  UNL     1     -11.748   1.283   5.284  1.00  0.00     0.065 A 
HETATM   19  C8  UNL     1     -10.760   1.712   4.399  1.00  0.00     0.037 A 
HETATM   20  C9  UNL     1      -9.614   0.966   4.147  1.00  0.00     0.020 A 
BRANCH  18  21
HETATM   21  O3  UNL     1     -12.907   2.037   5.541  1.00  0.00    -0.361 OA
ATOM     22  H3  UNL     1     -13.056   2.867   5.103  1.00  0.00     0.217 HD
ENDBRANCH  18  21
ENDBRANCH  12  15
ENDBRANCH  11  12
ENDBRANCH   4  11
ENDBRANCH   3   4
BRANCH   3  23
HETATM   23  O4  UNL     1      -4.731  -0.651   1.205  1.00  0.00    -0.386 OA
ATOM     24  H4  UNL     1      -4.213  -1.404   0.946  1.00  0.00     0.210 HD
ENDBRANCH   3  23
ENDBRANCH   2   3
BRANCH   2  25
HETATM   25  O5  UNL     1      -4.046   1.083   2.915  1.00  0.00    -0.390 OA
ATOM     26  H5  UNL     1      -3.233   0.680   2.632  1.00  0.00     0.210 HD
ENDBRANCH   2  25
ENDBRANCH   1   2
BRANCH   1  27
HETATM   27  O6  UNL     1      -4.892  -1.481   5.180  1.00  0.00    -0.391 OA
ATOM     28  H6  UNL     1      -4.245  -2.129   5.434  1.00  0.00     0.210 HD
ENDBRANCH   1  27
BRANCH   1  29
HETATM   29  C13 UNL     1      -4.147   0.776   5.658  1.00  0.00     0.168 C 
BRANCH  29  30
HETATM   30  N3  UNL     1      -4.063   0.503   7.051  1.00  0.00    -0.299 N 
HETATM   31  C14 UNL     1      -2.881   0.463   7.738  1.00  0.00     0.111 A 
HETATM   32  N5  UNL     1      -2.855   0.229   9.060  1.00  0.00    -0.340 N 
HETATM   33  C16 UNL     1      -3.935   0.018   9.820  1.00  0.00     0.105 A 
ATOM     34  H5  UNL     1      -1.944   0.210   9.519  1.00  0.00     0.167 HD
HETATM   35  C17 UNL     1      -5.155   0.054   9.153  1.00  0.00     0.114 A 
HETATM   36  C26 UNL     1      -3.826  -0.210  11.267  1.00  0.00     0.210 A 
HETATM   37  C18 UNL     1      -5.181   0.291   7.802  1.00  0.00     0.265 A 
HETATM   38  C19 UNL     1      -6.348  -0.151   9.966  1.00  0.00     0.201 A 
HETATM   39  O9  UNL     1      -6.295   0.321   7.196  1.00  0.00    -0.267 OA
HETATM   40  O10 UNL     1      -7.461  -0.117   9.345  1.00  0.00    -0.286 OA
HETATM   41  C20 UNL     1      -6.246  -0.378  11.406  1.00  0.00     0.029 A 
HETATM   42  C21 UNL     1      -7.394  -0.557  12.152  1.00  0.00     0.016 A 
HETATM   43  C25 UNL     1      -5.041  -0.411  12.066  1.00  0.00     0.030 A 
HETATM   44  C22 UNL     1      -7.316  -0.765  13.532  1.00  0.00     0.001 A 
HETATM   45  C23 UNL     1      -6.107  -0.802  14.204  1.00  0.00     0.001 A 
HETATM   46  C24 UNL     1      -4.981  -0.620  13.437  1.00  0.00     0.016 A 
HETATM   47  O11 UNL     1      -2.713  -0.236  11.849  1.00  0.00    -0.285 OA
BRANCH  31  48
HETATM   48  C15 UNL     1      -1.655   0.725   6.961  1.00  0.00     0.277 C 
BRANCH  48  49
HETATM   49  N4  UNL     1      -0.554   1.035   7.813  1.00  0.00    -0.148 N 
HETATM   50  O7  UNL     1      -0.281   2.190   8.136  1.00  0.00    -0.536 OA
HETATM   51  O8  UNL     1       0.278   0.046   8.339  1.00  0.00    -0.536 OA
ENDBRANCH  48  49
ENDBRANCH  31  48
ENDBRANCH  29  30
ENDBRANCH   1  29
TORSDOF 17
ENDMDL
