MODEL 1
REMARK VINA RESULT: -6.371999851      0.000      0.000
REMARK  7 active torsions:
REMARK  status: ('A' for Active; 'I' for Inactive)
REMARK    1  A    between atoms: N1_2  and  C3_4 
REMARK    2  A    between atoms: C4_7  and  N3_8 
REMARK    3  A    between atoms: N3_8  and  C5_10 
REMARK    4  A    between atoms: C5_10  and  C6_11 
REMARK    5  A    between atoms: C6_11  and  C7_12 
REMARK    6  A    between atoms: C7_12  and  C8_13 
REMARK    7  A    between atoms: C8_13  and  N4_14 
ROOT
HETATM    1  C3  UNL     1      -0.429  -8.138  33.745  1.00  0.00     0.126 A 
HETATM    2  N2  UNL     1      -0.668  -7.260  34.728  1.00  0.00    -0.176 N 
ATOM      3  H2  UNL     1      -0.861  -6.290  34.481  1.00  0.00     0.186 HD
HETATM    4  C4  UNL     1      -0.664  -7.612  36.054  1.00  0.00     0.679 A 
HETATM    5  N5  UNL     1      -0.414  -8.880  36.412  1.00  0.00    -0.195 N 
ATOM      6  H5  UNL     1      -0.412  -9.141  37.398  1.00  0.00     0.184 HD
HETATM    7  C9  UNL     1      -0.166  -9.806  35.468  1.00  0.00     0.036 A 
HETATM    8  C10 UNL     1      -0.172  -9.438  34.116  1.00  0.00     0.009 A 
HETATM    9  C11 UNL     1       0.115 -10.510  33.162  1.00  0.00     0.044 C 
HETATM   10  C12 UNL     1       1.351 -11.295  33.590  1.00  0.00     0.005 C 
HETATM   11  C13 UNL     1       1.406 -11.568  35.055  1.00  0.00     0.006 C 
HETATM   12  C14 UNL     1       0.118 -11.233  35.781  1.00  0.00     0.058 C 
ENDROOT
BRANCH   4  13
HETATM   13  N3  UNL     1      -0.901  -6.718  36.946  1.00  0.00    -0.226 N 
ATOM     14  H3  UNL     1      -1.527  -6.978  37.708  1.00  0.00     0.177 HD
BRANCH  13  15
HETATM   15  C5  UNL     1      -0.367  -5.390  36.969  1.00  0.00     0.138 C 
BRANCH  15  16
HETATM   16  C6  UNL     1       1.137  -5.371  36.791  1.00  0.00     0.022 C 
BRANCH  16  17
HETATM   17  C7  UNL     1       1.521  -4.105  36.018  1.00  0.00     0.029 C 
BRANCH  17  18
HETATM   18  C8  UNL     1       1.653  -4.505  34.557  1.00  0.00     0.229 C 
BRANCH  18  19
HETATM   19  N4  UNL     1       0.534  -3.883  33.862  1.00  0.00    -0.079 N 
ATOM     20  H43 UNL     1      -0.235  -3.624  34.481  1.00  0.00     0.274 HD
ATOM     21  H42 UNL     1       0.740  -2.945  33.520  1.00  0.00     0.274 HD
ATOM     22  H41 UNL     1       0.260  -4.532  33.125  1.00  0.00     0.274 HD
ENDBRANCH  18  19
ENDBRANCH  17  18
ENDBRANCH  16  17
ENDBRANCH  15  16
ENDBRANCH  13  15
ENDBRANCH   4  13
BRANCH   1  23
HETATM   23  N1  UNL     1      -0.449  -7.761  32.381  1.00  0.00    -0.375 N 
HETATM   24  C1  UNL     1      -1.548  -7.851  31.478  1.00  0.00     0.150 C 
HETATM   25  C2  UNL     1       0.811  -7.217  31.849  1.00  0.00     0.150 C 
ENDBRANCH   1  23
TORSDOF 7
ENDMDL
MODEL 2
REMARK VINA RESULT: -6.368818940      3.457      5.385
REMARK  7 active torsions:
REMARK  status: ('A' for Active; 'I' for Inactive)
REMARK    1  A    between atoms: N1_2  and  C3_4 
REMARK    2  A    between atoms: C4_7  and  N3_8 
REMARK    3  A    between atoms: N3_8  and  C5_10 
REMARK    4  A    between atoms: C5_10  and  C6_11 
REMARK    5  A    between atoms: C6_11  and  C7_12 
REMARK    6  A    between atoms: C7_12  and  C8_13 
REMARK    7  A    between atoms: C8_13  and  N4_14 
ROOT
HETATM    1  C3  UNL     1      -1.776  -3.766  31.179  1.00  0.00     0.126 A 
HETATM    2  N2  UNL     1      -1.513  -3.824  32.491  1.00  0.00    -0.176 N 
ATOM      3  H2  UNL     1      -1.902  -3.103  33.099  1.00  0.00     0.186 HD
HETATM    4  C4  UNL     1      -0.744  -4.811  33.051  1.00  0.00     0.679 A 
HETATM    5  N5  UNL     1      -0.218  -5.773  32.279  1.00  0.00    -0.195 N 
ATOM      6  H5  UNL     1       0.354  -6.507  32.696  1.00  0.00     0.184 HD
HETATM    7  C9  UNL     1      -0.447  -5.767  30.953  1.00  0.00     0.036 A 
HETATM    8  C10 UNL     1      -1.235  -4.755  30.389  1.00  0.00     0.009 A 
HETATM    9  C11 UNL     1      -1.423  -4.826  28.939  1.00  0.00     0.044 C 
HETATM   10  C12 UNL     1      -0.088  -5.046  28.234  1.00  0.00     0.005 C 
HETATM   11  C13 UNL     1       0.793  -6.034  28.920  1.00  0.00     0.006 C 
HETATM   12  C14 UNL     1       0.096  -6.799  30.027  1.00  0.00     0.058 C 
ENDROOT
BRANCH   4  13
HETATM   13  N3  UNL     1      -0.531  -4.804  34.319  1.00  0.00    -0.226 N 
ATOM     14  H3  UNL     1      -0.945  -4.040  34.853  1.00  0.00     0.177 HD
BRANCH  13  15
HETATM   15  C5  UNL     1       0.233  -5.769  35.049  1.00  0.00     0.138 C 
BRANCH  15  16
HETATM   16  C6  UNL     1       0.254  -5.479  36.535  1.00  0.00     0.022 C 
BRANCH  16  17
HETATM   17  C7  UNL     1       1.262  -4.354  36.799  1.00  0.00     0.029 C 
BRANCH  17  18
HETATM   18  C8  UNL     1       0.459  -3.143  37.248  1.00  0.00     0.229 C 
BRANCH  18  19
HETATM   19  N4  UNL     1       0.862  -2.044  36.380  1.00  0.00    -0.079 N 
ATOM     20  H43 UNL     1       1.815  -1.724  36.547  1.00  0.00     0.274 HD
ATOM     21  H42 UNL     1       0.991  -2.322  35.408  1.00  0.00     0.274 HD
ATOM     22  H41 UNL     1       0.161  -1.314  36.503  1.00  0.00     0.274 HD
ENDBRANCH  18  19
ENDBRANCH  17  18
ENDBRANCH  16  17
ENDBRANCH  15  16
ENDBRANCH  13  15
ENDBRANCH   4  13
BRANCH   1  23
HETATM   23  N1  UNL     1      -2.583  -2.747  30.619  1.00  0.00    -0.375 N 
HETATM   24  C1  UNL     1      -3.976  -2.814  30.327  1.00  0.00     0.150 C 
HETATM   25  C2  UNL     1      -1.894  -1.484  30.308  1.00  0.00     0.150 C 
ENDBRANCH   1  23
TORSDOF 7
ENDMDL
MODEL 3
REMARK VINA RESULT: -6.362473489      1.157      1.163
REMARK  7 active torsions:
REMARK  status: ('A' for Active; 'I' for Inactive)
REMARK    1  A    between atoms: N1_2  and  C3_4 
REMARK    2  A    between atoms: C4_7  and  N3_8 
REMARK    3  A    between atoms: N3_8  and  C5_10 
REMARK    4  A    between atoms: C5_10  and  C6_11 
REMARK    5  A    between atoms: C6_11  and  C7_12 
REMARK    6  A    between atoms: C7_12  and  C8_13 
REMARK    7  A    between atoms: C8_13  and  N4_14 
ROOT
HETATM    1  C3  UNL     1      -0.569  -8.665  33.454  1.00  0.00     0.126 A 
HETATM    2  N2  UNL     1      -0.654  -7.436  33.980  1.00  0.00    -0.176 N 
ATOM      3  H2  UNL     1      -0.892  -6.658  33.365  1.00  0.00     0.186 HD
HETATM    4  C4  UNL     1      -0.433  -7.180  35.309  1.00  0.00     0.679 A 
HETATM    5  N5  UNL     1      -0.118  -8.182  36.142  1.00  0.00    -0.195 N 
ATOM      6  H5  UNL     1       0.046  -7.992  37.131  1.00  0.00     0.184 HD
HETATM    7  C9  UNL     1      -0.017  -9.439  35.671  1.00  0.00     0.036 A 
HETATM    8  C10 UNL     1      -0.244  -9.691  34.312  1.00  0.00     0.009 A 
HETATM    9  C11 UNL     1      -0.104 -11.086  33.890  1.00  0.00     0.044 C 
HETATM   10  C12 UNL     1       1.192 -11.684  34.428  1.00  0.00     0.005 C 
HETATM   11  C13 UNL     1       1.484 -11.300  35.840  1.00  0.00     0.006 C 
HETATM   12  C14 UNL     1       0.327 -10.606  36.529  1.00  0.00     0.058 C 
ENDROOT
BRANCH   4  13
HETATM   13  N3  UNL     1      -0.531  -5.976  35.746  1.00  0.00    -0.226 N 
ATOM     14  H3  UNL     1      -0.925  -5.283  35.109  1.00  0.00     0.177 HD
BRANCH  13  15
HETATM   15  C5  UNL     1      -0.139  -5.517  37.043  1.00  0.00     0.138 C 
BRANCH  15  16
HETATM   16  C6  UNL     1       0.782  -4.317  36.974  1.00  0.00     0.022 C 
BRANCH  16  17
HETATM   17  C7  UNL     1       2.151  -4.780  36.463  1.00  0.00     0.029 C 
BRANCH  17  18
HETATM   18  C8  UNL     1       2.434  -3.995  35.192  1.00  0.00     0.229 C 
BRANCH  18  19
HETATM   19  N4  UNL     1       2.121  -2.605  35.494  1.00  0.00    -0.079 N 
ATOM     20  H43 UNL     1       1.804  -2.074  34.683  1.00  0.00     0.274 HD
ATOM     21  H42 UNL     1       1.278  -2.491  36.055  1.00  0.00     0.274 HD
ATOM     22  H41 UNL     1       2.955  -2.215  35.933  1.00  0.00     0.274 HD
ENDBRANCH  18  19
ENDBRANCH  17  18
ENDBRANCH  16  17
ENDBRANCH  15  16
ENDBRANCH  13  15
ENDBRANCH   4  13
BRANCH   1  23
HETATM   23  N1  UNL     1      -0.811  -8.913  32.082  1.00  0.00    -0.375 N 
HETATM   24  C1  UNL     1      -2.033  -9.342  31.487  1.00  0.00     0.150 C 
HETATM   25  C2  UNL     1       0.333  -8.702  31.181  1.00  0.00     0.150 C 
ENDBRANCH   1  23
TORSDOF 7
ENDMDL
MODEL 4
REMARK VINA RESULT: -6.248900861      3.352      5.216
REMARK  7 active torsions:
REMARK  status: ('A' for Active; 'I' for Inactive)
REMARK    1  A    between atoms: N1_2  and  C3_4 
REMARK    2  A    between atoms: C4_7  and  N3_8 
REMARK    3  A    between atoms: N3_8  and  C5_10 
REMARK    4  A    between atoms: C5_10  and  C6_11 
REMARK    5  A    between atoms: C6_11  and  C7_12 
REMARK    6  A    between atoms: C7_12  and  C8_13 
REMARK    7  A    between atoms: C8_13  and  N4_14 
ROOT
HETATM    1  C3  UNL     1      -1.646  -3.867  31.274  1.00  0.00     0.126 A 
HETATM    2  N2  UNL     1      -1.417  -3.913  32.592  1.00  0.00    -0.176 N 
ATOM      3  H2  UNL     1      -1.801  -3.174  33.181  1.00  0.00     0.186 HD
HETATM    4  C4  UNL     1      -0.688  -4.912  33.185  1.00  0.00     0.679 A 
HETATM    5  N5  UNL     1      -0.169  -5.898  32.439  1.00  0.00    -0.195 N 
ATOM      6  H5  UNL     1       0.373  -6.641  32.879  1.00  0.00     0.184 HD
HETATM    7  C9  UNL     1      -0.365  -5.904  31.108  1.00  0.00     0.036 A 
HETATM    8  C10 UNL     1      -1.111  -4.880  30.511  1.00  0.00     0.009 A 
HETATM    9  C11 UNL     1      -1.265  -4.967  29.057  1.00  0.00     0.044 C 
HETATM   10  C12 UNL     1       0.081  -5.231  28.389  1.00  0.00     0.005 C 
HETATM   11  C13 UNL     1       0.918  -6.232  29.110  1.00  0.00     0.006 C 
HETATM   12  C14 UNL     1       0.175  -6.963  30.210  1.00  0.00     0.058 C 
ENDROOT
BRANCH   4  13
HETATM   13  N3  UNL     1      -0.506  -4.893  34.457  1.00  0.00    -0.226 N 
ATOM     14  H3  UNL     1      -0.940  -4.129  34.975  1.00  0.00     0.177 HD
BRANCH  13  15
HETATM   15  C5  UNL     1       0.248  -5.844  35.214  1.00  0.00     0.138 C 
BRANCH  15  16
HETATM   16  C6  UNL     1       0.325  -5.481  36.682  1.00  0.00     0.022 C 
BRANCH  16  17
HETATM   17  C7  UNL     1       0.875  -4.056  36.804  1.00  0.00     0.029 C 
BRANCH  17  18
HETATM   18  C8  UNL     1       2.233  -4.048  36.118  1.00  0.00     0.229 C 
BRANCH  18  19
HETATM   19  N4  UNL     1       2.330  -2.772  35.423  1.00  0.00    -0.079 N 
ATOM     20  H43 UNL     1       3.270  -2.564  35.086  1.00  0.00     0.274 HD
ATOM     21  H42 UNL     1       1.868  -2.769  34.514  1.00  0.00     0.274 HD
ATOM     22  H41 UNL     1       1.965  -2.069  36.065  1.00  0.00     0.274 HD
ENDBRANCH  18  19
ENDBRANCH  17  18
ENDBRANCH  16  17
ENDBRANCH  15  16
ENDBRANCH  13  15
ENDBRANCH   4  13
BRANCH   1  23
HETATM   23  N1  UNL     1      -2.411  -2.835  30.680  1.00  0.00    -0.375 N 
HETATM   24  C1  UNL     1      -1.947  -1.560  30.245  1.00  0.00     0.150 C 
HETATM   25  C2  UNL     1      -3.842  -3.124  30.496  1.00  0.00     0.150 C 
ENDBRANCH   1  23
TORSDOF 7
ENDMDL
MODEL 5
REMARK VINA RESULT: -6.197312500      4.768      8.127
REMARK  7 active torsions:
REMARK  status: ('A' for Active; 'I' for Inactive)
REMARK    1  A    between atoms: N1_2  and  C3_4 
REMARK    2  A    between atoms: C4_7  and  N3_8 
REMARK    3  A    between atoms: N3_8  and  C5_10 
REMARK    4  A    between atoms: C5_10  and  C6_11 
REMARK    5  A    between atoms: C6_11  and  C7_12 
REMARK    6  A    between atoms: C7_12  and  C8_13 
REMARK    7  A    between atoms: C8_13  and  N4_14 
ROOT
HETATM    1  C3  UNL     1       0.145  -5.818  31.418  1.00  0.00     0.126 A 
HETATM    2  N2  UNL     1       0.957  -6.201  30.425  1.00  0.00    -0.176 N 
ATOM      3  H2  UNL     1       1.790  -6.743  30.656  1.00  0.00     0.186 HD
HETATM    4  C4  UNL     1       0.717  -5.893  29.110  1.00  0.00     0.679 A 
HETATM    5  N5  UNL     1      -0.368  -5.182  28.774  1.00  0.00    -0.195 N 
ATOM      6  H5  UNL     1      -0.547  -4.954  27.796  1.00  0.00     0.184 HD
HETATM    7  C9  UNL     1      -1.221  -4.769  29.730  1.00  0.00     0.036 A 
HETATM    8  C10 UNL     1      -0.968  -5.087  31.070  1.00  0.00     0.009 A 
HETATM    9  C11 UNL     1      -1.946  -4.589  32.040  1.00  0.00     0.044 C 
HETATM   10  C12 UNL     1      -2.244  -3.114  31.793  1.00  0.00     0.005 C 
HETATM   11  C13 UNL     1      -2.384  -2.767  30.350  1.00  0.00     0.006 C 
HETATM   12  C14 UNL     1      -2.448  -3.978  29.441  1.00  0.00     0.058 C 
ENDROOT
BRANCH   4  13
HETATM   13  N3  UNL     1       1.540  -6.292  28.207  1.00  0.00    -0.226 N 
ATOM     14  H3  UNL     1       1.791  -7.281  28.214  1.00  0.00     0.177 HD
BRANCH  13  15
HETATM   15  C5  UNL     1       2.137  -5.478  27.194  1.00  0.00     0.138 C 
BRANCH  15  16
HETATM   16  C6  UNL     1       1.998  -6.083  25.813  1.00  0.00     0.022 C 
BRANCH  16  17
HETATM   17  C7  UNL     1       0.537  -5.953  25.368  1.00  0.00     0.029 C 
BRANCH  17  18
HETATM   18  C8  UNL     1       0.554  -5.723  23.865  1.00  0.00     0.229 C 
BRANCH  18  19
HETATM   19  N4  UNL     1      -0.841  -5.670  23.446  1.00  0.00    -0.079 N 
ATOM     20  H43 UNL     1      -1.147  -6.507  22.949  1.00  0.00     0.274 HD
ATOM     21  H42 UNL     1      -1.500  -5.736  24.221  1.00  0.00     0.274 HD
ATOM     22  H41 UNL     1      -0.941  -4.815  22.899  1.00  0.00     0.274 HD
ENDBRANCH  18  19
ENDBRANCH  17  18
ENDBRANCH  16  17
ENDBRANCH  15  16
ENDBRANCH  13  15
ENDBRANCH   4  13
BRANCH   1  23
HETATM   23  N1  UNL     1       0.401  -6.154  32.769  1.00  0.00    -0.375 N 
HETATM   24  C1  UNL     1      -0.136  -7.254  33.500  1.00  0.00     0.150 C 
HETATM   25  C2  UNL     1       1.326  -5.262  33.487  1.00  0.00     0.150 C 
ENDBRANCH   1  23
TORSDOF 7
ENDMDL
