MODEL 1
REMARK VINA RESULT: -7.798234146      0.000      0.000
REMARK  9 active torsions:
REMARK  status: ('A' for Active; 'I' for Inactive)
REMARK    1  A    between atoms: O1_2  and  C2_3 
REMARK    2  A    between atoms: C2_3  and  C3_4 
REMARK    3  A    between atoms: C3_4  and  O2_5 
REMARK    4  A    between atoms: O2_5  and  C4_6 
REMARK    5  A    between atoms: C6_8  and  O3_9 
REMARK    6  A    between atoms: C11_17  and  O5_18 
REMARK    7  A    between atoms: O5_18  and  C12_19 
REMARK    8  A    between atoms: C14_22  and  O7_23 
REMARK    9  A    between atoms: C19_29  and  O9_30 
ROOT
HETATM    1  C4  UNL     1      31.715  24.267  30.300  1.00  0.00     0.105 A 
HETATM    2  C5  UNL     1      31.005  25.315  29.765  1.00  0.00     0.079 A 
HETATM    3  C6  UNL     1      31.636  26.385  29.139  1.00  0.00     0.103 A 
HETATM    4  C7  UNL     1      33.012  26.422  29.038  1.00  0.00     0.126 A 
HETATM    5  O4  UNL     1      33.579  27.444  28.442  1.00  0.00    -0.306 OA
HETATM    6  C8  UNL     1      34.881  27.527  28.321  1.00  0.00     0.094 A 
HETATM    7  C9  UNL     1      35.470  28.615  27.685  1.00  0.00     0.060 A 
HETATM    8  C10 UNL     1      36.832  28.684  27.566  1.00  0.00     0.050 A 
HETATM    9 BR1  UNL     1      37.710  30.151  26.704  1.00  0.00    -0.048 Br
HETATM   10  C11 UNL     1      37.607  27.668  28.082  1.00  0.00     0.131 A 
HETATM   11  C14 UNL     1      37.070  26.554  28.730  1.00  0.00     0.120 A 
HETATM   12  C16 UNL     1      35.685  26.503  28.839  1.00  0.00     0.085 A 
HETATM   13  C17 UNL     1      35.131  25.418  29.468  1.00  0.00     0.203 A 
HETATM   14  O8  UNL     1      35.750  24.459  29.960  1.00  0.00    -0.286 OA
HETATM   15  C18 UNL     1      33.736  25.377  29.572  1.00  0.00     0.088 A 
HETATM   16  C19 UNL     1      33.117  24.336  30.181  1.00  0.00     0.116 A 
ENDROOT
BRANCH   1  17
HETATM   17  O2  UNL     1      31.194  23.178  30.925  1.00  0.00    -0.346 OA
BRANCH  17  18
HETATM   18  C3  UNL     1      30.285  22.217  30.538  1.00  0.00     0.201 C 
BRANCH  18  19
HETATM   19  C2  UNL     1      30.832  20.819  30.612  1.00  0.00     0.193 C 
BRANCH  19  20
HETATM   20  O1  UNL     1      32.204  20.795  30.572  1.00  0.00    -0.394 OA
HETATM   21  C1  UNL     1      32.775  20.018  31.547  1.00  0.00     0.201 C 
ENDBRANCH  19  20
ENDBRANCH  18  19
ENDBRANCH  17  18
ENDBRANCH   1  17
BRANCH  16  22
HETATM   22  O9  UNL     1      33.910  23.311  30.699  1.00  0.00    -0.357 OA
ATOM     23  H9  UNL     1      34.853  23.344  30.594  1.00  0.00     0.217 HD
ENDBRANCH  16  22
BRANCH   3  24
HETATM   24  O3  UNL     1      30.819  27.381  28.638  1.00  0.00    -0.358 OA
ATOM     25  H3  UNL     1      31.127  28.274  28.732  1.00  0.00     0.217 HD
ENDBRANCH   3  24
BRANCH  11  26
HETATM   26  O7  UNL     1      37.911  25.580  29.219  1.00  0.00    -0.352 OA
HETATM   27  C15 UNL     1      38.760  25.693  30.335  1.00  0.00     0.210 C 
ENDBRANCH  11  26
BRANCH  10  28
HETATM   28  O5  UNL     1      38.976  27.754  27.953  1.00  0.00    -0.275 OA
BRANCH  28  29
HETATM   29  C12 UNL     1      39.591  26.926  26.997  1.00  0.00     0.260 C 
HETATM   30  C13 UNL     1      38.995  26.735  25.639  1.00  0.00     0.126 C 
HETATM   31  O6  UNL     1      40.669  26.333  27.296  1.00  0.00    -0.265 OA
ENDBRANCH  28  29
ENDBRANCH  10  28
TORSDOF 9
ENDMDL
MODEL 2
REMARK VINA RESULT: -7.769756423      1.121      1.369
REMARK  9 active torsions:
REMARK  status: ('A' for Active; 'I' for Inactive)
REMARK    1  A    between atoms: O1_2  and  C2_3 
REMARK    2  A    between atoms: C2_3  and  C3_4 
REMARK    3  A    between atoms: C3_4  and  O2_5 
REMARK    4  A    between atoms: O2_5  and  C4_6 
REMARK    5  A    between atoms: C6_8  and  O3_9 
REMARK    6  A    between atoms: C11_17  and  O5_18 
REMARK    7  A    between atoms: O5_18  and  C12_19 
REMARK    8  A    between atoms: C14_22  and  O7_23 
REMARK    9  A    between atoms: C19_29  and  O9_30 
ROOT
HETATM    1  C4  UNL     1      31.786  23.748  30.430  1.00  0.00     0.105 A 
HETATM    2  C5  UNL     1      31.017  24.796  29.983  1.00  0.00     0.079 A 
HETATM    3  C6  UNL     1      31.584  25.924  29.400  1.00  0.00     0.103 A 
HETATM    4  C7  UNL     1      32.953  26.022  29.253  1.00  0.00     0.126 A 
HETATM    5  O4  UNL     1      33.458  27.098  28.699  1.00  0.00    -0.306 OA
HETATM    6  C8  UNL     1      34.751  27.239  28.537  1.00  0.00     0.094 A 
HETATM    7  C9  UNL     1      35.274  28.385  27.945  1.00  0.00     0.060 A 
HETATM    8  C10 UNL     1      36.627  28.515  27.783  1.00  0.00     0.050 A 
HETATM    9 BR1  UNL     1      37.416  30.062  26.978  1.00  0.00    -0.048 Br
HETATM   10  C11 UNL     1      37.458  27.502  28.211  1.00  0.00     0.131 A 
HETATM   11  C14 UNL     1      36.989  26.333  28.810  1.00  0.00     0.120 A 
HETATM   12  C16 UNL     1      35.611  26.220  28.965  1.00  0.00     0.085 A 
HETATM   13  C17 UNL     1      35.123  25.080  29.548  1.00  0.00     0.203 A 
HETATM   14  O8  UNL     1      35.796  24.120  29.960  1.00  0.00    -0.286 OA
HETATM   15  C18 UNL     1      33.735  24.977  29.699  1.00  0.00     0.088 A 
HETATM   16  C19 UNL     1      33.179  23.880  30.266  1.00  0.00     0.116 A 
ENDROOT
BRANCH   1  17
HETATM   17  O2  UNL     1      31.330  22.605  31.008  1.00  0.00    -0.346 OA
BRANCH  17  18
HETATM   18  C3  UNL     1      30.065  22.102  31.226  1.00  0.00     0.201 C 
BRANCH  18  19
HETATM   19  C2  UNL     1      29.951  21.321  32.506  1.00  0.00     0.193 C 
BRANCH  19  20
HETATM   20  O1  UNL     1      28.717  21.461  33.092  1.00  0.00    -0.394 OA
HETATM   21  C1  UNL     1      27.804  20.519  32.695  1.00  0.00     0.201 C 
ENDBRANCH  19  20
ENDBRANCH  18  19
ENDBRANCH  17  18
ENDBRANCH   1  17
BRANCH  16  22
HETATM   22  O9  UNL     1      34.028  22.859  30.695  1.00  0.00    -0.357 OA
ATOM     23  H9  UNL     1      34.809  22.653  30.195  1.00  0.00     0.217 HD
ENDBRANCH  16  22
BRANCH   3  24
HETATM   24  O3  UNL     1      30.711  26.914  28.987  1.00  0.00    -0.358 OA
ATOM     25  H3  UNL     1      31.000  27.812  29.101  1.00  0.00     0.217 HD
ENDBRANCH   3  24
BRANCH  11  26
HETATM   26  O7  UNL     1      37.883  25.366  29.211  1.00  0.00    -0.352 OA
HETATM   27  C15 UNL     1      38.773  25.451  30.298  1.00  0.00     0.210 C 
ENDBRANCH  11  26
BRANCH  10  28
HETATM   28  O5  UNL     1      38.817  27.650  28.038  1.00  0.00    -0.275 OA
BRANCH  28  29
HETATM   29  C12 UNL     1      39.426  26.908  27.010  1.00  0.00     0.260 C 
HETATM   30  C13 UNL     1      38.797  26.795  25.658  1.00  0.00     0.126 C 
HETATM   31  O6  UNL     1      40.528  26.326  27.238  1.00  0.00    -0.265 OA
ENDBRANCH  28  29
ENDBRANCH  10  28
TORSDOF 9
ENDMDL
MODEL 3
REMARK VINA RESULT: -7.631374406      0.936      1.333
REMARK  9 active torsions:
REMARK  status: ('A' for Active; 'I' for Inactive)
REMARK    1  A    between atoms: O1_2  and  C2_3 
REMARK    2  A    between atoms: C2_3  and  C3_4 
REMARK    3  A    between atoms: C3_4  and  O2_5 
REMARK    4  A    between atoms: O2_5  and  C4_6 
REMARK    5  A    between atoms: C6_8  and  O3_9 
REMARK    6  A    between atoms: C11_17  and  O5_18 
REMARK    7  A    between atoms: O5_18  and  C12_19 
REMARK    8  A    between atoms: C14_22  and  O7_23 
REMARK    9  A    between atoms: C19_29  and  O9_30 
ROOT
HETATM    1  C4  UNL     1      31.611  24.418  30.261  1.00  0.00     0.105 A 
HETATM    2  C5  UNL     1      30.992  25.473  29.633  1.00  0.00     0.079 A 
HETATM    3  C6  UNL     1      31.717  26.476  28.999  1.00  0.00     0.103 A 
HETATM    4  C7  UNL     1      33.097  26.437  28.983  1.00  0.00     0.126 A 
HETATM    5  O4  UNL     1      33.753  27.398  28.377  1.00  0.00    -0.306 OA
HETATM    6  C8  UNL     1      35.063  27.407  28.335  1.00  0.00     0.094 A 
HETATM    7  C9  UNL     1      35.748  28.430  27.687  1.00  0.00     0.060 A 
HETATM    8  C10 UNL     1      37.116  28.423  27.651  1.00  0.00     0.050 A 
HETATM    9 BR1  UNL     1      38.123  29.797  26.777  1.00  0.00    -0.048 Br
HETATM   10  C11 UNL     1      37.802  27.396  28.263  1.00  0.00     0.131 A 
HETATM   11  C14 UNL     1      37.168  26.346  28.928  1.00  0.00     0.120 A 
HETATM   12  C16 UNL     1      35.777  26.371  28.951  1.00  0.00     0.085 A 
HETATM   13  C17 UNL     1      35.129  25.350  29.594  1.00  0.00     0.203 A 
HETATM   14  O8  UNL     1      35.664  24.386  30.169  1.00  0.00    -0.286 OA
HETATM   15  C18 UNL     1      33.729  25.385  29.611  1.00  0.00     0.088 A 
HETATM   16  C19 UNL     1      33.019  24.410  30.228  1.00  0.00     0.116 A 
ENDROOT
BRANCH   1  17
HETATM   17  O2  UNL     1      30.994  23.390  30.903  1.00  0.00    -0.346 OA
BRANCH  17  18
HETATM   18  C3  UNL     1      30.021  22.492  30.521  1.00  0.00     0.201 C 
BRANCH  18  19
HETATM   19  C2  UNL     1      30.484  21.062  30.567  1.00  0.00     0.193 C 
BRANCH  19  20
HETATM   20  O1  UNL     1      31.853  20.960  30.606  1.00  0.00    -0.394 OA
HETATM   21  C1  UNL     1      32.312  19.668  30.642  1.00  0.00     0.201 C 
ENDBRANCH  19  20
ENDBRANCH  18  19
ENDBRANCH  17  18
ENDBRANCH   1  17
BRANCH  16  22
HETATM   22  O9  UNL     1      33.722  23.373  30.844  1.00  0.00    -0.357 OA
ATOM     23  H9  UNL     1      33.749  22.515  30.438  1.00  0.00     0.217 HD
ENDBRANCH  16  22
BRANCH   3  24
HETATM   24  O3  UNL     1      30.987  27.485  28.399  1.00  0.00    -0.358 OA
ATOM     25  H3  UNL     1      30.826  28.263  28.921  1.00  0.00     0.217 HD
ENDBRANCH   3  24
BRANCH  11  26
HETATM   26  O7  UNL     1      37.923  25.356  29.515  1.00  0.00    -0.352 OA
HETATM   27  C15 UNL     1      38.648  24.352  28.847  1.00  0.00     0.210 C 
ENDBRANCH  11  26
BRANCH  10  28
HETATM   28  O5  UNL     1      39.179  27.406  28.217  1.00  0.00    -0.275 OA
BRANCH  28  29
HETATM   29  C12 UNL     1      39.859  28.067  29.255  1.00  0.00     0.260 C 
HETATM   30  C13 UNL     1      40.016  27.437  30.603  1.00  0.00     0.126 C 
HETATM   31  O6  UNL     1      40.346  29.217  29.041  1.00  0.00    -0.265 OA
ENDBRANCH  28  29
ENDBRANCH  10  28
TORSDOF 9
ENDMDL
MODEL 4
REMARK VINA RESULT: -7.439179537      2.713      8.239
REMARK  9 active torsions:
REMARK  status: ('A' for Active; 'I' for Inactive)
REMARK    1  A    between atoms: O1_2  and  C2_3 
REMARK    2  A    between atoms: C2_3  and  C3_4 
REMARK    3  A    between atoms: C3_4  and  O2_5 
REMARK    4  A    between atoms: O2_5  and  C4_6 
REMARK    5  A    between atoms: C6_8  and  O3_9 
REMARK    6  A    between atoms: C11_17  and  O5_18 
REMARK    7  A    between atoms: O5_18  and  C12_19 
REMARK    8  A    between atoms: C14_22  and  O7_23 
REMARK    9  A    between atoms: C19_29  and  O9_30 
ROOT
HETATM    1  C4  UNL     1      40.334  28.143  27.306  1.00  0.00     0.105 A 
HETATM    2  C5  UNL     1      39.681  29.172  26.670  1.00  0.00     0.079 A 
HETATM    3  C6  UNL     1      38.300  29.316  26.736  1.00  0.00     0.103 A 
HETATM    4  C7  UNL     1      37.537  28.415  27.453  1.00  0.00     0.126 A 
HETATM    5  O4  UNL     1      36.236  28.577  27.498  1.00  0.00    -0.306 OA
HETATM    6  C8  UNL     1      35.469  27.750  28.164  1.00  0.00     0.094 A 
HETATM    7  C9  UNL     1      34.090  27.933  28.206  1.00  0.00     0.060 A 
HETATM    8  C10 UNL     1      33.304  27.060  28.907  1.00  0.00     0.050 A 
HETATM    9 BR1  UNL     1      31.401  27.252  29.008  1.00  0.00    -0.048 Br
HETATM   10  C11 UNL     1      33.892  26.003  29.568  1.00  0.00     0.131 A 
HETATM   11  C14 UNL     1      35.268  25.770  29.560  1.00  0.00     0.120 A 
HETATM   12  C16 UNL     1      36.049  26.670  28.842  1.00  0.00     0.085 A 
HETATM   13  C17 UNL     1      37.404  26.467  28.820  1.00  0.00     0.203 A 
HETATM   14  O8  UNL     1      38.018  25.546  29.385  1.00  0.00    -0.286 OA
HETATM   15  C18 UNL     1      38.181  27.378  28.094  1.00  0.00     0.088 A 
HETATM   16  C19 UNL     1      39.527  27.242  28.027  1.00  0.00     0.116 A 
ENDROOT
BRANCH   1  17
HETATM   17  O2  UNL     1      41.675  27.919  27.305  1.00  0.00    -0.346 OA
BRANCH  17  18
HETATM   18  C3  UNL     1      42.762  28.722  27.035  1.00  0.00     0.201 C 
BRANCH  18  19
HETATM   19  C2  UNL     1      43.233  29.502  28.231  1.00  0.00     0.193 C 
BRANCH  19  20
HETATM   20  O1  UNL     1      42.747  30.786  28.239  1.00  0.00    -0.394 OA
HETATM   21  C1  UNL     1      43.722  31.750  28.227  1.00  0.00     0.201 C 
ENDBRANCH  19  20
ENDBRANCH  18  19
ENDBRANCH  17  18
ENDBRANCH   1  17
BRANCH  16  22
HETATM   22  O9  UNL     1      40.114  26.169  28.700  1.00  0.00    -0.357 OA
ATOM     23  H9  UNL     1      39.868  25.983  29.598  1.00  0.00     0.217 HD
ENDBRANCH  16  22
BRANCH   3  24
HETATM   24  O3  UNL     1      37.754  30.390  26.058  1.00  0.00    -0.358 OA
ATOM     25  H3  UNL     1      36.820  30.356  25.886  1.00  0.00     0.217 HD
ENDBRANCH   3  24
BRANCH  11  26
HETATM   26  O7  UNL     1      35.781  24.692  30.244  1.00  0.00    -0.352 OA
HETATM   27  C15 UNL     1      35.852  23.366  29.780  1.00  0.00     0.210 C 
ENDBRANCH  11  26
BRANCH  10  28
HETATM   28  O5  UNL     1      33.085  25.135  30.270  1.00  0.00    -0.275 OA
BRANCH  28  29
HETATM   29  C12 UNL     1      32.373  24.171  29.533  1.00  0.00     0.260 C 
HETATM   30  C13 UNL     1      31.198  23.458  30.123  1.00  0.00     0.126 C 
HETATM   31  O6  UNL     1      32.736  23.905  28.349  1.00  0.00    -0.265 OA
ENDBRANCH  28  29
ENDBRANCH  10  28
TORSDOF 9
ENDMDL
MODEL 5
REMARK VINA RESULT: -7.280743844      2.352      7.580
REMARK  9 active torsions:
REMARK  status: ('A' for Active; 'I' for Inactive)
REMARK    1  A    between atoms: O1_2  and  C2_3 
REMARK    2  A    between atoms: C2_3  and  C3_4 
REMARK    3  A    between atoms: C3_4  and  O2_5 
REMARK    4  A    between atoms: O2_5  and  C4_6 
REMARK    5  A    between atoms: C6_8  and  O3_9 
REMARK    6  A    between atoms: C11_17  and  O5_18 
REMARK    7  A    between atoms: O5_18  and  C12_19 
REMARK    8  A    between atoms: C14_22  and  O7_23 
REMARK    9  A    between atoms: C19_29  and  O9_30 
ROOT
HETATM    1  C4  UNL     1      40.244  27.982  27.363  1.00  0.00     0.105 A 
HETATM    2  C5  UNL     1      39.631  29.047  26.745  1.00  0.00     0.079 A 
HETATM    3  C6  UNL     1      38.256  29.241  26.814  1.00  0.00     0.103 A 
HETATM    4  C7  UNL     1      37.459  28.358  27.515  1.00  0.00     0.126 A 
HETATM    5  O4  UNL     1      36.165  28.569  27.563  1.00  0.00    -0.306 OA
HETATM    6  C8  UNL     1      35.367  27.759  28.214  1.00  0.00     0.094 A 
HETATM    7  C9  UNL     1      33.996  27.994  28.259  1.00  0.00     0.060 A 
HETATM    8  C10 UNL     1      33.177  27.140  28.946  1.00  0.00     0.050 A 
HETATM    9 BR1  UNL     1      31.283  27.402  29.050  1.00  0.00    -0.048 Br
HETATM   10  C11 UNL     1      33.724  26.050  29.587  1.00  0.00     0.131 A 
HETATM   11  C14 UNL     1      35.090  25.765  29.575  1.00  0.00     0.120 A 
HETATM   12  C16 UNL     1      35.905  26.646  28.873  1.00  0.00     0.085 A 
HETATM   13  C17 UNL     1      37.251  26.392  28.847  1.00  0.00     0.203 A 
HETATM   14  O8  UNL     1      37.829  25.439  29.396  1.00  0.00    -0.286 OA
HETATM   15  C18 UNL     1      38.062  27.286  28.138  1.00  0.00     0.088 A 
HETATM   16  C19 UNL     1      39.402  27.099  28.068  1.00  0.00     0.116 A 
ENDROOT
BRANCH   1  17
HETATM   17  O2  UNL     1      41.576  27.707  27.357  1.00  0.00    -0.346 OA
BRANCH  17  18
HETATM   18  C3  UNL     1      42.434  27.236  26.387  1.00  0.00     0.201 C 
BRANCH  18  19
HETATM   19  C2  UNL     1      42.647  25.750  26.456  1.00  0.00     0.193 C 
BRANCH  19  20
HETATM   20  O1  UNL     1      41.493  25.047  26.206  1.00  0.00    -0.394 OA
HETATM   21  C1  UNL     1      41.038  25.166  24.918  1.00  0.00     0.201 C 
ENDBRANCH  19  20
ENDBRANCH  18  19
ENDBRANCH  17  18
ENDBRANCH   1  17
BRANCH  16  22
HETATM   22  O9  UNL     1      39.948  25.994  28.722  1.00  0.00    -0.357 OA
ATOM     23  H9  UNL     1      40.580  25.444  28.273  1.00  0.00     0.217 HD
ENDBRANCH  16  22
BRANCH   3  24
HETATM   24  O3  UNL     1      37.752  30.347  26.155  1.00  0.00    -0.358 OA
ATOM     25  H3  UNL     1      38.233  31.160  26.256  1.00  0.00     0.217 HD
ENDBRANCH   3  24
BRANCH  11  26
HETATM   26  O7  UNL     1      35.561  24.656  30.240  1.00  0.00    -0.352 OA
HETATM   27  C15 UNL     1      35.569  23.334  29.758  1.00  0.00     0.210 C 
ENDBRANCH  11  26
BRANCH  10  28
HETATM   28  O5  UNL     1      32.883  25.201  30.274  1.00  0.00    -0.275 OA
BRANCH  28  29
HETATM   29  C12 UNL     1      32.162  24.254  29.524  1.00  0.00     0.260 C 
HETATM   30  C13 UNL     1      31.028  23.489  30.128  1.00  0.00     0.126 C 
HETATM   31  O6  UNL     1      32.483  24.049  28.316  1.00  0.00    -0.265 OA
ENDBRANCH  28  29
ENDBRANCH  10  28
TORSDOF 9
ENDMDL
