MODEL 1
REMARK VINA RESULT: -6.001515640      0.000      0.000
REMARK  3 active torsions:
REMARK  status: ('A' for Active; 'I' for Inactive)
REMARK    1  A    between atoms: C2_2  and  C3_3 
REMARK    2  A    between atoms: C3_3  and  N1_4 
REMARK    3  A    between atoms: C6_7  and  C7_8 
ROOT
HETATM    1  N1  UNL     1      18.802   4.352  13.399  1.00  0.00    -0.378 N 
HETATM    2  C4  UNL     1      18.401   3.782  14.641  1.00  0.00     0.148 C 
HETATM    3  C5  UNL     1      17.375   2.739  14.346  1.00  0.00     0.107 C 
HETATM    4  C6  UNL     1      17.550   2.341  12.878  1.00  0.00     0.076 C 
HETATM    5  C8  UNL     1      17.068   3.548  12.054  1.00  0.00     0.045 C 
HETATM    6  C9  UNL     1      17.768   4.818  12.579  1.00  0.00     0.157 C 
HETATM    7  C10 UNL     1      16.814   5.784  13.166  1.00  0.00     0.265 C 
HETATM    8  F1  UNL     1      17.494   6.593  14.084  1.00  0.00    -0.204 F 
HETATM    9  F2  UNL     1      16.399   6.689  12.170  1.00  0.00    -0.204 F 
HETATM   10  C11 UNL     1      15.581   5.307  13.798  1.00  0.00     0.100 C 
HETATM   11  C12 UNL     1      15.660   4.349  14.934  1.00  0.00     0.123 C 
HETATM   12  N4  UNL     1      16.034   3.027  14.562  1.00  0.00    -0.410 N 
HETATM   13  C13 UNL     1      15.277   1.995  15.239  1.00  0.00     0.143 C 
ENDROOT
BRANCH   4  14
HETATM   14  C7  UNL     1      16.837   1.137  12.517  1.00  0.00     0.093 C 
HETATM   15  N2  UNL     1      17.160   0.000  12.993  1.00  0.00    -0.391 N 
ATOM     16  H22 UNL     1      17.949  -0.047  13.637  1.00  0.00     0.157 HD
ATOM     17  H21 UNL     1      16.657  -0.849  12.738  1.00  0.00     0.157 HD
HETATM   18  N3  UNL     1      15.744   1.202  11.625  1.00  0.00    -0.088 NA
ENDBRANCH   4  14
BRANCH   1  19
HETATM   19  C3  UNL     1      20.124   4.689  13.295  1.00  0.00     0.085 C 
BRANCH  19  20
HETATM   20  C2  UNL     1      20.812   4.529  12.018  1.00  0.00     0.007 C 
HETATM   21  C1  UNL     1      21.065   3.328  11.554  1.00  0.00     0.012 C 
ENDBRANCH  19  20
ENDBRANCH   1  19
TORSDOF 3
ENDMDL
MODEL 2
REMARK VINA RESULT: -5.928290249      1.825      4.366
REMARK  3 active torsions:
REMARK  status: ('A' for Active; 'I' for Inactive)
REMARK    1  A    between atoms: C2_2  and  C3_3 
REMARK    2  A    between atoms: C3_3  and  N1_4 
REMARK    3  A    between atoms: C6_7  and  C7_8 
ROOT
HETATM    1  N1  UNL     1      16.744   2.399  14.597  1.00  0.00    -0.378 N 
HETATM    2  C4  UNL     1      16.565   2.250  13.192  1.00  0.00     0.148 C 
HETATM    3  C5  UNL     1      17.676   2.984  12.518  1.00  0.00     0.107 C 
HETATM    4  C6  UNL     1      18.802   3.135  13.545  1.00  0.00     0.076 C 
HETATM    5  C8  UNL     1      18.292   4.150  14.583  1.00  0.00     0.045 C 
HETATM    6  C9  UNL     1      16.892   3.712  15.059  1.00  0.00     0.157 C 
HETATM    7  C10 UNL     1      15.842   4.687  14.690  1.00  0.00     0.265 C 
HETATM    8  F1  UNL     1      14.610   4.025  14.627  1.00  0.00    -0.204 F 
HETATM    9  F2  UNL     1      15.673   5.605  15.744  1.00  0.00    -0.204 F 
HETATM   10  C11 UNL     1      15.989   5.502  13.481  1.00  0.00     0.100 C 
HETATM   11  C12 UNL     1      16.152   4.836  12.161  1.00  0.00     0.123 C 
HETATM   12  N4  UNL     1      17.425   4.231  11.962  1.00  0.00    -0.410 N 
HETATM   13  C13 UNL     1      17.970   4.444  10.637  1.00  0.00     0.143 C 
ENDROOT
BRANCH   4  14
HETATM   14  C7  UNL     1      20.058   3.556  12.968  1.00  0.00     0.093 C 
HETATM   15  N2  UNL     1      20.814   2.743  12.343  1.00  0.00    -0.391 N 
ATOM     16  H22 UNL     1      20.515   1.771  12.263  1.00  0.00     0.157 HD
ATOM     17  H21 UNL     1      21.700   3.040  11.936  1.00  0.00     0.157 HD
HETATM   18  N3  UNL     1      20.471   4.902  13.079  1.00  0.00    -0.088 NA
ENDBRANCH   4  14
BRANCH   1  19
HETATM   19  C3  UNL     1      16.416   1.310  15.359  1.00  0.00     0.085 C 
BRANCH  19  20
HETATM   20  C2  UNL     1      15.855   1.505  16.692  1.00  0.00     0.007 C 
HETATM   21  C1  UNL     1      14.558   1.442  16.874  1.00  0.00     0.012 C 
ENDBRANCH  19  20
ENDBRANCH   1  19
TORSDOF 3
ENDMDL
MODEL 3
REMARK VINA RESULT: -5.927884213      1.725      2.250
REMARK  3 active torsions:
REMARK  status: ('A' for Active; 'I' for Inactive)
REMARK    1  A    between atoms: C2_2  and  C3_3 
REMARK    2  A    between atoms: C3_3  and  N1_4 
REMARK    3  A    between atoms: C6_7  and  C7_8 
ROOT
HETATM    1  N1  UNL     1      17.728   4.390  14.123  1.00  0.00    -0.378 N 
HETATM    2  C4  UNL     1      17.975   3.439  15.155  1.00  0.00     0.148 C 
HETATM    3  C5  UNL     1      17.362   2.147  14.729  1.00  0.00     0.107 C 
HETATM    4  C6  UNL     1      17.199   2.207  13.207  1.00  0.00     0.076 C 
HETATM    5  C8  UNL     1      16.078   3.228  12.944  1.00  0.00     0.045 C 
HETATM    6  C9  UNL     1      16.394   4.522  13.720  1.00  0.00     0.157 C 
HETATM    7  C10 UNL     1      15.390   4.809  14.768  1.00  0.00     0.265 C 
HETATM    8  F1  UNL     1      15.981   5.606  15.756  1.00  0.00    -0.204 F 
HETATM    9  F2  UNL     1      14.384   5.635  14.232  1.00  0.00    -0.204 F 
HETATM   10  C11 UNL     1      14.681   3.708  15.427  1.00  0.00     0.100 C 
HETATM   11  C12 UNL     1      15.457   2.657  16.139  1.00  0.00     0.123 C 
HETATM   12  N4  UNL     1      16.149   1.756  15.281  1.00  0.00    -0.410 N 
HETATM   13  C13 UNL     1      16.074   0.374  15.704  1.00  0.00     0.143 C 
ENDROOT
BRANCH   4  14
HETATM   14  C7  UNL     1      16.899   0.927  12.607  1.00  0.00     0.093 C 
HETATM   15  N2  UNL     1      17.626  -0.098  12.818  1.00  0.00    -0.391 N 
ATOM     16  H22 UNL     1      18.442   0.005  13.422  1.00  0.00     0.157 HD
ATOM     17  H21 UNL     1      17.414  -1.001  12.395  1.00  0.00     0.157 HD
HETATM   18  N3  UNL     1      15.769   0.784  11.772  1.00  0.00    -0.088 NA
ENDBRANCH   4  14
BRANCH   1  19
HETATM   19  C3  UNL     1      18.732   5.289  13.887  1.00  0.00     0.085 C 
BRANCH  19  20
HETATM   20  C2  UNL     1      18.443   6.719  13.915  1.00  0.00     0.007 C 
HETATM   21  C1  UNL     1      18.752   7.431  14.972  1.00  0.00     0.012 C 
ENDBRANCH  19  20
ENDBRANCH   1  19
TORSDOF 3
ENDMDL
MODEL 4
REMARK VINA RESULT: -5.725384466      2.480      3.636
REMARK  3 active torsions:
REMARK  status: ('A' for Active; 'I' for Inactive)
REMARK    1  A    between atoms: C2_2  and  C3_3 
REMARK    2  A    between atoms: C3_3  and  N1_4 
REMARK    3  A    between atoms: C6_7  and  C7_8 
ROOT
HETATM    1  N1  UNL     1      18.247   5.375  13.748  1.00  0.00    -0.378 N 
HETATM    2  C4  UNL     1      18.698   4.178  13.120  1.00  0.00     0.148 C 
HETATM    3  C5  UNL     1      17.810   3.925  11.948  1.00  0.00     0.107 C 
HETATM    4  C6  UNL     1      17.152   5.260  11.587  1.00  0.00     0.076 C 
HETATM    5  C8  UNL     1      16.155   5.558  12.722  1.00  0.00     0.045 C 
HETATM    6  C9  UNL     1      16.886   5.419  14.073  1.00  0.00     0.157 C 
HETATM    7  C10 UNL     1      16.344   4.315  14.894  1.00  0.00     0.265 C 
HETATM    8  F1  UNL     1      17.335   3.881  15.782  1.00  0.00    -0.204 F 
HETATM    9  F2  UNL     1      15.337   4.818  15.739  1.00  0.00    -0.204 F 
HETATM   10  C11 UNL     1      15.758   3.137  14.247  1.00  0.00     0.100 C 
HETATM   11  C12 UNL     1      16.580   2.334  13.302  1.00  0.00     0.123 C 
HETATM   12  N4  UNL     1      16.814   2.962  12.047  1.00  0.00    -0.410 N 
HETATM   13  C13 UNL     1      16.701   2.065  10.916  1.00  0.00     0.143 C 
ENDROOT
BRANCH   4  14
HETATM   14  C7  UNL     1      16.497   5.252  10.299  1.00  0.00     0.093 C 
HETATM   15  N2  UNL     1      17.159   5.171   9.213  1.00  0.00    -0.391 N 
ATOM     16  H22 UNL     1      18.176   5.118   9.270  1.00  0.00     0.157 HD
ATOM     17  H21 UNL     1      16.697   5.164   8.304  1.00  0.00     0.157 HD
HETATM   18  N3  UNL     1      15.089   5.324  10.220  1.00  0.00    -0.088 NA
ENDBRANCH   4  14
BRANCH   1  19
HETATM   19  C3  UNL     1      19.224   6.182  14.264  1.00  0.00     0.085 C 
BRANCH  19  20
HETATM   20  C2  UNL     1      18.851   7.394  14.988  1.00  0.00     0.007 C 
HETATM   21  C1  UNL     1      19.779   8.223  15.403  1.00  0.00     0.012 C 
ENDBRANCH  19  20
ENDBRANCH   1  19
TORSDOF 3
ENDMDL
MODEL 5
REMARK VINA RESULT: -5.720834216      2.103      4.333
REMARK  3 active torsions:
REMARK  status: ('A' for Active; 'I' for Inactive)
REMARK    1  A    between atoms: C2_2  and  C3_3 
REMARK    2  A    between atoms: C3_3  and  N1_4 
REMARK    3  A    between atoms: C6_7  and  C7_8 
ROOT
HETATM    1  N1  UNL     1      16.874   1.947  13.827  1.00  0.00    -0.378 N 
HETATM    2  C4  UNL     1      16.690   2.639  12.594  1.00  0.00     0.148 C 
HETATM    3  C5  UNL     1      17.582   3.835  12.615  1.00  0.00     0.107 C 
HETATM    4  C6  UNL     1      18.675   3.562  13.652  1.00  0.00     0.076 C 
HETATM    5  C8  UNL     1      17.978   3.623  15.023  1.00  0.00     0.045 C 
HETATM    6  C9  UNL     1      16.731   2.716  14.986  1.00  0.00     0.157 C 
HETATM    7  C10 UNL     1      15.475   3.481  15.148  1.00  0.00     0.265 C 
HETATM    8  F1  UNL     1      14.426   2.759  14.567  1.00  0.00    -0.204 F 
HETATM    9  F2  UNL     1      15.133   3.527  16.513  1.00  0.00    -0.204 F 
HETATM   10  C11 UNL     1      15.394   4.868  14.679  1.00  0.00     0.100 C 
HETATM   11  C12 UNL     1      15.664   5.176  13.249  1.00  0.00     0.123 C 
HETATM   12  N4  UNL     1      17.035   5.084  12.877  1.00  0.00    -0.410 N 
HETATM   13  C13 UNL     1      17.476   6.152  12.004  1.00  0.00     0.143 C 
ENDROOT
BRANCH   4  14
HETATM   14  C7  UNL     1      19.782   4.488  13.582  1.00  0.00     0.093 C 
HETATM   15  N2  UNL     1      20.748   4.314  12.769  1.00  0.00    -0.391 N 
ATOM     16  H22 UNL     1      20.729   3.493  12.165  1.00  0.00     0.157 HD
ATOM     17  H21 UNL     1      21.530   4.968  12.719  1.00  0.00     0.157 HD
HETATM   18  N3  UNL     1      19.808   5.625  14.418  1.00  0.00    -0.088 NA
ENDBRANCH   4  14
BRANCH   1  19
HETATM   19  C3  UNL     1      16.827   0.581  13.757  1.00  0.00     0.085 C 
BRANCH  19  20
HETATM   20  C2  UNL     1      16.845  -0.077  12.454  1.00  0.00     0.007 C 
HETATM   21  C1  UNL     1      17.175  -1.343  12.362  1.00  0.00     0.012 C 
ENDBRANCH  19  20
ENDBRANCH   1  19
TORSDOF 3
ENDMDL
