MODEL 1
REMARK VINA RESULT: -5.552100024      0.000      0.000
REMARK  7 active torsions:
REMARK  status: ('A' for Active; 'I' for Inactive)
REMARK    1  A    between atoms: O1_2  and  C2_3 
REMARK    2  A    between atoms: N1_8  and  C8_10 
REMARK    3  A    between atoms: C8_10  and  C9_11 
REMARK    4  A    between atoms: C9_11  and  C10_12 
REMARK    5  A    between atoms: C10_12  and  C11_13 
REMARK    6  A    between atoms: C11_13  and  O2_14 
REMARK    7  A    between atoms: C13_17  and  O3_18 
ROOT
HETATM    1  C2  UNL     1      20.039   4.202  12.460  1.00  0.00     0.060 C 
HETATM    2  C3  UNL     1      21.022   3.246  11.838  1.00  0.00     0.046 C 
HETATM    3  C4  UNL     1      19.879   3.917  13.964  1.00  0.00     0.047 C 
HETATM    4  C5  UNL     1      18.485   4.267  14.139  1.00  0.00     0.051 C 
HETATM    5  C6  UNL     1      17.656   3.764  15.206  1.00  0.00     0.244 C 
HETATM    6  N1  UNL     1      16.309   3.708  14.614  1.00  0.00    -0.068 N 
HETATM    7  C7  UNL     1      15.543   4.821  15.121  1.00  0.00     0.272 C 
HETATM    8  C12 UNL     1      16.480   3.938  13.168  1.00  0.00     0.275 C 
HETATM    9  C13 UNL     1      17.867   3.498  12.948  1.00  0.00     0.090 C 
HETATM   10  C14 UNL     1      18.654   4.104  11.851  1.00  0.00     0.077 C 
ENDROOT
BRANCH   6  11
HETATM   11  C8  UNL     1      15.685   2.445  14.780  1.00  0.00     0.237 C 
BRANCH  11  12
HETATM   12  C9  UNL     1      15.066   2.224  16.131  1.00  0.00     0.030 C 
BRANCH  12  13
HETATM   13  C10 UNL     1      15.626   0.950  16.735  1.00  0.00     0.028 C 
BRANCH  13  14
HETATM   14  C11 UNL     1      16.502   0.218  15.738  1.00  0.00     0.164 C 
BRANCH  14  15
HETATM   15  O2  UNL     1      17.733   0.004  16.324  1.00  0.00    -0.401 OA
ATOM     16  H2  UNL     1      17.941  -0.920  16.246  1.00  0.00     0.209 HD
ENDBRANCH  14  15
ENDBRANCH  13  14
ENDBRANCH  12  13
ENDBRANCH  11  12
ENDBRANCH   6  11
BRANCH   9  17
HETATM   17  O3  UNL     1      18.007   2.150  13.078  1.00  0.00    -0.388 OA
ATOM     18  H3  UNL     1      17.761   1.686  12.287  1.00  0.00     0.210 HD
ENDBRANCH   9  17
BRANCH   1  19
HETATM   19  O1  UNL     1      20.453   5.523  12.355  1.00  0.00    -0.385 OA
HETATM   20  C1  UNL     1      21.733   5.672  11.880  1.00  0.00     0.202 C 
ENDBRANCH   1  19
TORSDOF 7
ENDMDL
MODEL 2
REMARK VINA RESULT: -5.516190887      0.905      1.048
REMARK  7 active torsions:
REMARK  status: ('A' for Active; 'I' for Inactive)
REMARK    1  A    between atoms: O1_2  and  C2_3 
REMARK    2  A    between atoms: N1_8  and  C8_10 
REMARK    3  A    between atoms: C8_10  and  C9_11 
REMARK    4  A    between atoms: C9_11  and  C10_12 
REMARK    5  A    between atoms: C10_12  and  C11_13 
REMARK    6  A    between atoms: C11_13  and  O2_14 
REMARK    7  A    between atoms: C13_17  and  O3_18 
ROOT
HETATM    1  C2  UNL     1      19.835   4.283  12.231  1.00  0.00     0.060 C 
HETATM    2  C3  UNL     1      20.924   3.486  11.563  1.00  0.00     0.046 C 
HETATM    3  C4  UNL     1      19.852   4.059  13.755  1.00  0.00     0.047 C 
HETATM    4  C5  UNL     1      18.436   4.162  14.040  1.00  0.00     0.051 C 
HETATM    5  C6  UNL     1      17.803   3.579  15.196  1.00  0.00     0.244 C 
HETATM    6  N1  UNL     1      16.446   3.248  14.730  1.00  0.00    -0.068 N 
HETATM    7  C7  UNL     1      15.532   4.232  15.258  1.00  0.00     0.272 C 
HETATM    8  C12 UNL     1      16.454   3.422  13.267  1.00  0.00     0.275 C 
HETATM    9  C13 UNL     1      17.876   3.227  12.941  1.00  0.00     0.090 C 
HETATM   10  C14 UNL     1      18.447   3.902  11.754  1.00  0.00     0.077 C 
ENDROOT
BRANCH   6  11
HETATM   11  C8  UNL     1      16.082   1.904  15.004  1.00  0.00     0.237 C 
BRANCH  11  12
HETATM   12  C9  UNL     1      16.701   1.328  16.245  1.00  0.00     0.030 C 
BRANCH  12  13
HETATM   13  C10 UNL     1      15.679   1.340  17.366  1.00  0.00     0.028 C 
BRANCH  13  14
HETATM   14  C11 UNL     1      14.685   0.206  17.203  1.00  0.00     0.164 C 
BRANCH  14  15
HETATM   15  O2  UNL     1      15.387  -0.983  17.196  1.00  0.00    -0.401 OA
ATOM     16  H2  UNL     1      16.027  -0.943  16.496  1.00  0.00     0.209 HD
ENDBRANCH  14  15
ENDBRANCH  13  14
ENDBRANCH  12  13
ENDBRANCH  11  12
ENDBRANCH   6  11
BRANCH   9  17
HETATM   17  O3  UNL     1      18.273   1.937  13.114  1.00  0.00    -0.388 OA
ATOM     18  H3  UNL     1      18.641   1.566  12.320  1.00  0.00     0.210 HD
ENDBRANCH   9  17
BRANCH   1  19
HETATM   19  O1  UNL     1      19.987   5.649  12.035  1.00  0.00    -0.385 OA
HETATM   20  C1  UNL     1      21.244   6.119  12.330  1.00  0.00     0.202 C 
ENDBRANCH   1  19
TORSDOF 7
ENDMDL
MODEL 3
REMARK VINA RESULT: -5.497490367      2.585      5.629
REMARK  7 active torsions:
REMARK  status: ('A' for Active; 'I' for Inactive)
REMARK    1  A    between atoms: O1_2  and  C2_3 
REMARK    2  A    between atoms: N1_8  and  C8_10 
REMARK    3  A    between atoms: C8_10  and  C9_11 
REMARK    4  A    between atoms: C9_11  and  C10_12 
REMARK    5  A    between atoms: C10_12  and  C11_13 
REMARK    6  A    between atoms: C11_13  and  O2_14 
REMARK    7  A    between atoms: C13_17  and  O3_18 
ROOT
HETATM    1  C2  UNL     1      14.829   1.890  17.017  1.00  0.00     0.060 C 
HETATM    2  C3  UNL     1      13.864   0.745  16.863  1.00  0.00     0.046 C 
HETATM    3  C4  UNL     1      14.235   3.186  16.434  1.00  0.00     0.047 C 
HETATM    4  C5  UNL     1      15.442   3.818  15.944  1.00  0.00     0.051 C 
HETATM    5  C6  UNL     1      15.464   4.810  14.899  1.00  0.00     0.244 C 
HETATM    6  N1  UNL     1      16.760   4.596  14.232  1.00  0.00    -0.068 N 
HETATM    7  C7  UNL     1      17.665   5.638  14.652  1.00  0.00     0.272 C 
HETATM    8  C12 UNL     1      17.298   3.331  14.764  1.00  0.00     0.275 C 
HETATM    9  C13 UNL     1      16.074   2.628  15.184  1.00  0.00     0.090 C 
HETATM   10  C14 UNL     1      16.143   1.656  16.298  1.00  0.00     0.077 C 
ENDROOT
BRANCH   6  11
HETATM   11  C8  UNL     1      16.639   4.456  12.825  1.00  0.00     0.237 C 
BRANCH  11  12
HETATM   12  C9  UNL     1      17.729   3.650  12.179  1.00  0.00     0.030 C 
BRANCH  12  13
HETATM   13  C10 UNL     1      17.173   2.947  10.956  1.00  0.00     0.028 C 
BRANCH  13  14
HETATM   14  C11 UNL     1      16.809   1.510  11.277  1.00  0.00     0.164 C 
BRANCH  14  15
HETATM   15  O2  UNL     1      15.438   1.384  11.188  1.00  0.00    -0.401 OA
ATOM     16  H2  UNL     1      15.242   0.772  10.488  1.00  0.00     0.209 HD
ENDBRANCH  14  15
ENDBRANCH  13  14
ENDBRANCH  12  13
ENDBRANCH  11  12
ENDBRANCH   6  11
BRANCH   9  17
HETATM   17  O3  UNL     1      15.316   2.235  14.125  1.00  0.00    -0.388 OA
ATOM     18  H3  UNL     1      15.676   2.530  13.296  1.00  0.00     0.210 HD
ENDBRANCH   9  17
BRANCH   1  19
HETATM   19  O1  UNL     1      15.120   2.158  18.348  1.00  0.00    -0.385 OA
HETATM   20  C1  UNL     1      15.413   1.041  19.091  1.00  0.00     0.202 C 
ENDBRANCH   1  19
TORSDOF 7
ENDMDL
MODEL 4
REMARK VINA RESULT: -5.315351849      2.020      2.655
REMARK  7 active torsions:
REMARK  status: ('A' for Active; 'I' for Inactive)
REMARK    1  A    between atoms: O1_2  and  C2_3 
REMARK    2  A    between atoms: N1_8  and  C8_10 
REMARK    3  A    between atoms: C8_10  and  C9_11 
REMARK    4  A    between atoms: C9_11  and  C10_12 
REMARK    5  A    between atoms: C10_12  and  C11_13 
REMARK    6  A    between atoms: C11_13  and  O2_14 
REMARK    7  A    between atoms: C13_17  and  O3_18 
ROOT
HETATM    1  C2  UNL     1      17.843   5.649  12.421  1.00  0.00     0.060 C 
HETATM    2  C3  UNL     1      17.149   6.631  11.514  1.00  0.00     0.046 C 
HETATM    3  C4  UNL     1      17.466   4.203  12.048  1.00  0.00     0.047 C 
HETATM    4  C5  UNL     1      17.498   3.590  13.360  1.00  0.00     0.051 C 
HETATM    5  C6  UNL     1      16.783   2.386  13.703  1.00  0.00     0.244 C 
HETATM    6  N1  UNL     1      16.461   2.558  15.130  1.00  0.00    -0.068 N 
HETATM    7  C7  UNL     1      17.360   1.733  15.901  1.00  0.00     0.272 C 
HETATM    8  C12 UNL     1      16.783   3.958  15.463  1.00  0.00     0.275 C 
HETATM    9  C13 UNL     1      16.664   4.621  14.155  1.00  0.00     0.090 C 
HETATM   10  C14 UNL     1      17.472   5.830  13.880  1.00  0.00     0.077 C 
ENDROOT
BRANCH   6  11
HETATM   11  C8  UNL     1      15.087   2.351  15.414  1.00  0.00     0.237 C 
BRANCH  11  12
HETATM   12  C9  UNL     1      14.641   2.856  16.756  1.00  0.00     0.030 C 
BRANCH  12  13
HETATM   13  C10 UNL     1      14.619   1.703  17.741  1.00  0.00     0.028 C 
BRANCH  13  14
HETATM   14  C11 UNL     1      13.974   0.477  17.125  1.00  0.00     0.164 C 
BRANCH  14  15
HETATM   15  O2  UNL     1      14.863  -0.574  17.228  1.00  0.00    -0.401 OA
ATOM     16  H2  UNL     1      14.367  -1.384  17.205  1.00  0.00     0.209 HD
ENDBRANCH  14  15
ENDBRANCH  13  14
ENDBRANCH  12  13
ENDBRANCH  11  12
ENDBRANCH   6  11
BRANCH   9  17
HETATM   17  O3  UNL     1      15.375   4.682  13.723  1.00  0.00    -0.388 OA
ATOM     18  H3  UNL     1      15.258   5.324  13.033  1.00  0.00     0.210 HD
ENDBRANCH   9  17
BRANCH   1  19
HETATM   19  O1  UNL     1      19.225   5.730  12.325  1.00  0.00    -0.385 OA
HETATM   20  C1  UNL     1      19.811   6.478  13.316  1.00  0.00     0.202 C 
ENDBRANCH   1  19
TORSDOF 7
ENDMDL
MODEL 5
REMARK VINA RESULT: -5.299422602      1.548      2.331
REMARK  7 active torsions:
REMARK  status: ('A' for Active; 'I' for Inactive)
REMARK    1  A    between atoms: O1_2  and  C2_3 
REMARK    2  A    between atoms: N1_8  and  C8_10 
REMARK    3  A    between atoms: C8_10  and  C9_11 
REMARK    4  A    between atoms: C9_11  and  C10_12 
REMARK    5  A    between atoms: C10_12  and  C11_13 
REMARK    6  A    between atoms: C11_13  and  O2_14 
REMARK    7  A    between atoms: C13_17  and  O3_18 
ROOT
HETATM    1  C2  UNL     1      19.458   5.051  13.176  1.00  0.00     0.060 C 
HETATM    2  C3  UNL     1      19.446   6.551  13.053  1.00  0.00     0.046 C 
HETATM    3  C4  UNL     1      18.355   4.423  12.304  1.00  0.00     0.047 C 
HETATM    4  C5  UNL     1      18.010   3.279  13.121  1.00  0.00     0.051 C 
HETATM    5  C6  UNL     1      16.740   2.599  13.060  1.00  0.00     0.244 C 
HETATM    6  N1  UNL     1      16.532   2.108  14.433  1.00  0.00    -0.068 N 
HETATM    7  C7  UNL     1      16.805   0.691  14.455  1.00  0.00     0.272 C 
HETATM    8  C12 UNL     1      17.566   2.750  15.265  1.00  0.00     0.275 C 
HETATM    9  C13 UNL     1      17.865   3.970  14.498  1.00  0.00     0.090 C 
HETATM   10  C14 UNL     1      19.214   4.573  14.593  1.00  0.00     0.077 C 
ENDROOT
BRANCH   6  11
HETATM   11  C8  UNL     1      15.266   2.469  14.961  1.00  0.00     0.237 C 
BRANCH  11  12
HETATM   12  C9  UNL     1      15.184   2.452  16.460  1.00  0.00     0.030 C 
BRANCH  12  13
HETATM   13  C10 UNL     1      14.411   1.224  16.905  1.00  0.00     0.028 C 
BRANCH  13  14
HETATM   14  C11 UNL     1      15.267   0.336  17.786  1.00  0.00     0.164 C 
BRANCH  14  15
HETATM   15  O2  UNL     1      15.292  -0.927  17.229  1.00  0.00    -0.401 OA
ATOM     16  H2  UNL     1      16.166  -1.281  17.341  1.00  0.00     0.209 HD
ENDBRANCH  14  15
ENDBRANCH  13  14
ENDBRANCH  12  13
ENDBRANCH  11  12
ENDBRANCH   6  11
BRANCH   9  17
HETATM   17  O3  UNL     1      16.836   4.859  14.521  1.00  0.00    -0.388 OA
ATOM     18  H3  UNL     1      16.599   5.157  13.650  1.00  0.00     0.210 HD
ENDBRANCH   9  17
BRANCH   1  19
HETATM   19  O1  UNL     1      20.657   4.498  12.746  1.00  0.00    -0.385 OA
HETATM   20  C1  UNL     1      21.428   5.351  11.994  1.00  0.00     0.202 C 
ENDBRANCH   1  19
TORSDOF 7
ENDMDL
