MODEL 1
REMARK VINA RESULT: -7.755633113      0.000      0.000
REMARK  9 active torsions:
REMARK  status: ('A' for Active; 'I' for Inactive)
REMARK    1  A    between atoms: C2_2  and  N1_3 
REMARK    2  A    between atoms: C3_6  and  N3_7 
REMARK    3  A    between atoms: N3_7  and  C4_9 
REMARK    4  A    between atoms: C4_9  and  C5_10 
REMARK    5  A    between atoms: C5_10  and  C6_11 
REMARK    6  A    between atoms: C12_24  and  N5_25 
REMARK    7  A    between atoms: N5_25  and  C13_27 
REMARK    8  A    between atoms: C13_27  and  C14_28 
REMARK    9  A    between atoms: C14_28  and  C15_31 
ROOT
HETATM    1  N1  UNL     1      16.724   1.890  13.471  1.00  0.00    -0.109 N 
HETATM    2  N2  UNL     1      17.639   2.470  12.672  1.00  0.00    -0.115 N 
ATOM      3  H2  UNL     1      18.364   1.979  12.149  1.00  0.00     0.206 HD
HETATM    4  C3  UNL     1      17.444   3.788  12.675  1.00  0.00     0.707 A 
HETATM    5  N4  UNL     1      16.405   4.052  13.474  1.00  0.00    -0.020 N 
ATOM      6  H4  UNL     1      16.021   4.976  13.672  1.00  0.00     0.203 HD
HETATM    7  C12 UNL     1      15.940   2.852  13.984  1.00  0.00     0.713 A 
ENDROOT
BRANCH   4   8
HETATM    8  N3  UNL     1      18.176   4.615  11.992  1.00  0.00    -0.224 N 
ATOM      9  H3  UNL     1      18.915   5.112  12.489  1.00  0.00     0.177 HD
BRANCH   8  10
HETATM   10  C4  UNL     1      18.023   4.879  10.597  1.00  0.00     0.143 C 
BRANCH  10  11
HETATM   11  C5  UNL     1      17.942   6.396  10.441  1.00  0.00     0.065 C 
BRANCH  11  12
HETATM   12  C6  UNL     1      16.523   6.753  10.183  1.00  0.00     0.027 A 
HETATM   13  C7  UNL     1      15.646   7.091  11.193  1.00  0.00     0.167 A 
HETATM   14  F1  UNL     1      16.113   7.092  12.463  1.00  0.00    -0.202 F 
HETATM   15  C8  UNL     1      14.320   7.421  10.918  1.00  0.00     0.197 A 
HETATM   16  F2  UNL     1      13.453   7.752  11.899  1.00  0.00    -0.199 F 
HETATM   17  C9  UNL     1      13.886   7.407   9.617  1.00  0.00     0.199 A 
HETATM   18  F3  UNL     1      12.611   7.720   9.290  1.00  0.00    -0.199 F 
HETATM   19  C10 UNL     1      14.739   7.076   8.591  1.00  0.00     0.197 A 
HETATM   20  F4  UNL     1      14.280   7.071   7.304  1.00  0.00    -0.199 F 
HETATM   21  C11 UNL     1      16.067   6.746   8.884  1.00  0.00     0.167 A 
HETATM   22  F5  UNL     1      16.883   6.423   7.846  1.00  0.00    -0.202 F 
ENDBRANCH  11  12
ENDBRANCH  10  11
ENDBRANCH   8  10
ENDBRANCH   4   8
BRANCH   1  23
HETATM   23  C2  UNL     1      16.665   0.461  13.706  1.00  0.00     0.164 C 
HETATM   24  C1  UNL     1      16.933  -0.350  12.454  1.00  0.00     0.029 C 
ENDBRANCH   1  23
BRANCH   7  25
HETATM   25  N5  UNL     1      14.945   2.845  14.762  1.00  0.00    -0.197 N 
ATOM     26  H5  UNL     1      14.125   2.374  14.378  1.00  0.00     0.183 HD
BRANCH  25  27
HETATM   27  C13 UNL     1      14.751   3.362  16.059  1.00  0.00     0.162 C 
BRANCH  27  28
HETATM   28  C14 UNL     1      15.103   2.310  17.109  1.00  0.00     0.333 C 
HETATM   29  F6  UNL     1      16.465   2.082  17.071  1.00  0.00    -0.194 F 
HETATM   30  F7  UNL     1      14.759   2.693  18.370  1.00  0.00    -0.194 F 
BRANCH  28  31
HETATM   31  C15 UNL     1      14.438   0.974  16.779  1.00  0.00     0.430 C 
HETATM   32  F8  UNL     1      14.957   0.065  17.691  1.00  0.00    -0.207 F 
HETATM   33  F9  UNL     1      13.084   1.016  16.952  1.00  0.00    -0.207 F 
ENDBRANCH  28  31
ENDBRANCH  27  28
ENDBRANCH  25  27
ENDBRANCH   7  25
TORSDOF 9
ENDMDL
MODEL 2
REMARK VINA RESULT: -7.730773835      0.050      1.965
REMARK  9 active torsions:
REMARK  status: ('A' for Active; 'I' for Inactive)
REMARK    1  A    between atoms: C2_2  and  N1_3 
REMARK    2  A    between atoms: C3_6  and  N3_7 
REMARK    3  A    between atoms: N3_7  and  C4_9 
REMARK    4  A    between atoms: C4_9  and  C5_10 
REMARK    5  A    between atoms: C5_10  and  C6_11 
REMARK    6  A    between atoms: C12_24  and  N5_25 
REMARK    7  A    between atoms: N5_25  and  C13_27 
REMARK    8  A    between atoms: C13_27  and  C14_28 
REMARK    9  A    between atoms: C14_28  and  C15_31 
ROOT
HETATM    1  N1  UNL     1      16.721   1.880  13.477  1.00  0.00    -0.109 N 
HETATM    2  N2  UNL     1      17.639   2.463  12.684  1.00  0.00    -0.115 N 
ATOM      3  H2  UNL     1      18.359   1.973  12.154  1.00  0.00     0.206 HD
HETATM    4  C3  UNL     1      17.453   3.783  12.702  1.00  0.00     0.707 A 
HETATM    5  N4  UNL     1      16.417   4.045  13.506  1.00  0.00    -0.020 N 
ATOM      6  H4  UNL     1      16.041   4.969  13.716  1.00  0.00     0.203 HD
HETATM    7  C12 UNL     1      15.945   2.842  14.003  1.00  0.00     0.713 A 
ENDROOT
BRANCH   4   8
HETATM    8  N3  UNL     1      18.190   4.612  12.028  1.00  0.00    -0.224 N 
ATOM      9  H3  UNL     1      18.927   5.106  12.531  1.00  0.00     0.177 HD
BRANCH   8  10
HETATM   10  C4  UNL     1      18.045   4.883  10.633  1.00  0.00     0.143 C 
BRANCH  10  11
HETATM   11  C5  UNL     1      17.958   6.401  10.486  1.00  0.00     0.065 C 
BRANCH  11  12
HETATM   12  C6  UNL     1      16.557   6.744  10.129  1.00  0.00     0.027 A 
HETATM   13  C7  UNL     1      16.102   6.754   8.827  1.00  0.00     0.167 A 
HETATM   14  F1  UNL     1      16.980   6.435   7.848  1.00  0.00    -0.202 F 
HETATM   15  C8  UNL     1      14.781   7.080   8.525  1.00  0.00     0.197 A 
HETATM   16  F2  UNL     1      14.326   7.093   7.254  1.00  0.00    -0.199 F 
HETATM   17  C9  UNL     1      13.923   7.398   9.547  1.00  0.00     0.199 A 
HETATM   18  F3  UNL     1      12.630   7.722   9.314  1.00  0.00    -0.199 F 
HETATM   19  C10 UNL     1      14.349   7.396  10.854  1.00  0.00     0.197 A 
HETATM   20  F4  UNL     1      13.472   7.716  11.852  1.00  0.00    -0.199 F 
HETATM   21  C11 UNL     1      15.678   7.066  11.140  1.00  0.00     0.167 A 
HETATM   22  F5  UNL     1      16.067   7.074  12.443  1.00  0.00    -0.202 F 
ENDBRANCH  11  12
ENDBRANCH  10  11
ENDBRANCH   8  10
ENDBRANCH   4   8
BRANCH   1  23
HETATM   23  C2  UNL     1      16.651   0.449  13.696  1.00  0.00     0.164 C 
HETATM   24  C1  UNL     1      16.956  -0.349  12.445  1.00  0.00     0.029 C 
ENDBRANCH   1  23
BRANCH   7  25
HETATM   25  N5  UNL     1      14.951   2.833  14.782  1.00  0.00    -0.197 N 
ATOM     26  H5  UNL     1      14.129   2.369  14.397  1.00  0.00     0.183 HD
BRANCH  25  27
HETATM   27  C13 UNL     1      14.761   3.341  16.084  1.00  0.00     0.162 C 
BRANCH  27  28
HETATM   28  C14 UNL     1      15.117   2.282  17.125  1.00  0.00     0.333 C 
HETATM   29  F6  UNL     1      16.478   2.051  17.078  1.00  0.00    -0.194 F 
HETATM   30  F7  UNL     1      14.782   2.658  18.391  1.00  0.00    -0.194 F 
BRANCH  28  31
HETATM   31  C15 UNL     1      14.447   0.950  16.792  1.00  0.00     0.430 C 
HETATM   32  F8  UNL     1      14.967   0.034  17.697  1.00  0.00    -0.207 F 
HETATM   33  F9  UNL     1      13.094   0.995  16.970  1.00  0.00    -0.207 F 
ENDBRANCH  28  31
ENDBRANCH  27  28
ENDBRANCH  25  27
ENDBRANCH   7  25
TORSDOF 9
ENDMDL
MODEL 3
REMARK VINA RESULT: -7.619302844      1.199      1.863
REMARK  9 active torsions:
REMARK  status: ('A' for Active; 'I' for Inactive)
REMARK    1  A    between atoms: C2_2  and  N1_3 
REMARK    2  A    between atoms: C3_6  and  N3_7 
REMARK    3  A    between atoms: N3_7  and  C4_9 
REMARK    4  A    between atoms: C4_9  and  C5_10 
REMARK    5  A    between atoms: C5_10  and  C6_11 
REMARK    6  A    between atoms: C12_24  and  N5_25 
REMARK    7  A    between atoms: N5_25  and  C13_27 
REMARK    8  A    between atoms: C13_27  and  C14_28 
REMARK    9  A    between atoms: C14_28  and  C15_31 
ROOT
HETATM    1  N1  UNL     1      16.740   1.560  12.795  1.00  0.00    -0.109 N 
HETATM    2  N2  UNL     1      16.901   2.678  12.063  1.00  0.00    -0.115 N 
ATOM      3  H2  UNL     1      17.044   2.709  11.054  1.00  0.00     0.206 HD
HETATM    4  C3  UNL     1      16.844   3.737  12.871  1.00  0.00     0.707 A 
HETATM    5  N4  UNL     1      16.646   3.298  14.118  1.00  0.00    -0.020 N 
ATOM      6  H4  UNL     1      16.559   3.879  14.951  1.00  0.00     0.203 HD
HETATM    7  C12 UNL     1      16.578   1.916  14.080  1.00  0.00     0.713 A 
ENDROOT
BRANCH   4   8
HETATM    8  N3  UNL     1      16.967   4.958  12.448  1.00  0.00    -0.224 N 
ATOM      9  H3  UNL     1      17.762   5.173  11.847  1.00  0.00     0.177 HD
BRANCH   8  10
HETATM   10  C4  UNL     1      16.069   6.024  12.764  1.00  0.00     0.143 C 
BRANCH  10  11
HETATM   11  C5  UNL     1      16.515   7.233  11.945  1.00  0.00     0.065 C 
BRANCH  11  12
HETATM   12  C6  UNL     1      15.790   7.198  10.648  1.00  0.00     0.027 A 
HETATM   13  C7  UNL     1      14.448   7.500  10.538  1.00  0.00     0.167 A 
HETATM   14  F1  UNL     1      13.782   7.841  11.666  1.00  0.00    -0.202 F 
HETATM   15  C8  UNL     1      13.797   7.458   9.307  1.00  0.00     0.197 A 
HETATM   16  F2  UNL     1      12.484   7.752   9.189  1.00  0.00    -0.199 F 
HETATM   17  C9  UNL     1      14.508   7.107   8.188  1.00  0.00     0.199 A 
HETATM   18  F3  UNL     1      13.929   7.050   6.967  1.00  0.00    -0.199 F 
HETATM   19  C10 UNL     1      15.846   6.802   8.268  1.00  0.00     0.197 A 
HETATM   20  F4  UNL     1      16.531   6.456   7.137  1.00  0.00    -0.199 F 
HETATM   21  C11 UNL     1      16.486   6.849   9.512  1.00  0.00     0.167 A 
HETATM   22  F5  UNL     1      17.809   6.540   9.556  1.00  0.00    -0.202 F 
ENDBRANCH  11  12
ENDBRANCH  10  11
ENDBRANCH   8  10
ENDBRANCH   4   8
BRANCH   1  23
HETATM   23  C2  UNL     1      16.766   0.227  12.228  1.00  0.00     0.164 C 
HETATM   24  C1  UNL     1      16.118   0.160  10.859  1.00  0.00     0.029 C 
ENDBRANCH   1  23
BRANCH   7  25
HETATM   25  N5  UNL     1      16.380   1.268  15.146  1.00  0.00    -0.197 N 
ATOM     26  H5  UNL     1      16.007   0.331  14.997  1.00  0.00     0.183 HD
BRANCH  25  27
HETATM   27  C13 UNL     1      16.575   1.594  16.504  1.00  0.00     0.162 C 
BRANCH  27  28
HETATM   28  C14 UNL     1      15.290   1.363  17.297  1.00  0.00     0.333 C 
HETATM   29  F6  UNL     1      15.053   0.004  17.376  1.00  0.00    -0.194 F 
HETATM   30  F7  UNL     1      15.355   1.869  18.560  1.00  0.00    -0.194 F 
BRANCH  28  31
HETATM   31  C15 UNL     1      14.090   1.963  16.565  1.00  0.00     0.430 C 
HETATM   32  F8  UNL     1      13.011   1.153  16.892  1.00  0.00    -0.207 F 
HETATM   33  F9  UNL     1      13.808   3.230  16.990  1.00  0.00    -0.207 F 
ENDBRANCH  28  31
ENDBRANCH  27  28
ENDBRANCH  25  27
ENDBRANCH   7  25
TORSDOF 9
ENDMDL
MODEL 4
REMARK VINA RESULT: -7.584331800      1.204      2.410
REMARK  9 active torsions:
REMARK  status: ('A' for Active; 'I' for Inactive)
REMARK    1  A    between atoms: C2_2  and  N1_3 
REMARK    2  A    between atoms: C3_6  and  N3_7 
REMARK    3  A    between atoms: N3_7  and  C4_9 
REMARK    4  A    between atoms: C4_9  and  C5_10 
REMARK    5  A    between atoms: C5_10  and  C6_11 
REMARK    6  A    between atoms: C12_24  and  N5_25 
REMARK    7  A    between atoms: N5_25  and  C13_27 
REMARK    8  A    between atoms: C13_27  and  C14_28 
REMARK    9  A    between atoms: C14_28  and  C15_31 
ROOT
HETATM    1  N1  UNL     1      16.738   1.549  12.772  1.00  0.00    -0.109 N 
HETATM    2  N2  UNL     1      16.902   2.660  12.030  1.00  0.00    -0.115 N 
ATOM      3  H2  UNL     1      17.066   2.680  11.023  1.00  0.00     0.206 HD
HETATM    4  C3  UNL     1      16.814   3.728  12.822  1.00  0.00     0.707 A 
HETATM    5  N4  UNL     1      16.594   3.302  14.070  1.00  0.00    -0.020 N 
ATOM      6  H4  UNL     1      16.482   3.894  14.894  1.00  0.00     0.203 HD
HETATM    7  C12 UNL     1      16.543   1.919  14.049  1.00  0.00     0.713 A 
ENDROOT
BRANCH   4   8
HETATM    8  N3  UNL     1      16.932   4.946  12.387  1.00  0.00    -0.224 N 
ATOM      9  H3  UNL     1      17.707   5.149  11.755  1.00  0.00     0.177 HD
BRANCH   8  10
HETATM   10  C4  UNL     1      16.056   6.022  12.727  1.00  0.00     0.143 C 
BRANCH  10  11
HETATM   11  C5  UNL     1      16.515   7.236  11.924  1.00  0.00     0.065 C 
BRANCH  11  12
HETATM   12  C6  UNL     1      15.841   7.187  10.600  1.00  0.00     0.027 A 
HETATM   13  C7  UNL     1      16.509   6.865   9.437  1.00  0.00     0.167 A 
HETATM   14  F1  UNL     1      17.830   6.583   9.522  1.00  0.00    -0.202 F 
HETATM   15  C8  UNL     1      15.847   6.828   8.210  1.00  0.00     0.197 A 
HETATM   16  F2  UNL     1      16.492   6.514   7.066  1.00  0.00    -0.199 F 
HETATM   17  C9  UNL     1      14.508   7.120   8.167  1.00  0.00     0.199 A 
HETATM   18  F3  UNL     1      13.814   7.100   7.005  1.00  0.00    -0.199 F 
HETATM   19  C10 UNL     1      13.818   7.444   9.310  1.00  0.00     0.197 A 
HETATM   20  F4  UNL     1      12.483   7.730   9.238  1.00  0.00    -0.199 F 
HETATM   21  C11 UNL     1      14.496   7.477  10.534  1.00  0.00     0.167 A 
HETATM   22  F5  UNL     1      13.784   7.802  11.645  1.00  0.00    -0.202 F 
ENDBRANCH  11  12
ENDBRANCH  10  11
ENDBRANCH   8  10
ENDBRANCH   4   8
BRANCH   1  23
HETATM   23  C2  UNL     1      16.792   0.210  12.223  1.00  0.00     0.164 C 
HETATM   24  C1  UNL     1      16.136   0.109  10.860  1.00  0.00     0.029 C 
ENDBRANCH   1  23
BRANCH   7  25
HETATM   25  N5  UNL     1      16.329   1.283  15.119  1.00  0.00    -0.197 N 
ATOM     26  H5  UNL     1      15.903   0.367  14.976  1.00  0.00     0.183 HD
BRANCH  25  27
HETATM   27  C13 UNL     1      16.566   1.597  16.472  1.00  0.00     0.162 C 
BRANCH  27  28
HETATM   28  C14 UNL     1      15.299   1.381  17.298  1.00  0.00     0.333 C 
HETATM   29  F6  UNL     1      15.071   0.024  17.419  1.00  0.00    -0.194 F 
HETATM   30  F7  UNL     1      15.387   1.922  18.545  1.00  0.00    -0.194 F 
BRANCH  28  31
HETATM   31  C15 UNL     1      14.080   1.956  16.576  1.00  0.00     0.430 C 
HETATM   32  F8  UNL     1      13.021   1.126  16.916  1.00  0.00    -0.207 F 
HETATM   33  F9  UNL     1      13.779   3.219  16.999  1.00  0.00    -0.207 F 
ENDBRANCH  28  31
ENDBRANCH  27  28
ENDBRANCH  25  27
ENDBRANCH   7  25
TORSDOF 9
ENDMDL
MODEL 5
REMARK VINA RESULT: -7.543287042      2.584      3.893
REMARK  9 active torsions:
REMARK  status: ('A' for Active; 'I' for Inactive)
REMARK    1  A    between atoms: C2_2  and  N1_3 
REMARK    2  A    between atoms: C3_6  and  N3_7 
REMARK    3  A    between atoms: N3_7  and  C4_9 
REMARK    4  A    between atoms: C4_9  and  C5_10 
REMARK    5  A    between atoms: C5_10  and  C6_11 
REMARK    6  A    between atoms: C12_24  and  N5_25 
REMARK    7  A    between atoms: N5_25  and  C13_27 
REMARK    8  A    between atoms: C13_27  and  C14_28 
REMARK    9  A    between atoms: C14_28  and  C15_31 
ROOT
HETATM    1  N1  UNL     1      16.735   0.985  13.041  1.00  0.00    -0.109 N 
HETATM    2  N2  UNL     1      16.883   1.739  11.936  1.00  0.00    -0.115 N 
ATOM      3  H2  UNL     1      17.102   1.388  11.004  1.00  0.00     0.206 HD
HETATM    4  C3  UNL     1      16.697   3.020  12.257  1.00  0.00     0.707 A 
HETATM    5  N4  UNL     1      16.430   3.085  13.565  1.00  0.00    -0.020 N 
ATOM      6  H4  UNL     1      16.243   3.936  14.097  1.00  0.00     0.203 HD
HETATM    7  C12 UNL     1      16.451   1.798  14.073  1.00  0.00     0.713 A 
ENDROOT
BRANCH   4   8
HETATM    8  N3  UNL     1      16.777   3.986  11.394  1.00  0.00    -0.224 N 
ATOM      9  H3  UNL     1      15.924   4.251  10.900  1.00  0.00     0.177 HD
BRANCH   8  10
HETATM   10  C4  UNL     1      17.971   4.707  11.085  1.00  0.00     0.143 C 
BRANCH  10  11
HETATM   11  C5  UNL     1      17.610   6.190  11.108  1.00  0.00     0.065 C 
BRANCH  11  12
HETATM   12  C6  UNL     1      18.170   6.776  12.353  1.00  0.00     0.027 A 
HETATM   13  C7  UNL     1      17.449   6.862  13.525  1.00  0.00     0.167 A 
HETATM   14  F1  UNL     1      16.180   6.389  13.524  1.00  0.00    -0.202 F 
HETATM   15  C8  UNL     1      18.004   7.417  14.677  1.00  0.00     0.197 A 
HETATM   16  F2  UNL     1      17.305   7.506  15.829  1.00  0.00    -0.199 F 
HETATM   17  C9  UNL     1      19.292   7.886  14.636  1.00  0.00     0.199 A 
HETATM   18  F3  UNL     1      19.883   8.434  15.723  1.00  0.00    -0.199 F 
HETATM   19  C10 UNL     1      20.035   7.812  13.482  1.00  0.00     0.197 A 
HETATM   20  F4  UNL     1      21.317   8.286  13.470  1.00  0.00    -0.199 F 
HETATM   21  C11 UNL     1      19.463   7.252  12.334  1.00  0.00     0.167 A 
HETATM   22  F5  UNL     1      20.225   7.195  11.210  1.00  0.00    -0.202 F 
ENDBRANCH  11  12
ENDBRANCH  10  11
ENDBRANCH   8  10
ENDBRANCH   4   8
BRANCH   1  23
HETATM   23  C2  UNL     1      16.888  -0.456  13.047  1.00  0.00     0.164 C 
HETATM   24  C1  UNL     1      16.781  -1.061  11.662  1.00  0.00     0.029 C 
ENDBRANCH   1  23
BRANCH   7  25
HETATM   25  N5  UNL     1      16.211   1.602  15.297  1.00  0.00    -0.197 N 
ATOM     26  H5  UNL     1      15.982   0.634  15.523  1.00  0.00     0.183 HD
BRANCH  25  27
HETATM   27  C13 UNL     1      16.200   2.465  16.412  1.00  0.00     0.162 C 
BRANCH  27  28
HETATM   28  C14 UNL     1      14.902   2.299  17.199  1.00  0.00     0.333 C 
HETATM   29  F6  UNL     1      15.193   2.327  18.549  1.00  0.00    -0.194 F 
HETATM   30  F7  UNL     1      13.995   3.279  16.928  1.00  0.00    -0.194 F 
BRANCH  28  31
HETATM   31  C15 UNL     1      14.275   0.932  16.926  1.00  0.00     0.430 C 
HETATM   32  F8  UNL     1      14.894   0.056  17.808  1.00  0.00    -0.207 F 
HETATM   33  F9  UNL     1      12.935   0.917  17.188  1.00  0.00    -0.207 F 
ENDBRANCH  28  31
ENDBRANCH  27  28
ENDBRANCH  25  27
ENDBRANCH   7  25
TORSDOF 9
ENDMDL
