MODEL 1
REMARK VINA RESULT: -8.684414223      0.000      0.000
REMARK  11 active torsions:
REMARK  status: ('A' for Active; 'I' for Inactive)
REMARK    1  A    between atoms: N1_1  and  C1_5 
REMARK    2  A    between atoms: C1_5  and  C2_6 
REMARK    3  A    between atoms: C1_5  and  C17_32 
REMARK    4  A    between atoms: C2_6  and  N2_7 
REMARK       I    between atoms: N2_7  and  C3_9 
REMARK    5  A    between atoms: C3_9  and  C4_11 
REMARK    6  A    between atoms: C4_11  and  C5_12 
REMARK    7  A    between atoms: C5_12  and  N3_13 
REMARK    8  A    between atoms: C11_22  and  O2_23 
REMARK    9  A    between atoms: C12_25  and  C13_26 
REMARK   10  A    between atoms: C13_26  and  C14_27 
REMARK   11  A    between atoms: C17_32  and  C18_33 
ROOT
HETATM    1  N3  UNL     1      -2.887 -36.337 -27.704  1.00  0.00    -0.368 N 
HETATM    2  C6  UNL     1      -3.956 -37.209 -27.784  1.00  0.00     0.064 C 
HETATM    3  C7  UNL     1      -5.215 -36.343 -27.762  1.00  0.00     0.060 C 
HETATM    4  C8  UNL     1      -4.716 -35.132 -27.009  1.00  0.00     0.036 C 
HETATM    5  C9  UNL     1      -4.669 -35.422 -25.501  1.00  0.00     0.247 C 
HETATM    6  N4  UNL     1      -4.765 -34.122 -24.870  1.00  0.00    -0.072 N 
ATOM      7  H41 UNL     1      -3.862 -33.759 -24.566  1.00  0.00     0.277 HD
ATOM      8  H42 UNL     1      -5.209 -34.155 -23.953  1.00  0.00     0.277 HD
HETATM    9  C10 UNL     1      -5.452 -33.234 -25.806  1.00  0.00     0.264 C 
HETATM   10  C11 UNL     1      -5.684 -34.053 -27.071  1.00  0.00     0.156 C 
HETATM   11  C12 UNL     1      -3.331 -34.982 -27.532  1.00  0.00     0.101 C 
ENDROOT
BRANCH   1  12
HETATM   12  C5  UNL     1      -1.694 -36.742 -27.146  1.00  0.00     0.072 C 
BRANCH  12  13
HETATM   13  C4  UNL     1      -0.554 -35.807 -27.083  1.00  0.00     0.147 C 
BRANCH  13  14
HETATM   14  C3  UNL     1       0.357 -35.830 -25.925  1.00  0.00     0.222 C 
HETATM   15  N2  UNL     1       1.709 -35.371 -26.106  1.00  0.00    -0.359 N 
ATOM     16  H2  UNL     1       1.938 -35.038 -27.042  1.00  0.00     0.162 HD
HETATM   17  O1  UNL     1       0.022 -36.230 -24.792  1.00  0.00    -0.273 OA
BRANCH  15  18
HETATM   18  C2  UNL     1       2.761 -35.316 -25.167  1.00  0.00     0.155 C 
BRANCH  18  19
HETATM   19  C1  UNL     1       4.158 -35.406 -25.661  1.00  0.00     0.201 C 
BRANCH  19  20
HETATM   20  N1  UNL     1       5.049 -36.223 -24.912  1.00  0.00    -0.073 N 
ATOM     21  H13 UNL     1       5.458 -35.678 -24.154  1.00  0.00     0.274 HD
ATOM     22  H12 UNL     1       4.516 -36.912 -24.380  1.00  0.00     0.274 HD
ATOM     23  H11 UNL     1       5.789 -36.692 -25.435  1.00  0.00     0.274 HD
ENDBRANCH  19  20
BRANCH  19  24
HETATM   24  C17 UNL     1       4.206 -35.733 -27.151  1.00  0.00     0.039 C 
BRANCH  24  25
HETATM   25  C18 UNL     1       4.089 -37.216 -27.361  1.00  0.00    -0.013 C 
HETATM   26  C19 UNL     1       2.879 -37.554 -28.220  1.00  0.00     0.005 C 
HETATM   27  C20 UNL     1       3.112 -37.180 -29.670  1.00  0.00     0.000 C 
HETATM   28  C21 UNL     1       4.353 -37.870 -30.209  1.00  0.00     0.000 C 
HETATM   29  C22 UNL     1       4.997 -38.721 -29.125  1.00  0.00     0.000 C 
HETATM   30  C23 UNL     1       5.354 -37.776 -27.988  1.00  0.00     0.005 C 
ENDBRANCH  24  25
ENDBRANCH  19  24
ENDBRANCH  18  19
ENDBRANCH  15  18
ENDBRANCH  13  14
ENDBRANCH  12  13
ENDBRANCH   1  12
BRANCH  11  31
HETATM   31  C13 UNL     1      -3.230 -34.136 -28.766  1.00  0.00     0.037 C 
BRANCH  31  32
HETATM   32  C14 UNL     1      -2.726 -34.867 -29.984  1.00  0.00     0.066 A 
HETATM   33  C15 UNL     1      -2.804 -34.290 -31.346  1.00  0.00     0.090 A 
HETATM   34  C16 UNL     1      -3.751 -35.375 -31.015  1.00  0.00     0.248 A 
HETATM   35  F1  UNL     1      -5.063 -34.977 -30.807  1.00  0.00    -0.206 F 
HETATM   36  F2  UNL     1      -3.525 -36.617 -31.566  1.00  0.00    -0.206 F 
ENDBRANCH  31  32
ENDBRANCH  11  31
BRANCH  10  37
HETATM   37  O2  UNL     1      -5.846 -33.329 -28.205  1.00  0.00    -0.393 OA
ATOM     38  H2  UNL     1      -5.328 -32.549 -28.363  1.00  0.00     0.210 HD
ENDBRANCH  10  37
TORSDOF 11
ENDMDL
MODEL 2
REMARK VINA RESULT: -8.584912116      1.622      2.589
REMARK  11 active torsions:
REMARK  status: ('A' for Active; 'I' for Inactive)
REMARK    1  A    between atoms: N1_1  and  C1_5 
REMARK    2  A    between atoms: C1_5  and  C2_6 
REMARK    3  A    between atoms: C1_5  and  C17_32 
REMARK    4  A    between atoms: C2_6  and  N2_7 
REMARK       I    between atoms: N2_7  and  C3_9 
REMARK    5  A    between atoms: C3_9  and  C4_11 
REMARK    6  A    between atoms: C4_11  and  C5_12 
REMARK    7  A    between atoms: C5_12  and  N3_13 
REMARK    8  A    between atoms: C11_22  and  O2_23 
REMARK    9  A    between atoms: C12_25  and  C13_26 
REMARK   10  A    between atoms: C13_26  and  C14_27 
REMARK   11  A    between atoms: C17_32  and  C18_33 
ROOT
HETATM    1  N3  UNL     1      -3.297 -36.570 -27.769  1.00  0.00    -0.368 N 
HETATM    2  C6  UNL     1      -4.470 -37.294 -27.849  1.00  0.00     0.064 C 
HETATM    3  C7  UNL     1      -5.606 -36.277 -27.746  1.00  0.00     0.060 C 
HETATM    4  C8  UNL     1      -4.934 -35.175 -26.959  1.00  0.00     0.036 C 
HETATM    5  C9  UNL     1      -4.881 -35.541 -25.467  1.00  0.00     0.247 C 
HETATM    6  N4  UNL     1      -4.789 -34.270 -24.778  1.00  0.00    -0.072 N 
ATOM      7  H41 UNL     1      -3.839 -34.040 -24.491  1.00  0.00     0.277 HD
ATOM      8  H42 UNL     1      -5.207 -34.290 -23.848  1.00  0.00     0.277 HD
HETATM    9  C10 UNL     1      -5.384 -33.259 -25.650  1.00  0.00     0.264 C 
HETATM   10  C11 UNL     1      -5.757 -33.981 -26.941  1.00  0.00     0.156 C 
HETATM   11  C12 UNL     1      -3.557 -35.179 -27.523  1.00  0.00     0.101 C 
ENDROOT
BRANCH   1  12
HETATM   12  C5  UNL     1      -2.149 -37.148 -27.271  1.00  0.00     0.072 C 
BRANCH  12  13
HETATM   13  C4  UNL     1      -1.175 -36.331 -26.523  1.00  0.00     0.147 C 
BRANCH  13  14
HETATM   14  C3  UNL     1       0.116 -35.974 -27.137  1.00  0.00     0.222 C 
HETATM   15  N2  UNL     1       1.289 -36.710 -26.746  1.00  0.00    -0.359 N 
ATOM     16  H2  UNL     1       1.134 -37.455 -26.067  1.00  0.00     0.162 HD
HETATM   17  O1  UNL     1       0.251 -35.064 -27.981  1.00  0.00    -0.273 OA
BRANCH  15  18
HETATM   18  C2  UNL     1       2.624 -36.544 -27.173  1.00  0.00     0.155 C 
BRANCH  18  19
HETATM   19  C1  UNL     1       3.451 -35.498 -26.520  1.00  0.00     0.201 C 
BRANCH  19  20
HETATM   20  N1  UNL     1       2.927 -34.176 -26.521  1.00  0.00    -0.073 N 
ATOM     21  H13 UNL     1       2.021 -34.167 -26.991  1.00  0.00     0.274 HD
ATOM     22  H12 UNL     1       2.649 -33.918 -25.574  1.00  0.00     0.274 HD
ATOM     23  H11 UNL     1       3.523 -33.447 -26.914  1.00  0.00     0.274 HD
ENDBRANCH  19  20
BRANCH  19  24
HETATM   24  C17 UNL     1       3.903 -35.927 -25.127  1.00  0.00     0.039 C 
BRANCH  24  25
HETATM   25  C18 UNL     1       5.397 -35.814 -25.008  1.00  0.00    -0.013 C 
HETATM   26  C19 UNL     1       5.839 -35.899 -23.554  1.00  0.00     0.005 C 
HETATM   27  C20 UNL     1       5.717 -37.315 -23.025  1.00  0.00     0.000 C 
HETATM   28  C21 UNL     1       6.521 -38.278 -23.880  1.00  0.00     0.000 C 
HETATM   29  C22 UNL     1       7.199 -37.533 -25.020  1.00  0.00     0.000 C 
HETATM   30  C23 UNL     1       6.088 -36.885 -25.834  1.00  0.00     0.005 C 
ENDBRANCH  24  25
ENDBRANCH  19  24
ENDBRANCH  18  19
ENDBRANCH  15  18
ENDBRANCH  13  14
ENDBRANCH  12  13
ENDBRANCH   1  12
BRANCH  11  31
HETATM   31  C13 UNL     1      -3.384 -34.295 -28.723  1.00  0.00     0.037 C 
BRANCH  31  32
HETATM   32  C14 UNL     1      -2.845 -34.997 -29.943  1.00  0.00     0.066 A 
HETATM   33  C15 UNL     1      -2.872 -34.383 -31.290  1.00  0.00     0.090 A 
HETATM   34  C16 UNL     1      -3.839 -35.468 -31.021  1.00  0.00     0.248 A 
HETATM   35  F1  UNL     1      -5.154 -35.064 -30.846  1.00  0.00    -0.206 F 
HETATM   36  F2  UNL     1      -3.603 -36.696 -31.597  1.00  0.00    -0.206 F 
ENDBRANCH  31  32
ENDBRANCH  11  31
BRANCH  10  37
HETATM   37  O2  UNL     1      -5.857 -33.190 -28.036  1.00  0.00    -0.393 OA
ATOM     38  H2  UNL     1      -5.135 -32.632 -28.302  1.00  0.00     0.210 HD
ENDBRANCH  10  37
TORSDOF 11
ENDMDL
MODEL 3
REMARK VINA RESULT: -8.407221752      3.720      9.100
REMARK  11 active torsions:
REMARK  status: ('A' for Active; 'I' for Inactive)
REMARK    1  A    between atoms: N1_1  and  C1_5 
REMARK    2  A    between atoms: C1_5  and  C2_6 
REMARK    3  A    between atoms: C1_5  and  C17_32 
REMARK    4  A    between atoms: C2_6  and  N2_7 
REMARK       I    between atoms: N2_7  and  C3_9 
REMARK    5  A    between atoms: C3_9  and  C4_11 
REMARK    6  A    between atoms: C4_11  and  C5_12 
REMARK    7  A    between atoms: C5_12  and  N3_13 
REMARK    8  A    between atoms: C11_22  and  O2_23 
REMARK    9  A    between atoms: C12_25  and  C13_26 
REMARK   10  A    between atoms: C13_26  and  C14_27 
REMARK   11  A    between atoms: C17_32  and  C18_33 
ROOT
HETATM    1  N3  UNL     1       3.149 -35.278 -23.336  1.00  0.00    -0.368 N 
HETATM    2  C6  UNL     1       3.138 -34.301 -22.360  1.00  0.00     0.064 C 
HETATM    3  C7  UNL     1       4.453 -34.449 -21.595  1.00  0.00     0.060 C 
HETATM    4  C8  UNL     1       4.748 -35.915 -21.813  1.00  0.00     0.036 C 
HETATM    5  C9  UNL     1       3.892 -36.778 -20.874  1.00  0.00     0.247 C 
HETATM    6  N4  UNL     1       4.630 -38.017 -20.734  1.00  0.00    -0.072 N 
ATOM      7  H41 UNL     1       4.270 -38.764 -21.328  1.00  0.00     0.277 HD
ATOM      8  H42 UNL     1       4.474 -38.475 -19.836  1.00  0.00     0.277 HD
HETATM    9  C10 UNL     1       6.038 -37.715 -20.985  1.00  0.00     0.264 C 
HETATM   10  C11 UNL     1       6.090 -36.240 -21.371  1.00  0.00     0.156 C 
HETATM   11  C12 UNL     1       4.307 -36.120 -23.220  1.00  0.00     0.101 C 
ENDROOT
BRANCH   1  12
HETATM   12  C5  UNL     1       1.968 -35.804 -23.814  1.00  0.00     0.072 C 
BRANCH  12  13
HETATM   13  C4  UNL     1       1.518 -35.484 -25.183  1.00  0.00     0.147 C 
BRANCH  13  14
HETATM   14  C3  UNL     1       0.489 -36.313 -25.834  1.00  0.00     0.222 C 
HETATM   15  N2  UNL     1      -0.880 -35.874 -25.785  1.00  0.00    -0.359 N 
ATOM     16  H2  UNL     1      -1.040 -34.989 -25.304  1.00  0.00     0.162 HD
HETATM   17  O1  UNL     1       0.739 -37.382 -26.428  1.00  0.00    -0.273 OA
BRANCH  15  18
HETATM   18  C2  UNL     1      -2.032 -36.498 -26.309  1.00  0.00     0.155 C 
BRANCH  18  19
HETATM   19  C1  UNL     1      -3.010 -35.668 -27.056  1.00  0.00     0.201 C 
BRANCH  19  20
HETATM   20  N1  UNL     1      -3.075 -34.290 -26.709  1.00  0.00    -0.073 N 
ATOM     21  H13 UNL     1      -4.047 -34.022 -26.554  1.00  0.00     0.274 HD
ATOM     22  H12 UNL     1      -2.692 -34.155 -25.774  1.00  0.00     0.274 HD
ATOM     23  H11 UNL     1      -2.638 -33.634 -27.357  1.00  0.00     0.274 HD
ENDBRANCH  19  20
BRANCH  19  24
HETATM   24  C17 UNL     1      -2.880 -35.867 -28.564  1.00  0.00     0.039 C 
BRANCH  24  25
HETATM   25  C18 UNL     1      -4.213 -35.672 -29.230  1.00  0.00    -0.013 C 
HETATM   26  C19 UNL     1      -4.069 -35.637 -30.745  1.00  0.00     0.005 C 
HETATM   27  C20 UNL     1      -3.783 -37.017 -31.302  1.00  0.00     0.000 C 
HETATM   28  C21 UNL     1      -4.871 -37.996 -30.896  1.00  0.00     0.000 C 
HETATM   29  C22 UNL     1      -5.917 -37.296 -30.041  1.00  0.00     0.000 C 
HETATM   30  C23 UNL     1      -5.188 -36.761 -28.818  1.00  0.00     0.005 C 
ENDBRANCH  24  25
ENDBRANCH  19  24
ENDBRANCH  18  19
ENDBRANCH  15  18
ENDBRANCH  13  14
ENDBRANCH  12  13
ENDBRANCH   1  12
BRANCH  11  31
HETATM   31  C13 UNL     1       5.372 -35.852 -24.241  1.00  0.00     0.037 C 
BRANCH  31  32
HETATM   32  C14 UNL     1       5.249 -36.673 -25.500  1.00  0.00     0.066 A 
HETATM   33  C15 UNL     1       6.086 -36.422 -26.696  1.00  0.00     0.090 A 
HETATM   34  C16 UNL     1       4.670 -36.003 -26.761  1.00  0.00     0.248 A 
HETATM   35  F1  UNL     1       4.449 -34.637 -26.670  1.00  0.00    -0.206 F 
HETATM   36  F2  UNL     1       3.811 -36.755 -27.532  1.00  0.00    -0.206 F 
ENDBRANCH  31  32
ENDBRANCH  11  31
BRANCH  10  37
HETATM   37  O2  UNL     1       7.171 -35.874 -22.103  1.00  0.00    -0.393 OA
ATOM     38  H2  UNL     1       7.952 -35.536 -21.682  1.00  0.00     0.210 HD
ENDBRANCH  10  37
TORSDOF 11
ENDMDL
MODEL 4
REMARK VINA RESULT: -8.391401525      3.121      8.730
REMARK  11 active torsions:
REMARK  status: ('A' for Active; 'I' for Inactive)
REMARK    1  A    between atoms: N1_1  and  C1_5 
REMARK    2  A    between atoms: C1_5  and  C2_6 
REMARK    3  A    between atoms: C1_5  and  C17_32 
REMARK    4  A    between atoms: C2_6  and  N2_7 
REMARK       I    between atoms: N2_7  and  C3_9 
REMARK    5  A    between atoms: C3_9  and  C4_11 
REMARK    6  A    between atoms: C4_11  and  C5_12 
REMARK    7  A    between atoms: C5_12  and  N3_13 
REMARK    8  A    between atoms: C11_22  and  O2_23 
REMARK    9  A    between atoms: C12_25  and  C13_26 
REMARK   10  A    between atoms: C13_26  and  C14_27 
REMARK   11  A    between atoms: C17_32  and  C18_33 
ROOT
HETATM    1  N3  UNL     1       3.318 -35.927 -26.710  1.00  0.00    -0.368 N 
HETATM    2  C6  UNL     1       4.056 -34.766 -26.839  1.00  0.00     0.064 C 
HETATM    3  C7  UNL     1       5.517 -35.166 -26.633  1.00  0.00     0.060 C 
HETATM    4  C8  UNL     1       5.359 -36.390 -25.762  1.00  0.00     0.036 C 
HETATM    5  C9  UNL     1       5.077 -35.979 -24.309  1.00  0.00     0.247 C 
HETATM    6  N4  UNL     1       5.520 -37.106 -23.513  1.00  0.00    -0.072 N 
ATOM      7  H41 UNL     1       4.754 -37.711 -23.218  1.00  0.00     0.277 HD
ATOM      8  H42 UNL     1       5.840 -36.835 -22.583  1.00  0.00     0.277 HD
HETATM    9  C10 UNL     1       6.541 -37.810 -24.287  1.00  0.00     0.264 C 
HETATM   10  C11 UNL     1       6.621 -37.093 -25.630  1.00  0.00     0.156 C 
HETATM   11  C12 UNL     1       4.150 -37.037 -26.341  1.00  0.00     0.101 C 
ENDROOT
BRANCH   1  12
HETATM   12  C5  UNL     1       2.010 -35.881 -26.278  1.00  0.00     0.072 C 
BRANCH  12  13
HETATM   13  C4  UNL     1       0.914 -35.738 -27.256  1.00  0.00     0.147 C 
BRANCH  13  14
HETATM   14  C3  UNL     1      -0.488 -35.803 -26.809  1.00  0.00     0.222 C 
HETATM   15  N2  UNL     1      -1.524 -35.442 -27.740  1.00  0.00    -0.359 N 
ATOM     16  H2  UNL     1      -1.204 -35.177 -28.671  1.00  0.00     0.162 HD
HETATM   17  O1  UNL     1      -0.831 -36.154 -25.661  1.00  0.00    -0.273 OA
BRANCH  15  18
HETATM   18  C2  UNL     1      -2.921 -35.405 -27.543  1.00  0.00     0.155 C 
BRANCH  18  19
HETATM   19  C1  UNL     1      -3.675 -36.684 -27.569  1.00  0.00     0.201 C 
BRANCH  19  20
HETATM   20  N1  UNL     1      -3.585 -37.501 -26.409  1.00  0.00    -0.073 N 
ATOM     21  H13 UNL     1      -2.687 -37.347 -25.950  1.00  0.00     0.274 HD
ATOM     22  H12 UNL     1      -4.223 -37.150 -25.694  1.00  0.00     0.274 HD
ATOM     23  H11 UNL     1      -3.735 -38.501 -26.541  1.00  0.00     0.274 HD
ENDBRANCH  19  20
BRANCH  19  24
HETATM   24  C17 UNL     1      -5.123 -36.473 -28.003  1.00  0.00     0.039 C 
BRANCH  24  25
HETATM   25  C18 UNL     1      -5.349 -37.071 -29.363  1.00  0.00    -0.013 C 
HETATM   26  C19 UNL     1      -5.787 -36.011 -30.363  1.00  0.00     0.005 C 
HETATM   27  C20 UNL     1      -4.632 -35.108 -30.748  1.00  0.00     0.000 C 
HETATM   28  C21 UNL     1      -3.480 -35.922 -31.310  1.00  0.00     0.000 C 
HETATM   29  C22 UNL     1      -3.828 -37.403 -31.307  1.00  0.00     0.000 C 
HETATM   30  C23 UNL     1      -4.100 -37.779 -29.858  1.00  0.00     0.005 C 
ENDBRANCH  24  25
ENDBRANCH  19  24
ENDBRANCH  18  19
ENDBRANCH  15  18
ENDBRANCH  13  14
ENDBRANCH  12  13
ENDBRANCH   1  12
BRANCH  11  31
HETATM   31  C13 UNL     1       4.444 -37.991 -27.461  1.00  0.00     0.037 C 
BRANCH  31  32
HETATM   32  C14 UNL     1       4.446 -37.362 -28.831  1.00  0.00     0.066 A 
HETATM   33  C15 UNL     1       3.262 -37.391 -29.721  1.00  0.00     0.090 A 
HETATM   34  C16 UNL     1       4.390 -38.283 -30.065  1.00  0.00     0.248 A 
HETATM   35  F1  UNL     1       4.185 -39.629 -29.803  1.00  0.00    -0.206 F 
HETATM   36  F2  UNL     1       5.177 -37.939 -31.141  1.00  0.00    -0.206 F 
ENDBRANCH  31  32
ENDBRANCH  11  31
BRANCH  10  37
HETATM   37  O2  UNL     1       7.113 -37.836 -26.651  1.00  0.00    -0.393 OA
ATOM     38  H2  UNL     1       7.583 -38.643 -26.483  1.00  0.00     0.210 HD
ENDBRANCH  10  37
TORSDOF 11
ENDMDL
MODEL 5
REMARK VINA RESULT: -8.319542229      2.186      2.865
REMARK  11 active torsions:
REMARK  status: ('A' for Active; 'I' for Inactive)
REMARK    1  A    between atoms: N1_1  and  C1_5 
REMARK    2  A    between atoms: C1_5  and  C2_6 
REMARK    3  A    between atoms: C1_5  and  C17_32 
REMARK    4  A    between atoms: C2_6  and  N2_7 
REMARK       I    between atoms: N2_7  and  C3_9 
REMARK    5  A    between atoms: C3_9  and  C4_11 
REMARK    6  A    between atoms: C4_11  and  C5_12 
REMARK    7  A    between atoms: C5_12  and  N3_13 
REMARK    8  A    between atoms: C11_22  and  O2_23 
REMARK    9  A    between atoms: C12_25  and  C13_26 
REMARK   10  A    between atoms: C13_26  and  C14_27 
REMARK   11  A    between atoms: C17_32  and  C18_33 
ROOT
HETATM    1  N3  UNL     1      -3.214 -36.497 -27.763  1.00  0.00    -0.368 N 
HETATM    2  C6  UNL     1      -4.358 -37.265 -27.858  1.00  0.00     0.064 C 
HETATM    3  C7  UNL     1      -5.533 -36.289 -27.780  1.00  0.00     0.060 C 
HETATM    4  C8  UNL     1      -4.915 -35.160 -26.988  1.00  0.00     0.036 C 
HETATM    5  C9  UNL     1      -4.873 -35.514 -25.494  1.00  0.00     0.247 C 
HETATM    6  N4  UNL     1      -4.840 -34.238 -24.812  1.00  0.00    -0.072 N 
ATOM      7  H41 UNL     1      -3.903 -33.971 -24.510  1.00  0.00     0.277 HD
ATOM      8  H42 UNL     1      -5.272 -34.268 -23.888  1.00  0.00     0.277 HD
HETATM    9  C10 UNL     1      -5.457 -33.254 -25.699  1.00  0.00     0.264 C 
HETATM   10  C11 UNL     1      -5.781 -33.997 -26.991  1.00  0.00     0.156 C 
HETATM   11  C12 UNL     1      -3.529 -35.115 -27.530  1.00  0.00     0.101 C 
ENDROOT
BRANCH   1  12
HETATM   12  C5  UNL     1      -2.054 -37.030 -27.243  1.00  0.00     0.072 C 
BRANCH  12  13
HETATM   13  C4  UNL     1      -1.333 -36.321 -26.168  1.00  0.00     0.147 C 
BRANCH  13  14
HETATM   14  C3  UNL     1       0.042 -35.841 -26.394  1.00  0.00     0.222 C 
HETATM   15  N2  UNL     1       0.956 -35.831 -25.284  1.00  0.00    -0.359 N 
ATOM     16  H2  UNL     1       0.581 -36.181 -24.402  1.00  0.00     0.162 HD
HETATM   17  O1  UNL     1       0.460 -35.439 -27.499  1.00  0.00    -0.273 OA
BRANCH  15  18
HETATM   18  C2  UNL     1       2.301 -35.403 -25.245  1.00  0.00     0.155 C 
BRANCH  18  19
HETATM   19  C1  UNL     1       2.853 -34.915 -23.956  1.00  0.00     0.201 C 
BRANCH  19  20
HETATM   20  N1  UNL     1       1.928 -34.335 -23.044  1.00  0.00    -0.073 N 
ATOM     21  H13 UNL     1       1.429 -33.572 -23.502  1.00  0.00     0.274 HD
ATOM     22  H12 UNL     1       1.161 -34.985 -22.875  1.00  0.00     0.274 HD
ATOM     23  H11 UNL     1       2.305 -34.011 -22.154  1.00  0.00     0.274 HD
ENDBRANCH  19  20
BRANCH  19  24
HETATM   24  C17 UNL     1       3.725 -35.971 -23.283  1.00  0.00     0.039 C 
BRANCH  24  25
HETATM   25  C18 UNL     1       5.167 -35.763 -23.649  1.00  0.00    -0.013 C 
HETATM   26  C19 UNL     1       6.090 -36.228 -22.530  1.00  0.00     0.005 C 
HETATM   27  C20 UNL     1       6.136 -37.741 -22.451  1.00  0.00     0.000 C 
HETATM   28  C21 UNL     1       6.572 -38.335 -23.778  1.00  0.00     0.000 C 
HETATM   29  C22 UNL     1       6.820 -37.231 -24.795  1.00  0.00     0.000 C 
HETATM   30  C23 UNL     1       5.506 -36.479 -24.945  1.00  0.00     0.005 C 
ENDBRANCH  24  25
ENDBRANCH  19  24
ENDBRANCH  18  19
ENDBRANCH  15  18
ENDBRANCH  13  14
ENDBRANCH  12  13
ENDBRANCH   1  12
BRANCH  11  31
HETATM   31  C13 UNL     1      -3.370 -34.232 -28.732  1.00  0.00     0.037 C 
BRANCH  31  32
HETATM   32  C14 UNL     1      -2.812 -34.928 -29.947  1.00  0.00     0.066 A 
HETATM   33  C15 UNL     1      -2.854 -34.322 -31.298  1.00  0.00     0.090 A 
HETATM   34  C16 UNL     1      -3.793 -35.430 -31.023  1.00  0.00     0.248 A 
HETATM   35  F1  UNL     1      -5.118 -35.060 -30.851  1.00  0.00    -0.206 F 
HETATM   36  F2  UNL     1      -3.526 -36.656 -31.592  1.00  0.00    -0.206 F 
ENDBRANCH  31  32
ENDBRANCH  11  31
BRANCH  10  37
HETATM   37  O2  UNL     1      -5.892 -33.215 -28.092  1.00  0.00    -0.393 OA
ATOM     38  H2  UNL     1      -5.341 -32.450 -28.205  1.00  0.00     0.210 HD
ENDBRANCH  10  37
TORSDOF 11
ENDMDL
