MODEL 1
REMARK VINA RESULT: -6.324728972      0.000      0.000
REMARK  6 active torsions:
REMARK  status: ('A' for Active; 'I' for Inactive)
REMARK    1  A    between atoms: N1_2  and  C2_5 
REMARK    2  A    between atoms: N2_7  and  C4_8 
REMARK    3  A    between atoms: C4_8  and  C5_9 
REMARK    4  A    between atoms: C5_9  and  C6_10 
REMARK    5  A    between atoms: C6_10  and  N3_11 
REMARK    6  A    between atoms: C12_21  and  C13_22 
ROOT
HETATM    1  C2  UNL     1      15.800   1.926  15.322  1.00  0.00     0.219 C 
HETATM    2  C3  UNL     1      16.273   2.801  14.172  1.00  0.00     0.305 C 
HETATM    3  N2  UNL     1      15.837   4.143  14.427  1.00  0.00     0.091 N 
HETATM    4  C11 UNL     1      14.759   3.995  15.355  1.00  0.00     0.279 C 
HETATM    5  C12 UNL     1      15.354   2.959  16.318  1.00  0.00     0.050 C 
ENDROOT
BRANCH   3   6
HETATM    6  C4  UNL     1      16.882   5.028  14.814  1.00  0.00     0.274 C 
BRANCH   6   7
HETATM    7  C5  UNL     1      18.207   4.336  14.843  1.00  0.00     0.050 C 
BRANCH   7   8
HETATM    8  C6  UNL     1      19.231   5.045  13.950  1.00  0.00     0.121 C 
BRANCH   8   9
HETATM    9  N3  UNL     1      19.962   4.061  13.242  1.00  0.00    -0.395 N 
HETATM   10  C7  UNL     1      19.680   3.819  12.025  1.00  0.00     0.009 A 
HETATM   11  C8  UNL     1      20.408   2.800  11.224  1.00  0.00     0.081 A 
HETATM   12  C10 UNL     1      18.639   4.466  11.219  1.00  0.00     0.284 A 
HETATM   13  C9  UNL     1      19.759   2.905   9.887  1.00  0.00     0.238 A 
HETATM   14  N4  UNL     1      18.674   3.826   9.942  1.00  0.00    -0.070 N 
ATOM     15  H42 UNL     1      18.706   4.501   9.178  1.00  0.00     0.277 HD
ATOM     16  H41 UNL     1      17.784   3.382   9.713  1.00  0.00     0.277 HD
ATOM     17  H3  UNL     1      20.712   3.548  13.706  1.00  0.00     0.159 HD
ENDBRANCH   8   9
ENDBRANCH   7   8
ENDBRANCH   6   7
ENDBRANCH   3   6
BRANCH   1  18
HETATM   18  N1  UNL     1      16.793   1.026  15.802  1.00  0.00    -0.073 N 
HETATM   19  C1  UNL     1      16.842  -0.140  14.976  1.00  0.00     0.267 C 
ATOM     20  H12 UNL     1      16.652   0.792  16.785  1.00  0.00     0.277 HD
ATOM     21  H11 UNL     1      17.706   1.473  15.884  1.00  0.00     0.277 HD
ENDBRANCH   1  18
BRANCH   5  22
HETATM   22  C13 UNL     1      14.324   2.454  17.280  1.00  0.00    -0.015 C 
HETATM   23  C14 UNL     1      14.972   2.283  18.627  1.00  0.00     0.010 C 
HETATM   24  C15 UNL     1      13.605   1.232  16.818  1.00  0.00     0.010 C 
ENDBRANCH   5  22
TORSDOF 6
ENDMDL
MODEL 2
REMARK VINA RESULT: -6.320605069      1.132      1.701
REMARK  6 active torsions:
REMARK  status: ('A' for Active; 'I' for Inactive)
REMARK    1  A    between atoms: N1_2  and  C2_5 
REMARK    2  A    between atoms: N2_7  and  C4_8 
REMARK    3  A    between atoms: C4_8  and  C5_9 
REMARK    4  A    between atoms: C5_9  and  C6_10 
REMARK    5  A    between atoms: C6_10  and  N3_11 
REMARK    6  A    between atoms: C12_21  and  C13_22 
ROOT
HETATM    1  C2  UNL     1      15.816   1.546  15.144  1.00  0.00     0.219 C 
HETATM    2  C3  UNL     1      15.904   2.658  14.110  1.00  0.00     0.305 C 
HETATM    3  N2  UNL     1      15.604   3.898  14.766  1.00  0.00     0.091 N 
HETATM    4  C11 UNL     1      14.888   3.513  15.942  1.00  0.00     0.279 C 
HETATM    5  C12 UNL     1      15.744   2.333  16.422  1.00  0.00     0.050 C 
ENDROOT
BRANCH   3   6
HETATM    6  C4  UNL     1      16.738   4.735  14.966  1.00  0.00     0.274 C 
BRANCH   6   7
HETATM    7  C5  UNL     1      16.643   5.993  14.162  1.00  0.00     0.050 C 
BRANCH   7   8
HETATM    8  C6  UNL     1      17.814   6.124  13.184  1.00  0.00     0.121 C 
BRANCH   8   9
HETATM    9  N3  UNL     1      17.669   5.137  12.180  1.00  0.00    -0.395 N 
HETATM   10  C7  UNL     1      18.583   4.269  12.011  1.00  0.00     0.009 A 
HETATM   11  C8  UNL     1      18.494   3.206  10.975  1.00  0.00     0.081 A 
HETATM   12  C10 UNL     1      19.837   4.155  12.765  1.00  0.00     0.284 A 
HETATM   13  C9  UNL     1      19.752   2.435  11.183  1.00  0.00     0.238 A 
HETATM   14  N4  UNL     1      20.552   3.066  12.178  1.00  0.00    -0.070 N 
ATOM     15  H42 UNL     1      20.882   2.403  12.880  1.00  0.00     0.277 HD
ATOM     16  H41 UNL     1      21.458   3.358  11.810  1.00  0.00     0.277 HD
ATOM     17  H3  UNL     1      16.834   5.122  11.594  1.00  0.00     0.159 HD
ENDBRANCH   8   9
ENDBRANCH   7   8
ENDBRANCH   6   7
ENDBRANCH   3   6
BRANCH   1  18
HETATM   18  N1  UNL     1      16.891   0.616  15.077  1.00  0.00    -0.073 N 
HETATM   19  C1  UNL     1      16.881  -0.059  13.817  1.00  0.00     0.267 C 
ATOM     20  H12 UNL     1      16.880  -0.037  15.860  1.00  0.00     0.277 HD
ATOM     21  H11 UNL     1      17.791   1.059  15.264  1.00  0.00     0.277 HD
ENDBRANCH   1  18
BRANCH   5  22
HETATM   22  C13 UNL     1      15.077   1.594  17.541  1.00  0.00    -0.015 C 
HETATM   23  C14 UNL     1      13.780   1.026  17.030  1.00  0.00     0.010 C 
HETATM   24  C15 UNL     1      14.913   2.394  18.788  1.00  0.00     0.010 C 
ENDBRANCH   5  22
TORSDOF 6
ENDMDL
MODEL 3
REMARK VINA RESULT: -6.233703709      1.995      5.970
REMARK  6 active torsions:
REMARK  status: ('A' for Active; 'I' for Inactive)
REMARK    1  A    between atoms: N1_2  and  C2_5 
REMARK    2  A    between atoms: N2_7  and  C4_8 
REMARK    3  A    between atoms: C4_8  and  C5_9 
REMARK    4  A    between atoms: C5_9  and  C6_10 
REMARK    5  A    between atoms: C6_10  and  N3_11 
REMARK    6  A    between atoms: C12_21  and  C13_22 
ROOT
HETATM    1  C2  UNL     1      18.458   2.142  10.479  1.00  0.00     0.219 C 
HETATM    2  C3  UNL     1      18.255   3.646  10.584  1.00  0.00     0.305 C 
HETATM    3  N2  UNL     1      17.376   3.899  11.689  1.00  0.00     0.091 N 
HETATM    4  C11 UNL     1      16.696   2.658  11.891  1.00  0.00     0.279 C 
HETATM    5  C12 UNL     1      17.865   1.671  11.777  1.00  0.00     0.050 C 
ENDROOT
BRANCH   3   6
HETATM    6  C4  UNL     1      18.024   4.454  12.828  1.00  0.00     0.274 C 
BRANCH   6   7
HETATM    7  C5  UNL     1      17.042   4.828  13.892  1.00  0.00     0.050 C 
BRANCH   7   8
HETATM    8  C6  UNL     1      17.102   3.858  15.077  1.00  0.00     0.121 C 
BRANCH   8   9
HETATM    9  N3  UNL     1      15.784   3.644  15.545  1.00  0.00    -0.395 N 
HETATM   10  C7  UNL     1      15.486   2.546  16.113  1.00  0.00     0.009 A 
HETATM   11  C8  UNL     1      14.121   2.258  16.628  1.00  0.00     0.081 A 
HETATM   12  C10 UNL     1      16.383   1.412  16.359  1.00  0.00     0.284 A 
HETATM   13  C9  UNL     1      14.272   0.900  17.222  1.00  0.00     0.238 A 
HETATM   14  N4  UNL     1      15.582   0.401  16.973  1.00  0.00    -0.070 N 
ATOM     15  H42 UNL     1      16.017   0.029  17.818  1.00  0.00     0.277 HD
ATOM     16  H41 UNL     1      15.564  -0.459  16.423  1.00  0.00     0.277 HD
ATOM     17  H3  UNL     1      15.075   4.369  15.427  1.00  0.00     0.159 HD
ENDBRANCH   8   9
ENDBRANCH   7   8
ENDBRANCH   6   7
ENDBRANCH   3   6
BRANCH   1  18
HETATM   18  N1  UNL     1      19.813   1.760  10.270  1.00  0.00    -0.073 N 
HETATM   19  C1  UNL     1      20.632   2.920  10.110  1.00  0.00     0.267 C 
ATOM     20  H12 UNL     1      19.910   1.114   9.487  1.00  0.00     0.277 HD
ATOM     21  H11 UNL     1      20.156   1.150  11.012  1.00  0.00     0.277 HD
ENDBRANCH   1  18
BRANCH   5  22
HETATM   22  C13 UNL     1      17.380   0.254  11.731  1.00  0.00    -0.015 C 
HETATM   23  C14 UNL     1      16.359   0.134  10.633  1.00  0.00     0.010 C 
HETATM   24  C15 UNL     1      16.893  -0.266  13.041  1.00  0.00     0.010 C 
ENDBRANCH   5  22
TORSDOF 6
ENDMDL
MODEL 4
REMARK VINA RESULT: -6.223117336      0.817      1.170
REMARK  6 active torsions:
REMARK  status: ('A' for Active; 'I' for Inactive)
REMARK    1  A    between atoms: N1_2  and  C2_5 
REMARK    2  A    between atoms: N2_7  and  C4_8 
REMARK    3  A    between atoms: C4_8  and  C5_9 
REMARK    4  A    between atoms: C5_9  and  C6_10 
REMARK    5  A    between atoms: C6_10  and  N3_11 
REMARK    6  A    between atoms: C12_21  and  C13_22 
ROOT
HETATM    1  C2  UNL     1      15.867   1.477  15.061  1.00  0.00     0.219 C 
HETATM    2  C3  UNL     1      16.101   2.601  14.062  1.00  0.00     0.305 C 
HETATM    3  N2  UNL     1      15.927   3.847  14.749  1.00  0.00     0.091 N 
HETATM    4  C11 UNL     1      15.146   3.513  15.898  1.00  0.00     0.279 C 
HETATM    5  C12 UNL     1      15.855   2.232  16.360  1.00  0.00     0.050 C 
ENDROOT
BRANCH   3   6
HETATM    6  C4  UNL     1      17.142   4.547  14.995  1.00  0.00     0.274 C 
BRANCH   6   7
HETATM    7  C5  UNL     1      17.610   5.283  13.780  1.00  0.00     0.050 C 
BRANCH   7   8
HETATM    8  C6  UNL     1      19.109   5.079  13.543  1.00  0.00     0.121 C 
BRANCH   8   9
HETATM    9  N3  UNL     1      19.308   3.768  13.051  1.00  0.00    -0.395 N 
HETATM   10  C7  UNL     1      19.544   3.587  11.814  1.00  0.00     0.009 A 
HETATM   11  C8  UNL     1      19.762   2.236  11.231  1.00  0.00     0.081 A 
HETATM   12  C10 UNL     1      19.641   4.621  10.778  1.00  0.00     0.284 A 
HETATM   13  C9  UNL     1      20.028   2.534   9.796  1.00  0.00     0.238 A 
HETATM   14  N4  UNL     1      19.865   3.927   9.549  1.00  0.00    -0.070 N 
ATOM     15  H42 UNL     1      20.652   4.317   9.028  1.00  0.00     0.277 HD
ATOM     16  H41 UNL     1      19.129   4.110   8.866  1.00  0.00     0.277 HD
ATOM     17  H3  UNL     1      19.263   2.970  13.685  1.00  0.00     0.159 HD
ENDBRANCH   8   9
ENDBRANCH   7   8
ENDBRANCH   6   7
ENDBRANCH   3   6
BRANCH   1  18
HETATM   18  N1  UNL     1      16.834   0.435  14.987  1.00  0.00    -0.073 N 
HETATM   19  C1  UNL     1      16.876  -0.105  13.664  1.00  0.00     0.267 C 
ATOM     20  H12 UNL     1      16.671  -0.286  15.688  1.00  0.00     0.277 HD
ATOM     21  H11 UNL     1      17.754   0.745  15.301  1.00  0.00     0.277 HD
ENDBRANCH   1  18
BRANCH   5  22
HETATM   22  C13 UNL     1      15.084   1.542  17.442  1.00  0.00    -0.015 C 
HETATM   23  C14 UNL     1      13.753   1.116  16.884  1.00  0.00     0.010 C 
HETATM   24  C15 UNL     1      14.963   2.330  18.703  1.00  0.00     0.010 C 
ENDBRANCH   5  22
TORSDOF 6
ENDMDL
MODEL 5
REMARK VINA RESULT: -6.173432939      2.628      3.521
REMARK  6 active torsions:
REMARK  status: ('A' for Active; 'I' for Inactive)
REMARK    1  A    between atoms: N1_2  and  C2_5 
REMARK    2  A    between atoms: N2_7  and  C4_8 
REMARK    3  A    between atoms: C4_8  and  C5_9 
REMARK    4  A    between atoms: C5_9  and  C6_10 
REMARK    5  A    between atoms: C6_10  and  N3_11 
REMARK    6  A    between atoms: C12_21  and  C13_22 
ROOT
HETATM    1  C2  UNL     1      15.919   1.290  15.184  1.00  0.00     0.219 C 
HETATM    2  C3  UNL     1      16.206   2.342  14.123  1.00  0.00     0.305 C 
HETATM    3  N2  UNL     1      16.041   3.634  14.724  1.00  0.00     0.091 N 
HETATM    4  C11 UNL     1      15.221   3.389  15.869  1.00  0.00     0.279 C 
HETATM    5  C12 UNL     1      15.887   2.126  16.432  1.00  0.00     0.050 C 
ENDROOT
BRANCH   3   6
HETATM    6  C4  UNL     1      17.264   4.322  14.961  1.00  0.00     0.274 C 
BRANCH   6   7
HETATM    7  C5  UNL     1      17.215   5.725  14.445  1.00  0.00     0.050 C 
BRANCH   7   8
HETATM    8  C6  UNL     1      16.879   5.762  12.951  1.00  0.00     0.121 C 
BRANCH   8   9
HETATM    9  N3  UNL     1      15.767   6.617  12.766  1.00  0.00    -0.395 N 
HETATM   10  C7  UNL     1      15.338   6.850  11.591  1.00  0.00     0.009 A 
HETATM   11  C8  UNL     1      14.175   7.738  11.326  1.00  0.00     0.081 A 
HETATM   12  C10 UNL     1      15.878   6.315  10.336  1.00  0.00     0.284 A 
HETATM   13  C9  UNL     1      14.037   7.670   9.845  1.00  0.00     0.238 A 
HETATM   14  N4  UNL     1      15.099   6.899   9.291  1.00  0.00    -0.070 N 
ATOM     15  H42 UNL     1      14.759   6.199   8.631  1.00  0.00     0.277 HD
ATOM     16  H41 UNL     1      15.672   7.446   8.647  1.00  0.00     0.277 HD
ATOM     17  H3  UNL     1      15.311   7.046  13.572  1.00  0.00     0.159 HD
ENDBRANCH   8   9
ENDBRANCH   7   8
ENDBRANCH   6   7
ENDBRANCH   3   6
BRANCH   1  18
HETATM   18  N1  UNL     1      16.864   0.226  15.204  1.00  0.00    -0.073 N 
HETATM   19  C1  UNL     1      16.962  -0.371  13.909  1.00  0.00     0.267 C 
ATOM     20  H12 UNL     1      16.649  -0.462  15.926  1.00  0.00     0.277 HD
ATOM     21  H11 UNL     1      17.773   0.529  15.554  1.00  0.00     0.277 HD
ENDBRANCH   1  18
BRANCH   5  22
HETATM   22  C13 UNL     1      15.071   1.523  17.533  1.00  0.00    -0.015 C 
HETATM   23  C14 UNL     1      13.741   1.104  16.967  1.00  0.00     0.010 C 
HETATM   24  C15 UNL     1      14.946   2.386  18.742  1.00  0.00     0.010 C 
ENDBRANCH   5  22
TORSDOF 6
ENDMDL
