MODEL 1
REMARK VINA RESULT: -7.267362094      0.000      0.000
REMARK  7 active torsions:
REMARK  status: ('A' for Active; 'I' for Inactive)
REMARK    1  A    between atoms: C1_2  and  C2_4 
REMARK    2  A    between atoms: C2_4  and  O2_5 
REMARK    3  A    between atoms: N2_8  and  C4_9 
REMARK    4  A    between atoms: C4_9  and  C5_10 
REMARK    5  A    between atoms: C6_11  and  C7_12 
REMARK    6  A    between atoms: C7_12  and  C8_13 
REMARK    7  A    between atoms: C8_13  and  C9_14 
ROOT
HETATM    1  C4  UNL     1      17.420   5.124  12.524  1.00  0.00     0.300 C 
ENDROOT
BRANCH   1   2
HETATM    2  N2  UNL     1      17.981   3.926  11.917  1.00  0.00     0.098 N 
HETATM    3  C3  UNL     1      17.629   3.749  10.523  1.00  0.00     0.322 C 
HETATM    4  C2  UNL     1      17.443   2.279  10.814  1.00  0.00     0.188 C 
HETATM    5  C15 UNL     1      17.149   2.776  12.214  1.00  0.00     0.322 C 
BRANCH   4   6
HETATM    6  C1  UNL     1      18.699   1.505  10.752  1.00  0.00     0.269 C 
HETATM    7  N1  UNL     1      19.626   1.713   9.673  1.00  0.00    -0.059 NA
HETATM    8  O1  UNL     1      18.957   0.668  11.638  1.00  0.00    -0.273 OA
ENDBRANCH   4   6
BRANCH   4   9
HETATM    9  O2  UNL     1      16.361   1.691  10.167  1.00  0.00    -0.377 OA
ATOM     10  H2  UNL     1      16.005   2.194   9.444  1.00  0.00     0.211 HD
ENDBRANCH   4   9
ENDBRANCH   1   2
BRANCH   1  11
HETATM   11  C5  UNL     1      17.731   5.159  13.962  1.00  0.00    -0.001 C 
HETATM   12  C6  UNL     1      16.840   5.254  14.903  1.00  0.00    -0.029 C 
BRANCH  12  13
HETATM   13  C7  UNL     1      15.384   5.343  14.694  1.00  0.00     0.027 C 
BRANCH  13  14
HETATM   14  C8  UNL     1      14.801   3.939  14.786  1.00  0.00     0.008 C 
BRANCH  14  15
HETATM   15  C9  UNL     1      15.378   3.174  15.945  1.00  0.00    -0.014 C 
HETATM   16  C10 UNL     1      14.302   3.011  16.988  1.00  0.00     0.004 C 
HETATM   17  C11 UNL     1      13.676   1.618  16.880  1.00  0.00     0.000 C 
HETATM   18  C12 UNL     1      14.734   0.620  17.292  1.00  0.00     0.000 C 
HETATM   19  C13 UNL     1      16.109   1.005  16.792  1.00  0.00     0.000 C 
HETATM   20  C14 UNL     1      16.020   1.891  15.547  1.00  0.00     0.004 C 
ENDBRANCH  14  15
ENDBRANCH  13  14
ENDBRANCH  12  13
ENDBRANCH   1  11
TORSDOF 7
ENDMDL
MODEL 2
REMARK VINA RESULT: -7.224930917      1.652      2.097
REMARK  7 active torsions:
REMARK  status: ('A' for Active; 'I' for Inactive)
REMARK    1  A    between atoms: C1_2  and  C2_4 
REMARK    2  A    between atoms: C2_4  and  O2_5 
REMARK    3  A    between atoms: N2_8  and  C4_9 
REMARK    4  A    between atoms: C4_9  and  C5_10 
REMARK    5  A    between atoms: C6_11  and  C7_12 
REMARK    6  A    between atoms: C7_12  and  C8_13 
REMARK    7  A    between atoms: C8_13  and  C9_14 
ROOT
HETATM    1  C4  UNL     1      17.783   3.715  11.900  1.00  0.00     0.300 C 
ENDROOT
BRANCH   1   2
HETATM    2  N2  UNL     1      17.636   2.271  12.004  1.00  0.00     0.098 N 
HETATM    3  C3  UNL     1      18.063   1.547  10.824  1.00  0.00     0.322 C 
HETATM    4  C2  UNL     1      16.856   0.657  11.001  1.00  0.00     0.188 C 
HETATM    5  C15 UNL     1      16.277   1.880  11.682  1.00  0.00     0.322 C 
BRANCH   4   6
HETATM    6  C1  UNL     1      17.078  -0.453  11.950  1.00  0.00     0.269 C 
HETATM    7  N1  UNL     1      17.815  -1.618  11.541  1.00  0.00    -0.059 NA
HETATM    8  O1  UNL     1      16.626  -0.380  13.107  1.00  0.00    -0.273 OA
ENDBRANCH   4   6
BRANCH   4   9
HETATM    9  O2  UNL     1      16.221   0.298   9.817  1.00  0.00    -0.377 OA
ATOM     10  H2  UNL     1      15.320   0.589   9.741  1.00  0.00     0.211 HD
ENDBRANCH   4   9
ENDBRANCH   1   2
BRANCH   1  11
HETATM   11  C5  UNL     1      18.283   4.268  13.168  1.00  0.00    -0.001 C 
HETATM   12  C6  UNL     1      17.527   4.764  14.101  1.00  0.00    -0.029 C 
BRANCH  12  13
HETATM   13  C7  UNL     1      16.057   4.858  14.048  1.00  0.00     0.027 C 
BRANCH  13  14
HETATM   14  C8  UNL     1      15.510   4.601  15.447  1.00  0.00     0.008 C 
BRANCH  14  15
HETATM   15  C9  UNL     1      14.845   3.255  15.544  1.00  0.00    -0.014 C 
HETATM   16  C10 UNL     1      15.879   2.195  15.262  1.00  0.00     0.004 C 
HETATM   17  C11 UNL     1      16.394   1.605  16.578  1.00  0.00     0.000 C 
HETATM   18  C12 UNL     1      15.249   0.839  17.203  1.00  0.00     0.000 C 
HETATM   19  C13 UNL     1      13.922   1.542  17.015  1.00  0.00     0.000 C 
HETATM   20  C14 UNL     1      14.112   3.048  16.823  1.00  0.00     0.004 C 
ENDBRANCH  14  15
ENDBRANCH  13  14
ENDBRANCH  12  13
ENDBRANCH   1  11
TORSDOF 7
ENDMDL
MODEL 3
REMARK VINA RESULT: -7.172679470      1.521      1.594
REMARK  7 active torsions:
REMARK  status: ('A' for Active; 'I' for Inactive)
REMARK    1  A    between atoms: C1_2  and  C2_4 
REMARK    2  A    between atoms: C2_4  and  O2_5 
REMARK    3  A    between atoms: N2_8  and  C4_9 
REMARK    4  A    between atoms: C4_9  and  C5_10 
REMARK    5  A    between atoms: C6_11  and  C7_12 
REMARK    6  A    between atoms: C7_12  and  C8_13 
REMARK    7  A    between atoms: C8_13  and  C9_14 
ROOT
HETATM    1  C4  UNL     1      17.267   3.795  12.308  1.00  0.00     0.300 C 
ENDROOT
BRANCH   1   2
HETATM    2  N2  UNL     1      17.316   2.343  12.238  1.00  0.00     0.098 N 
HETATM    3  C3  UNL     1      17.929   1.829  11.030  1.00  0.00     0.322 C 
HETATM    4  C2  UNL     1      16.846   0.776  10.995  1.00  0.00     0.188 C 
HETATM    5  C15 UNL     1      16.053   1.821  11.750  1.00  0.00     0.322 C 
BRANCH   4   6
HETATM    6  C1  UNL     1      17.148  -0.403  11.832  1.00  0.00     0.269 C 
HETATM    7  N1  UNL     1      17.978  -1.460  11.321  1.00  0.00    -0.059 NA
HETATM    8  O1  UNL     1      16.681  -0.483  12.983  1.00  0.00    -0.273 OA
ENDBRANCH   4   6
BRANCH   4   9
HETATM    9  O2  UNL     1      16.361   0.484   9.725  1.00  0.00    -0.377 OA
ATOM     10  H2  UNL     1      16.326  -0.441   9.512  1.00  0.00     0.211 HD
ENDBRANCH   4   9
ENDBRANCH   1   2
BRANCH   1  11
HETATM   11  C5  UNL     1      17.833   4.262  13.583  1.00  0.00    -0.001 C 
HETATM   12  C6  UNL     1      17.143   4.832  14.526  1.00  0.00    -0.029 C 
BRANCH  12  13
HETATM   13  C7  UNL     1      15.696   5.106  14.479  1.00  0.00     0.027 C 
BRANCH  13  14
HETATM   14  C8  UNL     1      14.953   3.796  14.707  1.00  0.00     0.008 C 
BRANCH  14  15
HETATM   15  C9  UNL     1      15.461   3.076  15.927  1.00  0.00    -0.014 C 
HETATM   16  C10 UNL     1      14.340   3.002  16.933  1.00  0.00     0.004 C 
HETATM   17  C11 UNL     1      13.674   1.624  16.872  1.00  0.00     0.000 C 
HETATM   18  C12 UNL     1      14.683   0.618  17.377  1.00  0.00     0.000 C 
HETATM   19  C13 UNL     1      16.088   0.935  16.914  1.00  0.00     0.000 C 
HETATM   20  C14 UNL     1      16.076   1.755  15.622  1.00  0.00     0.004 C 
ENDBRANCH  14  15
ENDBRANCH  13  14
ENDBRANCH  12  13
ENDBRANCH   1  11
TORSDOF 7
ENDMDL
MODEL 4
REMARK VINA RESULT: -7.130154866      3.021      5.765
REMARK  7 active torsions:
REMARK  status: ('A' for Active; 'I' for Inactive)
REMARK    1  A    between atoms: C1_2  and  C2_4 
REMARK    2  A    between atoms: C2_4  and  O2_5 
REMARK    3  A    between atoms: N2_8  and  C4_9 
REMARK    4  A    between atoms: C4_9  and  C5_10 
REMARK    5  A    between atoms: C6_11  and  C7_12 
REMARK    6  A    between atoms: C7_12  and  C8_13 
REMARK    7  A    between atoms: C8_13  and  C9_14 
ROOT
HETATM    1  C4  UNL     1      16.360   4.080  14.547  1.00  0.00     0.300 C 
ENDROOT
BRANCH   1   2
HETATM    2  N2  UNL     1      15.956   3.064  15.508  1.00  0.00     0.098 N 
HETATM    3  C3  UNL     1      17.047   2.528  16.296  1.00  0.00     0.322 C 
HETATM    4  C2  UNL     1      16.422   1.163  16.131  1.00  0.00     0.188 C 
HETATM    5  C15 UNL     1      15.863   1.770  14.861  1.00  0.00     0.322 C 
BRANCH   4   6
HETATM    6  C1  UNL     1      15.365   0.878  17.121  1.00  0.00     0.269 C 
HETATM    7  N1  UNL     1      14.056   0.471  16.688  1.00  0.00    -0.059 NA
HETATM    8  O1  UNL     1      15.608   0.990  18.337  1.00  0.00    -0.273 OA
ENDBRANCH   4   6
BRANCH   4   9
HETATM    9  O2  UNL     1      17.330   0.129  15.929  1.00  0.00    -0.377 OA
ATOM     10  H2  UNL     1      18.217   0.408  15.733  1.00  0.00     0.211 HD
ENDBRANCH   4   9
ENDBRANCH   1   2
BRANCH   1  11
HETATM   11  C5  UNL     1      17.799   4.357  14.676  1.00  0.00    -0.001 C 
HETATM   12  C6  UNL     1      18.617   4.467  13.672  1.00  0.00    -0.029 C 
BRANCH  12  13
HETATM   13  C7  UNL     1      18.248   4.332  12.251  1.00  0.00     0.027 C 
BRANCH  13  14
HETATM   14  C8  UNL     1      19.039   3.173  11.660  1.00  0.00     0.008 C 
BRANCH  14  15
HETATM   15  C9  UNL     1      18.167   2.278  10.820  1.00  0.00    -0.014 C 
HETATM   16  C10 UNL     1      18.929   1.009  10.535  1.00  0.00     0.004 C 
HETATM   17  C11 UNL     1      18.477  -0.097  11.492  1.00  0.00     0.000 C 
HETATM   18  C12 UNL     1      17.049  -0.442  11.135  1.00  0.00     0.000 C 
HETATM   19  C13 UNL     1      16.241   0.782  10.765  1.00  0.00     0.000 C 
HETATM   20  C14 UNL     1      16.819   2.045  11.407  1.00  0.00     0.004 C 
ENDBRANCH  14  15
ENDBRANCH  13  14
ENDBRANCH  12  13
ENDBRANCH   1  11
TORSDOF 7
ENDMDL
MODEL 5
REMARK VINA RESULT: -7.011241094      3.002      5.595
REMARK  7 active torsions:
REMARK  status: ('A' for Active; 'I' for Inactive)
REMARK    1  A    between atoms: C1_2  and  C2_4 
REMARK    2  A    between atoms: C2_4  and  O2_5 
REMARK    3  A    between atoms: N2_8  and  C4_9 
REMARK    4  A    between atoms: C4_9  and  C5_10 
REMARK    5  A    between atoms: C6_11  and  C7_12 
REMARK    6  A    between atoms: C7_12  and  C8_13 
REMARK    7  A    between atoms: C8_13  and  C9_14 
ROOT
HETATM    1  C4  UNL     1      16.369   4.318  15.100  1.00  0.00     0.300 C 
ENDROOT
BRANCH   1   2
HETATM    2  N2  UNL     1      15.936   3.165  15.874  1.00  0.00     0.098 N 
HETATM    3  C3  UNL     1      16.985   2.200  16.134  1.00  0.00     0.322 C 
HETATM    4  C2  UNL     1      15.975   1.111  15.858  1.00  0.00     0.188 C 
HETATM    5  C15 UNL     1      15.323   2.178  15.005  1.00  0.00     0.322 C 
BRANCH   4   6
HETATM    6  C1  UNL     1      15.153   0.762  17.034  1.00  0.00     0.269 C 
HETATM    7  N1  UNL     1      13.727   0.634  16.909  1.00  0.00    -0.059 NA
HETATM    8  O1  UNL     1      15.697   0.578  18.139  1.00  0.00    -0.273 OA
ENDBRANCH   4   6
BRANCH   4   9
HETATM    9  O2  UNL     1      16.473   0.023  15.148  1.00  0.00    -0.377 OA
ATOM     10  H2  UNL     1      16.229  -0.827  15.494  1.00  0.00     0.211 HD
ENDBRANCH   4   9
ENDBRANCH   1   2
BRANCH   1  11
HETATM   11  C5  UNL     1      17.729   4.102  14.582  1.00  0.00    -0.001 C 
HETATM   12  C6  UNL     1      18.056   4.179  13.326  1.00  0.00    -0.029 C 
BRANCH  12  13
HETATM   13  C7  UNL     1      17.132   4.490  12.221  1.00  0.00     0.027 C 
BRANCH  13  14
HETATM   14  C8  UNL     1      17.347   3.467  11.114  1.00  0.00     0.008 C 
BRANCH  14  15
HETATM   15  C9  UNL     1      17.774   2.134  11.667  1.00  0.00    -0.014 C 
HETATM   16  C10 UNL     1      16.555   1.252  11.770  1.00  0.00     0.004 C 
HETATM   17  C11 UNL     1      16.496   0.301  10.572  1.00  0.00     0.000 C 
HETATM   18  C12 UNL     1      17.654  -0.662  10.707  1.00  0.00     0.000 C 
HETATM   19  C13 UNL     1      18.902   0.016  11.230  1.00  0.00     0.000 C 
HETATM   20  C14 UNL     1      18.897   1.513  10.912  1.00  0.00     0.004 C 
ENDBRANCH  14  15
ENDBRANCH  13  14
ENDBRANCH  12  13
ENDBRANCH   1  11
TORSDOF 7
ENDMDL
