MODEL 1
REMARK VINA RESULT: -6.624790677      0.000      0.000
REMARK  8 active torsions:
REMARK  status: ('A' for Active; 'I' for Inactive)
REMARK    1  A    between atoms: C3_3  and  N1_4 
REMARK    2  A    between atoms: N1_4  and  C4_5 
REMARK    3  A    between atoms: N1_4  and  C7_12 
REMARK    4  A    between atoms: C4_5  and  C5_6 
REMARK    5  A    between atoms: C5_6  and  C6_7 
REMARK    6  A    between atoms: C6_7  and  N2_8 
REMARK    7  A    between atoms: C7_12  and  C8_13 
REMARK    8  A    between atoms: C8_13  and  C9_14 
ROOT
HETATM    1  C1  UNL     1      19.509   8.823  15.616  1.00  0.00     0.013 C 
HETATM    2  C2  UNL     1      19.234   8.367  14.533  1.00  0.00    -0.087 C 
HETATM    3  C3  UNL     1      18.918   7.805  13.196  1.00  0.00     0.364 C 
ENDROOT
BRANCH   3   4
HETATM    4  N1  UNL     1      19.400   6.464  13.151  1.00  0.00     0.099 N 
BRANCH   4   5
HETATM    5  C4  UNL     1      20.358   6.294  12.087  1.00  0.00     0.275 C 
BRANCH   5   6
HETATM    6  C5  UNL     1      20.013   5.157  11.164  1.00  0.00     0.057 C 
BRANCH   6   7
HETATM    7  C6  UNL     1      21.156   4.146  11.225  1.00  0.00     0.231 C 
BRANCH   7   8
HETATM    8  N2  UNL     1      20.896   3.133  12.238  1.00  0.00    -0.079 N 
ATOM      9  H23 UNL     1      20.470   3.534  13.073  1.00  0.00     0.274 HD
ATOM     10  H22 UNL     1      20.137   2.510  11.962  1.00  0.00     0.274 HD
ATOM     11  H21 UNL     1      21.747   2.616  12.460  1.00  0.00     0.274 HD
ENDBRANCH   7   8
ENDBRANCH   6   7
ENDBRANCH   5   6
ENDBRANCH   4   5
BRANCH   4  12
HETATM   12  C7  UNL     1      18.407   5.445  13.227  1.00  0.00     0.275 C 
BRANCH  12  13
HETATM   13  C8  UNL     1      18.555   4.658  14.485  1.00  0.00     0.063 C 
BRANCH  13  14
HETATM   14  C9  UNL     1      17.263   4.137  15.040  1.00  0.00     0.188 C 
HETATM   15  C10 UNL     1      16.046   4.679  14.360  1.00  0.00     0.033 C 
HETATM   16  C11 UNL     1      14.826   3.985  14.923  1.00  0.00     0.009 C 
HETATM   17  C12 UNL     1      15.112   3.317  16.251  1.00  0.00     0.016 C 
HETATM   18  C13 UNL     1      13.888   2.532  16.670  1.00  0.00     0.007 C 
HETATM   19  C17 UNL     1      16.268   2.352  16.160  1.00  0.00     0.190 C 
HETATM   20  C14 UNL     1      14.271   1.629  17.835  1.00  0.00     0.001 C 
HETATM   21  C15 UNL     1      15.230   0.545  17.427  1.00  0.00     0.002 C 
HETATM   22  C16 UNL     1      15.779   0.924  16.047  1.00  0.00     0.033 C 
HETATM   23  N3  UNL     1      17.174   2.702  15.081  1.00  0.00    -0.066 N 
ATOM     24  H32 UNL     1      16.903   2.294  14.186  1.00  0.00     0.278 HD
ATOM     25  H31 UNL     1      18.084   2.249  15.163  1.00  0.00     0.278 HD
ENDBRANCH  13  14
ENDBRANCH  12  13
ENDBRANCH   4  12
ENDBRANCH   3   4
TORSDOF 8
ENDMDL
MODEL 2
REMARK VINA RESULT: -6.582379882      1.780      3.003
REMARK  8 active torsions:
REMARK  status: ('A' for Active; 'I' for Inactive)
REMARK    1  A    between atoms: C3_3  and  N1_4 
REMARK    2  A    between atoms: N1_4  and  C4_5 
REMARK    3  A    between atoms: N1_4  and  C7_12 
REMARK    4  A    between atoms: C4_5  and  C5_6 
REMARK    5  A    between atoms: C5_6  and  C6_7 
REMARK    6  A    between atoms: C6_7  and  N2_8 
REMARK    7  A    between atoms: C7_12  and  C8_13 
REMARK    8  A    between atoms: C8_13  and  C9_14 
ROOT
HETATM    1  C1  UNL     1      21.158   5.479  10.289  1.00  0.00     0.013 C 
HETATM    2  C2  UNL     1      20.702   4.662  11.052  1.00  0.00    -0.087 C 
HETATM    3  C3  UNL     1      20.139   3.675  12.006  1.00  0.00     0.364 C 
ENDROOT
BRANCH   3   4
HETATM    4  N1  UNL     1      18.758   3.976  12.196  1.00  0.00     0.099 N 
BRANCH   4   5
HETATM    5  C4  UNL     1      18.051   3.975  10.940  1.00  0.00     0.275 C 
BRANCH   5   6
HETATM    6  C5  UNL     1      16.610   3.566  11.079  1.00  0.00     0.057 C 
BRANCH   6   7
HETATM    7  C6  UNL     1      16.583   2.147  11.643  1.00  0.00     0.231 C 
BRANCH   7   8
HETATM    8  N2  UNL     1      15.854   1.252  10.756  1.00  0.00    -0.079 N 
ATOM      9  H23 UNL     1      14.845   1.375  10.843  1.00  0.00     0.274 HD
ATOM     10  H22 UNL     1      15.958   1.522   9.779  1.00  0.00     0.274 HD
ATOM     11  H21 UNL     1      16.131   0.283  10.913  1.00  0.00     0.274 HD
ENDBRANCH   7   8
ENDBRANCH   6   7
ENDBRANCH   5   6
ENDBRANCH   4   5
BRANCH   4  12
HETATM   12  C7  UNL     1      18.476   5.091  13.038  1.00  0.00     0.275 C 
BRANCH  12  13
HETATM   13  C8  UNL     1      18.570   4.703  14.475  1.00  0.00     0.063 C 
BRANCH  13  14
HETATM   14  C9  UNL     1      17.285   4.198  15.060  1.00  0.00     0.188 C 
HETATM   15  C10 UNL     1      16.059   4.782  14.433  1.00  0.00     0.033 C 
HETATM   16  C11 UNL     1      14.843   4.102  15.021  1.00  0.00     0.009 C 
HETATM   17  C12 UNL     1      15.157   3.398  16.324  1.00  0.00     0.016 C 
HETATM   18  C13 UNL     1      13.930   2.630  16.765  1.00  0.00     0.007 C 
HETATM   19  C17 UNL     1      16.287   2.410  16.173  1.00  0.00     0.190 C 
HETATM   20  C14 UNL     1      14.330   1.693  17.896  1.00  0.00     0.001 C 
HETATM   21  C15 UNL     1      15.250   0.598  17.433  1.00  0.00     0.002 C 
HETATM   22  C16 UNL     1      15.762   0.997  16.045  1.00  0.00     0.033 C 
HETATM   23  N3  UNL     1      17.165   2.764  15.072  1.00  0.00    -0.066 N 
ATOM     24  H32 UNL     1      16.856   2.384  14.178  1.00  0.00     0.278 HD
ATOM     25  H31 UNL     1      18.067   2.290  15.114  1.00  0.00     0.278 HD
ENDBRANCH  13  14
ENDBRANCH  12  13
ENDBRANCH   4  12
ENDBRANCH   3   4
TORSDOF 8
ENDMDL
MODEL 3
REMARK VINA RESULT: -6.516670845      0.969      1.059
REMARK  8 active torsions:
REMARK  status: ('A' for Active; 'I' for Inactive)
REMARK    1  A    between atoms: C3_3  and  N1_4 
REMARK    2  A    between atoms: N1_4  and  C4_5 
REMARK    3  A    between atoms: N1_4  and  C7_12 
REMARK    4  A    between atoms: C4_5  and  C5_6 
REMARK    5  A    between atoms: C5_6  and  C6_7 
REMARK    6  A    between atoms: C6_7  and  N2_8 
REMARK    7  A    between atoms: C7_12  and  C8_13 
REMARK    8  A    between atoms: C8_13  and  C9_14 
ROOT
HETATM    1  C1  UNL     1      19.803   9.081  15.608  1.00  0.00     0.013 C 
HETATM    2  C2  UNL     1      19.200   8.412  14.804  1.00  0.00    -0.087 C 
HETATM    3  C3  UNL     1      18.473   7.596  13.800  1.00  0.00     0.364 C 
ENDROOT
BRANCH   3   4
HETATM    4  N1  UNL     1      19.318   6.518  13.406  1.00  0.00     0.099 N 
BRANCH   4   5
HETATM    5  C4  UNL     1      20.154   6.896  12.293  1.00  0.00     0.275 C 
BRANCH   5   6
HETATM    6  C5  UNL     1      21.085   5.796  11.860  1.00  0.00     0.057 C 
BRANCH   6   7
HETATM    7  C6  UNL     1      22.500   6.369  11.837  1.00  0.00     0.231 C 
BRANCH   7   8
HETATM    8  N2  UNL     1      23.489   5.311  11.987  1.00  0.00    -0.079 N 
ATOM      9  H23 UNL     1      23.143   4.551  12.574  1.00  0.00     0.274 HD
ATOM     10  H22 UNL     1      23.617   4.789  11.120  1.00  0.00     0.274 HD
ATOM     11  H21 UNL     1      24.371   5.686  12.336  1.00  0.00     0.274 HD
ENDBRANCH   7   8
ENDBRANCH   6   7
ENDBRANCH   5   6
ENDBRANCH   4   5
BRANCH   4  12
HETATM   12  C7  UNL     1      18.684   5.249  13.270  1.00  0.00     0.275 C 
BRANCH  12  13
HETATM   13  C8  UNL     1      18.755   4.486  14.549  1.00  0.00     0.063 C 
BRANCH  13  14
HETATM   14  C9  UNL     1      17.424   4.021  15.063  1.00  0.00     0.188 C 
HETATM   15  C10 UNL     1      16.255   4.579  14.316  1.00  0.00     0.033 C 
HETATM   16  C11 UNL     1      14.991   3.940  14.846  1.00  0.00     0.009 C 
HETATM   17  C12 UNL     1      15.200   3.304  16.204  1.00  0.00     0.016 C 
HETATM   18  C13 UNL     1      13.935   2.569  16.592  1.00  0.00     0.007 C 
HETATM   19  C17 UNL     1      16.328   2.302  16.190  1.00  0.00     0.190 C 
HETATM   20  C14 UNL     1      14.240   1.690  17.797  1.00  0.00     0.001 C 
HETATM   21  C15 UNL     1      15.180   0.566  17.463  1.00  0.00     0.002 C 
HETATM   22  C16 UNL     1      15.798   0.887  16.098  1.00  0.00     0.033 C 
HETATM   23  N3  UNL     1      17.289   2.591  15.141  1.00  0.00    -0.066 N 
ATOM     24  H32 UNL     1      17.042   2.166  14.248  1.00  0.00     0.278 HD
ATOM     25  H31 UNL     1      18.179   2.113  15.275  1.00  0.00     0.278 HD
ENDBRANCH  13  14
ENDBRANCH  12  13
ENDBRANCH   4  12
ENDBRANCH   3   4
TORSDOF 8
ENDMDL
MODEL 4
REMARK VINA RESULT: -6.476571575      1.180      1.740
REMARK  8 active torsions:
REMARK  status: ('A' for Active; 'I' for Inactive)
REMARK    1  A    between atoms: C3_3  and  N1_4 
REMARK    2  A    between atoms: N1_4  and  C4_5 
REMARK    3  A    between atoms: N1_4  and  C7_12 
REMARK    4  A    between atoms: C4_5  and  C5_6 
REMARK    5  A    between atoms: C5_6  and  C6_7 
REMARK    6  A    between atoms: C6_7  and  N2_8 
REMARK    7  A    between atoms: C7_12  and  C8_13 
REMARK    8  A    between atoms: C8_13  and  C9_14 
ROOT
HETATM    1  C1  UNL     1      15.653   7.087  11.487  1.00  0.00     0.013 C 
HETATM    2  C2  UNL     1      16.849   7.185  11.608  1.00  0.00    -0.087 C 
HETATM    3  C3  UNL     1      18.319   7.310  11.778  1.00  0.00     0.364 C 
ENDROOT
BRANCH   3   4
HETATM    4  N1  UNL     1      18.773   6.202  12.552  1.00  0.00     0.099 N 
BRANCH   4   5
HETATM    5  C4  UNL     1      18.620   4.967  11.824  1.00  0.00     0.275 C 
BRANCH   5   6
HETATM    6  C5  UNL     1      19.638   4.802  10.728  1.00  0.00     0.057 C 
BRANCH   6   7
HETATM    7  C6  UNL     1      20.935   4.315  11.369  1.00  0.00     0.231 C 
BRANCH   7   8
HETATM    8  N2  UNL     1      20.680   3.191  12.260  1.00  0.00    -0.079 N 
ATOM      9  H23 UNL     1      19.941   3.402  12.931  1.00  0.00     0.274 HD
ATOM     10  H22 UNL     1      20.230   2.417  11.773  1.00  0.00     0.274 HD
ATOM     11  H21 UNL     1      21.539   2.897  12.726  1.00  0.00     0.274 HD
ENDBRANCH   7   8
ENDBRANCH   6   7
ENDBRANCH   5   6
ENDBRANCH   4   5
BRANCH   4  12
HETATM   12  C7  UNL     1      18.320   6.159  13.901  1.00  0.00     0.275 C 
BRANCH  12  13
HETATM   13  C8  UNL     1      18.455   4.782  14.459  1.00  0.00     0.063 C 
BRANCH  13  14
HETATM   14  C9  UNL     1      17.188   4.225  15.036  1.00  0.00     0.188 C 
HETATM   15  C10 UNL     1      15.943   4.764  14.405  1.00  0.00     0.033 C 
HETATM   16  C11 UNL     1      14.751   4.035  14.983  1.00  0.00     0.009 C 
HETATM   17  C12 UNL     1      15.086   3.338  16.285  1.00  0.00     0.016 C 
HETATM   18  C13 UNL     1      13.887   2.521  16.717  1.00  0.00     0.007 C 
HETATM   19  C17 UNL     1      16.255   2.396  16.136  1.00  0.00     0.190 C 
HETATM   20  C14 UNL     1      14.317   1.595  17.846  1.00  0.00     0.001 C 
HETATM   21  C15 UNL     1      15.282   0.539  17.384  1.00  0.00     0.002 C 
HETATM   22  C16 UNL     1      15.786   0.963  16.000  1.00  0.00     0.033 C 
HETATM   23  N3  UNL     1      17.123   2.788  15.041  1.00  0.00    -0.066 N 
ATOM     24  H32 UNL     1      16.834   2.399  14.144  1.00  0.00     0.278 HD
ATOM     25  H31 UNL     1      18.043   2.349  15.086  1.00  0.00     0.278 HD
ENDBRANCH  13  14
ENDBRANCH  12  13
ENDBRANCH   4  12
ENDBRANCH   3   4
TORSDOF 8
ENDMDL
MODEL 5
REMARK VINA RESULT: -6.468376948      1.644      2.717
REMARK  8 active torsions:
REMARK  status: ('A' for Active; 'I' for Inactive)
REMARK    1  A    between atoms: C3_3  and  N1_4 
REMARK    2  A    between atoms: N1_4  and  C4_5 
REMARK    3  A    between atoms: N1_4  and  C7_12 
REMARK    4  A    between atoms: C4_5  and  C5_6 
REMARK    5  A    between atoms: C5_6  and  C6_7 
REMARK    6  A    between atoms: C6_7  and  N2_8 
REMARK    7  A    between atoms: C7_12  and  C8_13 
REMARK    8  A    between atoms: C8_13  and  C9_14 
ROOT
HETATM    1  C1  UNL     1      16.506   2.519  11.387  1.00  0.00     0.013 C 
HETATM    2  C2  UNL     1      17.157   3.492  11.092  1.00  0.00    -0.087 C 
HETATM    3  C3  UNL     1      17.946   4.700  10.745  1.00  0.00     0.364 C 
ENDROOT
BRANCH   3   4
HETATM    4  N1  UNL     1      18.767   5.032  11.863  1.00  0.00     0.099 N 
BRANCH   4   5
HETATM    5  C4  UNL     1      19.665   3.950  12.184  1.00  0.00     0.275 C 
BRANCH   5   6
HETATM    6  C5  UNL     1      20.954   4.010  11.409  1.00  0.00     0.057 C 
BRANCH   6   7
HETATM    7  C6  UNL     1      21.458   5.450  11.457  1.00  0.00     0.231 C 
BRANCH   7   8
HETATM    8  N2  UNL     1      22.864   5.493  11.833  1.00  0.00    -0.079 N 
ATOM      9  H23 UNL     1      23.123   6.401  12.221  1.00  0.00     0.274 HD
ATOM     10  H22 UNL     1      23.053   4.916  12.652  1.00  0.00     0.274 HD
ATOM     11  H21 UNL     1      23.458   5.236  11.044  1.00  0.00     0.274 HD
ENDBRANCH   7   8
ENDBRANCH   6   7
ENDBRANCH   5   6
ENDBRANCH   4   5
BRANCH   4  12
HETATM   12  C7  UNL     1      18.093   5.599  12.982  1.00  0.00     0.275 C 
BRANCH  12  13
HETATM   13  C8  UNL     1      18.359   4.804  14.216  1.00  0.00     0.063 C 
BRANCH  13  14
HETATM   14  C9  UNL     1      17.126   4.274  14.883  1.00  0.00     0.188 C 
HETATM   15  C10 UNL     1      15.849   4.821  14.328  1.00  0.00     0.033 C 
HETATM   16  C11 UNL     1      14.688   4.117  14.995  1.00  0.00     0.009 C 
HETATM   17  C12 UNL     1      15.100   3.435  16.282  1.00  0.00     0.016 C 
HETATM   18  C13 UNL     1      13.922   2.641  16.805  1.00  0.00     0.007 C 
HETATM   19  C17 UNL     1      16.243   2.473  16.070  1.00  0.00     0.190 C 
HETATM   20  C14 UNL     1      14.413   1.725  17.917  1.00  0.00     0.001 C 
HETATM   21  C15 UNL     1      15.331   0.649  17.408  1.00  0.00     0.002 C 
HETATM   22  C16 UNL     1      15.747   1.046  15.987  1.00  0.00     0.033 C 
HETATM   23  N3  UNL     1      17.043   2.837  14.915  1.00  0.00    -0.066 N 
ATOM     24  H32 UNL     1      16.689   2.440  14.045  1.00  0.00     0.278 HD
ATOM     25  H31 UNL     1      17.957   2.386  14.905  1.00  0.00     0.278 HD
ENDBRANCH  13  14
ENDBRANCH  12  13
ENDBRANCH   4  12
ENDBRANCH   3   4
TORSDOF 8
ENDMDL
