MODEL 1
REMARK VINA RESULT: -5.590987241      0.000      0.000
REMARK  6 active torsions:
REMARK  status: ('A' for Active; 'I' for Inactive)
REMARK    1  A    between atoms: C2_2  and  C3_3 
REMARK    2  A    between atoms: C3_3  and  C4_4 
REMARK    3  A    between atoms: C4_4  and  C5_5 
REMARK    4  A    between atoms: C6_6  and  C7_7 
REMARK    5  A    between atoms: C7_7  and  C8_8 
REMARK    6  A    between atoms: C8_8  and  C9_9 
ROOT
HETATM    1  C7  UNL     1       7.191  13.168  31.081  1.00  0.00     0.029 C 
ENDROOT
BRANCH   1   2
HETATM    2  C6  UNL     1       7.927  13.219  29.822  1.00  0.00    -0.031 C 
HETATM    3  C5  UNL     1       8.412  12.182  29.179  1.00  0.00    -0.030 C 
BRANCH   3   4
HETATM    4  C4  UNL     1       8.334  10.761  29.558  1.00  0.00     0.030 C 
BRANCH   4   5
HETATM    5  C3  UNL     1       9.572  10.192  30.162  1.00  0.00     0.030 C 
BRANCH   5   6
HETATM    6  C2  UNL     1       9.868  10.574  31.548  1.00  0.00    -0.037 C 
HETATM    7  C1  UNL     1       9.163  10.362  32.626  1.00  0.00     0.007 C 
ENDBRANCH   5   6
ENDBRANCH   4   5
ENDBRANCH   3   4
ENDBRANCH   1   2
BRANCH   1   8
HETATM    8  C8  UNL     1       7.389  14.407  31.930  1.00  0.00     0.038 C 
BRANCH   8   9
HETATM    9  C9  UNL     1       8.337  14.007  33.063  1.00  0.00     0.211 A 
HETATM   10  C10 UNL     1       9.561  14.804  33.287  1.00  0.00     0.265 A 
HETATM   11  N1  UNL     1       8.438  14.876  34.196  1.00  0.00    -0.067 N 
ATOM     12  H12 UNL     1       7.866  15.640  34.556  1.00  0.00     0.277 HD
ATOM     13  H11 UNL     1       8.330  14.744  35.202  1.00  0.00     0.277 HD
ENDBRANCH   8   9
ENDBRANCH   1   8
TORSDOF 6
ENDMDL
MODEL 2
REMARK VINA RESULT: -5.523664203      1.939      3.861
REMARK  6 active torsions:
REMARK  status: ('A' for Active; 'I' for Inactive)
REMARK    1  A    between atoms: C2_2  and  C3_3 
REMARK    2  A    between atoms: C3_3  and  C4_4 
REMARK    3  A    between atoms: C4_4  and  C5_5 
REMARK    4  A    between atoms: C6_6  and  C7_7 
REMARK    5  A    between atoms: C7_7  and  C8_8 
REMARK    6  A    between atoms: C8_8  and  C9_9 
ROOT
HETATM    1  C7  UNL     1       8.533  10.671  29.628  1.00  0.00     0.029 C 
ENDROOT
BRANCH   1   2
HETATM    2  C6  UNL     1       8.469  12.070  29.216  1.00  0.00    -0.031 C 
HETATM    3  C5  UNL     1       7.907  13.041  29.897  1.00  0.00    -0.030 C 
BRANCH   3   4
HETATM    4  C4  UNL     1       7.226  12.960  31.201  1.00  0.00     0.030 C 
BRANCH   4   5
HETATM    5  C3  UNL     1       5.774  12.632  31.144  1.00  0.00     0.030 C 
BRANCH   5   6
HETATM    6  C2  UNL     1       5.356  11.368  31.760  1.00  0.00    -0.037 C 
HETATM    7  C1  UNL     1       5.708  10.149  31.451  1.00  0.00     0.007 C 
ENDBRANCH   5   6
ENDBRANCH   4   5
ENDBRANCH   3   4
ENDBRANCH   1   2
BRANCH   1   8
HETATM    8  C8  UNL     1       9.828  10.323  30.333  1.00  0.00     0.038 C 
BRANCH   8   9
HETATM    9  C9  UNL     1       9.508  10.290  31.830  1.00  0.00     0.211 A 
HETATM   10  C10 UNL     1      10.562   9.872  32.778  1.00  0.00     0.265 A 
HETATM   11  N1  UNL     1      10.145  11.253  32.676  1.00  0.00    -0.067 N 
ATOM     12  H12 UNL     1      10.636  12.131  32.506  1.00  0.00     0.277 HD
ATOM     13  H11 UNL     1       9.803  11.942  33.348  1.00  0.00     0.277 HD
ENDBRANCH   8   9
ENDBRANCH   1   8
TORSDOF 6
ENDMDL
MODEL 3
REMARK VINA RESULT: -5.519588370      1.543      2.311
REMARK  6 active torsions:
REMARK  status: ('A' for Active; 'I' for Inactive)
REMARK    1  A    between atoms: C2_2  and  C3_3 
REMARK    2  A    between atoms: C3_3  and  C4_4 
REMARK    3  A    between atoms: C4_4  and  C5_5 
REMARK    4  A    between atoms: C6_6  and  C7_7 
REMARK    5  A    between atoms: C7_7  and  C8_8 
REMARK    6  A    between atoms: C8_8  and  C9_9 
ROOT
HETATM    1  C7  UNL     1       8.789  13.627  30.631  1.00  0.00     0.029 C 
ENDROOT
BRANCH   1   2
HETATM    2  C6  UNL     1       9.648  12.458  30.469  1.00  0.00    -0.031 C 
HETATM    3  C5  UNL     1       9.235  11.235  30.229  1.00  0.00    -0.030 C 
BRANCH   3   4
HETATM    4  C4  UNL     1       7.851  10.758  30.070  1.00  0.00     0.030 C 
BRANCH   4   5
HETATM    5  C3  UNL     1       7.140  10.427  31.337  1.00  0.00     0.030 C 
BRANCH   5   6
HETATM    6  C2  UNL     1       5.830  11.056  31.545  1.00  0.00    -0.037 C 
HETATM    7  C1  UNL     1       5.456  12.279  31.282  1.00  0.00     0.007 C 
ENDBRANCH   5   6
ENDBRANCH   4   5
ENDBRANCH   3   4
ENDBRANCH   1   2
BRANCH   1   8
HETATM    8  C8  UNL     1       9.231  14.531  31.762  1.00  0.00     0.038 C 
BRANCH   8   9
HETATM    9  C9  UNL     1       8.505  14.039  33.017  1.00  0.00     0.211 A 
HETATM   10  C10 UNL     1       9.292  13.764  34.238  1.00  0.00     0.265 A 
HETATM   11  N1  UNL     1       8.429  14.922  34.141  1.00  0.00    -0.067 N 
ATOM     12  H12 UNL     1       8.572  15.924  34.266  1.00  0.00     0.277 HD
ATOM     13  H11 UNL     1       7.661  15.283  34.708  1.00  0.00     0.277 HD
ENDBRANCH   8   9
ENDBRANCH   1   8
TORSDOF 6
ENDMDL
MODEL 4
REMARK VINA RESULT: -5.457053544      1.070      1.800
REMARK  6 active torsions:
REMARK  status: ('A' for Active; 'I' for Inactive)
REMARK    1  A    between atoms: C2_2  and  C3_3 
REMARK    2  A    between atoms: C3_3  and  C4_4 
REMARK    3  A    between atoms: C4_4  and  C5_5 
REMARK    4  A    between atoms: C6_6  and  C7_7 
REMARK    5  A    between atoms: C7_7  and  C8_8 
REMARK    6  A    between atoms: C8_8  and  C9_9 
ROOT
HETATM    1  C7  UNL     1       8.289  14.605  31.554  1.00  0.00     0.029 C 
ENDROOT
BRANCH   1   2
HETATM    2  C6  UNL     1       7.229  13.604  31.618  1.00  0.00    -0.031 C 
HETATM    3  C5  UNL     1       7.069  12.607  30.779  1.00  0.00    -0.030 C 
BRANCH   3   4
HETATM    4  C4  UNL     1       7.893  12.265  29.607  1.00  0.00     0.030 C 
BRANCH   4   5
HETATM    5  C3  UNL     1       8.280  10.831  29.494  1.00  0.00     0.030 C 
BRANCH   5   6
HETATM    6  C2  UNL     1       9.549  10.436  30.118  1.00  0.00    -0.037 C 
HETATM    7  C1  UNL     1       9.847  10.347  31.386  1.00  0.00     0.007 C 
ENDBRANCH   5   6
ENDBRANCH   4   5
ENDBRANCH   3   4
ENDBRANCH   1   2
BRANCH   1   8
HETATM    8  C8  UNL     1       9.465  14.276  32.450  1.00  0.00     0.038 C 
BRANCH   8   9
HETATM    9  C9  UNL     1       8.877  13.701  33.741  1.00  0.00     0.211 A 
HETATM   10  C10 UNL     1       9.558  12.563  34.393  1.00  0.00     0.265 A 
HETATM   11  N1  UNL     1       9.605  13.894  34.957  1.00  0.00    -0.067 N 
ATOM     12  H12 UNL     1      10.362  14.518  35.239  1.00  0.00     0.277 HD
ATOM     13  H11 UNL     1       9.370  14.286  35.870  1.00  0.00     0.277 HD
ENDBRANCH   8   9
ENDBRANCH   1   8
TORSDOF 6
ENDMDL
MODEL 5
REMARK VINA RESULT: -5.417496336      1.522      3.574
REMARK  6 active torsions:
REMARK  status: ('A' for Active; 'I' for Inactive)
REMARK    1  A    between atoms: C2_2  and  C3_3 
REMARK    2  A    between atoms: C3_3  and  C4_4 
REMARK    3  A    between atoms: C4_4  and  C5_5 
REMARK    4  A    between atoms: C6_6  and  C7_7 
REMARK    5  A    between atoms: C7_7  and  C8_8 
REMARK    6  A    between atoms: C8_8  and  C9_9 
ROOT
HETATM    1  C7  UNL     1       9.242  10.497  31.481  1.00  0.00     0.029 C 
ENDROOT
BRANCH   1   2
HETATM    2  C6  UNL     1       9.439  10.860  30.081  1.00  0.00    -0.031 C 
HETATM    3  C5  UNL     1       8.789  11.801  29.438  1.00  0.00    -0.030 C 
BRANCH   3   4
HETATM    4  C4  UNL     1       7.735  12.692  29.953  1.00  0.00     0.030 C 
BRANCH   4   5
HETATM    5  C3  UNL     1       8.217  13.941  30.606  1.00  0.00     0.030 C 
BRANCH   5   6
HETATM    6  C2  UNL     1       7.632  14.274  31.911  1.00  0.00    -0.037 C 
HETATM    7  C1  UNL     1       8.236  14.583  33.026  1.00  0.00     0.007 C 
ENDBRANCH   5   6
ENDBRANCH   4   5
ENDBRANCH   3   4
ENDBRANCH   1   2
BRANCH   1   8
HETATM    8  C8  UNL     1      10.196  11.212  32.416  1.00  0.00     0.038 C 
BRANCH   8   9
HETATM    9  C9  UNL     1       9.649  11.006  33.831  1.00  0.00     0.211 A 
HETATM   10  C10 UNL     1      10.576  10.585  34.902  1.00  0.00     0.265 A 
HETATM   11  N1  UNL     1      10.046  11.930  34.848  1.00  0.00    -0.067 N 
ATOM     12  H12 UNL     1      10.469  12.858  34.836  1.00  0.00     0.277 HD
ATOM     13  H11 UNL     1       9.537  12.519  35.508  1.00  0.00     0.277 HD
ENDBRANCH   8   9
ENDBRANCH   1   8
TORSDOF 6
ENDMDL
