MODEL 1
REMARK VINA RESULT: -9.536710471      0.000      0.000
REMARK  11 active torsions:
REMARK  status: ('A' for Active; 'I' for Inactive)
REMARK    1  A    between atoms: C2_2  and  C3_3 
REMARK    2  A    between atoms: C3_3  and  N1_4 
REMARK    3  A    between atoms: N1_4  and  C4_5 
REMARK    4  A    between atoms: N1_4  and  C7_8 
REMARK    5  A    between atoms: C4_5  and  C5_6 
REMARK    6  A    between atoms: C7_8  and  C8_9 
REMARK    7  A    between atoms: C8_9  and  N2_10 
REMARK       I    between atoms: N2_10  and  C9_12 
REMARK    8  A    between atoms: C9_12  and  C10_14 
REMARK    9  A    between atoms: C10_14  and  N3_15 
REMARK   10  A    between atoms: C12_17  and  C13_18 
REMARK   11  A    between atoms: C19_29  and  N5_30 
ROOT
HETATM    1  N3  UNL     1      16.917  23.037  15.859  1.00  0.00    -0.314 N 
HETATM    2  C11 UNL     1      15.666  22.894  15.421  1.00  0.00     0.107 A 
HETATM    3  C12 UNL     1      14.689  22.153  16.092  1.00  0.00    -0.008 A 
HETATM    4  C17 UNL     1      15.044  21.541  17.272  1.00  0.00    -0.006 A 
HETATM    5  C18 UNL     1      14.140  20.810  18.019  1.00  0.00     0.043 A 
HETATM    6  C19 UNL     1      14.507  20.228  19.199  1.00  0.00     0.040 A 
HETATM    7  C23 UNL     1      15.797  20.393  19.615  1.00  0.00     0.037 A 
HETATM    8  C24 UNL     1      16.768  21.109  18.934  1.00  0.00    -0.043 A 
HETATM    9  C25 UNL     1      18.151  21.230  19.472  1.00  0.00     0.049 C 
HETATM   10  C26 UNL     1      16.365  21.692  17.734  1.00  0.00     0.049 A 
HETATM   11  C27 UNL     1      17.269  22.438  17.013  1.00  0.00     0.259 A 
HETATM   12  O5  UNL     1      18.432  22.571  17.417  1.00  0.00    -0.267 OA
ENDROOT
BRANCH   1  13
HETATM   13  C10 UNL     1      17.892  23.834  15.101  1.00  0.00     0.234 C 
BRANCH  13  14
HETATM   14  C9  UNL     1      18.356  24.991  15.876  1.00  0.00     0.235 C 
HETATM   15  N2  UNL     1      19.729  25.261  16.060  1.00  0.00    -0.358 N 
ATOM     16  H2  UNL     1      20.415  24.630  15.645  1.00  0.00     0.162 HD
HETATM   17  O1  UNL     1      17.525  25.784  16.403  1.00  0.00    -0.272 OA
BRANCH  15  18
HETATM   18  C8  UNL     1      20.203  26.406  16.823  1.00  0.00     0.142 C 
BRANCH  18  19
HETATM   19  C7  UNL     1      20.597  27.516  15.874  1.00  0.00     0.136 C 
BRANCH  19  20
HETATM   20  N1  UNL     1      21.523  27.045  14.916  1.00  0.00    -0.411 N 
BRANCH  20  21
HETATM   21  C3  UNL     1      21.430  27.528  13.594  1.00  0.00     0.116 C 
BRANCH  21  22
HETATM   22  C2  UNL     1      20.167  27.121  12.870  1.00  0.00     0.015 C 
HETATM   23  C1  UNL     1      20.223  25.625  12.636  1.00  0.00     0.006 C 
ENDBRANCH  21  22
ENDBRANCH  20  21
BRANCH  20  24
HETATM   24  C4  UNL     1      22.755  26.531  15.370  1.00  0.00     0.116 C 
BRANCH  24  25
HETATM   25  C5  UNL     1      23.720  27.545  15.923  1.00  0.00     0.015 C 
HETATM   26  C6  UNL     1      25.106  27.331  15.363  1.00  0.00     0.006 C 
ENDBRANCH  24  25
ENDBRANCH  20  24
ENDBRANCH  19  20
ENDBRANCH  18  19
ENDBRANCH  15  18
ENDBRANCH  13  14
ENDBRANCH   1  13
BRANCH   3  27
HETATM   27  C13 UNL     1      13.335  22.063  15.570  1.00  0.00     0.038 C 
HETATM   28  C14 UNL     1      12.908  21.286  14.622  1.00  0.00     0.079 C 
HETATM   29  S1  UNL     1      11.184  21.248  14.050  1.00  0.00    -0.024 SA
HETATM   30  C16 UNL     1      13.541  20.333  13.751  1.00  0.00     0.266 C 
HETATM   31  C15 UNL     1      11.316  19.559  13.383  1.00  0.00     0.291 C 
HETATM   32  O2  UNL     1      10.380  18.745  13.227  1.00  0.00    -0.260 OA
HETATM   33  N4  UNL     1      12.700  19.431  13.106  1.00  0.00    -0.283 N 
ATOM     34  H4  UNL     1      13.060  18.718  12.471  1.00  0.00     0.172 HD
HETATM   35  O3  UNL     1      14.818  20.323  13.582  1.00  0.00    -0.267 OA
ENDBRANCH   3  27
BRANCH   6  36
HETATM   36  N5  UNL     1      13.557  19.464  19.981  1.00  0.00    -0.298 N 
HETATM   37  C20 UNL     1      13.697  18.991  21.338  1.00  0.00     0.153 C 
HETATM   38  C21 UNL     1      12.902  17.712  21.330  1.00  0.00     0.144 C 
HETATM   39  N6  UNL     1      11.856  17.943  20.332  1.00  0.00    -0.341 N 
HETATM   40  C22 UNL     1      12.282  19.030  19.539  1.00  0.00     0.323 C 
ATOM     41  H6  UNL     1      10.987  17.419  20.229  1.00  0.00     0.164 HD
HETATM   42  O4  UNL     1      11.644  19.536  18.594  1.00  0.00    -0.247 OA
ENDBRANCH   6  36
TORSDOF 11
ENDMDL
MODEL 2
REMARK VINA RESULT: -9.518687429      0.297      1.769
REMARK  11 active torsions:
REMARK  status: ('A' for Active; 'I' for Inactive)
REMARK    1  A    between atoms: C2_2  and  C3_3 
REMARK    2  A    between atoms: C3_3  and  N1_4 
REMARK    3  A    between atoms: N1_4  and  C4_5 
REMARK    4  A    between atoms: N1_4  and  C7_8 
REMARK    5  A    between atoms: C4_5  and  C5_6 
REMARK    6  A    between atoms: C7_8  and  C8_9 
REMARK    7  A    between atoms: C8_9  and  N2_10 
REMARK       I    between atoms: N2_10  and  C9_12 
REMARK    8  A    between atoms: C9_12  and  C10_14 
REMARK    9  A    between atoms: C10_14  and  N3_15 
REMARK   10  A    between atoms: C12_17  and  C13_18 
REMARK   11  A    between atoms: C19_29  and  N5_30 
ROOT
HETATM    1  N3  UNL     1      16.901  22.976  15.800  1.00  0.00    -0.314 N 
HETATM    2  C11 UNL     1      15.646  22.829  15.375  1.00  0.00     0.107 A 
HETATM    3  C12 UNL     1      14.674  22.097  16.064  1.00  0.00    -0.008 A 
HETATM    4  C17 UNL     1      15.040  21.499  17.248  1.00  0.00    -0.006 A 
HETATM    5  C18 UNL     1      14.142  20.777  18.011  1.00  0.00     0.043 A 
HETATM    6  C19 UNL     1      14.519  20.208  19.195  1.00  0.00     0.040 A 
HETATM    7  C23 UNL     1      15.813  20.377  19.597  1.00  0.00     0.037 A 
HETATM    8  C24 UNL     1      16.778  21.083  18.899  1.00  0.00    -0.043 A 
HETATM    9  C25 UNL     1      18.166  21.209  19.423  1.00  0.00     0.049 C 
HETATM   10  C26 UNL     1      16.365  21.654  17.695  1.00  0.00     0.049 A 
HETATM   11  C27 UNL     1      17.263  22.390  16.958  1.00  0.00     0.259 A 
HETATM   12  O5  UNL     1      18.430  22.526  17.350  1.00  0.00    -0.267 OA
ENDROOT
BRANCH   1  13
HETATM   13  C10 UNL     1      17.870  23.763  15.024  1.00  0.00     0.234 C 
BRANCH  13  14
HETATM   14  C9  UNL     1      18.272  24.977  15.743  1.00  0.00     0.235 C 
HETATM   15  N2  UNL     1      19.629  25.289  15.978  1.00  0.00    -0.358 N 
ATOM     16  H2  UNL     1      20.346  24.648  15.639  1.00  0.00     0.162 HD
HETATM   17  O1  UNL     1      17.400  25.784  16.176  1.00  0.00    -0.272 OA
BRANCH  15  18
HETATM   18  C8  UNL     1      20.042  26.491  16.687  1.00  0.00     0.142 C 
BRANCH  18  19
HETATM   19  C7  UNL     1      20.225  27.622  15.698  1.00  0.00     0.136 C 
BRANCH  19  20
HETATM   20  N1  UNL     1      21.539  27.618  15.179  1.00  0.00    -0.411 N 
BRANCH  20  21
HETATM   21  C3  UNL     1      22.617  27.459  16.073  1.00  0.00     0.116 C 
BRANCH  21  22
HETATM   22  C2  UNL     1      23.812  26.744  15.486  1.00  0.00     0.015 C 
HETATM   23  C1  UNL     1      25.012  27.664  15.601  1.00  0.00     0.006 C 
ENDBRANCH  21  22
ENDBRANCH  20  21
BRANCH  20  24
HETATM   24  C4  UNL     1      21.723  27.282  13.822  1.00  0.00     0.116 C 
BRANCH  24  25
HETATM   25  C5  UNL     1      20.468  27.196  12.995  1.00  0.00     0.015 C 
HETATM   26  C6  UNL     1      20.237  25.784  12.512  1.00  0.00     0.006 C 
ENDBRANCH  24  25
ENDBRANCH  20  24
ENDBRANCH  19  20
ENDBRANCH  18  19
ENDBRANCH  15  18
ENDBRANCH  13  14
ENDBRANCH   1  13
BRANCH   3  27
HETATM   27  C13 UNL     1      13.315  22.003  15.556  1.00  0.00     0.038 C 
HETATM   28  C14 UNL     1      12.883  21.230  14.606  1.00  0.00     0.079 C 
HETATM   29  S1  UNL     1      11.154  21.186  14.051  1.00  0.00    -0.024 SA
HETATM   30  C16 UNL     1      13.513  20.288  13.721  1.00  0.00     0.266 C 
HETATM   31  C15 UNL     1      11.290  19.502  13.370  1.00  0.00     0.291 C 
HETATM   32  O2  UNL     1      10.357  18.684  13.219  1.00  0.00    -0.260 OA
HETATM   33  N4  UNL     1      12.671  19.385  13.078  1.00  0.00    -0.283 N 
ATOM     34  H4  UNL     1      13.028  18.679  12.434  1.00  0.00     0.172 HD
HETATM   35  O3  UNL     1      14.789  20.287  13.539  1.00  0.00    -0.267 OA
ENDBRANCH   3  27
BRANCH   6  36
HETATM   36  N5  UNL     1      13.575  19.455  19.993  1.00  0.00    -0.298 N 
HETATM   37  C20 UNL     1      13.731  18.989  21.351  1.00  0.00     0.153 C 
HETATM   38  C21 UNL     1      12.928  17.715  21.361  1.00  0.00     0.144 C 
HETATM   39  N6  UNL     1      11.870  17.947  20.377  1.00  0.00    -0.341 N 
HETATM   40  C22 UNL     1      12.291  19.026  19.572  1.00  0.00     0.323 C 
ATOM     41  H6  UNL     1      10.996  17.428  20.289  1.00  0.00     0.164 HD
HETATM   42  O4  UNL     1      11.643  19.531  18.633  1.00  0.00    -0.247 OA
ENDBRANCH   6  36
TORSDOF 11
ENDMDL
MODEL 3
REMARK VINA RESULT: -9.504639395      1.350      2.253
REMARK  11 active torsions:
REMARK  status: ('A' for Active; 'I' for Inactive)
REMARK    1  A    between atoms: C2_2  and  C3_3 
REMARK    2  A    between atoms: C3_3  and  N1_4 
REMARK    3  A    between atoms: N1_4  and  C4_5 
REMARK    4  A    between atoms: N1_4  and  C7_8 
REMARK    5  A    between atoms: C4_5  and  C5_6 
REMARK    6  A    between atoms: C7_8  and  C8_9 
REMARK    7  A    between atoms: C8_9  and  N2_10 
REMARK       I    between atoms: N2_10  and  C9_12 
REMARK    8  A    between atoms: C9_12  and  C10_14 
REMARK    9  A    between atoms: C10_14  and  N3_15 
REMARK   10  A    between atoms: C12_17  and  C13_18 
REMARK   11  A    between atoms: C19_29  and  N5_30 
ROOT
HETATM    1  N3  UNL     1      16.381  24.199  16.432  1.00  0.00    -0.314 N 
HETATM    2  C11 UNL     1      15.229  23.821  15.878  1.00  0.00     0.107 A 
HETATM    3  C12 UNL     1      14.440  22.776  16.366  1.00  0.00    -0.008 A 
HETATM    4  C17 UNL     1      14.881  22.104  17.482  1.00  0.00    -0.006 A 
HETATM    5  C18 UNL     1      14.157  21.075  18.051  1.00  0.00     0.043 A 
HETATM    6  C19 UNL     1      14.602  20.433  19.173  1.00  0.00     0.040 A 
HETATM    7  C23 UNL     1      15.788  20.845  19.712  1.00  0.00     0.037 A 
HETATM    8  C24 UNL     1      16.577  21.866  19.210  1.00  0.00    -0.043 A 
HETATM    9  C25 UNL     1      17.859  22.241  19.871  1.00  0.00     0.049 C 
HETATM   10  C26 UNL     1      16.098  22.503  18.066  1.00  0.00     0.049 A 
HETATM   11  C27 UNL     1      16.818  23.542  17.524  1.00  0.00     0.259 A 
HETATM   12  O5  UNL     1      17.890  23.894  18.036  1.00  0.00    -0.267 OA
ENDROOT
BRANCH   1  13
HETATM   13  C10 UNL     1      17.158  25.311  15.866  1.00  0.00     0.234 C 
BRANCH  13  14
HETATM   14  C9  UNL     1      18.302  24.823  15.086  1.00  0.00     0.235 C 
HETATM   15  N2  UNL     1      19.612  24.814  15.612  1.00  0.00    -0.358 N 
ATOM     16  H2  UNL     1      19.764  25.159  16.560  1.00  0.00     0.162 HD
HETATM   17  O1  UNL     1      18.138  24.394  13.909  1.00  0.00    -0.272 OA
BRANCH  15  18
HETATM   18  C8  UNL     1      20.754  24.330  14.852  1.00  0.00     0.142 C 
BRANCH  18  19
HETATM   19  C7  UNL     1      21.389  25.483  14.106  1.00  0.00     0.136 C 
BRANCH  19  20
HETATM   20  N1  UNL     1      21.413  26.643  14.912  1.00  0.00    -0.411 N 
BRANCH  20  21
HETATM   21  C3  UNL     1      22.458  26.793  15.847  1.00  0.00     0.116 C 
BRANCH  21  22
HETATM   22  C2  UNL     1      22.169  27.786  16.950  1.00  0.00     0.015 C 
HETATM   23  C1  UNL     1      21.383  27.071  18.030  1.00  0.00     0.006 C 
ENDBRANCH  21  22
ENDBRANCH  20  21
BRANCH  20  24
HETATM   24  C4  UNL     1      20.738  27.793  14.454  1.00  0.00     0.116 C 
BRANCH  24  25
HETATM   25  C5  UNL     1      19.929  27.615  13.197  1.00  0.00     0.015 C 
HETATM   26  C6  UNL     1      20.695  28.106  11.991  1.00  0.00     0.006 C 
ENDBRANCH  24  25
ENDBRANCH  20  24
ENDBRANCH  19  20
ENDBRANCH  18  19
ENDBRANCH  15  18
ENDBRANCH  13  14
ENDBRANCH   1  13
BRANCH   3  27
HETATM   27  C13 UNL     1      13.178  22.436  15.728  1.00  0.00     0.038 C 
HETATM   28  C14 UNL     1      12.952  21.460  14.902  1.00  0.00     0.079 C 
HETATM   29  S1  UNL     1      11.328  21.119  14.165  1.00  0.00    -0.024 SA
HETATM   30  C16 UNL     1      13.781  20.452  14.299  1.00  0.00     0.266 C 
HETATM   31  C15 UNL     1      11.707  19.367  13.845  1.00  0.00     0.291 C 
HETATM   32  O2  UNL     1      10.881  18.433  13.746  1.00  0.00    -0.260 OA
HETATM   33  N4  UNL     1      13.120  19.357  13.748  1.00  0.00    -0.283 N 
ATOM     34  H4  UNL     1      13.625  18.592  13.300  1.00  0.00     0.172 HD
HETATM   35  O3  UNL     1      15.064  20.563  14.273  1.00  0.00    -0.267 OA
ENDBRANCH   3  27
BRANCH   6  36
HETATM   36  N5  UNL     1      13.839  19.357  19.769  1.00  0.00    -0.298 N 
HETATM   37  C20 UNL     1      13.131  18.291  19.099  1.00  0.00     0.153 C 
HETATM   38  C21 UNL     1      11.977  18.021  20.029  1.00  0.00     0.144 C 
HETATM   39  N6  UNL     1      12.497  18.352  21.356  1.00  0.00    -0.341 N 
HETATM   40  C22 UNL     1      13.643  19.152  21.158  1.00  0.00     0.323 C 
ATOM     41  H6  UNL     1      12.107  18.060  22.252  1.00  0.00     0.164 HD
HETATM   42  O4  UNL     1      14.374  19.613  22.057  1.00  0.00    -0.247 OA
ENDBRANCH   6  36
TORSDOF 11
ENDMDL
MODEL 4
REMARK VINA RESULT: -9.490355044      3.493     10.798
REMARK  11 active torsions:
REMARK  status: ('A' for Active; 'I' for Inactive)
REMARK    1  A    between atoms: C2_2  and  C3_3 
REMARK    2  A    between atoms: C3_3  and  N1_4 
REMARK    3  A    between atoms: N1_4  and  C4_5 
REMARK    4  A    between atoms: N1_4  and  C7_8 
REMARK    5  A    between atoms: C4_5  and  C5_6 
REMARK    6  A    between atoms: C7_8  and  C8_9 
REMARK    7  A    between atoms: C8_9  and  N2_10 
REMARK       I    between atoms: N2_10  and  C9_12 
REMARK    8  A    between atoms: C9_12  and  C10_14 
REMARK    9  A    between atoms: C10_14  and  N3_15 
REMARK   10  A    between atoms: C12_17  and  C13_18 
REMARK   11  A    between atoms: C19_29  and  N5_30 
ROOT
HETATM    1  N3  UNL     1      17.119  21.919  18.609  1.00  0.00    -0.314 N 
HETATM    2  C11 UNL     1      17.828  22.752  19.370  1.00  0.00     0.107 A 
HETATM    3  C12 UNL     1      18.475  23.891  18.882  1.00  0.00    -0.008 A 
HETATM    4  C17 UNL     1      18.369  24.163  17.538  1.00  0.00    -0.006 A 
HETATM    5  C18 UNL     1      18.952  25.278  16.968  1.00  0.00     0.043 A 
HETATM    6  C19 UNL     1      18.817  25.543  15.634  1.00  0.00     0.040 A 
HETATM    7  C23 UNL     1      18.086  24.667  14.884  1.00  0.00     0.037 A 
HETATM    8  C24 UNL     1      17.466  23.528  15.369  1.00  0.00    -0.043 A 
HETATM    9  C25 UNL     1      16.690  22.632  14.467  1.00  0.00     0.049 C 
HETATM   10  C26 UNL     1      17.620  23.283  16.733  1.00  0.00     0.049 A 
HETATM   11  C27 UNL     1      17.014  22.182  17.291  1.00  0.00     0.259 A 
HETATM   12  O5  UNL     1      16.356  21.406  16.584  1.00  0.00    -0.267 OA
ENDROOT
BRANCH   1  13
HETATM   13  C10 UNL     1      16.462  20.741  19.192  1.00  0.00     0.234 C 
BRANCH  13  14
HETATM   14  C9  UNL     1      15.002  20.831  19.080  1.00  0.00     0.235 C 
HETATM   15  N2  UNL     1      14.266  19.975  18.233  1.00  0.00    -0.358 N 
ATOM     16  H2  UNL     1      14.767  19.277  17.683  1.00  0.00     0.162 HD
HETATM   17  O1  UNL     1      14.360  21.690  19.749  1.00  0.00    -0.272 OA
BRANCH  15  18
HETATM   18  C8  UNL     1      12.817  20.051  18.115  1.00  0.00     0.142 C 
BRANCH  18  19
HETATM   19  C7  UNL     1      12.269  18.692  17.739  1.00  0.00     0.136 C 
BRANCH  19  20
HETATM   20  N1  UNL     1      11.388  18.218  18.736  1.00  0.00    -0.411 N 
BRANCH  20  21
HETATM   21  C3  UNL     1      10.578  17.101  18.444  1.00  0.00     0.116 C 
BRANCH  21  22
HETATM   22  C2  UNL     1      11.254  16.047  17.597  1.00  0.00     0.015 C 
HETATM   23  C1  UNL     1      10.816  14.688  18.104  1.00  0.00     0.006 C 
ENDBRANCH  21  22
ENDBRANCH  20  21
BRANCH  20  24
HETATM   24  C4  UNL     1      11.674  18.521  20.083  1.00  0.00     0.116 C 
BRANCH  24  25
HETATM   25  C5  UNL     1      12.593  17.558  20.786  1.00  0.00     0.015 C 
HETATM   26  C6  UNL     1      13.736  18.290  21.448  1.00  0.00     0.006 C 
ENDBRANCH  24  25
ENDBRANCH  20  24
ENDBRANCH  19  20
ENDBRANCH  18  19
ENDBRANCH  15  18
ENDBRANCH  13  14
ENDBRANCH   1  13
BRANCH   3  27
HETATM   27  C13 UNL     1      19.208  24.771  19.777  1.00  0.00     0.038 C 
HETATM   28  C14 UNL     1      20.338  24.526  20.370  1.00  0.00     0.079 C 
HETATM   29  S1  UNL     1      21.175  25.706  21.468  1.00  0.00    -0.024 SA
HETATM   30  C16 UNL     1      21.209  23.385  20.424  1.00  0.00     0.266 C 
HETATM   31  C15 UNL     1      22.816  24.956  21.220  1.00  0.00     0.291 C 
HETATM   32  O2  UNL     1      23.921  25.528  21.341  1.00  0.00    -0.260 OA
HETATM   33  N4  UNL     1      22.507  23.618  20.869  1.00  0.00    -0.283 N 
ATOM     34  H4  UNL     1      23.197  22.869  20.940  1.00  0.00     0.172 HD
HETATM   35  O3  UNL     1      20.804  22.212  20.077  1.00  0.00    -0.267 OA
ENDBRANCH   3  27
BRANCH   6  36
HETATM   36  N5  UNL     1      19.427  26.715  15.041  1.00  0.00    -0.298 N 
HETATM   37  C20 UNL     1      19.148  27.308  13.755  1.00  0.00     0.153 C 
HETATM   38  C21 UNL     1      20.481  27.886  13.357  1.00  0.00     0.144 C 
HETATM   39  N6  UNL     1      21.119  28.229  14.629  1.00  0.00    -0.341 N 
HETATM   40  C22 UNL     1      20.438  27.510  15.635  1.00  0.00     0.323 C 
ATOM     41  H6  UNL     1      21.905  28.866  14.763  1.00  0.00     0.164 HD
HETATM   42  O4  UNL     1      20.682  27.560  16.857  1.00  0.00    -0.247 OA
ENDBRANCH   6  36
TORSDOF 11
ENDMDL
MODEL 5
REMARK VINA RESULT: -9.470896774      3.209      9.786
REMARK  11 active torsions:
REMARK  status: ('A' for Active; 'I' for Inactive)
REMARK    1  A    between atoms: C2_2  and  C3_3 
REMARK    2  A    between atoms: C3_3  and  N1_4 
REMARK    3  A    between atoms: N1_4  and  C4_5 
REMARK    4  A    between atoms: N1_4  and  C7_8 
REMARK    5  A    between atoms: C4_5  and  C5_6 
REMARK    6  A    between atoms: C7_8  and  C8_9 
REMARK    7  A    between atoms: C8_9  and  N2_10 
REMARK       I    between atoms: N2_10  and  C9_12 
REMARK    8  A    between atoms: C9_12  and  C10_14 
REMARK    9  A    between atoms: C10_14  and  N3_15 
REMARK   10  A    between atoms: C12_17  and  C13_18 
REMARK   11  A    between atoms: C19_29  and  N5_30 
ROOT
HETATM    1  N3  UNL     1      16.771  21.691  18.168  1.00  0.00    -0.314 N 
HETATM    2  C11 UNL     1      17.435  22.487  19.006  1.00  0.00     0.107 A 
HETATM    3  C12 UNL     1      18.113  23.642  18.606  1.00  0.00    -0.008 A 
HETATM    4  C17 UNL     1      18.088  23.972  17.271  1.00  0.00    -0.006 A 
HETATM    5  C18 UNL     1      18.707  25.108  16.786  1.00  0.00     0.043 A 
HETATM    6  C19 UNL     1      18.652  25.430  15.459  1.00  0.00     0.040 A 
HETATM    7  C23 UNL     1      17.966  24.591  14.629  1.00  0.00     0.037 A 
HETATM    8  C24 UNL     1      17.316  23.434  15.027  1.00  0.00    -0.043 A 
HETATM    9  C25 UNL     1      16.593  22.582  14.043  1.00  0.00     0.049 C 
HETATM   10  C26 UNL     1      17.387  23.131  16.386  1.00  0.00     0.049 A 
HETATM   11  C27 UNL     1      16.746  22.011  16.859  1.00  0.00     0.259 A 
HETATM   12  O5  UNL     1      16.130  21.268  16.082  1.00  0.00    -0.267 OA
ENDROOT
BRANCH   1  13
HETATM   13  C10 UNL     1      16.078  20.492  18.660  1.00  0.00     0.234 C 
BRANCH  13  14
HETATM   14  C9  UNL     1      14.626  20.599  18.477  1.00  0.00     0.235 C 
HETATM   15  N2  UNL     1      13.921  19.745  17.601  1.00  0.00    -0.358 N 
ATOM     16  H2  UNL     1      14.440  19.037  17.081  1.00  0.00     0.162 HD
HETATM   17  O1  UNL     1      13.963  21.471  19.107  1.00  0.00    -0.272 OA
BRANCH  15  18
HETATM   18  C8  UNL     1      12.482  19.838  17.412  1.00  0.00     0.142 C 
BRANCH  18  19
HETATM   19  C7  UNL     1      12.126  19.384  16.013  1.00  0.00     0.136 C 
BRANCH  19  20
HETATM   20  N1  UNL     1      12.628  20.291  15.054  1.00  0.00    -0.411 N 
BRANCH  20  21
HETATM   21  C3  UNL     1      13.255  19.775  13.901  1.00  0.00     0.116 C 
BRANCH  21  22
HETATM   22  C2  UNL     1      12.454  18.714  13.180  1.00  0.00     0.015 C 
HETATM   23  C1  UNL     1      11.582  19.405  12.151  1.00  0.00     0.006 C 
ENDBRANCH  21  22
ENDBRANCH  20  21
BRANCH  20  24
HETATM   24  C4  UNL     1      12.085  21.591  15.010  1.00  0.00     0.116 C 
BRANCH  24  25
HETATM   25  C5  UNL     1      13.030  22.678  14.572  1.00  0.00     0.015 C 
HETATM   26  C6  UNL     1      13.500  23.491  15.754  1.00  0.00     0.006 C 
ENDBRANCH  24  25
ENDBRANCH  20  24
ENDBRANCH  19  20
ENDBRANCH  18  19
ENDBRANCH  15  18
ENDBRANCH  13  14
ENDBRANCH   1  13
BRANCH   3  27
HETATM   27  C13 UNL     1      18.793  24.481  19.581  1.00  0.00     0.038 C 
HETATM   28  C14 UNL     1      19.923  24.238  20.174  1.00  0.00     0.079 C 
HETATM   29  S1  UNL     1      20.691  25.363  21.375  1.00  0.00    -0.024 SA
HETATM   30  C16 UNL     1      20.843  23.134  20.155  1.00  0.00     0.266 C 
HETATM   31  C15 UNL     1      22.367  24.704  21.100  1.00  0.00     0.291 C 
HETATM   32  O2  UNL     1      23.444  25.311  21.286  1.00  0.00    -0.260 OA
HETATM   33  N4  UNL     1      22.122  23.386  20.641  1.00  0.00    -0.283 N 
ATOM     34  H4  UNL     1      22.843  22.664  20.666  1.00  0.00     0.172 HD
HETATM   35  O3  UNL     1      20.494  21.976  19.711  1.00  0.00    -0.267 OA
ENDBRANCH   3  27
BRANCH   6  36
HETATM   36  N5  UNL     1      19.299  26.623  14.954  1.00  0.00    -0.298 N 
HETATM   37  C20 UNL     1      19.084  27.284  13.688  1.00  0.00     0.153 C 
HETATM   38  C21 UNL     1      20.439  27.866  13.380  1.00  0.00     0.144 C 
HETATM   39  N6  UNL     1      21.023  28.137  14.695  1.00  0.00    -0.341 N 
HETATM   40  C22 UNL     1      20.291  27.376  15.631  1.00  0.00     0.323 C 
ATOM     41  H6  UNL     1      21.808  28.756  14.896  1.00  0.00     0.164 HD
HETATM   42  O4  UNL     1      20.479  27.361  16.865  1.00  0.00    -0.247 OA
ENDBRANCH   6  36
TORSDOF 11
ENDMDL
