MODEL 1
REMARK VINA RESULT: -9.512786559      0.000      0.000
REMARK  4 active torsions:
REMARK  status: ('A' for Active; 'I' for Inactive)
REMARK    1  A    between atoms: C2_2  and  C3_3 
REMARK    2  A    between atoms: C3_3  and  N1_4 
REMARK    3  A    between atoms: C6_12  and  N4_13 
REMARK    4  A    between atoms: C12_26  and  C13_27 
ROOT
HETATM    1  N4  UNL     1      40.832  -0.432  11.785  1.00  0.00    -0.066 N 
HETATM    2  N5  UNL     1      41.950  -1.235  11.444  1.00  0.00    -0.273 N 
ATOM      3  H5  UNL     1      42.732  -1.287  12.096  1.00  0.00     0.189 HD
HETATM    4  C7  UNL     1      42.022  -1.970  10.231  1.00  0.00     0.199 A 
HETATM    5  N6  UNL     1      41.014  -1.906   9.390  1.00  0.00    -0.347 N 
ATOM      6  H6  UNL     1      41.058  -2.432   8.517  1.00  0.00     0.167 HD
HETATM    7  C8  UNL     1      39.874  -1.126   9.669  1.00  0.00     0.098 A 
HETATM    8  C9  UNL     1      39.780  -0.405  10.837  1.00  0.00     0.174 A 
HETATM    9  N7  UNL     1      38.606   0.243  10.864  1.00  0.00    -0.329 N 
ATOM     10  H7  UNL     1      38.277   0.851  11.614  1.00  0.00     0.168 HD
HETATM   11  C10 UNL     1      37.924  -0.050   9.717  1.00  0.00     0.133 A 
HETATM   12  C11 UNL     1      36.642   0.466   9.417  1.00  0.00     0.119 C 
HETATM   13  N8  UNL     1      35.582   0.872   9.168  1.00  0.00    -0.190 NA
HETATM   14  C12 UNL     1      38.718  -0.907   8.970  1.00  0.00     0.097 A 
ENDROOT
BRANCH  14  15
HETATM   15  C13 UNL     1      38.331  -1.444   7.674  1.00  0.00     0.270 C 
HETATM   16  N9  UNL     1      38.758  -0.766   6.503  1.00  0.00    -0.057 NA
HETATM   17  O2  UNL     1      37.638  -2.473   7.552  1.00  0.00    -0.271 OA
ENDBRANCH  14  15
BRANCH   1  18
HETATM   18  C6  UNL     1      40.816   0.274  13.028  1.00  0.00     0.708 A 
HETATM   19  N3  UNL     1      41.538  -0.086  14.105  1.00  0.00    -0.171 N 
HETATM   20  C5  UNL     1      41.304   0.803  15.114  1.00  0.00     0.170 A 
ATOM     21  H3  UNL     1      42.160  -0.892  14.158  1.00  0.00     0.186 HD
HETATM   22  N2  UNL     1      41.574   1.153  16.372  1.00  0.00    -0.291 N 
HETATM   23  C14 UNL     1      40.409   1.731  14.629  1.00  0.00     0.172 A 
HETATM   24  C4  UNL     1      40.872   2.258  16.656  1.00  0.00     0.330 A 
ATOM     25  H2  UNL     1      42.204   0.664  17.008  1.00  0.00     0.172 HD
HETATM   26  N1  UNL     1      40.140   2.636  15.584  1.00  0.00    -0.278 N 
HETATM   27  O1  UNL     1      40.889   2.862  17.761  1.00  0.00    -0.246 OA
HETATM   28  N10 UNL     1      40.122   1.390  13.350  1.00  0.00    -0.170 N 
ATOM     29  H10 UNL     1      39.487   1.892  12.730  1.00  0.00     0.186 HD
BRANCH  26  30
HETATM   30  C3  UNL     1      39.278   3.790  15.550  1.00  0.00     0.162 C 
BRANCH  30  31
HETATM   31  C2  UNL     1      39.124   4.256  14.172  1.00  0.00    -0.017 C 
HETATM   32  C1  UNL     1      38.455   5.361  13.911  1.00  0.00     0.008 C 
ENDBRANCH  30  31
ENDBRANCH  26  30
ENDBRANCH   1  18
TORSDOF 4
ENDMDL
MODEL 2
REMARK VINA RESULT: -9.393126106      4.186      7.932
REMARK  4 active torsions:
REMARK  status: ('A' for Active; 'I' for Inactive)
REMARK    1  A    between atoms: C2_2  and  C3_3 
REMARK    2  A    between atoms: C3_3  and  N1_4 
REMARK    3  A    between atoms: C6_12  and  N4_13 
REMARK    4  A    between atoms: C12_26  and  C13_27 
ROOT
HETATM    1  N4  UNL     1      37.913   0.933   8.305  1.00  0.00    -0.066 N 
HETATM    2  N5  UNL     1      36.520   0.719   8.455  1.00  0.00    -0.273 N 
ATOM      3  H5  UNL     1      35.889   1.078   7.739  1.00  0.00     0.189 HD
HETATM    4  C7  UNL     1      35.968   0.024   9.564  1.00  0.00     0.199 A 
HETATM    5  N6  UNL     1      36.778  -0.440  10.488  1.00  0.00    -0.347 N 
ATOM      6  H6  UNL     1      36.389  -0.941  11.287  1.00  0.00     0.167 HD
HETATM    7  C8  UNL     1      38.173  -0.260  10.398  1.00  0.00     0.098 A 
HETATM    8  C9  UNL     1      38.732   0.409   9.334  1.00  0.00     0.174 A 
HETATM    9  N7  UNL     1      40.065   0.440   9.482  1.00  0.00    -0.329 N 
ATOM     10  H7  UNL     1      40.726   0.874   8.838  1.00  0.00     0.168 HD
HETATM   11  C10 UNL     1      40.387  -0.209  10.640  1.00  0.00     0.133 A 
HETATM   12  C11 UNL     1      41.713  -0.365  11.105  1.00  0.00     0.119 C 
HETATM   13  N8  UNL     1      42.800  -0.513  11.487  1.00  0.00    -0.190 NA
HETATM   14  C12 UNL     1      39.202  -0.648  11.213  1.00  0.00     0.097 A 
ENDROOT
BRANCH  14  15
HETATM   15  C13 UNL     1      39.135  -1.385  12.466  1.00  0.00     0.270 C 
HETATM   16  N9  UNL     1      39.352  -2.786  12.442  1.00  0.00    -0.057 NA
HETATM   17  O2  UNL     1      38.895  -0.834  13.558  1.00  0.00    -0.271 OA
ENDBRANCH  14  15
BRANCH   1  18
HETATM   18  C6  UNL     1      38.406   1.631   7.159  1.00  0.00     0.708 A 
HETATM   19  N3  UNL     1      38.038   1.352   5.895  1.00  0.00    -0.171 N 
HETATM   20  C5  UNL     1      38.680   2.206   5.046  1.00  0.00     0.170 A 
ATOM     21  H3  UNL     1      37.383   0.620   5.617  1.00  0.00     0.186 HD
HETATM   22  N2  UNL     1      38.871   2.582   3.781  1.00  0.00    -0.291 N 
HETATM   23  C14 UNL     1      39.463   3.029   5.825  1.00  0.00     0.172 A 
HETATM   24  C4  UNL     1      39.741   3.600   3.776  1.00  0.00     0.330 A 
ATOM     25  H2  UNL     1      38.431   2.165   2.959  1.00  0.00     0.172 HD
HETATM   26  N1  UNL     1      40.122   3.895   5.039  1.00  0.00    -0.278 N 
HETATM   27  O1  UNL     1      40.147   4.200   2.745  1.00  0.00    -0.246 OA
HETATM   28  N10 UNL     1      39.282   2.660   7.116  1.00  0.00    -0.170 N 
ATOM     29  H10 UNL     1      39.732   3.089   7.924  1.00  0.00     0.186 HD
BRANCH  26  30
HETATM   30  C3  UNL     1      41.046   4.945   5.388  1.00  0.00     0.162 C 
BRANCH  30  31
HETATM   31  C2  UNL     1      42.358   4.373   5.688  1.00  0.00    -0.017 C 
HETATM   32  C1  UNL     1      42.835   4.401   6.917  1.00  0.00     0.008 C 
ENDBRANCH  30  31
ENDBRANCH  26  30
ENDBRANCH   1  18
TORSDOF 4
ENDMDL
MODEL 3
REMARK VINA RESULT: -9.080608445      3.679      6.474
REMARK  4 active torsions:
REMARK  status: ('A' for Active; 'I' for Inactive)
REMARK    1  A    between atoms: C2_2  and  C3_3 
REMARK    2  A    between atoms: C3_3  and  N1_4 
REMARK    3  A    between atoms: C6_12  and  N4_13 
REMARK    4  A    between atoms: C12_26  and  C13_27 
ROOT
HETATM    1  N4  UNL     1      36.992   0.225   8.291  1.00  0.00    -0.066 N 
HETATM    2  N5  UNL     1      35.605  -0.051   8.397  1.00  0.00    -0.273 N 
ATOM      3  H5  UNL     1      35.273  -0.597   9.191  1.00  0.00     0.189 HD
HETATM    4  C7  UNL     1      34.660   0.405   7.440  1.00  0.00     0.199 A 
HETATM    5  N6  UNL     1      35.084   1.110   6.415  1.00  0.00    -0.347 N 
ATOM      6  H6  UNL     1      34.411   1.442   5.724  1.00  0.00     0.167 HD
HETATM    7  C8  UNL     1      36.449   1.418   6.252  1.00  0.00     0.098 A 
HETATM    8  C9  UNL     1      37.385   0.988   7.165  1.00  0.00     0.174 A 
HETATM    9  N7  UNL     1      38.600   1.413   6.787  1.00  0.00    -0.329 N 
ATOM     10  H7  UNL     1      39.474   1.237   7.282  1.00  0.00     0.168 HD
HETATM   11  C10 UNL     1      38.468   2.123   5.627  1.00  0.00     0.133 A 
HETATM   12  C11 UNL     1      39.557   2.719   4.949  1.00  0.00     0.119 C 
HETATM   13  N8  UNL     1      40.442   3.225   4.392  1.00  0.00    -0.190 NA
HETATM   14  C12 UNL     1      37.122   2.126   5.293  1.00  0.00     0.097 A 
ENDROOT
BRANCH  14  15
HETATM   15  C13 UNL     1      36.585   2.786   4.113  1.00  0.00     0.270 C 
HETATM   16  N9  UNL     1      35.325   3.430   4.209  1.00  0.00    -0.057 NA
HETATM   17  O2  UNL     1      37.187   2.806   3.022  1.00  0.00    -0.271 OA
ENDBRANCH  14  15
BRANCH   1  18
HETATM   18  C6  UNL     1      37.891  -0.253   9.295  1.00  0.00     0.708 A 
HETATM   19  N3  UNL     1      38.480   0.538  10.211  1.00  0.00    -0.171 N 
HETATM   20  C5  UNL     1      39.263  -0.231  11.023  1.00  0.00     0.170 A 
ATOM     21  H3  UNL     1      38.360   1.548  10.286  1.00  0.00     0.186 HD
HETATM   22  N2  UNL     1      40.096  -0.257  12.064  1.00  0.00    -0.291 N 
HETATM   23  C14 UNL     1      39.141  -1.530  10.581  1.00  0.00     0.172 A 
HETATM   24  C4  UNL     1      40.478  -1.526  12.260  1.00  0.00     0.330 A 
ATOM     25  H2  UNL     1      40.392   0.549  12.615  1.00  0.00     0.172 HD
HETATM   26  N1  UNL     1      39.894  -2.335  11.347  1.00  0.00    -0.278 N 
HETATM   27  O1  UNL     1      41.265  -1.914  13.163  1.00  0.00    -0.246 OA
HETATM   28  N10 UNL     1      38.297  -1.522   9.522  1.00  0.00    -0.170 N 
ATOM     29  H10 UNL     1      38.015  -2.340   8.983  1.00  0.00     0.186 HD
BRANCH  26  30
HETATM   30  C3  UNL     1      40.086  -3.763  11.282  1.00  0.00     0.162 C 
BRANCH  30  31
HETATM   31  C2  UNL     1      40.733  -4.120  10.019  1.00  0.00    -0.017 C 
HETATM   32  C1  UNL     1      40.605  -5.333   9.522  1.00  0.00     0.008 C 
ENDBRANCH  30  31
ENDBRANCH  26  30
ENDBRANCH   1  18
TORSDOF 4
ENDMDL
MODEL 4
REMARK VINA RESULT: -9.056221085      3.753      8.027
REMARK  4 active torsions:
REMARK  status: ('A' for Active; 'I' for Inactive)
REMARK    1  A    between atoms: C2_2  and  C3_3 
REMARK    2  A    between atoms: C3_3  and  N1_4 
REMARK    3  A    between atoms: C6_12  and  N4_13 
REMARK    4  A    between atoms: C12_26  and  C13_27 
ROOT
HETATM    1  N4  UNL     1      37.326   0.616   8.862  1.00  0.00    -0.066 N 
HETATM    2  N5  UNL     1      35.997   0.460   9.329  1.00  0.00    -0.273 N 
ATOM      3  H5  UNL     1      35.230   0.787   8.742  1.00  0.00     0.189 HD
HETATM    4  C7  UNL     1      35.692  -0.134  10.582  1.00  0.00     0.199 A 
HETATM    5  N6  UNL     1      36.678  -0.557  11.341  1.00  0.00    -0.347 N 
ATOM      6  H6  UNL     1      36.467  -0.986  12.242  1.00  0.00     0.167 HD
HETATM    7  C8  UNL     1      38.022  -0.431  10.935  1.00  0.00     0.098 A 
HETATM    8  C9  UNL     1      38.344   0.141   9.725  1.00  0.00     0.174 A 
HETATM    9  N7  UNL     1      39.676   0.138   9.575  1.00  0.00    -0.329 N 
ATOM     10  H7  UNL     1      40.187   0.502   8.770  1.00  0.00     0.168 HD
HETATM   11  C10 UNL     1      40.235  -0.435  10.682  1.00  0.00     0.133 A 
HETATM   12  C11 UNL     1      41.628  -0.602  10.856  1.00  0.00     0.119 C 
HETATM   13  N8  UNL     1      42.771  -0.758  11.003  1.00  0.00    -0.190 NA
HETATM   14  C12 UNL     1      39.199  -0.792  11.532  1.00  0.00     0.097 A 
ENDROOT
BRANCH  14  15
HETATM   15  C13 UNL     1      39.398  -1.434  12.823  1.00  0.00     0.270 C 
HETATM   16  N9  UNL     1      39.869  -0.649  13.907  1.00  0.00    -0.057 NA
HETATM   17  O2  UNL     1      39.171  -2.644  13.013  1.00  0.00    -0.271 OA
ENDBRANCH  14  15
BRANCH   1  18
HETATM   18  C6  UNL     1      37.567   1.212   7.585  1.00  0.00     0.708 A 
HETATM   19  N3  UNL     1      36.620   1.370   6.641  1.00  0.00    -0.171 N 
HETATM   20  C5  UNL     1      37.175   1.980   5.553  1.00  0.00     0.170 A 
ATOM     21  H3  UNL     1      35.646   1.080   6.725  1.00  0.00     0.186 HD
HETATM   22  N2  UNL     1      36.977   2.454   4.323  1.00  0.00    -0.291 N 
HETATM   23  C14 UNL     1      38.502   2.198   5.852  1.00  0.00     0.172 A 
HETATM   24  C4  UNL     1      38.139   2.949   3.875  1.00  0.00     0.330 A 
ATOM     25  H2  UNL     1      36.094   2.442   3.811  1.00  0.00     0.172 HD
HETATM   26  N1  UNL     1      39.102   2.799   4.812  1.00  0.00    -0.278 N 
HETATM   27  O1  UNL     1      38.313   3.477   2.745  1.00  0.00    -0.246 OA
HETATM   28  N10 UNL     1      38.722   1.720   7.100  1.00  0.00    -0.170 N 
ATOM     29  H10 UNL     1      39.614   1.741   7.594  1.00  0.00     0.186 HD
BRANCH  26  30
HETATM   30  C3  UNL     1      40.468   3.231   4.653  1.00  0.00     0.162 C 
BRANCH  30  31
HETATM   31  C2  UNL     1      40.795   4.232   5.669  1.00  0.00    -0.017 C 
HETATM   32  C1  UNL     1      42.049   4.467   5.997  1.00  0.00     0.008 C 
ENDBRANCH  30  31
ENDBRANCH  26  30
ENDBRANCH   1  18
TORSDOF 4
ENDMDL
MODEL 5
REMARK VINA RESULT: -9.012328278      3.969      7.654
REMARK  4 active torsions:
REMARK  status: ('A' for Active; 'I' for Inactive)
REMARK    1  A    between atoms: C2_2  and  C3_3 
REMARK    2  A    between atoms: C3_3  and  N1_4 
REMARK    3  A    between atoms: C6_12  and  N4_13 
REMARK    4  A    between atoms: C12_26  and  C13_27 
ROOT
HETATM    1  N4  UNL     1      38.759   1.627   9.695  1.00  0.00    -0.066 N 
HETATM    2  N5  UNL     1      38.255   2.573  10.623  1.00  0.00    -0.273 N 
ATOM      3  H5  UNL     1      37.964   3.488  10.281  1.00  0.00     0.189 HD
HETATM    4  C7  UNL     1      38.138   2.294  12.011  1.00  0.00     0.199 A 
HETATM    5  N6  UNL     1      38.510   1.115  12.455  1.00  0.00    -0.347 N 
ATOM      6  H6  UNL     1      38.429   0.907  13.450  1.00  0.00     0.167 HD
HETATM    7  C8  UNL     1      39.020   0.131  11.584  1.00  0.00     0.098 A 
HETATM    8  C9  UNL     1      39.143   0.376  10.235  1.00  0.00     0.174 A 
HETATM    9  N7  UNL     1      39.644  -0.712   9.632  1.00  0.00    -0.329 N 
ATOM     10  H7  UNL     1      39.838  -0.805   8.635  1.00  0.00     0.168 HD
HETATM   11  C10 UNL     1      39.852  -1.675  10.579  1.00  0.00     0.133 A 
HETATM   12  C11 UNL     1      40.373  -2.956  10.288  1.00  0.00     0.119 C 
HETATM   13  N8  UNL     1      40.787  -4.018  10.057  1.00  0.00    -0.190 NA
HETATM   14  C12 UNL     1      39.460  -1.147  11.800  1.00  0.00     0.097 A 
ENDROOT
BRANCH  14  15
HETATM   15  C13 UNL     1      39.532  -1.878  13.056  1.00  0.00     0.270 C 
HETATM   16  N9  UNL     1      40.201  -1.278  14.154  1.00  0.00    -0.057 NA
HETATM   17  O2  UNL     1      39.030  -3.009  13.205  1.00  0.00    -0.271 OA
ENDBRANCH  14  15
BRANCH   1  18
HETATM   18  C6  UNL     1      38.840   1.965   8.308  1.00  0.00     0.708 A 
HETATM   19  N3  UNL     1      38.104   1.375   7.348  1.00  0.00    -0.171 N 
HETATM   20  C5  UNL     1      38.413   1.936   6.143  1.00  0.00     0.170 A 
ATOM     21  H3  UNL     1      37.424   0.629   7.498  1.00  0.00     0.186 HD
HETATM   22  N2  UNL     1      38.183   1.947   4.830  1.00  0.00    -0.291 N 
HETATM   23  C14 UNL     1      39.369   2.898   6.384  1.00  0.00     0.172 A 
HETATM   24  C4  UNL     1      38.967   2.882   4.277  1.00  0.00     0.330 A 
ATOM     25  H2  UNL     1      37.524   1.347   4.332  1.00  0.00     0.172 HD
HETATM   26  N1  UNL     1      39.714   3.487   5.228  1.00  0.00    -0.278 N 
HETATM   27  O1  UNL     1      39.006   3.161   3.050  1.00  0.00    -0.246 OA
HETATM   28  N10 UNL     1      39.617   2.900   7.716  1.00  0.00    -0.170 N 
ATOM     29  H10 UNL     1      40.282   3.507   8.195  1.00  0.00     0.186 HD
BRANCH  26  30
HETATM   30  C3  UNL     1      40.659   4.544   4.973  1.00  0.00     0.162 C 
BRANCH  30  31
HETATM   31  C2  UNL     1      42.011   4.094   5.305  1.00  0.00    -0.017 C 
HETATM   32  C1  UNL     1      42.594   4.492   6.418  1.00  0.00     0.008 C 
ENDBRANCH  30  31
ENDBRANCH  26  30
ENDBRANCH   1  18
TORSDOF 4
ENDMDL
