MODEL 1
REMARK VINA RESULT: -4.373886365      0.000      0.000
REMARK  3 active torsions:
REMARK  status: ('A' for Active; 'I' for Inactive)
REMARK    1  A    between atoms: N1_2  and  C2_4 
REMARK    2  A    between atoms: C2_4  and  N2_6 
REMARK    3  A    between atoms: N2_6  and  N3_8 
ROOT
HETATM    1  N2  UNL     1      17.814   3.627  15.306  1.00  0.00    -0.274 N 
ATOM      2  H2  UNL     1      18.411   3.299  16.066  1.00  0.00     0.189 HD
ENDROOT
BRANCH   1   3
HETATM    3  C2  UNL     1      18.307   4.642  14.465  1.00  0.00     0.186 C 
HETATM    4  S1  UNL     1      17.566   6.088  14.452  1.00  0.00    -0.040 SA
BRANCH   3   5
HETATM    5  N1  UNL     1      19.431   4.398  13.645  1.00  0.00    -0.370 N 
HETATM    6  C1  UNL     1      19.318   4.099  12.242  1.00  0.00     0.148 C 
ATOM      7  H1  UNL     1      20.361   4.435  14.065  1.00  0.00     0.161 HD
ENDBRANCH   3   5
ENDBRANCH   1   3
BRANCH   1   8
HETATM    8  N3  UNL     1      16.555   3.045  15.161  1.00  0.00    -0.290 N 
HETATM    9  C3  UNL     1      16.236   2.587  13.880  1.00  0.00     0.095 C 
HETATM   10  C4  UNL     1      16.589   1.139  13.716  1.00  0.00     0.122 C 
HETATM   11  S2  UNL     1      16.458   0.531  15.442  1.00  0.00    -0.137 SA
HETATM   12  C5  UNL     1      16.160   2.180  16.188  1.00  0.00     0.164 C 
HETATM   13  C6  UNL     1      14.713   2.240  16.574  1.00  0.00     0.046 C 
ENDBRANCH   1   8
TORSDOF 3
ENDMDL
MODEL 2
REMARK VINA RESULT: -4.276580134      2.502      3.694
REMARK  3 active torsions:
REMARK  status: ('A' for Active; 'I' for Inactive)
REMARK    1  A    between atoms: N1_2  and  C2_4 
REMARK    2  A    between atoms: C2_4  and  N2_6 
REMARK    3  A    between atoms: N2_6  and  N3_8 
ROOT
HETATM    1  N2  UNL     1      16.771   1.737  13.918  1.00  0.00    -0.274 N 
ATOM      2  H2  UNL     1      17.036   0.880  14.405  1.00  0.00     0.189 HD
ENDROOT
BRANCH   1   3
HETATM    3  C2  UNL     1      16.593   2.906  14.682  1.00  0.00     0.186 C 
HETATM    4  S1  UNL     1      15.089   3.480  14.910  1.00  0.00    -0.040 SA
BRANCH   3   5
HETATM    5  N1  UNL     1      17.711   3.565  15.240  1.00  0.00    -0.370 N 
HETATM    6  C1  UNL     1      18.255   4.775  14.682  1.00  0.00     0.148 C 
ATOM      7  H1  UNL     1      18.150   3.167  16.071  1.00  0.00     0.161 HD
ENDBRANCH   3   5
ENDBRANCH   1   3
BRANCH   1   8
HETATM    8  N3  UNL     1      16.607   1.685  12.535  1.00  0.00    -0.290 N 
HETATM    9  C3  UNL     1      16.928   2.849  11.834  1.00  0.00     0.095 C 
HETATM   10  C4  UNL     1      18.351   2.824  11.361  1.00  0.00     0.122 C 
HETATM   11  S2  UNL     1      18.653   1.022  11.200  1.00  0.00    -0.137 SA
HETATM   12  C5  UNL     1      17.042   0.508  11.912  1.00  0.00     0.164 C 
HETATM   13  C6  UNL     1      16.192   0.013  10.782  1.00  0.00     0.046 C 
ENDBRANCH   1   8
TORSDOF 3
ENDMDL
MODEL 3
REMARK VINA RESULT: -4.168902541      2.313      3.813
REMARK  3 active torsions:
REMARK  status: ('A' for Active; 'I' for Inactive)
REMARK    1  A    between atoms: N1_2  and  C2_4 
REMARK    2  A    between atoms: C2_4  and  N2_6 
REMARK    3  A    between atoms: N2_6  and  N3_8 
ROOT
HETATM    1  N2  UNL     1      17.337   2.833  13.183  1.00  0.00    -0.274 N 
ATOM      2  H2  UNL     1      18.075   3.393  12.755  1.00  0.00     0.189 HD
ENDROOT
BRANCH   1   3
HETATM    3  C2  UNL     1      16.853   1.719  12.473  1.00  0.00     0.186 C 
HETATM    4  S1  UNL     1      16.224   1.938  10.991  1.00  0.00    -0.040 SA
BRANCH   3   5
HETATM    5  N1  UNL     1      16.916   0.430  13.049  1.00  0.00    -0.370 N 
HETATM    6  C1  UNL     1      16.890  -0.774  12.260  1.00  0.00     0.148 C 
ATOM      7  H1  UNL     1      16.982   0.350  14.064  1.00  0.00     0.161 HD
ENDBRANCH   3   5
ENDBRANCH   1   3
BRANCH   1   8
HETATM    8  N3  UNL     1      16.866   3.215  14.439  1.00  0.00    -0.290 N 
HETATM    9  C3  UNL     1      17.584   4.226  15.082  1.00  0.00     0.095 C 
HETATM   10  C4  UNL     1      17.003   5.577  14.789  1.00  0.00     0.122 C 
HETATM   11  S2  UNL     1      15.245   5.160  14.470  1.00  0.00    -0.137 SA
HETATM   12  C5  UNL     1      15.477   3.342  14.557  1.00  0.00     0.164 C 
HETATM   13  C6  UNL     1      14.885   2.879  15.854  1.00  0.00     0.046 C 
ENDBRANCH   1   8
TORSDOF 3
ENDMDL
MODEL 4
REMARK VINA RESULT: -4.162864304      1.658      4.332
REMARK  3 active torsions:
REMARK  status: ('A' for Active; 'I' for Inactive)
REMARK    1  A    between atoms: N1_2  and  C2_4 
REMARK    2  A    between atoms: C2_4  and  N2_6 
REMARK    3  A    between atoms: N2_6  and  N3_8 
ROOT
HETATM    1  N2  UNL     1      17.469   2.646  15.842  1.00  0.00    -0.274 N 
ATOM      2  H2  UNL     1      18.447   2.438  16.044  1.00  0.00     0.189 HD
ENDROOT
BRANCH   1   3
HETATM    3  C2  UNL     1      16.508   1.656  16.122  1.00  0.00     0.186 C 
HETATM    4  S1  UNL     1      16.520   0.278  15.262  1.00  0.00    -0.040 SA
BRANCH   3   5
HETATM    5  N1  UNL     1      15.551   1.866  17.139  1.00  0.00    -0.370 N 
HETATM    6  C1  UNL     1      14.293   1.167  17.177  1.00  0.00     0.148 C 
ATOM      7  H1  UNL     1      15.759   2.541  17.876  1.00  0.00     0.161 HD
ENDBRANCH   3   5
ENDBRANCH   1   3
BRANCH   1   8
HETATM    8  N3  UNL     1      17.159   3.894  15.303  1.00  0.00    -0.290 N 
HETATM    9  C3  UNL     1      18.241   4.656  14.857  1.00  0.00     0.095 C 
HETATM   10  C4  UNL     1      18.502   4.429  13.398  1.00  0.00     0.122 C 
HETATM   11  S2  UNL     1      16.833   3.968  12.794  1.00  0.00    -0.137 SA
HETATM   12  C5  UNL     1      16.048   3.933  14.451  1.00  0.00     0.164 C 
HETATM   13  C6  UNL     1      15.182   5.151  14.561  1.00  0.00     0.046 C 
ENDBRANCH   1   8
TORSDOF 3
ENDMDL
MODEL 5
REMARK VINA RESULT: -4.153810471      2.585      4.107
REMARK  3 active torsions:
REMARK  status: ('A' for Active; 'I' for Inactive)
REMARK    1  A    between atoms: N1_2  and  C2_4 
REMARK    2  A    between atoms: C2_4  and  N2_6 
REMARK    3  A    between atoms: N2_6  and  N3_8 
ROOT
HETATM    1  N2  UNL     1      17.294   3.038  13.591  1.00  0.00    -0.274 N 
ATOM      2  H2  UNL     1      18.166   3.552  13.718  1.00  0.00     0.189 HD
ENDROOT
BRANCH   1   3
HETATM    3  C2  UNL     1      16.492   2.799  14.723  1.00  0.00     0.186 C 
HETATM    4  S1  UNL     1      15.104   3.624  14.896  1.00  0.00    -0.040 SA
BRANCH   3   5
HETATM    5  N1  UNL     1      16.898   1.852  15.690  1.00  0.00    -0.370 N 
HETATM    6  C1  UNL     1      16.480   0.475  15.651  1.00  0.00     0.148 C 
ATOM      7  H1  UNL     1      17.511   2.157  16.447  1.00  0.00     0.161 HD
ENDBRANCH   3   5
ENDBRANCH   1   3
BRANCH   1   8
HETATM    8  N3  UNL     1      16.964   2.611  12.305  1.00  0.00    -0.290 N 
HETATM    9  C3  UNL     1      17.319   3.471  11.263  1.00  0.00     0.095 C 
HETATM   10  C4  UNL     1      18.666   3.123  10.704  1.00  0.00     0.122 C 
HETATM   11  S2  UNL     1      18.761   1.327  11.067  1.00  0.00    -0.137 SA
HETATM   12  C5  UNL     1      17.201   1.259  12.030  1.00  0.00     0.164 C 
HETATM   13  C6  UNL     1      16.178   0.576  11.174  1.00  0.00     0.046 C 
ENDBRANCH   1   8
TORSDOF 3
ENDMDL
