MODEL 1
REMARK VINA RESULT: -5.767661701      0.000      0.000
REMARK  3 active torsions:
REMARK  status: ('A' for Active; 'I' for Inactive)
REMARK    1  A    between atoms: C5_6  and  N2_7 
REMARK    2  A    between atoms: N2_7  and  C6_9 
REMARK    3  A    between atoms: C6_9  and  N3_11 
ROOT
HETATM    1  N3  UNL     1      16.615   2.078  15.129  1.00  0.00    -0.270 N 
ATOM      2  H3  UNL     1      16.851   2.764  15.846  1.00  0.00     0.180 HD
HETATM    3  C7  UNL     1      16.381   0.734  15.478  1.00  0.00     0.184 C 
HETATM    4  N4  UNL     1      16.178  -0.377  15.749  1.00  0.00    -0.172 NA
ENDROOT
BRANCH   1   5
HETATM    5  C6  UNL     1      16.521   2.464  13.771  1.00  0.00     0.181 C 
HETATM    6  S1  UNL     1      16.673   4.047  13.424  1.00  0.00    -0.040 SA
BRANCH   5   7
HETATM    7  N2  UNL     1      16.304   1.514  12.772  1.00  0.00    -0.360 N 
ATOM      8  H2  UNL     1      15.337   1.326  12.507  1.00  0.00     0.162 HD
BRANCH   7   9
HETATM    9  C5  UNL     1      17.313   0.790  12.096  1.00  0.00     0.112 C 
HETATM   10  C4  UNL     1      17.956   1.500  10.924  1.00  0.00     0.028 C 
HETATM   11  C3  UNL     1      19.245   0.703  10.639  1.00  0.00     0.032 C 
HETATM   12  C2  UNL     1      18.867  -0.740  10.280  1.00  0.00     0.272 C 
HETATM   13  N1  UNL     1      18.135  -1.306  11.365  1.00  0.00     0.086 N 
HETATM   14  C1  UNL     1      17.974  -2.717  11.322  1.00  0.00     0.310 C 
HETATM   15  C8  UNL     1      16.899  -0.577  11.582  1.00  0.00     0.296 C 
ENDBRANCH   7   9
ENDBRANCH   5   7
ENDBRANCH   1   5
TORSDOF 3
ENDMDL
MODEL 2
REMARK VINA RESULT: -5.651832650      1.004      1.016
REMARK  3 active torsions:
REMARK  status: ('A' for Active; 'I' for Inactive)
REMARK    1  A    between atoms: C5_6  and  N2_7 
REMARK    2  A    between atoms: N2_7  and  C6_9 
REMARK    3  A    between atoms: C6_9  and  N3_11 
ROOT
HETATM    1  N3  UNL     1      16.882   2.038  15.224  1.00  0.00    -0.270 N 
ATOM      2  H3  UNL     1      17.729   2.439  15.625  1.00  0.00     0.180 HD
HETATM    3  C7  UNL     1      16.481   0.732  15.565  1.00  0.00     0.184 C 
HETATM    4  N4  UNL     1      16.132  -0.341  15.840  1.00  0.00    -0.172 NA
ENDROOT
BRANCH   1   5
HETATM    5  C6  UNL     1      16.094   2.787  14.317  1.00  0.00     0.181 C 
HETATM    6  S1  UNL     1      15.062   3.881  14.938  1.00  0.00    -0.040 SA
BRANCH   5   7
HETATM    7  N2  UNL     1      16.205   2.585  12.941  1.00  0.00    -0.360 N 
ATOM      8  H2  UNL     1      15.542   3.075  12.341  1.00  0.00     0.162 HD
BRANCH   7   9
HETATM    9  C5  UNL     1      17.162   1.758  12.308  1.00  0.00     0.112 C 
HETATM   10  C4  UNL     1      17.931   2.397  11.171  1.00  0.00     0.028 C 
HETATM   11  C3  UNL     1      19.140   1.467  10.942  1.00  0.00     0.032 C 
HETATM   12  C2  UNL     1      18.629   0.073  10.556  1.00  0.00     0.272 C 
HETATM   13  N1  UNL     1      17.791  -0.412  11.603  1.00  0.00     0.086 N 
HETATM   14  C1  UNL     1      17.483  -1.799  11.544  1.00  0.00     0.310 C 
HETATM   15  C8  UNL     1      16.630   0.444  11.767  1.00  0.00     0.296 C 
ENDBRANCH   7   9
ENDBRANCH   5   7
ENDBRANCH   1   5
TORSDOF 3
ENDMDL
MODEL 3
REMARK VINA RESULT: -5.490516712      2.592      5.410
REMARK  3 active torsions:
REMARK  status: ('A' for Active; 'I' for Inactive)
REMARK    1  A    between atoms: C5_6  and  N2_7 
REMARK    2  A    between atoms: N2_7  and  C6_9 
REMARK    3  A    between atoms: C6_9  and  N3_11 
ROOT
HETATM    1  N3  UNL     1      15.900   1.096  11.165  1.00  0.00    -0.270 N 
ATOM      2  H3  UNL     1      15.078   0.649  10.758  1.00  0.00     0.180 HD
HETATM    3  C7  UNL     1      16.285   2.386  10.756  1.00  0.00     0.184 C 
HETATM    4  N4  UNL     1      16.614   3.453  10.434  1.00  0.00    -0.172 NA
ENDROOT
BRANCH   1   5
HETATM    5  C6  UNL     1      16.667   0.426  12.148  1.00  0.00     0.181 C 
HETATM    6  S1  UNL     1      17.065  -1.127  11.867  1.00  0.00    -0.040 SA
BRANCH   5   7
HETATM    7  N2  UNL     1      17.063   1.083  13.314  1.00  0.00    -0.360 N 
ATOM      8  H2  UNL     1      18.064   1.215  13.459  1.00  0.00     0.162 HD
BRANCH   7   9
HETATM    9  C5  UNL     1      16.192   1.580  14.310  1.00  0.00     0.112 C 
HETATM   10  C4  UNL     1      16.214   3.081  14.510  1.00  0.00     0.028 C 
HETATM   11  C3  UNL     1      14.937   3.389  15.317  1.00  0.00     0.032 C 
HETATM   12  C2  UNL     1      15.005   2.647  16.658  1.00  0.00     0.272 C 
HETATM   13  N1  UNL     1      15.133   1.250  16.401  1.00  0.00     0.086 N 
HETATM   14  C1  UNL     1      14.905   0.401  17.518  1.00  0.00     0.310 C 
HETATM   15  C8  UNL     1      16.367   0.972  15.690  1.00  0.00     0.296 C 
ENDBRANCH   7   9
ENDBRANCH   5   7
ENDBRANCH   1   5
TORSDOF 3
ENDMDL
MODEL 4
REMARK VINA RESULT: -5.446837956      1.892      5.216
REMARK  3 active torsions:
REMARK  status: ('A' for Active; 'I' for Inactive)
REMARK    1  A    between atoms: C5_6  and  N2_7 
REMARK    2  A    between atoms: N2_7  and  C6_9 
REMARK    3  A    between atoms: C6_9  and  N3_11 
ROOT
HETATM    1  N3  UNL     1      16.677  -1.096  11.984  1.00  0.00    -0.270 N 
ATOM      2  H3  UNL     1      15.813  -1.607  12.169  1.00  0.00     0.180 HD
HETATM    3  C7  UNL     1      17.829  -1.779  11.551  1.00  0.00     0.184 C 
HETATM    4  N4  UNL     1      18.788  -2.325  11.188  1.00  0.00    -0.172 NA
ENDROOT
BRANCH   1   5
HETATM    5  C6  UNL     1      16.731   0.308  12.160  1.00  0.00     0.181 C 
HETATM    6  S1  UNL     1      16.334   1.243  10.889  1.00  0.00    -0.040 SA
BRANCH   5   7
HETATM    7  N2  UNL     1      17.113   0.858  13.384  1.00  0.00    -0.360 N 
ATOM      8  H2  UNL     1      18.108   0.860  13.605  1.00  0.00     0.162 HD
BRANCH   7   9
HETATM    9  C5  UNL     1      16.235   1.415  14.342  1.00  0.00     0.112 C 
HETATM   10  C4  UNL     1      16.272   2.922  14.468  1.00  0.00     0.028 C 
HETATM   11  C3  UNL     1      14.988   3.285  15.241  1.00  0.00     0.032 C 
HETATM   12  C2  UNL     1      15.029   2.609  16.618  1.00  0.00     0.272 C 
HETATM   13  N1  UNL     1      15.144   1.200  16.432  1.00  0.00     0.086 N 
HETATM   14  C1  UNL     1      14.892   0.410  17.587  1.00  0.00     0.310 C 
HETATM   15  C8  UNL     1      16.385   0.873  15.753  1.00  0.00     0.296 C 
ENDBRANCH   7   9
ENDBRANCH   5   7
ENDBRANCH   1   5
TORSDOF 3
ENDMDL
MODEL 5
REMARK VINA RESULT: -5.372907401      1.152      2.058
REMARK  3 active torsions:
REMARK  status: ('A' for Active; 'I' for Inactive)
REMARK    1  A    between atoms: C5_6  and  N2_7 
REMARK    2  A    between atoms: N2_7  and  C6_9 
REMARK    3  A    between atoms: C6_9  and  N3_11 
ROOT
HETATM    1  N3  UNL     1      16.756   1.946  14.098  1.00  0.00    -0.270 N 
ATOM      2  H3  UNL     1      17.056   2.792  14.581  1.00  0.00     0.180 HD
HETATM    3  C7  UNL     1      16.463   0.776  14.825  1.00  0.00     0.184 C 
HETATM    4  N4  UNL     1      16.211  -0.196  15.409  1.00  0.00    -0.172 NA
ENDROOT
BRANCH   1   5
HETATM    5  C6  UNL     1      16.628   1.932  12.688  1.00  0.00     0.181 C 
HETATM    6  S1  UNL     1      16.937   3.316  11.889  1.00  0.00    -0.040 SA
BRANCH   5   7
HETATM    7  N2  UNL     1      16.250   0.769  12.018  1.00  0.00    -0.360 N 
ATOM      8  H2  UNL     1      15.251   0.578  11.939  1.00  0.00     0.162 HD
BRANCH   7   9
HETATM    9  C5  UNL     1      17.136  -0.168  11.438  1.00  0.00     0.112 C 
HETATM   10  C4  UNL     1      17.332  -1.453  12.214  1.00  0.00     0.028 C 
HETATM   11  C3  UNL     1      17.983  -2.425  11.210  1.00  0.00     0.032 C 
HETATM   12  C2  UNL     1      19.325  -1.840  10.751  1.00  0.00     0.272 C 
HETATM   13  N1  UNL     1      19.089  -0.563  10.161  1.00  0.00     0.086 N 
HETATM   14  C1  UNL     1      20.175  -0.025   9.418  1.00  0.00     0.310 C 
HETATM   15  C8  UNL     1      18.528   0.355  11.135  1.00  0.00     0.296 C 
ENDBRANCH   7   9
ENDBRANCH   5   7
ENDBRANCH   1   5
TORSDOF 3
ENDMDL
