MODEL 1
REMARK VINA RESULT: -5.551144267      0.000      0.000
REMARK  3 active torsions:
REMARK  status: ('A' for Active; 'I' for Inactive)
REMARK    1  A    between atoms: C5_6  and  O1_7 
REMARK    2  A    between atoms: C8_11  and  C9_12 
REMARK    3  A    between atoms: C9_12  and  O2_15 
ROOT
HETATM    1  C1  UNL     1      16.736   5.145  12.846  1.00  0.00     0.310 C 
HETATM    2  N1  UNL     1      17.105   3.833  13.378  1.00  0.00     0.092 N 
HETATM    3  C2  UNL     1      16.954   3.849  14.801  1.00  0.00     0.282 C 
HETATM    4  C3  UNL     1      16.265   2.597  15.148  1.00  0.00    -0.007 C 
HETATM    5  C4  UNL     1      15.127   2.683  16.139  1.00  0.00     0.043 C 
HETATM    6  C5  UNL     1      15.553   1.306  16.610  1.00  0.00     0.119 C 
HETATM    7  C6  UNL     1      16.955   1.672  16.130  1.00  0.00     0.043 C 
HETATM    8  C7  UNL     1      15.821   1.908  13.891  1.00  0.00     0.050 C 
HETATM    9  C8  UNL     1      16.208   2.873  12.823  1.00  0.00     0.256 C 
ENDROOT
BRANCH   6  10
HETATM   10  O1  UNL     1      15.453   1.103  17.977  1.00  0.00    -0.396 OA
ATOM     11  H1  UNL     1      14.743   1.573  18.398  1.00  0.00     0.210 HD
ENDBRANCH   6  10
BRANCH   9  12
HETATM   12  C9  UNL     1      16.805   2.083  11.673  1.00  0.00     0.081 C 
HETATM   13  C10 UNL     1      16.598   0.628  11.904  1.00  0.00     0.047 C 
HETATM   14  C11 UNL     1      18.279   2.411  11.497  1.00  0.00     0.047 C 
BRANCH  12  15
HETATM   15  O2  UNL     1      16.175   2.479  10.499  1.00  0.00    -0.388 OA
ATOM     16  H2  UNL     1      16.828   2.858   9.923  1.00  0.00     0.210 HD
ENDBRANCH  12  15
ENDBRANCH   9  12
TORSDOF 3
ENDMDL
MODEL 2
REMARK VINA RESULT: -5.411752276      3.788      5.420
REMARK  3 active torsions:
REMARK  status: ('A' for Active; 'I' for Inactive)
REMARK    1  A    between atoms: C5_6  and  O1_7 
REMARK    2  A    between atoms: C8_11  and  C9_12 
REMARK    3  A    between atoms: C9_12  and  O2_15 
ROOT
HETATM    1  C1  UNL     1      16.629   0.675  12.442  1.00  0.00     0.310 C 
HETATM    2  N1  UNL     1      17.356   1.202  11.286  1.00  0.00     0.092 N 
HETATM    3  C2  UNL     1      17.482   2.620  11.424  1.00  0.00     0.282 C 
HETATM    4  C3  UNL     1      18.878   2.936  11.084  1.00  0.00    -0.007 C 
HETATM    5  C4  UNL     1      19.613   3.898  11.988  1.00  0.00     0.043 C 
HETATM    6  C5  UNL     1      20.346   4.364  10.746  1.00  0.00     0.119 C 
HETATM    7  C6  UNL     1      19.114   3.924   9.960  1.00  0.00     0.043 C 
HETATM    8  C7  UNL     1      19.653   1.660  10.927  1.00  0.00     0.050 C 
HETATM    9  C8  UNL     1      18.655   0.613  11.287  1.00  0.00     0.256 C 
ENDROOT
BRANCH   6  10
HETATM   10  O1  UNL     1      20.598   5.726  10.697  1.00  0.00    -0.396 OA
ATOM     11  H1  UNL     1      20.200   6.229  11.398  1.00  0.00     0.210 HD
ENDBRANCH   6  10
BRANCH   9  12
HETATM   12  C9  UNL     1      18.800  -0.531  10.300  1.00  0.00     0.081 C 
HETATM   13  C10 UNL     1      18.855  -1.823  11.036  1.00  0.00     0.047 C 
HETATM   14  C11 UNL     1      20.030  -0.341   9.427  1.00  0.00     0.047 C 
BRANCH  12  15
HETATM   15  O2  UNL     1      17.707  -0.509   9.444  1.00  0.00    -0.388 OA
ATOM     16  H2  UNL     1      17.008  -1.017   9.839  1.00  0.00     0.210 HD
ENDBRANCH  12  15
ENDBRANCH   9  12
TORSDOF 3
ENDMDL
MODEL 3
REMARK VINA RESULT: -5.364532850      1.096      1.337
REMARK  3 active torsions:
REMARK  status: ('A' for Active; 'I' for Inactive)
REMARK    1  A    between atoms: C5_6  and  O1_7 
REMARK    2  A    between atoms: C8_11  and  C9_12 
REMARK    3  A    between atoms: C9_12  and  O2_15 
ROOT
HETATM    1  C1  UNL     1      16.642   5.444  13.591  1.00  0.00     0.310 C 
HETATM    2  N1  UNL     1      17.154   4.128  13.972  1.00  0.00     0.092 N 
HETATM    3  C2  UNL     1      16.816   3.874  15.338  1.00  0.00     0.282 C 
HETATM    4  C3  UNL     1      16.310   2.494  15.380  1.00  0.00    -0.007 C 
HETATM    5  C4  UNL     1      15.053   2.239  16.180  1.00  0.00     0.043 C 
HETATM    6  C5  UNL     1      15.641   0.879  16.500  1.00  0.00     0.119 C 
HETATM    7  C6  UNL     1      17.011   1.523  16.308  1.00  0.00     0.043 C 
HETATM    8  C7  UNL     1      16.160   1.976  13.979  1.00  0.00     0.050 C 
HETATM    9  C8  UNL     1      16.515   3.158  13.143  1.00  0.00     0.256 C 
ENDROOT
BRANCH   6  10
HETATM   10  O1  UNL     1      15.397   0.429  17.788  1.00  0.00    -0.396 OA
ATOM     11  H1  UNL     1      16.090  -0.101  18.162  1.00  0.00     0.210 HD
ENDBRANCH   6  10
BRANCH   9  12
HETATM   12  C9  UNL     1      17.384   2.676  11.997  1.00  0.00     0.081 C 
HETATM   13  C10 UNL     1      16.967   3.348  10.736  1.00  0.00     0.047 C 
HETATM   14  C11 UNL     1      17.317   1.163  11.864  1.00  0.00     0.047 C 
BRANCH  12  15
HETATM   15  O2  UNL     1      18.706   2.983  12.292  1.00  0.00    -0.388 OA
ATOM     16  H2  UNL     1      19.042   3.546  11.605  1.00  0.00     0.210 HD
ENDBRANCH  12  15
ENDBRANCH   9  12
TORSDOF 3
ENDMDL
MODEL 4
REMARK VINA RESULT: -5.178280530      2.353      4.373
REMARK  3 active torsions:
REMARK  status: ('A' for Active; 'I' for Inactive)
REMARK    1  A    between atoms: C5_6  and  O1_7 
REMARK    2  A    between atoms: C8_11  and  C9_12 
REMARK    3  A    between atoms: C9_12  and  O2_15 
ROOT
HETATM    1  C1  UNL     1      16.052   1.691  12.318  1.00  0.00     0.310 C 
HETATM    2  N1  UNL     1      16.963   2.259  13.312  1.00  0.00     0.092 N 
HETATM    3  C2  UNL     1      17.503   3.482  12.802  1.00  0.00     0.282 C 
HETATM    4  C3  UNL     1      17.421   4.451  13.906  1.00  0.00    -0.007 C 
HETATM    5  C4  UNL     1      16.909   5.835  13.578  1.00  0.00     0.043 C 
HETATM    6  C5  UNL     1      17.857   6.340  14.649  1.00  0.00     0.119 C 
HETATM    7  C6  UNL     1      18.710   5.111  14.349  1.00  0.00     0.043 C 
HETATM    8  C7  UNL     1      16.639   3.851  15.038  1.00  0.00     0.050 C 
HETATM    9  C8  UNL     1      16.203   2.537  14.487  1.00  0.00     0.256 C 
ENDROOT
BRANCH   6  10
HETATM   10  O1  UNL     1      18.472   7.547  14.358  1.00  0.00    -0.396 OA
ATOM     11  H1  UNL     1      18.039   8.311  14.721  1.00  0.00     0.210 HD
ENDBRANCH   6  10
BRANCH   9  12
HETATM   12  C9  UNL     1      16.372   1.494  15.576  1.00  0.00     0.081 C 
HETATM   13  C10 UNL     1      16.543   0.150  14.960  1.00  0.00     0.047 C 
HETATM   14  C11 UNL     1      15.193   1.515  16.535  1.00  0.00     0.047 C 
BRANCH  12  15
HETATM   15  O2  UNL     1      17.491   1.826  16.327  1.00  0.00    -0.388 OA
ATOM     16  H2  UNL     1      17.200   2.120  17.183  1.00  0.00     0.210 HD
ENDBRANCH  12  15
ENDBRANCH   9  12
TORSDOF 3
ENDMDL
MODEL 5
REMARK VINA RESULT: -5.160327583      1.458      3.040
REMARK  3 active torsions:
REMARK  status: ('A' for Active; 'I' for Inactive)
REMARK    1  A    between atoms: C5_6  and  O1_7 
REMARK    2  A    between atoms: C8_11  and  C9_12 
REMARK    3  A    between atoms: C9_12  and  O2_15 
ROOT
HETATM    1  C1  UNL     1      17.499   2.745  12.076  1.00  0.00     0.310 C 
HETATM    2  N1  UNL     1      16.465   2.963  13.087  1.00  0.00     0.092 N 
HETATM    3  C2  UNL     1      16.189   1.723  13.744  1.00  0.00     0.282 C 
HETATM    4  C3  UNL     1      16.139   2.029  15.183  1.00  0.00    -0.007 C 
HETATM    5  C4  UNL     1      16.862   1.088  16.119  1.00  0.00     0.043 C 
HETATM    6  C5  UNL     1      15.769   1.395  17.124  1.00  0.00     0.119 C 
HETATM    7  C6  UNL     1      14.867   1.677  15.925  1.00  0.00     0.043 C 
HETATM    8  C7  UNL     1      16.586   3.445  15.405  1.00  0.00     0.050 C 
HETATM    9  C8  UNL     1      16.980   3.893  14.039  1.00  0.00     0.256 C 
ENDROOT
BRANCH   6  10
HETATM   10  O1  UNL     1      15.371   0.314  17.896  1.00  0.00    -0.396 OA
ATOM     11  H1  UNL     1      15.343  -0.515  17.434  1.00  0.00     0.210 HD
ENDBRANCH   6  10
BRANCH   9  12
HETATM   12  C9  UNL     1      16.463   5.306  13.843  1.00  0.00     0.081 C 
HETATM   13  C10 UNL     1      17.561   6.280  14.092  1.00  0.00     0.047 C 
HETATM   14  C11 UNL     1      15.270   5.577  14.744  1.00  0.00     0.047 C 
BRANCH  12  15
HETATM   15  O2  UNL     1      16.001   5.424  12.538  1.00  0.00    -0.388 OA
ATOM     16  H2  UNL     1      15.222   4.887  12.448  1.00  0.00     0.210 HD
ENDBRANCH  12  15
ENDBRANCH   9  12
TORSDOF 3
ENDMDL
