MODEL 1
REMARK VINA RESULT: -5.136640746      0.000      0.000
REMARK  1 active torsions:
REMARK  status: ('A' for Active; 'I' for Inactive)
REMARK    1  A    between atoms: C3_4  and  O1_5 
ROOT
HETATM    1  C1  UNL     1      17.072   1.898  14.126  1.00  0.00     0.023 C 
HETATM    2  C2  UNL     1      16.598   2.270  12.728  1.00  0.00     0.084 C 
HETATM    3  S1  UNL     1      16.828   0.944  11.550  1.00  0.00    -0.131 SA
HETATM    4  C3  UNL     1      18.416   0.158  11.584  1.00  0.00     0.182 C 
HETATM    5  C4  UNL     1      19.322   0.845  10.598  1.00  0.00     0.082 C 
HETATM    6  C5  UNL     1      19.200   2.332  10.615  1.00  0.00     0.090 C 
HETATM    7  C6  UNL     1      20.260   2.911   9.697  1.00  0.00     0.048 C 
HETATM    8  C7  UNL     1      19.355   2.817  12.042  1.00  0.00     0.315 C 
HETATM    9  N1  UNL     1      18.435   3.847  12.214  1.00  0.00     0.139 N 
HETATM   10  C8  UNL     1      17.072   3.601  12.324  1.00  0.00     0.305 A 
HETATM   11  C9  UNL     1      17.609   3.841  11.035  1.00  0.00     0.291 A 
HETATM   12  C10 UNL     1      17.451   5.224  10.411  1.00  0.00     0.084 C 
HETATM   13  O2  UNL     1      17.988   2.827  10.223  1.00  0.00    -0.338 OA
ENDROOT
BRANCH   4  14
HETATM   14  O1  UNL     1      18.261  -1.164  11.098  1.00  0.00    -0.385 OA
ATOM     15  H1  UNL     1      18.649  -1.757  11.731  1.00  0.00     0.211 HD
ENDBRANCH   4  14
TORSDOF 1
ENDMDL
MODEL 2
REMARK VINA RESULT: -4.998862819      2.278      3.702
REMARK  1 active torsions:
REMARK  status: ('A' for Active; 'I' for Inactive)
REMARK    1  A    between atoms: C3_4  and  O1_5 
ROOT
HETATM    1  C1  UNL     1      16.854   5.691  11.006  1.00  0.00     0.023 C 
HETATM    2  C2  UNL     1      18.094   4.956  11.495  1.00  0.00     0.084 C 
HETATM    3  S1  UNL     1      18.125   3.244  10.980  1.00  0.00    -0.131 SA
HETATM    4  C3  UNL     1      16.617   2.345  11.220  1.00  0.00     0.182 C 
HETATM    5  C4  UNL     1      16.658   1.673  12.566  1.00  0.00     0.082 C 
HETATM    6  C5  UNL     1      17.217   2.538  13.646  1.00  0.00     0.090 C 
HETATM    7  C6  UNL     1      17.068   1.811  14.969  1.00  0.00     0.048 C 
HETATM    8  C7  UNL     1      16.484   3.863  13.637  1.00  0.00     0.315 C 
HETATM    9  N1  UNL     1      17.438   4.847  13.879  1.00  0.00     0.139 N 
HETATM   10  C8  UNL     1      18.365   5.223  12.916  1.00  0.00     0.305 A 
HETATM   11  C9  UNL     1      18.715   4.185  13.815  1.00  0.00     0.291 A 
HETATM   12  C10 UNL     1      19.614   4.506  15.005  1.00  0.00     0.084 C 
HETATM   13  O2  UNL     1      18.532   2.882  13.502  1.00  0.00    -0.338 OA
ENDROOT
BRANCH   4  14
HETATM   14  O1  UNL     1      16.579   1.292  10.272  1.00  0.00    -0.385 OA
ATOM     15  H1  UNL     1      15.980   0.629  10.595  1.00  0.00     0.211 HD
ENDBRANCH   4  14
TORSDOF 1
ENDMDL
MODEL 3
REMARK VINA RESULT: -4.987820464      1.851      3.427
REMARK  1 active torsions:
REMARK  status: ('A' for Active; 'I' for Inactive)
REMARK    1  A    between atoms: C3_4  and  O1_5 
ROOT
HETATM    1  C1  UNL     1      17.073   4.742  11.568  1.00  0.00     0.023 C 
HETATM    2  C2  UNL     1      17.849   3.859  12.535  1.00  0.00     0.084 C 
HETATM    3  S1  UNL     1      19.453   3.390  11.897  1.00  0.00    -0.131 SA
HETATM    4  C3  UNL     1      19.472   2.811  10.223  1.00  0.00     0.182 C 
HETATM    5  C4  UNL     1      19.320   1.313  10.223  1.00  0.00     0.082 C 
HETATM    6  C5  UNL     1      18.303   0.818  11.196  1.00  0.00     0.090 C 
HETATM    7  C6  UNL     1      18.135  -0.676  10.998  1.00  0.00     0.048 C 
HETATM    8  C7  UNL     1      17.009   1.573  10.973  1.00  0.00     0.315 C 
HETATM    9  N1  UNL     1      16.472   1.825  12.232  1.00  0.00     0.139 N 
HETATM   10  C8  UNL     1      17.016   2.779  13.083  1.00  0.00     0.305 A 
HETATM   11  C9  UNL     1      17.490   1.448  13.179  1.00  0.00     0.291 A 
HETATM   12  C10 UNL     1      16.964   0.551  14.295  1.00  0.00     0.084 C 
HETATM   13  O2  UNL     1      18.595   1.037  12.514  1.00  0.00    -0.338 OA
ENDROOT
BRANCH   4  14
HETATM   14  O1  UNL     1      20.760   3.061   9.688  1.00  0.00    -0.385 OA
ATOM     15  H1  UNL     1      21.164   2.223   9.493  1.00  0.00     0.211 HD
ENDBRANCH   4  14
TORSDOF 1
ENDMDL
MODEL 4
REMARK VINA RESULT: -4.833201517      2.361      3.635
REMARK  1 active torsions:
REMARK  status: ('A' for Active; 'I' for Inactive)
REMARK    1  A    between atoms: C3_4  and  O1_5 
ROOT
HETATM    1  C1  UNL     1      16.777   5.571  13.158  1.00  0.00     0.023 C 
HETATM    2  C2  UNL     1      17.395   4.267  13.643  1.00  0.00     0.084 C 
HETATM    3  S1  UNL     1      19.175   4.361  13.779  1.00  0.00    -0.131 SA
HETATM    4  C3  UNL     1      20.012   5.081  12.393  1.00  0.00     0.182 C 
HETATM    5  C4  UNL     1      20.401   3.986  11.435  1.00  0.00     0.082 C 
HETATM    6  C5  UNL     1      19.336   2.959  11.241  1.00  0.00     0.090 C 
HETATM    7  C6  UNL     1      19.783   2.003  10.153  1.00  0.00     0.048 C 
HETATM    8  C7  UNL     1      18.042   3.662  10.888  1.00  0.00     0.315 C 
HETATM    9  N1  UNL     1      17.026   2.986  11.557  1.00  0.00     0.139 N 
HETATM   10  C8  UNL     1      16.848   3.103  12.929  1.00  0.00     0.305 A 
HETATM   11  C9  UNL     1      17.683   2.065  12.448  1.00  0.00     0.291 A 
HETATM   12  C10 UNL     1      17.127   0.647  12.356  1.00  0.00     0.084 C 
HETATM   13  O2  UNL     1      19.024   2.220  12.348  1.00  0.00    -0.338 OA
ENDROOT
BRANCH   4  14
HETATM   14  O1  UNL     1      21.234   5.630  12.857  1.00  0.00    -0.385 OA
ATOM     15  H1  UNL     1      21.060   6.512  13.164  1.00  0.00     0.211 HD
ENDBRANCH   4  14
TORSDOF 1
ENDMDL
MODEL 5
REMARK VINA RESULT: -4.814892263      2.517      3.879
REMARK  1 active torsions:
REMARK  status: ('A' for Active; 'I' for Inactive)
REMARK    1  A    between atoms: C3_4  and  O1_5 
ROOT
HETATM    1  C1  UNL     1      16.213   1.616  11.372  1.00  0.00     0.023 C 
HETATM    2  C2  UNL     1      17.497   1.664  12.188  1.00  0.00     0.084 C 
HETATM    3  S1  UNL     1      17.189   1.806  13.944  1.00  0.00    -0.131 SA
HETATM    4  C3  UNL     1      15.993   3.026  14.415  1.00  0.00     0.182 C 
HETATM    5  C4  UNL     1      16.704   4.323  14.696  1.00  0.00     0.082 C 
HETATM    6  C5  UNL     1      17.777   4.640  13.708  1.00  0.00     0.090 C 
HETATM    7  C6  UNL     1      18.311   6.028  14.008  1.00  0.00     0.048 C 
HETATM    8  C7  UNL     1      17.198   4.540  12.313  1.00  0.00     0.315 C 
HETATM    9  N1  UNL     1      18.175   3.948  11.518  1.00  0.00     0.139 N 
HETATM   10  C8  UNL     1      18.478   2.596  11.613  1.00  0.00     0.305 A 
HETATM   11  C9  UNL     1      19.205   3.505  12.421  1.00  0.00     0.291 A 
HETATM   12  C10 UNL     1      20.604   3.930  11.986  1.00  0.00     0.084 C 
HETATM   13  O2  UNL     1      18.836   3.776  13.694  1.00  0.00    -0.338 OA
ENDROOT
BRANCH   4  14
HETATM   14  O1  UNL     1      15.427   2.629  15.652  1.00  0.00    -0.385 OA
ATOM     15  H1  UNL     1      16.103   2.690  16.317  1.00  0.00     0.211 HD
ENDBRANCH   4  14
TORSDOF 1
ENDMDL
