MODEL 1
REMARK VINA RESULT: -5.021089607      0.000      0.000
REMARK  1 active torsions:
REMARK  status: ('A' for Active; 'I' for Inactive)
REMARK    1  A    between atoms: C2_3  and  C3_4 
ROOT
HETATM    1  N1  UNL     1      17.301   1.119  16.415  1.00  0.00    -0.197 NA
HETATM    2  C1  UNL     1      16.568   1.758  15.769  1.00  0.00     0.061 C 
HETATM    3  C2  UNL     1      15.644   2.536  14.948  1.00  0.00     0.159 C 
ENDROOT
BRANCH   3   4
HETATM    4  C3  UNL     1      16.302   3.026  13.684  1.00  0.00     0.232 C 
HETATM    5  N2  UNL     1      17.716   3.263  13.858  1.00  0.00    -0.066 N 
HETATM    6  C4  UNL     1      18.132   3.998  12.652  1.00  0.00     0.263 C 
ATOM      7  H22 UNL     1      17.950   3.736  14.731  1.00  0.00     0.277 HD
ATOM      8  H21 UNL     1      18.257   2.417  14.033  1.00  0.00     0.277 HD
HETATM    9  C5  UNL     1      17.987   3.069  11.499  1.00  0.00     0.300 C 
HETATM   10  N3  UNL     1      16.670   2.556  11.337  1.00  0.00     0.097 N 
HETATM   11  C6  UNL     1      16.753   1.137  10.951  1.00  0.00     0.275 C 
HETATM   12  C8  UNL     1      16.019   2.135  12.532  1.00  0.00     0.256 C 
HETATM   13  C7  UNL     1      16.765   0.839  12.458  1.00  0.00     0.068 C 
ENDBRANCH   3   4
TORSDOF 1
ENDMDL
MODEL 2
REMARK VINA RESULT: -4.992946246      1.463      1.846
REMARK  1 active torsions:
REMARK  status: ('A' for Active; 'I' for Inactive)
REMARK    1  A    between atoms: C2_3  and  C3_4 
ROOT
HETATM    1  N1  UNL     1      17.171   0.913  16.450  1.00  0.00    -0.197 NA
HETATM    2  C1  UNL     1      16.635   1.911  16.169  1.00  0.00     0.061 C 
HETATM    3  C2  UNL     1      15.953   3.147  15.796  1.00  0.00     0.159 C 
ENDROOT
BRANCH   3   4
HETATM    4  C3  UNL     1      16.816   4.012  14.914  1.00  0.00     0.232 C 
HETATM    5  N2  UNL     1      18.223   3.732  15.078  1.00  0.00    -0.066 N 
HETATM    6  C4  UNL     1      18.916   4.833  14.389  1.00  0.00     0.263 C 
ATOM      7  H22 UNL     1      18.508   3.609  16.050  1.00  0.00     0.277 HD
ATOM      8  H21 UNL     1      18.499   2.804  14.756  1.00  0.00     0.277 HD
HETATM    9  C5  UNL     1      18.615   4.702  12.937  1.00  0.00     0.300 C 
HETATM   10  N3  UNL     1      17.225   4.724  12.635  1.00  0.00     0.097 N 
HETATM   11  C6  UNL     1      16.949   3.741  11.574  1.00  0.00     0.275 C 
HETATM   12  C8  UNL     1      16.393   3.949  13.493  1.00  0.00     0.256 C 
HETATM   13  C7  UNL     1      16.763   2.726  12.713  1.00  0.00     0.068 C 
ENDBRANCH   3   4
TORSDOF 1
ENDMDL
MODEL 3
REMARK VINA RESULT: -4.943418964      1.773      2.496
REMARK  1 active torsions:
REMARK  status: ('A' for Active; 'I' for Inactive)
REMARK    1  A    between atoms: C2_3  and  C3_4 
ROOT
HETATM    1  N1  UNL     1      16.613  -0.184  14.909  1.00  0.00    -0.197 NA
HETATM    2  C1  UNL     1      16.744  -0.037  13.758  1.00  0.00     0.061 C 
HETATM    3  C2  UNL     1      16.934   0.142  12.321  1.00  0.00     0.159 C 
ENDROOT
BRANCH   3   4
HETATM    4  C3  UNL     1      17.158   1.589  11.968  1.00  0.00     0.232 C 
HETATM    5  N2  UNL     1      17.481   2.393  13.123  1.00  0.00    -0.066 N 
HETATM    6  C4  UNL     1      17.377   3.787  12.662  1.00  0.00     0.263 C 
ATOM      7  H22 UNL     1      16.909   2.185  13.942  1.00  0.00     0.277 HD
ATOM      8  H21 UNL     1      18.380   2.164  13.547  1.00  0.00     0.277 HD
HETATM    9  C5  UNL     1      18.462   4.003  11.667  1.00  0.00     0.300 C 
HETATM   10  N3  UNL     1      18.413   3.110  10.561  1.00  0.00     0.097 N 
HETATM   11  C6  UNL     1      19.786   2.707  10.210  1.00  0.00     0.275 C 
HETATM   12  C8  UNL     1      18.153   1.746  10.879  1.00  0.00     0.256 C 
HETATM   13  C7  UNL     1      19.599   1.573  11.230  1.00  0.00     0.068 C 
ENDBRANCH   3   4
TORSDOF 1
ENDMDL
MODEL 4
REMARK VINA RESULT: -4.886213581      1.964      3.253
REMARK  1 active torsions:
REMARK  status: ('A' for Active; 'I' for Inactive)
REMARK    1  A    between atoms: C2_3  and  C3_4 
ROOT
HETATM    1  N1  UNL     1      14.049   0.557  16.752  1.00  0.00    -0.197 NA
HETATM    2  C1  UNL     1      14.897   1.358  16.783  1.00  0.00     0.061 C 
HETATM    3  C2  UNL     1      15.939   2.380  16.818  1.00  0.00     0.159 C 
ENDROOT
BRANCH   3   4
HETATM    4  C3  UNL     1      16.542   2.603  15.455  1.00  0.00     0.232 C 
HETATM    5  N2  UNL     1      15.635   2.247  14.389  1.00  0.00    -0.066 N 
HETATM    6  C4  UNL     1      16.461   2.243  13.169  1.00  0.00     0.263 C 
ATOM      7  H22 UNL     1      15.133   1.374  14.550  1.00  0.00     0.277 HD
ATOM      8  H21 UNL     1      14.813   2.846  14.329  1.00  0.00     0.277 HD
HETATM    9  C5  UNL     1      16.888   3.646  12.923  1.00  0.00     0.300 C 
HETATM   10  N3  UNL     1      17.606   4.226  14.005  1.00  0.00     0.097 N 
HETATM   11  C6  UNL     1      17.186   5.630  14.162  1.00  0.00     0.275 C 
HETATM   12  C8  UNL     1      17.073   3.981  15.303  1.00  0.00     0.256 C 
HETATM   13  C7  UNL     1      16.085   5.085  15.085  1.00  0.00     0.068 C 
ENDBRANCH   3   4
TORSDOF 1
ENDMDL
MODEL 5
REMARK VINA RESULT: -4.838922488      1.741      2.138
REMARK  1 active torsions:
REMARK  status: ('A' for Active; 'I' for Inactive)
REMARK    1  A    between atoms: C2_3  and  C3_4 
ROOT
HETATM    1  N1  UNL     1      17.776   3.905  15.194  1.00  0.00    -0.197 NA
HETATM    2  C1  UNL     1      17.078   3.572  14.320  1.00  0.00     0.061 C 
HETATM    3  C2  UNL     1      16.201   3.131  13.239  1.00  0.00     0.159 C 
ENDROOT
BRANCH   3   4
HETATM    4  C3  UNL     1      16.979   2.481  12.124  1.00  0.00     0.232 C 
HETATM    5  N2  UNL     1      18.405   2.544  12.342  1.00  0.00    -0.066 N 
HETATM    6  C4  UNL     1      19.006   2.142  11.059  1.00  0.00     0.263 C 
ATOM      7  H22 UNL     1      18.731   3.447  12.685  1.00  0.00     0.277 HD
ATOM      8  H21 UNL     1      18.726   1.993  13.138  1.00  0.00     0.277 HD
HETATM    9  C5  UNL     1      18.664   0.711  10.841  1.00  0.00     0.300 C 
HETATM   10  N3  UNL     1      17.266   0.449  10.837  1.00  0.00     0.097 N 
HETATM   11  C6  UNL     1      17.013  -0.821  11.539  1.00  0.00     0.275 C 
HETATM   12  C8  UNL     1      16.512   1.098  11.857  1.00  0.00     0.256 C 
HETATM   13  C7  UNL     1      16.928   0.027  12.817  1.00  0.00     0.068 C 
ENDBRANCH   3   4
TORSDOF 1
ENDMDL
