MODEL 1
REMARK VINA RESULT: -4.635214313      0.000      0.000
REMARK  1 active torsions:
REMARK  status: ('A' for Active; 'I' for Inactive)
REMARK    1  A    between atoms: C2_3  and  N2_4 
ROOT
HETATM    1  N1  UNL     1      16.230   3.345  12.702  1.00  0.00    -0.195 NA
HETATM    2  C1  UNL     1      15.794   3.671  13.747  1.00  0.00     0.089 C 
HETATM    3  C2  UNL     1      15.224   4.057  15.066  1.00  0.00     0.395 C 
ENDROOT
BRANCH   3   4
HETATM    4  N2  UNL     1      15.205   2.838  15.838  1.00  0.00     0.102 N 
HETATM    5  C3  UNL     1      14.303   2.900  16.985  1.00  0.00     0.275 C 
HETATM    6  C4  UNL     1      13.845   1.435  17.100  1.00  0.00     0.049 C 
HETATM    7  C5  UNL     1      15.033   0.580  17.487  1.00  0.00     0.115 C 
HETATM    8  N3  UNL     1      15.839   0.162  16.371  1.00  0.00    -0.419 N 
HETATM    9  C6  UNL     1      16.829   1.122  15.945  1.00  0.00     0.144 C 
ATOM     10  H3  UNL     1      15.720  -0.743  15.916  1.00  0.00     0.153 HD
HETATM   11  C7  UNL     1      16.525   2.517  16.361  1.00  0.00     0.292 C 
ENDBRANCH   3   4
TORSDOF 1
ENDMDL
MODEL 2
REMARK VINA RESULT: -4.596422939      1.591      2.578
REMARK  1 active torsions:
REMARK  status: ('A' for Active; 'I' for Inactive)
REMARK    1  A    between atoms: C2_3  and  N2_4 
ROOT
HETATM    1  N1  UNL     1      15.464   2.089  11.204  1.00  0.00    -0.195 NA
HETATM    2  C1  UNL     1      16.045   1.774  12.180  1.00  0.00     0.089 C 
HETATM    3  C2  UNL     1      16.775   1.406  13.422  1.00  0.00     0.395 C 
ENDROOT
BRANCH   3   4
HETATM    4  N2  UNL     1      16.029   2.022  14.493  1.00  0.00     0.102 N 
HETATM    5  C3  UNL     1      16.182   3.473  14.539  1.00  0.00     0.275 C 
HETATM    6  C4  UNL     1      14.815   3.914  15.092  1.00  0.00     0.049 C 
HETATM    7  C5  UNL     1      14.679   3.415  16.514  1.00  0.00     0.115 C 
HETATM    8  N3  UNL     1      14.200   2.062  16.614  1.00  0.00    -0.419 N 
HETATM    9  C6  UNL     1      15.219   1.047  16.489  1.00  0.00     0.144 C 
ATOM     10  H3  UNL     1      13.216   1.837  16.762  1.00  0.00     0.153 HD
HETATM   11  C7  UNL     1      16.446   1.516  15.794  1.00  0.00     0.292 C 
ENDBRANCH   3   4
TORSDOF 1
ENDMDL
MODEL 3
REMARK VINA RESULT: -4.583247483      2.391      4.780
REMARK  1 active torsions:
REMARK  status: ('A' for Active; 'I' for Inactive)
REMARK    1  A    between atoms: C2_3  and  N2_4 
ROOT
HETATM    1  N1  UNL     1      17.082   0.855  16.370  1.00  0.00    -0.195 NA
HETATM    2  C1  UNL     1      16.535   1.597  15.635  1.00  0.00     0.089 C 
HETATM    3  C2  UNL     1      15.874   2.547  14.702  1.00  0.00     0.395 C 
ENDROOT
BRANCH   3   4
HETATM    4  N2  UNL     1      16.745   2.615  13.553  1.00  0.00     0.102 N 
HETATM    5  C3  UNL     1      16.915   3.972  13.042  1.00  0.00     0.275 C 
HETATM    6  C4  UNL     1      18.350   3.919  12.488  1.00  0.00     0.049 C 
HETATM    7  C5  UNL     1      18.385   2.969  11.310  1.00  0.00     0.115 C 
HETATM    8  N3  UNL     1      18.556   1.589  11.679  1.00  0.00    -0.419 N 
HETATM    9  C6  UNL     1      17.338   0.902  12.036  1.00  0.00     0.144 C 
ATOM     10  H3  UNL     1      19.468   1.132  11.687  1.00  0.00     0.153 HD
HETATM   11  C7  UNL     1      16.238   1.812  12.450  1.00  0.00     0.292 C 
ENDBRANCH   3   4
TORSDOF 1
ENDMDL
MODEL 4
REMARK VINA RESULT: -4.537902112      1.711      4.238
REMARK  1 active torsions:
REMARK  status: ('A' for Active; 'I' for Inactive)
REMARK    1  A    between atoms: C2_3  and  N2_4 
ROOT
HETATM    1  N1  UNL     1      16.195  -0.227  15.647  1.00  0.00    -0.195 NA
HETATM    2  C1  UNL     1      16.098   0.925  15.871  1.00  0.00     0.089 C 
HETATM    3  C2  UNL     1      16.005   2.384  16.146  1.00  0.00     0.395 C 
ENDROOT
BRANCH   3   4
HETATM    4  N2  UNL     1      16.696   3.018  15.048  1.00  0.00     0.102 N 
HETATM    5  C3  UNL     1      16.946   4.439  15.272  1.00  0.00     0.275 C 
HETATM    6  C4  UNL     1      18.264   4.647  14.506  1.00  0.00     0.049 C 
HETATM    7  C5  UNL     1      18.008   4.447  13.028  1.00  0.00     0.115 C 
HETATM    8  N3  UNL     1      18.068   3.072  12.607  1.00  0.00    -0.419 N 
HETATM    9  C6  UNL     1      16.845   2.328  12.792  1.00  0.00     0.144 C 
ATOM     10  H3  UNL     1      18.910   2.656  12.209  1.00  0.00     0.153 HD
HETATM   11  C7  UNL     1      15.936   2.916  13.810  1.00  0.00     0.292 C 
ENDBRANCH   3   4
TORSDOF 1
ENDMDL
MODEL 5
REMARK VINA RESULT: -4.494908344      3.670      5.900
REMARK  1 active torsions:
REMARK  status: ('A' for Active; 'I' for Inactive)
REMARK    1  A    between atoms: C2_3  and  N2_4 
ROOT
HETATM    1  N1  UNL     1      16.610  -0.103  14.886  1.00  0.00    -0.195 NA
HETATM    2  C1  UNL     1      16.789  -0.284  13.736  1.00  0.00     0.089 C 
HETATM    3  C2  UNL     1      16.999  -0.487  12.278  1.00  0.00     0.395 C 
ENDROOT
BRANCH   3   4
HETATM    4  N2  UNL     1      17.421   0.799  11.776  1.00  0.00     0.102 N 
HETATM    5  C3  UNL     1      16.321   1.592  11.236  1.00  0.00     0.275 C 
HETATM    6  C4  UNL     1      16.788   3.025  11.547  1.00  0.00     0.049 C 
HETATM    7  C5  UNL     1      18.025   3.326  10.729  1.00  0.00     0.115 C 
HETATM    8  N3  UNL     1      19.249   2.875  11.336  1.00  0.00    -0.419 N 
HETATM    9  C6  UNL     1      19.575   1.490  11.087  1.00  0.00     0.144 C 
ATOM     10  H3  UNL     1      19.842   3.486  11.898  1.00  0.00     0.153 HD
HETATM   11  C7  UNL     1      18.402   0.660  10.709  1.00  0.00     0.292 C 
ENDBRANCH   3   4
TORSDOF 1
ENDMDL
