MODEL 1
REMARK VINA RESULT: -5.349940618      0.000      0.000
REMARK  2 active torsions:
REMARK  status: ('A' for Active; 'I' for Inactive)
REMARK    1  A    between atoms: C2_2  and  N1_4 
REMARK    2  A    between atoms: N2_7  and  O1_8 
ROOT
HETATM    1  N1  UNL     1      15.241   2.781  15.240  1.00  0.00     0.094 N 
HETATM    2  C4  UNL     1      14.677   2.775  16.555  1.00  0.00     0.289 C 
HETATM    3  C5  UNL     1      15.460   2.008  17.571  1.00  0.00     0.150 C 
HETATM    4  N2  UNL     1      15.863   0.701  17.115  1.00  0.00    -0.196 NA
HETATM    5  C6  UNL     1      16.396   0.670  15.795  1.00  0.00     0.150 C 
HETATM    6  C7  UNL     1      16.405   1.971  15.072  1.00  0.00     0.289 C 
ENDROOT
BRANCH   1   7
HETATM    7  C2  UNL     1      15.519   4.096  14.724  1.00  0.00     0.215 C 
HETATM    8  C1  UNL     1      16.979   4.459  14.766  1.00  0.00     0.042 C 
HETATM    9  C3  UNL     1      14.783   5.094  15.601  1.00  0.00     0.042 C 
ENDBRANCH   1   7
BRANCH   4  10
HETATM   10  O1  UNL     1      14.881  -0.222  17.263  1.00  0.00    -0.313 OA
ATOM     11  H1  UNL     1      14.736  -0.725  16.471  1.00  0.00     0.237 HD
ENDBRANCH   4  10
TORSDOF 2
ENDMDL
MODEL 2
REMARK VINA RESULT: -5.132638792      0.651      1.194
REMARK  2 active torsions:
REMARK  status: ('A' for Active; 'I' for Inactive)
REMARK    1  A    between atoms: C2_2  and  N1_4 
REMARK    2  A    between atoms: N2_7  and  O1_8 
ROOT
HETATM    1  N1  UNL     1      15.417   3.131  15.734  1.00  0.00     0.094 N 
HETATM    2  C4  UNL     1      14.539   2.875  16.835  1.00  0.00     0.289 C 
HETATM    3  C5  UNL     1      15.112   2.006  17.906  1.00  0.00     0.150 C 
HETATM    4  N2  UNL     1      15.754   0.819  17.399  1.00  0.00    -0.196 NA
HETATM    5  C6  UNL     1      16.607   1.037  16.279  1.00  0.00     0.150 C 
HETATM    6  C7  UNL     1      16.664   2.436  15.774  1.00  0.00     0.289 C 
ENDROOT
BRANCH   1   7
HETATM    7  C2  UNL     1      15.676   4.527  15.500  1.00  0.00     0.215 C 
HETATM    8  C1  UNL     1      14.767   5.139  14.469  1.00  0.00     0.042 C 
HETATM    9  C3  UNL     1      17.096   4.644  14.972  1.00  0.00     0.042 C 
ENDBRANCH   1   7
BRANCH   4  10
HETATM   10  O1  UNL     1      14.870  -0.177  17.147  1.00  0.00    -0.313 OA
ATOM     11  H1  UNL     1      14.922  -0.876  17.787  1.00  0.00     0.237 HD
ENDBRANCH   4  10
TORSDOF 2
ENDMDL
MODEL 3
REMARK VINA RESULT: -5.110098771      0.885      1.617
REMARK  2 active torsions:
REMARK  status: ('A' for Active; 'I' for Inactive)
REMARK    1  A    between atoms: C2_2  and  N1_4 
REMARK    2  A    between atoms: N2_7  and  O1_8 
ROOT
HETATM    1  N1  UNL     1      15.807   3.048  16.059  1.00  0.00     0.094 N 
HETATM    2  C4  UNL     1      16.772   1.992  16.061  1.00  0.00     0.289 C 
HETATM    3  C5  UNL     1      16.201   0.619  15.926  1.00  0.00     0.150 C 
HETATM    4  N2  UNL     1      15.083   0.374  16.803  1.00  0.00    -0.196 NA
HETATM    5  C6  UNL     1      14.123   1.424  16.849  1.00  0.00     0.150 C 
HETATM    6  C7  UNL     1      14.442   2.627  16.033  1.00  0.00     0.289 C 
ENDROOT
BRANCH   1   7
HETATM    7  C2  UNL     1      16.005   4.026  15.021  1.00  0.00     0.215 C 
HETATM    8  C1  UNL     1      17.416   4.544  14.951  1.00  0.00     0.042 C 
HETATM    9  C3  UNL     1      15.107   5.210  15.333  1.00  0.00     0.042 C 
ENDBRANCH   1   7
BRANCH   4  10
HETATM   10  O1  UNL     1      15.476   0.022  18.052  1.00  0.00    -0.313 OA
ATOM     11  H1  UNL     1      16.058  -0.728  18.049  1.00  0.00     0.237 HD
ENDBRANCH   4  10
TORSDOF 2
ENDMDL
MODEL 4
REMARK VINA RESULT: -5.101070489      1.019      2.021
REMARK  2 active torsions:
REMARK  status: ('A' for Active; 'I' for Inactive)
REMARK    1  A    between atoms: C2_2  and  N1_4 
REMARK    2  A    between atoms: N2_7  and  O1_8 
ROOT
HETATM    1  N1  UNL     1      15.789   3.100  16.497  1.00  0.00     0.094 N 
HETATM    2  C4  UNL     1      16.684   2.012  16.244  1.00  0.00     0.289 C 
HETATM    3  C5  UNL     1      16.031   0.765  15.746  1.00  0.00     0.150 C 
HETATM    4  N2  UNL     1      14.867   0.384  16.508  1.00  0.00    -0.196 NA
HETATM    5  C6  UNL     1      13.976   1.453  16.806  1.00  0.00     0.150 C 
HETATM    6  C7  UNL     1      14.402   2.799  16.336  1.00  0.00     0.289 C 
ENDROOT
BRANCH   1   7
HETATM    7  C2  UNL     1      16.089   4.295  15.752  1.00  0.00     0.215 C 
HETATM    8  C1  UNL     1      15.016   4.668  14.765  1.00  0.00     0.042 C 
HETATM    9  C3  UNL     1      17.357   4.030  14.959  1.00  0.00     0.042 C 
ENDBRANCH   1   7
BRANCH   4  10
HETATM   10  O1  UNL     1      15.191  -0.305  17.631  1.00  0.00    -0.313 OA
ATOM     11  H1  UNL     1      15.050  -1.239  17.534  1.00  0.00     0.237 HD
ENDBRANCH   4  10
TORSDOF 2
ENDMDL
MODEL 5
REMARK VINA RESULT: -4.705243484      1.343      1.479
REMARK  2 active torsions:
REMARK  status: ('A' for Active; 'I' for Inactive)
REMARK    1  A    between atoms: C2_2  and  N1_4 
REMARK    2  A    between atoms: N2_7  and  O1_8 
ROOT
HETATM    1  N1  UNL     1      15.446   3.167  14.644  1.00  0.00     0.094 N 
HETATM    2  C4  UNL     1      15.639   2.731  15.993  1.00  0.00     0.289 C 
HETATM    3  C5  UNL     1      16.816   1.834  16.200  1.00  0.00     0.150 C 
HETATM    4  N2  UNL     1      16.899   0.766  15.235  1.00  0.00    -0.196 NA
HETATM    5  C6  UNL     1      16.675   1.164  13.887  1.00  0.00     0.150 C 
HETATM    6  C7  UNL     1      16.339   2.600  13.685  1.00  0.00     0.289 C 
ENDROOT
BRANCH   1   7
HETATM    7  C2  UNL     1      15.446   4.598  14.482  1.00  0.00     0.215 C 
HETATM    8  C1  UNL     1      16.827   5.189  14.399  1.00  0.00     0.042 C 
HETATM    9  C3  UNL     1      14.775   5.194  15.707  1.00  0.00     0.042 C 
ENDBRANCH   1   7
BRANCH   4  10
HETATM   10  O1  UNL     1      16.113  -0.289  15.565  1.00  0.00    -0.313 OA
ATOM     11  H1  UNL     1      16.364  -1.083  15.110  1.00  0.00     0.237 HD
ENDBRANCH   4  10
TORSDOF 2
ENDMDL
