MODEL 1
REMARK VINA RESULT: -5.417769902      0.000      0.000
REMARK  1 active torsions:
REMARK  status: ('A' for Active; 'I' for Inactive)
REMARK    1  A    between atoms: C2_2  and  N1_3 
REMARK       I    between atoms: C3_5  and  N2_6 
REMARK       I    between atoms: C3_5  and  N4_10 
ROOT
HETATM    1  N1  UNL     1      16.837  -0.363  12.487  1.00  0.00    -0.225 N 
ATOM      2  H1  UNL     1      16.390  -0.984  13.161  1.00  0.00     0.177 HD
HETATM    3  C3  UNL     1      16.877   0.899  12.723  1.00  0.00     0.696 C 
HETATM    4  N2  UNL     1      16.331   1.491  13.876  1.00  0.00    -0.126 N 
ATOM      5  H2  UNL     1      15.771   2.342  13.812  1.00  0.00     0.197 HD
HETATM    6  C4  UNL     1      16.575   0.885  15.114  1.00  0.00     0.196 C 
HETATM    7  N3  UNL     1      16.791   0.394  16.152  1.00  0.00    -0.171 NA
HETATM    8  N4  UNL     1      17.503   1.747  11.771  1.00  0.00    -0.126 N 
ATOM      9  H4  UNL     1      18.470   1.597  11.482  1.00  0.00     0.197 HD
HETATM   10  C5  UNL     1      16.742   2.793  11.246  1.00  0.00     0.196 C 
HETATM   11  N5  UNL     1      16.092   3.669  10.821  1.00  0.00    -0.171 NA
ENDROOT
BRANCH   1  12
HETATM   12  C2  UNL     1      17.406  -0.910  11.301  1.00  0.00     0.134 C 
HETATM   13  C1  UNL     1      17.903  -2.305  11.585  1.00  0.00     0.027 C 
ENDBRANCH   1  12
TORSDOF 1
ENDMDL
MODEL 2
REMARK VINA RESULT: -5.117513536      2.093      5.166
REMARK  1 active torsions:
REMARK  status: ('A' for Active; 'I' for Inactive)
REMARK    1  A    between atoms: C2_2  and  N1_3 
REMARK       I    between atoms: C3_5  and  N2_6 
REMARK       I    between atoms: C3_5  and  N4_10 
ROOT
HETATM    1  N1  UNL     1      15.647   3.074  13.897  1.00  0.00    -0.225 N 
ATOM      2  H1  UNL     1      15.496   3.155  12.892  1.00  0.00     0.177 HD
HETATM    3  C3  UNL     1      16.206   2.018  14.368  1.00  0.00     0.696 C 
HETATM    4  N2  UNL     1      16.631   0.942  13.567  1.00  0.00    -0.126 N 
ATOM      5  H2  UNL     1      16.434  -0.022  13.839  1.00  0.00     0.197 HD
HETATM    6  C4  UNL     1      17.331   1.226  12.388  1.00  0.00     0.196 C 
HETATM    7  N3  UNL     1      17.932   1.456  11.414  1.00  0.00    -0.171 NA
HETATM    8  N4  UNL     1      16.407   1.925  15.770  1.00  0.00    -0.126 N 
ATOM      9  H4  UNL     1      16.932   2.637  16.280  1.00  0.00     0.197 HD
HETATM   10  C5  UNL     1      15.857   0.821  16.425  1.00  0.00     0.196 C 
HETATM   11  N5  UNL     1      15.395  -0.113  16.957  1.00  0.00    -0.171 NA
ENDROOT
BRANCH   1  12
HETATM   12  C2  UNL     1      15.235   4.135  14.754  1.00  0.00     0.134 C 
HETATM   13  C1  UNL     1      16.033   5.374  14.432  1.00  0.00     0.027 C 
ENDBRANCH   1  12
TORSDOF 1
ENDMDL
MODEL 3
REMARK VINA RESULT: -4.977399976      0.994      1.002
REMARK  1 active torsions:
REMARK  status: ('A' for Active; 'I' for Inactive)
REMARK    1  A    between atoms: C2_2  and  N1_3 
REMARK       I    between atoms: C3_5  and  N2_6 
REMARK       I    between atoms: C3_5  and  N4_10 
ROOT
HETATM    1  N1  UNL     1      16.479   0.228  12.339  1.00  0.00    -0.225 N 
ATOM      2  H1  UNL     1      15.706  -0.282  12.766  1.00  0.00     0.177 HD
HETATM    3  C3  UNL     1      16.951   1.266  12.930  1.00  0.00     0.696 C 
HETATM    4  N2  UNL     1      16.458   1.755  14.153  1.00  0.00    -0.126 N 
ATOM      5  H2  UNL     1      16.290   2.752  14.288  1.00  0.00     0.197 HD
HETATM    6  C4  UNL     1      16.204   0.839  15.181  1.00  0.00     0.196 C 
HETATM    7  N3  UNL     1      16.008   0.082  16.049  1.00  0.00    -0.171 NA
HETATM    8  N4  UNL     1      18.027   1.963  12.318  1.00  0.00    -0.126 N 
ATOM      9  H4  UNL     1      18.900   1.490  12.082  1.00  0.00     0.197 HD
HETATM   10  C5  UNL     1      17.844   3.321  12.053  1.00  0.00     0.196 C 
HETATM   11  N5  UNL     1      17.675   4.460  11.844  1.00  0.00    -0.171 NA
ENDROOT
BRANCH   1  12
HETATM   12  C2  UNL     1      17.016  -0.223  11.099  1.00  0.00     0.134 C 
HETATM   13  C1  UNL     1      17.796  -1.494  11.327  1.00  0.00     0.027 C 
ENDBRANCH   1  12
TORSDOF 1
ENDMDL
MODEL 4
REMARK VINA RESULT: -4.946301697      2.106      3.787
REMARK  1 active torsions:
REMARK  status: ('A' for Active; 'I' for Inactive)
REMARK    1  A    between atoms: C2_2  and  N1_3 
REMARK       I    between atoms: C3_5  and  N2_6 
REMARK       I    between atoms: C3_5  and  N4_10 
ROOT
HETATM    1  N1  UNL     1      16.668   3.214  14.477  1.00  0.00    -0.225 N 
ATOM      2  H1  UNL     1      17.084   3.135  15.404  1.00  0.00     0.177 HD
HETATM    3  C3  UNL     1      16.389   2.147  13.818  1.00  0.00     0.696 C 
HETATM    4  N2  UNL     1      16.628   0.849  14.305  1.00  0.00    -0.126 N 
ATOM      5  H2  UNL     1      17.050   0.137  13.709  1.00  0.00     0.197 HD
HETATM    6  C4  UNL     1      16.274   0.559  15.628  1.00  0.00     0.196 C 
HETATM    7  N3  UNL     1      15.963   0.306  16.725  1.00  0.00    -0.171 NA
HETATM    8  N4  UNL     1      15.810   2.279  12.528  1.00  0.00    -0.126 N 
ATOM      9  H4  UNL     1      14.943   2.798  12.386  1.00  0.00     0.197 HD
HETATM   10  C5  UNL     1      16.475   1.670  11.462  1.00  0.00     0.196 C 
HETATM   11  N5  UNL     1      17.042   1.149  10.581  1.00  0.00    -0.171 NA
ENDROOT
BRANCH   1  12
HETATM   12  C2  UNL     1      16.404   4.505  13.935  1.00  0.00     0.134 C 
HETATM   13  C1  UNL     1      15.244   5.127  14.671  1.00  0.00     0.027 C 
ENDBRANCH   1  12
TORSDOF 1
ENDMDL
MODEL 5
REMARK VINA RESULT: -4.868072346      2.251      4.201
REMARK  1 active torsions:
REMARK  status: ('A' for Active; 'I' for Inactive)
REMARK    1  A    between atoms: C2_2  and  N1_3 
REMARK       I    between atoms: C3_5  and  N2_6 
REMARK       I    between atoms: C3_5  and  N4_10 
ROOT
HETATM    1  N1  UNL     1      16.378   1.396  15.675  1.00  0.00    -0.225 N 
ATOM      2  H1  UNL     1      16.998   0.593  15.571  1.00  0.00     0.177 HD
HETATM    3  C3  UNL     1      16.130   2.137  14.656  1.00  0.00     0.696 C 
HETATM    4  N2  UNL     1      16.671   1.906  13.378  1.00  0.00    -0.126 N 
ATOM      5  H2  UNL     1      17.055   2.674  12.827  1.00  0.00     0.197 HD
HETATM    6  C4  UNL     1      16.671   0.597  12.882  1.00  0.00     0.196 C 
HETATM    7  N3  UNL     1      16.655  -0.490  12.455  1.00  0.00    -0.171 NA
HETATM    8  N4  UNL     1      15.265   3.250  14.822  1.00  0.00    -0.126 N 
ATOM      9  H4  UNL     1      14.317   3.137  15.185  1.00  0.00     0.197 HD
HETATM   10  C5  UNL     1      15.761   4.507  14.469  1.00  0.00     0.196 C 
HETATM   11  N5  UNL     1      16.192   5.551  14.163  1.00  0.00    -0.171 NA
ENDROOT
BRANCH   1  12
HETATM   12  C2  UNL     1      15.803   1.676  16.948  1.00  0.00     0.134 C 
HETATM   13  C1  UNL     1      14.867   0.556  17.329  1.00  0.00     0.027 C 
ENDBRANCH   1  12
TORSDOF 1
ENDMDL
