MODEL 1
REMARK VINA RESULT: -4.679779789      0.000      0.000
REMARK  2 active torsions:
REMARK  status: ('A' for Active; 'I' for Inactive)
REMARK    1  A    between atoms: N1_2  and  C2_5 
REMARK    2  A    between atoms: C7_11  and  O2_12 
ROOT
HETATM    1  C2  UNL     1      15.496   1.798  15.464  1.00  0.00     0.245 C 
HETATM    2  C3  UNL     1      14.158   1.985  16.142  1.00  0.00     0.155 C 
HETATM    3  C4  UNL     1      14.305   2.674  17.488  1.00  0.00     0.037 C 
HETATM    4  C5  UNL     1      15.204   1.652  18.202  1.00  0.00     0.037 C 
HETATM    5  C6  UNL     1      15.050   0.453  17.312  1.00  0.00     0.153 C 
HETATM    6  O1  UNL     1      13.844   0.677  16.603  1.00  0.00    -0.376 OA
HETATM    7  C7  UNL     1      16.026   0.569  16.171  1.00  0.00     0.180 C 
ENDROOT
BRANCH   1   8
HETATM    8  N1  UNL     1      16.352   2.940  15.618  1.00  0.00    -0.070 N 
HETATM    9  C1  UNL     1      16.548   3.697  14.415  1.00  0.00     0.267 C 
ATOM     10  H12 UNL     1      17.250   2.662  16.015  1.00  0.00     0.277 HD
ATOM     11  H11 UNL     1      16.011   3.543  16.367  1.00  0.00     0.277 HD
ENDBRANCH   1   8
BRANCH   7  12
HETATM   12  O2  UNL     1      17.345   0.679  16.554  1.00  0.00    -0.391 OA
ATOM     13  H2  UNL     1      17.460   1.060  17.417  1.00  0.00     0.210 HD
ENDBRANCH   7  12
TORSDOF 2
ENDMDL
MODEL 2
REMARK VINA RESULT: -4.518957792      3.751      5.408
REMARK  2 active torsions:
REMARK  status: ('A' for Active; 'I' for Inactive)
REMARK    1  A    between atoms: N1_2  and  C2_5 
REMARK    2  A    between atoms: C7_11  and  O2_12 
ROOT
HETATM    1  C2  UNL     1      16.246   2.302  12.781  1.00  0.00     0.245 C 
HETATM    2  C3  UNL     1      16.084   1.464  11.533  1.00  0.00     0.155 C 
HETATM    3  C4  UNL     1      17.192   0.434  11.404  1.00  0.00     0.037 C 
HETATM    4  C5  UNL     1      18.408   1.371  11.346  1.00  0.00     0.037 C 
HETATM    5  C6  UNL     1      17.751   2.687  11.045  1.00  0.00     0.153 C 
HETATM    6  O1  UNL     1      16.490   2.348  10.495  1.00  0.00    -0.376 OA
HETATM    7  C7  UNL     1      17.292   3.304  12.340  1.00  0.00     0.180 C 
ENDROOT
BRANCH   1   8
HETATM    8  N1  UNL     1      16.664   1.524  13.912  1.00  0.00    -0.070 N 
HETATM    9  C1  UNL     1      15.961   1.824  15.127  1.00  0.00     0.267 C 
ATOM     10  H12 UNL     1      17.671   1.611  14.052  1.00  0.00     0.277 HD
ATOM     11  H11 UNL     1      16.603   0.528  13.701  1.00  0.00     0.277 HD
ENDBRANCH   1   8
BRANCH   7  12
HETATM   12  O2  UNL     1      18.292   3.501  13.267  1.00  0.00    -0.391 OA
ATOM     13  H2  UNL     1      19.074   3.902  12.905  1.00  0.00     0.210 HD
ENDBRANCH   7  12
TORSDOF 2
ENDMDL
MODEL 3
REMARK VINA RESULT: -4.513142029      4.468      5.706
REMARK  2 active torsions:
REMARK  status: ('A' for Active; 'I' for Inactive)
REMARK    1  A    between atoms: N1_2  and  C2_5 
REMARK    2  A    between atoms: C7_11  and  O2_12 
ROOT
HETATM    1  C2  UNL     1      16.711   1.648  11.955  1.00  0.00     0.245 C 
HETATM    2  C3  UNL     1      16.198   0.407  11.260  1.00  0.00     0.155 C 
HETATM    3  C4  UNL     1      16.815  -0.854  11.841  1.00  0.00     0.037 C 
HETATM    4  C5  UNL     1      18.298  -0.571  11.552  1.00  0.00     0.037 C 
HETATM    5  C6  UNL     1      18.194   0.537  10.544  1.00  0.00     0.153 C 
HETATM    6  O1  UNL     1      16.884   0.427  10.014  1.00  0.00    -0.376 OA
HETATM    7  C7  UNL     1      18.050   1.845  11.277  1.00  0.00     0.180 C 
ENDROOT
BRANCH   1   8
HETATM    8  N1  UNL     1      16.828   1.471  13.375  1.00  0.00    -0.070 N 
HETATM    9  C1  UNL     1      16.093   2.428  14.151  1.00  0.00     0.267 C 
ATOM     10  H12 UNL     1      17.809   1.464  13.653  1.00  0.00     0.277 HD
ATOM     11  H11 UNL     1      16.566   0.521  13.639  1.00  0.00     0.277 HD
ENDBRANCH   1   8
BRANCH   7  12
HETATM   12  O2  UNL     1      19.076   2.127  12.153  1.00  0.00    -0.391 OA
ATOM     13  H2  UNL     1      19.641   2.834  11.862  1.00  0.00     0.210 HD
ENDBRANCH   7  12
TORSDOF 2
ENDMDL
MODEL 4
REMARK VINA RESULT: -4.251712095      4.785      5.886
REMARK  2 active torsions:
REMARK  status: ('A' for Active; 'I' for Inactive)
REMARK    1  A    between atoms: N1_2  and  C2_5 
REMARK    2  A    between atoms: C7_11  and  O2_12 
ROOT
HETATM    1  C2  UNL     1      17.777   2.171  12.017  1.00  0.00     0.245 C 
HETATM    2  C3  UNL     1      17.279   0.844  12.543  1.00  0.00     0.155 C 
HETATM    3  C4  UNL     1      17.414  -0.256  11.504  1.00  0.00     0.037 C 
HETATM    4  C5  UNL     1      16.522   0.326  10.396  1.00  0.00     0.037 C 
HETATM    5  C6  UNL     1      15.764   1.378  11.152  1.00  0.00     0.153 C 
HETATM    6  O1  UNL     1      15.865   0.994  12.512  1.00  0.00    -0.376 OA
HETATM    7  C7  UNL     1      16.594   2.635  11.194  1.00  0.00     0.180 C 
ENDROOT
BRANCH   1   8
HETATM    8  N1  UNL     1      18.976   2.035  11.239  1.00  0.00    -0.070 N 
HETATM    9  C1  UNL     1      20.059   2.870  11.675  1.00  0.00     0.267 C 
ATOM     10  H12 UNL     1      18.779   2.193  10.250  1.00  0.00     0.277 HD
ATOM     11  H11 UNL     1      19.270   1.059  11.203  1.00  0.00     0.277 HD
ENDBRANCH   1   8
BRANCH   7  12
HETATM   12  O2  UNL     1      16.944   3.132   9.957  1.00  0.00    -0.391 OA
ATOM     13  H2  UNL     1      16.199   3.400   9.430  1.00  0.00     0.210 HD
ENDBRANCH   7  12
TORSDOF 2
ENDMDL
MODEL 5
REMARK VINA RESULT: -4.205079317      4.169      5.043
REMARK  2 active torsions:
REMARK  status: ('A' for Active; 'I' for Inactive)
REMARK    1  A    between atoms: N1_2  and  C2_5 
REMARK    2  A    between atoms: C7_11  and  O2_12 
ROOT
HETATM    1  C2  UNL     1      17.767   2.343  11.347  1.00  0.00     0.245 C 
HETATM    2  C3  UNL     1      16.448   2.660  12.013  1.00  0.00     0.155 C 
HETATM    3  C4  UNL     1      16.409   2.155  13.445  1.00  0.00     0.037 C 
HETATM    4  C5  UNL     1      16.610   0.653  13.192  1.00  0.00     0.037 C 
HETATM    5  C6  UNL     1      16.316   0.560  11.723  1.00  0.00     0.153 C 
HETATM    6  O1  UNL     1      15.556   1.719  11.429  1.00  0.00    -0.376 OA
HETATM    7  C7  UNL     1      17.570   0.893  10.958  1.00  0.00     0.180 C 
ENDROOT
BRANCH   1   8
HETATM    8  N1  UNL     1      18.885   2.535  12.227  1.00  0.00    -0.070 N 
HETATM    9  C1  UNL     1      19.893   3.420  11.716  1.00  0.00     0.267 C 
ATOM     10  H12 UNL     1      19.296   1.637  12.482  1.00  0.00     0.277 HD
ATOM     11  H11 UNL     1      18.567   2.848  13.144  1.00  0.00     0.277 HD
ENDBRANCH   1   8
BRANCH   7  12
HETATM   12  O2  UNL     1      18.651   0.091  11.253  1.00  0.00    -0.391 OA
ATOM     13  H2  UNL     1      18.696  -0.167  12.167  1.00  0.00     0.210 HD
ENDBRANCH   7  12
TORSDOF 2
ENDMDL
