MODEL 1
REMARK VINA RESULT: -5.406974114      0.000      0.000
REMARK  2 active torsions:
REMARK  status: ('A' for Active; 'I' for Inactive)
REMARK    1  A    between atoms: O1_2  and  C2_3 
REMARK    2  A    between atoms: C7_10  and  O4_11 
ROOT
HETATM    1  C2  UNL     1      17.032   3.552  14.847  1.00  0.00     0.288 C 
HETATM    2  O2  UNL     1      17.648   2.936  15.916  1.00  0.00    -0.348 OA
HETATM    3  C3  UNL     1      16.910   1.870  16.361  1.00  0.00     0.179 C 
HETATM    4  C4  UNL     1      15.558   2.271  16.922  1.00  0.00     0.040 C 
HETATM    5  C5  UNL     1      14.800   2.948  15.805  1.00  0.00     0.040 C 
HETATM    6  C6  UNL     1      15.682   2.932  14.584  1.00  0.00     0.180 C 
HETATM    7  O3  UNL     1      15.904   1.595  14.250  1.00  0.00    -0.349 OA
HETATM    8  C7  UNL     1      16.672   0.936  15.188  1.00  0.00     0.286 C 
ENDROOT
BRANCH   1   9
HETATM    9  O1  UNL     1      17.797   3.391  13.693  1.00  0.00    -0.363 OA
HETATM   10  C1  UNL     1      17.469   4.385  12.766  1.00  0.00     0.204 C 
ENDBRANCH   1   9
BRANCH   8  11
HETATM   11  O4  UNL     1      16.070  -0.224  15.659  1.00  0.00    -0.369 OA
ATOM     12  H4  UNL     1      16.731  -0.761  16.080  1.00  0.00     0.212 HD
ENDBRANCH   8  11
TORSDOF 2
ENDMDL
MODEL 2
REMARK VINA RESULT: -5.076911173      1.965      2.664
REMARK  2 active torsions:
REMARK  status: ('A' for Active; 'I' for Inactive)
REMARK    1  A    between atoms: O1_2  and  C2_3 
REMARK    2  A    between atoms: C7_10  and  O4_11 
ROOT
HETATM    1  C2  UNL     1      16.645   2.443  13.165  1.00  0.00     0.288 C 
HETATM    2  O2  UNL     1      16.557   1.504  14.171  1.00  0.00    -0.348 OA
HETATM    3  C3  UNL     1      16.231   2.092  15.366  1.00  0.00     0.179 C 
HETATM    4  C4  UNL     1      17.297   3.046  15.873  1.00  0.00     0.040 C 
HETATM    5  C5  UNL     1      17.454   4.128  14.831  1.00  0.00     0.040 C 
HETATM    6  C6  UNL     1      16.476   3.835  13.723  1.00  0.00     0.180 C 
HETATM    7  O3  UNL     1      15.194   3.902  14.272  1.00  0.00    -0.349 OA
HETATM    8  C7  UNL     1      14.950   2.883  15.170  1.00  0.00     0.286 C 
ENDROOT
BRANCH   1   9
HETATM    9  O1  UNL     1      15.632   2.242  12.229  1.00  0.00    -0.363 OA
HETATM   10  C1  UNL     1      16.082   1.378  11.225  1.00  0.00     0.204 C 
ENDBRANCH   1   9
BRANCH   8  11
HETATM   11  O4  UNL     1      14.520   3.347  16.408  1.00  0.00    -0.369 OA
ATOM     12  H4  UNL     1      13.802   3.955  16.272  1.00  0.00     0.212 HD
ENDBRANCH   8  11
TORSDOF 2
ENDMDL
MODEL 3
REMARK VINA RESULT: -4.987982402      1.411      3.284
REMARK  2 active torsions:
REMARK  status: ('A' for Active; 'I' for Inactive)
REMARK    1  A    between atoms: O1_2  and  C2_3 
REMARK    2  A    between atoms: C7_10  and  O4_11 
ROOT
HETATM    1  C2  UNL     1      16.843   2.851  16.036  1.00  0.00     0.288 C 
HETATM    2  O2  UNL     1      15.581   2.735  15.493  1.00  0.00    -0.348 OA
HETATM    3  C3  UNL     1      15.475   3.461  14.335  1.00  0.00     0.179 C 
HETATM    4  C4  UNL     1      15.626   4.956  14.550  1.00  0.00     0.040 C 
HETATM    5  C5  UNL     1      17.000   5.182  15.136  1.00  0.00     0.040 C 
HETATM    6  C6  UNL     1      17.671   3.837  15.249  1.00  0.00     0.180 C 
HETATM    7  O3  UNL     1      17.796   3.326  13.956  1.00  0.00    -0.349 OA
HETATM    8  C7  UNL     1      16.577   3.011  13.392  1.00  0.00     0.286 C 
ENDROOT
BRANCH   1   9
HETATM    9  O1  UNL     1      17.501   1.623  15.989  1.00  0.00    -0.363 OA
HETATM   10  C1  UNL     1      16.563   0.586  15.945  1.00  0.00     0.204 C 
ENDBRANCH   1   9
BRANCH   8  11
HETATM   11  O4  UNL     1      16.381   3.619  12.157  1.00  0.00    -0.369 OA
ATOM     12  H4  UNL     1      16.790   3.084  11.487  1.00  0.00     0.212 HD
ENDBRANCH   8  11
TORSDOF 2
ENDMDL
MODEL 4
REMARK VINA RESULT: -4.966223323      1.502      3.375
REMARK  2 active torsions:
REMARK  status: ('A' for Active; 'I' for Inactive)
REMARK    1  A    between atoms: O1_2  and  C2_3 
REMARK    2  A    between atoms: C7_10  and  O4_11 
ROOT
HETATM    1  C2  UNL     1      16.145   2.341  16.660  1.00  0.00     0.288 C 
HETATM    2  O2  UNL     1      14.929   2.696  16.115  1.00  0.00    -0.348 OA
HETATM    3  C3  UNL     1      15.089   3.233  14.864  1.00  0.00     0.179 C 
HETATM    4  C4  UNL     1      15.862   4.539  14.868  1.00  0.00     0.040 C 
HETATM    5  C5  UNL     1      17.227   4.242  15.442  1.00  0.00     0.040 C 
HETATM    6  C6  UNL     1      17.276   2.769  15.757  1.00  0.00     0.180 C 
HETATM    7  O3  UNL     1      17.120   2.083  14.553  1.00  0.00    -0.349 OA
HETATM    8  C7  UNL     1      15.858   2.236  14.015  1.00  0.00     0.286 C 
ENDROOT
BRANCH   1   9
HETATM    9  O1  UNL     1      16.224   0.956  16.800  1.00  0.00    -0.363 OA
HETATM   10  C1  UNL     1      15.075   0.480  17.439  1.00  0.00     0.204 C 
ENDBRANCH   1   9
BRANCH   8  11
HETATM   11  O4  UNL     1      15.884   2.695  12.704  1.00  0.00    -0.369 OA
ATOM     12  H4  UNL     1      15.929   1.947  12.120  1.00  0.00     0.212 HD
ENDBRANCH   8  11
TORSDOF 2
ENDMDL
MODEL 5
REMARK VINA RESULT: -4.913677950      1.651      3.267
REMARK  2 active torsions:
REMARK  status: ('A' for Active; 'I' for Inactive)
REMARK    1  A    between atoms: O1_2  and  C2_3 
REMARK    2  A    between atoms: C7_10  and  O4_11 
ROOT
HETATM    1  C2  UNL     1      16.061   2.259  13.987  1.00  0.00     0.288 C 
HETATM    2  O2  UNL     1      16.045   3.322  13.108  1.00  0.00    -0.348 OA
HETATM    3  C3  UNL     1      16.358   4.494  13.748  1.00  0.00     0.179 C 
HETATM    4  C4  UNL     1      15.336   4.894  14.797  1.00  0.00     0.040 C 
HETATM    5  C5  UNL     1      15.294   3.783  15.820  1.00  0.00     0.040 C 
HETATM    6  C6  UNL     1      16.297   2.740  15.398  1.00  0.00     0.180 C 
HETATM    7  O3  UNL     1      17.555   3.343  15.418  1.00  0.00    -0.349 OA
HETATM    8  C7  UNL     1      17.695   4.310  14.444  1.00  0.00     0.286 C 
ENDROOT
BRANCH   1   9
HETATM    9  O1  UNL     1      17.096   1.384  13.665  1.00  0.00    -0.363 OA
HETATM   10  C1  UNL     1      16.837   0.779  12.431  1.00  0.00     0.204 C 
ENDBRANCH   1   9
BRANCH   8  11
HETATM   11  O4  UNL     1      18.101   5.536  14.957  1.00  0.00    -0.369 OA
ATOM     12  H4  UNL     1      17.332   6.024  15.226  1.00  0.00     0.212 HD
ENDBRANCH   8  11
TORSDOF 2
ENDMDL
