MODEL 1
REMARK VINA RESULT: -8.300300336      0.000      0.000
REMARK  8 active torsions:
REMARK  status: ('A' for Active; 'I' for Inactive)
REMARK    1  A    between atoms: C3_3  and  N1_4 
REMARK    2  A    between atoms: N1_4  and  C5_6 
REMARK    3  A    between atoms: C5_6  and  C6_7 
REMARK    4  A    between atoms: C9_10  and  C10_11 
REMARK    5  A    between atoms: C10_11  and  C11_12 
REMARK    6  A    between atoms: C13_17  and  C14_18 
REMARK    7  A    between atoms: C14_18  and  C15_19 
REMARK    8  A    between atoms: C17_23  and  O2_24 
ROOT
HETATM    1  C1  UNL     1      20.486 -13.610  27.011  1.00  0.00     0.013 C 
HETATM    2  C2  UNL     1      21.060 -13.312  25.995  1.00  0.00    -0.103 C 
HETATM    3  C3  UNL     1      21.766 -12.968  24.734  1.00  0.00     0.187 C 
ENDROOT
BRANCH   3   4
HETATM    4  N1  UNL     1      21.772 -14.115  23.870  1.00  0.00    -0.285 NA
HETATM    5  C4  UNL     1      22.675 -15.103  24.388  1.00  0.00     0.117 C 
BRANCH   4   6
HETATM    6  C5  UNL     1      20.530 -14.680  23.536  1.00  0.00     0.072 C 
BRANCH   6   7
HETATM    7  C6  UNL     1      19.672 -13.928  22.609  1.00  0.00    -0.006 A 
HETATM    8  C7  UNL     1      20.088 -13.343  21.435  1.00  0.00     0.014 A 
HETATM    9  C8  UNL     1      19.188 -12.664  20.601  1.00  0.00     0.015 A 
HETATM   10  C9  UNL     1      17.852 -12.553  20.913  1.00  0.00     0.002 A 
HETATM   11  C17 UNL     1      17.430 -13.138  22.087  1.00  0.00     0.094 A 
HETATM   12  C18 UNL     1      18.314 -13.803  22.908  1.00  0.00     0.056 A 
HETATM   13 BR1  UNL     1      17.677 -14.594  24.520  1.00  0.00    -0.047 Br
BRANCH  10  14
HETATM   14  C10 UNL     1      16.909 -11.843  20.038  1.00  0.00     0.062 C 
BRANCH  14  15
HETATM   15  C11 UNL     1      15.629 -11.721  20.350  1.00  0.00     0.109 A 
HETATM   16  N2  UNL     1      14.637 -12.564  20.028  1.00  0.00    -0.308 N 
HETATM   17  C12 UNL     1      13.469 -12.124  20.513  1.00  0.00     0.273 A 
ATOM     18  H2  UNL     1      14.755 -13.421  19.489  1.00  0.00     0.170 HD
HETATM   19  O1  UNL     1      12.366 -12.682  20.382  1.00  0.00    -0.266 OA
HETATM   20  C13 UNL     1      13.707 -10.951  21.175  1.00  0.00     0.098 A 
HETATM   21  N3  UNL     1      15.047 -10.737  21.054  1.00  0.00    -0.338 N 
ATOM     22  H3  UNL     1      15.543  -9.935  21.445  1.00  0.00     0.167 HD
BRANCH  20  23
HETATM   23  C14 UNL     1      12.862 -10.145  21.823  1.00  0.00     0.008 C 
BRANCH  23  24
HETATM   24  C15 UNL     1      12.019 -10.573  22.936  1.00  0.00     0.025 C 
HETATM   25  C16 UNL     1      11.767  -9.389  23.850  1.00  0.00     0.009 C 
ENDBRANCH  23  24
ENDBRANCH  20  23
ENDBRANCH  14  15
ENDBRANCH  10  14
BRANCH  11  26
HETATM   26  O2  UNL     1      16.072 -13.024  22.403  1.00  0.00    -0.358 OA
ATOM     27  H2  UNL     1      15.798 -12.229  22.846  1.00  0.00     0.217 HD
ENDBRANCH  11  26
ENDBRANCH   6   7
ENDBRANCH   4   6
ENDBRANCH   3   4
TORSDOF 8
ENDMDL
MODEL 2
REMARK VINA RESULT: -8.247907866      1.092      1.295
REMARK  8 active torsions:
REMARK  status: ('A' for Active; 'I' for Inactive)
REMARK    1  A    between atoms: C3_3  and  N1_4 
REMARK    2  A    between atoms: N1_4  and  C5_6 
REMARK    3  A    between atoms: C5_6  and  C6_7 
REMARK    4  A    between atoms: C9_10  and  C10_11 
REMARK    5  A    between atoms: C10_11  and  C11_12 
REMARK    6  A    between atoms: C13_17  and  C14_18 
REMARK    7  A    between atoms: C14_18  and  C15_19 
REMARK    8  A    between atoms: C17_23  and  O2_24 
ROOT
HETATM    1  C1  UNL     1      20.703 -13.434  27.028  1.00  0.00     0.013 C 
HETATM    2  C2  UNL     1      21.064 -13.183  25.906  1.00  0.00    -0.103 C 
HETATM    3  C3  UNL     1      21.511 -12.897  24.519  1.00  0.00     0.187 C 
ENDROOT
BRANCH   3   4
HETATM    4  N1  UNL     1      21.646 -14.135  23.804  1.00  0.00    -0.285 NA
HETATM    5  C4  UNL     1      22.663 -14.938  24.421  1.00  0.00     0.117 C 
BRANCH   4   6
HETATM    6  C5  UNL     1      20.477 -14.878  23.569  1.00  0.00     0.072 C 
BRANCH   6   7
HETATM    7  C6  UNL     1      19.494 -14.314  22.633  1.00  0.00    -0.006 A 
HETATM    8  C7  UNL     1      19.761 -13.911  21.344  1.00  0.00     0.014 A 
HETATM    9  C8  UNL     1      18.749 -13.407  20.515  1.00  0.00     0.015 A 
HETATM   10  C9  UNL     1      17.446 -13.293  20.946  1.00  0.00     0.002 A 
HETATM   11  C17 UNL     1      17.174 -13.696  22.236  1.00  0.00     0.094 A 
HETATM   12  C18 UNL     1      18.168 -14.190  23.051  1.00  0.00     0.056 A 
HETATM   13 BR1  UNL     1      17.736 -14.734  24.825  1.00  0.00    -0.047 Br
BRANCH  10  14
HETATM   14  C10 UNL     1      16.386 -12.766  20.077  1.00  0.00     0.062 C 
BRANCH  14  15
HETATM   15  C11 UNL     1      15.393 -12.036  20.557  1.00  0.00     0.109 A 
HETATM   16  N2  UNL     1      15.441 -10.743  20.910  1.00  0.00    -0.308 N 
HETATM   17  C12 UNL     1      14.247 -10.331  21.354  1.00  0.00     0.273 A 
ATOM     18  H2  UNL     1      16.272 -10.155  20.849  1.00  0.00     0.170 HD
HETATM   19  O1  UNL     1      13.971  -9.187  21.754  1.00  0.00    -0.266 OA
HETATM   20  C13 UNL     1      13.388 -11.393  21.288  1.00  0.00     0.098 A 
HETATM   21  N3  UNL     1      14.130 -12.423  20.793  1.00  0.00    -0.338 N 
ATOM     22  H3  UNL     1      13.773 -13.364  20.623  1.00  0.00     0.167 HD
BRANCH  20  23
HETATM   23  C14 UNL     1      12.096 -11.473  21.616  1.00  0.00     0.008 C 
BRANCH  23  24
HETATM   24  C15 UNL     1      11.614 -11.782  22.959  1.00  0.00     0.025 C 
HETATM   25  C16 UNL     1      11.385 -10.487  23.713  1.00  0.00     0.009 C 
ENDBRANCH  23  24
ENDBRANCH  20  23
ENDBRANCH  14  15
ENDBRANCH  10  14
BRANCH  11  26
HETATM   26  O2  UNL     1      15.850 -13.580  22.672  1.00  0.00    -0.358 OA
ATOM     27  H2  UNL     1      15.459 -14.347  23.073  1.00  0.00     0.217 HD
ENDBRANCH  11  26
ENDBRANCH   6   7
ENDBRANCH   4   6
ENDBRANCH   3   4
TORSDOF 8
ENDMDL
MODEL 3
REMARK VINA RESULT: -8.214921742      1.873      2.451
REMARK  8 active torsions:
REMARK  status: ('A' for Active; 'I' for Inactive)
REMARK    1  A    between atoms: C3_3  and  N1_4 
REMARK    2  A    between atoms: N1_4  and  C5_6 
REMARK    3  A    between atoms: C5_6  and  C6_7 
REMARK    4  A    between atoms: C9_10  and  C10_11 
REMARK    5  A    between atoms: C10_11  and  C11_12 
REMARK    6  A    between atoms: C13_17  and  C14_18 
REMARK    7  A    between atoms: C14_18  and  C15_19 
REMARK    8  A    between atoms: C17_23  and  O2_24 
ROOT
HETATM    1  C1  UNL     1      20.721 -13.165  27.044  1.00  0.00     0.013 C 
HETATM    2  C2  UNL     1      20.274 -13.722  26.073  1.00  0.00    -0.103 C 
HETATM    3  C3  UNL     1      19.733 -14.391  24.863  1.00  0.00     0.187 C 
ENDROOT
BRANCH   3   4
HETATM    4  N1  UNL     1      20.185 -13.688  23.695  1.00  0.00    -0.285 NA
HETATM    5  C4  UNL     1      21.617 -13.583  23.721  1.00  0.00     0.117 C 
BRANCH   4   6
HETATM    6  C5  UNL     1      19.726 -14.143  22.449  1.00  0.00     0.072 C 
BRANCH   6   7
HETATM    7  C6  UNL     1      18.442 -13.614  21.966  1.00  0.00    -0.006 A 
HETATM    8  C7  UNL     1      17.222 -13.809  22.572  1.00  0.00     0.014 A 
HETATM    9  C8  UNL     1      16.051 -13.243  22.048  1.00  0.00     0.015 A 
HETATM   10  C9  UNL     1      16.065 -12.467  20.911  1.00  0.00     0.002 A 
HETATM   11  C17 UNL     1      17.284 -12.268  20.301  1.00  0.00     0.094 A 
HETATM   12  C18 UNL     1      18.435 -12.825  20.814  1.00  0.00     0.056 A 
HETATM   13 BR1  UNL     1      20.095 -12.518  19.931  1.00  0.00    -0.047 Br
BRANCH  10  14
HETATM   14  C10 UNL     1      14.838 -11.872  20.364  1.00  0.00     0.062 C 
BRANCH  14  15
HETATM   15  C11 UNL     1      13.812 -11.560  21.139  1.00  0.00     0.109 A 
HETATM   16  N2  UNL     1      12.893 -12.401  21.638  1.00  0.00    -0.308 N 
HETATM   17  C12 UNL     1      12.001 -11.737  22.383  1.00  0.00     0.273 A 
ATOM     18  H2  UNL     1      12.876 -13.407  21.472  1.00  0.00     0.170 HD
HETATM   19  O1  UNL     1      11.030 -12.234  22.977  1.00  0.00    -0.266 OA
HETATM   20  C13 UNL     1      12.350 -10.415  22.371  1.00  0.00     0.098 A 
HETATM   21  N3  UNL     1      13.469 -10.346  21.596  1.00  0.00    -0.338 N 
ATOM     22  H3  UNL     1      13.978  -9.486  21.390  1.00  0.00     0.167 HD
BRANCH  20  23
HETATM   23  C14 UNL     1      11.770  -9.369  22.966  1.00  0.00     0.008 C 
BRANCH  23  24
HETATM   24  C15 UNL     1      11.731  -9.173  24.413  1.00  0.00     0.025 C 
HETATM   25  C16 UNL     1      12.055  -7.726  24.726  1.00  0.00     0.009 C 
ENDBRANCH  23  24
ENDBRANCH  20  23
ENDBRANCH  14  15
ENDBRANCH  10  14
BRANCH  11  26
HETATM   26  O2  UNL     1      17.296 -11.480  19.146  1.00  0.00    -0.358 OA
ATOM     27  H2  UNL     1      17.769 -10.656  19.190  1.00  0.00     0.217 HD
ENDBRANCH  11  26
ENDBRANCH   6   7
ENDBRANCH   4   6
ENDBRANCH   3   4
TORSDOF 8
ENDMDL
MODEL 4
REMARK VINA RESULT: -8.039824581      2.312      7.474
REMARK  8 active torsions:
REMARK  status: ('A' for Active; 'I' for Inactive)
REMARK    1  A    between atoms: C3_3  and  N1_4 
REMARK    2  A    between atoms: N1_4  and  C5_6 
REMARK    3  A    between atoms: C5_6  and  C6_7 
REMARK    4  A    between atoms: C9_10  and  C10_11 
REMARK    5  A    between atoms: C10_11  and  C11_12 
REMARK    6  A    between atoms: C13_17  and  C14_18 
REMARK    7  A    between atoms: C14_18  and  C15_19 
REMARK    8  A    between atoms: C17_23  and  O2_24 
ROOT
HETATM    1  C1  UNL     1      11.695  -9.101  24.406  1.00  0.00     0.013 C 
HETATM    2  C2  UNL     1      11.908  -9.471  23.279  1.00  0.00    -0.103 C 
HETATM    3  C3  UNL     1      12.177  -9.950  21.899  1.00  0.00     0.187 C 
ENDROOT
BRANCH   3   4
HETATM    4  N1  UNL     1      12.579 -11.327  21.949  1.00  0.00    -0.285 NA
HETATM    5  C4  UNL     1      11.536 -12.111  22.548  1.00  0.00     0.117 C 
BRANCH   4   6
HETATM    6  C5  UNL     1      13.040 -11.910  20.757  1.00  0.00     0.072 C 
BRANCH   6   7
HETATM    7  C6  UNL     1      14.462 -12.276  20.688  1.00  0.00    -0.006 A 
HETATM    8  C7  UNL     1      15.512 -11.387  20.646  1.00  0.00     0.014 A 
HETATM    9  C8  UNL     1      16.841 -11.832  20.605  1.00  0.00     0.015 A 
HETATM   10  C9  UNL     1      17.159 -13.171  20.606  1.00  0.00     0.002 A 
HETATM   11  C17 UNL     1      16.111 -14.065  20.649  1.00  0.00     0.094 A 
HETATM   12  C18 UNL     1      14.805 -13.629  20.688  1.00  0.00     0.056 A 
HETATM   13 BR1  UNL     1      13.395 -14.908  20.745  1.00  0.00    -0.047 Br
BRANCH  10  14
HETATM   14  C10 UNL     1      18.551 -13.637  20.565  1.00  0.00     0.062 C 
BRANCH  14  15
HETATM   15  C11 UNL     1      19.320 -13.626  21.641  1.00  0.00     0.109 A 
HETATM   16  N2  UNL     1      20.661 -13.646  21.675  1.00  0.00    -0.308 N 
HETATM   17  C12 UNL     1      21.101 -13.625  22.939  1.00  0.00     0.273 A 
ATOM     18  H2  UNL     1      21.262 -13.674  20.851  1.00  0.00     0.170 HD
HETATM   19  O1  UNL     1      22.290 -13.636  23.299  1.00  0.00    -0.266 OA
HETATM   20  C13 UNL     1      20.008 -13.589  23.761  1.00  0.00     0.098 A 
HETATM   21  N3  UNL     1      18.931 -13.590  22.926  1.00  0.00    -0.338 N 
ATOM     22  H3  UNL     1      17.960 -13.567  23.235  1.00  0.00     0.167 HD
BRANCH  20  23
HETATM   23  C14 UNL     1      19.938 -13.555  25.094  1.00  0.00     0.008 C 
BRANCH  23  24
HETATM   24  C15 UNL     1      20.712 -12.639  25.928  1.00  0.00     0.025 C 
HETATM   25  C16 UNL     1      20.724 -13.159  27.352  1.00  0.00     0.009 C 
ENDBRANCH  23  24
ENDBRANCH  20  23
ENDBRANCH  14  15
ENDBRANCH  10  14
BRANCH  11  26
HETATM   26  O2  UNL     1      16.436 -15.426  20.649  1.00  0.00    -0.358 OA
ATOM     27  H2  UNL     1      15.759 -16.031  20.931  1.00  0.00     0.217 HD
ENDBRANCH  11  26
ENDBRANCH   6   7
ENDBRANCH   4   6
ENDBRANCH   3   4
TORSDOF 8
ENDMDL
MODEL 5
REMARK VINA RESULT: -8.004469980      1.925      2.366
REMARK  8 active torsions:
REMARK  status: ('A' for Active; 'I' for Inactive)
REMARK    1  A    between atoms: C3_3  and  N1_4 
REMARK    2  A    between atoms: N1_4  and  C5_6 
REMARK    3  A    between atoms: C5_6  and  C6_7 
REMARK    4  A    between atoms: C9_10  and  C10_11 
REMARK    5  A    between atoms: C10_11  and  C11_12 
REMARK    6  A    between atoms: C13_17  and  C14_18 
REMARK    7  A    between atoms: C14_18  and  C15_19 
REMARK    8  A    between atoms: C17_23  and  O2_24 
ROOT
HETATM    1  C1  UNL     1      20.723 -13.055  27.025  1.00  0.00     0.013 C 
HETATM    2  C2  UNL     1      20.429 -13.762  26.095  1.00  0.00    -0.103 C 
HETATM    3  C3  UNL     1      20.074 -14.616  24.933  1.00  0.00     0.187 C 
ENDROOT
BRANCH   3   4
HETATM    4  N1  UNL     1      20.479 -13.957  23.723  1.00  0.00    -0.285 NA
HETATM    5  C4  UNL     1      21.895 -13.718  23.757  1.00  0.00     0.117 C 
BRANCH   4   6
HETATM    6  C5  UNL     1      20.084 -14.536  22.507  1.00  0.00     0.072 C 
BRANCH   6   7
HETATM    7  C6  UNL     1      18.753 -14.187  21.991  1.00  0.00    -0.006 A 
HETATM    8  C7  UNL     1      17.563 -14.722  22.430  1.00  0.00     0.014 A 
HETATM    9  C8  UNL     1      16.337 -14.307  21.892  1.00  0.00     0.015 A 
HETATM   10  C9  UNL     1      16.263 -13.349  20.906  1.00  0.00     0.002 A 
HETATM   11  C17 UNL     1      17.452 -12.810  20.463  1.00  0.00     0.094 A 
HETATM   12  C18 UNL     1      18.657 -13.218  20.990  1.00  0.00     0.056 A 
HETATM   13 BR1  UNL     1      20.271 -12.440  20.342  1.00  0.00    -0.047 Br
BRANCH  10  14
HETATM   14  C10 UNL     1      14.978 -12.914  20.343  1.00  0.00     0.062 C 
BRANCH  14  15
HETATM   15  C11 UNL     1      14.344 -11.847  20.803  1.00  0.00     0.109 A 
HETATM   16  N2  UNL     1      14.742 -10.570  20.706  1.00  0.00    -0.308 N 
HETATM   17  C12 UNL     1      13.851  -9.754  21.283  1.00  0.00     0.273 A 
ATOM     18  H2  UNL     1      15.604 -10.262  20.255  1.00  0.00     0.170 HD
HETATM   19  O1  UNL     1      13.935  -8.516  21.358  1.00  0.00    -0.266 OA
HETATM   20  C13 UNL     1      12.835 -10.526  21.774  1.00  0.00     0.098 A 
HETATM   21  N3  UNL     1      13.174 -11.808  21.459  1.00  0.00    -0.338 N 
ATOM     22  H3  UNL     1      12.613 -12.628  21.690  1.00  0.00     0.167 HD
BRANCH  20  23
HETATM   23  C14 UNL     1      11.724 -10.170  22.425  1.00  0.00     0.008 C 
BRANCH  23  24
HETATM   24  C15 UNL     1      11.612 -10.122  23.881  1.00  0.00     0.025 C 
HETATM   25  C16 UNL     1      11.792  -8.690  24.344  1.00  0.00     0.009 C 
ENDBRANCH  23  24
ENDBRANCH  20  23
ENDBRANCH  14  15
ENDBRANCH  10  14
BRANCH  11  26
HETATM   26  O2  UNL     1      17.375 -11.838  19.461  1.00  0.00    -0.358 OA
ATOM     27  H2  UNL     1      18.090 -11.214  19.409  1.00  0.00     0.217 HD
ENDBRANCH  11  26
ENDBRANCH   6   7
ENDBRANCH   4   6
ENDBRANCH   3   4
TORSDOF 8
ENDMDL
