MODEL 1
REMARK VINA RESULT: -7.297975317      0.000      0.000
REMARK  7 active torsions:
REMARK  status: ('A' for Active; 'I' for Inactive)
REMARK    1  A    between atoms: C3_3  and  N1_4 
REMARK    2  A    between atoms: N1_4  and  C4_5 
REMARK    3  A    between atoms: C4_5  and  C5_6 
REMARK    4  A    between atoms: C5_6  and  C6_7 
REMARK       I    between atoms: C6_7  and  N2_9 
REMARK    5  A    between atoms: C8_14  and  C9_15 
REMARK    6  A    between atoms: C9_15  and  C10_16 
REMARK    7  A    between atoms: C12_18  and  N4_19 
ROOT
HETATM    1  C1  UNL     1      20.487 -12.031  19.992  1.00  0.00     0.098 C 
HETATM    2  C2  UNL     1      20.533 -12.553  21.103  1.00  0.00    -0.158 C 
HETATM    3  C3  UNL     1      20.621 -13.155  22.436  1.00  0.00     0.339 C 
ENDROOT
BRANCH   3   4
HETATM    4  N1  UNL     1      19.548 -14.072  22.655  1.00  0.00     0.020 N 
HETATM    5  C18 UNL     1      19.423 -15.005  21.592  1.00  0.00     0.262 C 
HETATM    6  C19 UNL     1      20.065 -16.314  21.963  1.00  0.00     0.048 C 
HETATM    7  C20 UNL     1      20.733 -15.953  23.260  1.00  0.00     0.144 C 
HETATM    8  N5  UNL     1      19.985 -14.840  23.792  1.00  0.00    -0.046 NA
BRANCH   4   9
HETATM    9  C4  UNL     1      18.295 -13.531  23.055  1.00  0.00     0.271 C 
BRANCH   9  10
HETATM   10  C5  UNL     1      17.088 -13.713  22.230  1.00  0.00     0.133 C 
BRANCH  10  11
HETATM   11  C6  UNL     1      16.614 -12.554  21.458  1.00  0.00     0.235 C 
HETATM   12  O1  UNL     1      17.369 -11.517  21.565  1.00  0.00    -0.272 OA
HETATM   13  N2  UNL     1      15.477 -12.460  20.650  1.00  0.00    -0.213 N 
HETATM   14  C7  UNL     1      15.227 -11.157  19.997  1.00  0.00     0.331 C 
HETATM   15  C12 UNL     1      14.381 -13.191  20.183  1.00  0.00     0.220 C 
HETATM   16  O2  UNL     1      16.033 -10.246  19.716  1.00  0.00    -0.246 OA
HETATM   17  N3  UNL     1      13.827 -11.069  19.704  1.00  0.00    -0.331 N 
HETATM   18  C8  UNL     1      13.258 -12.186  20.492  1.00  0.00     0.163 C 
ATOM     19  H3  UNL     1      13.343 -10.402  19.103  1.00  0.00     0.165 HD
BRANCH  18  20
HETATM   20  C9  UNL     1      13.294 -11.695  21.907  1.00  0.00     0.033 C 
BRANCH  20  21
HETATM   21  C10 UNL     1      12.159 -10.728  22.203  1.00  0.00    -0.002 C 
HETATM   22  C11 UNL     1      12.658  -9.405  22.717  1.00  0.00     0.005 C 
ENDBRANCH  20  21
ENDBRANCH  18  20
BRANCH  15  23
HETATM   23  N4  UNL     1      14.017 -14.502  20.344  1.00  0.00    -0.027 N 
HETATM   24  C13 UNL     1      12.730 -14.595  19.522  1.00  0.00     0.281 C 
HETATM   25  C14 UNL     1      13.600 -15.049  21.575  1.00  0.00     0.245 C 
HETATM   26  C15 UNL     1      13.309 -16.505  21.216  1.00  0.00     0.030 C 
HETATM   27  C16 UNL     1      14.192 -16.848  20.068  1.00  0.00     0.030 C 
HETATM   28  C17 UNL     1      14.819 -15.491  19.722  1.00  0.00     0.245 C 
ENDBRANCH  15  23
ENDBRANCH  10  11
ENDBRANCH   9  10
ENDBRANCH   4   9
ENDBRANCH   3   4
TORSDOF 7
ENDMDL
MODEL 2
REMARK VINA RESULT: -7.186722448      1.136      1.590
REMARK  7 active torsions:
REMARK  status: ('A' for Active; 'I' for Inactive)
REMARK    1  A    between atoms: C3_3  and  N1_4 
REMARK    2  A    between atoms: N1_4  and  C4_5 
REMARK    3  A    between atoms: C4_5  and  C5_6 
REMARK    4  A    between atoms: C5_6  and  C6_7 
REMARK       I    between atoms: C6_7  and  N2_9 
REMARK    5  A    between atoms: C8_14  and  C9_15 
REMARK    6  A    between atoms: C9_15  and  C10_16 
REMARK    7  A    between atoms: C12_18  and  N4_19 
ROOT
HETATM    1  C1  UNL     1      20.899 -12.035  25.515  1.00  0.00     0.098 C 
HETATM    2  C2  UNL     1      20.336 -13.092  25.236  1.00  0.00    -0.158 C 
HETATM    3  C3  UNL     1      19.677 -14.365  24.938  1.00  0.00     0.339 C 
ENDROOT
BRANCH   3   4
HETATM    4  N1  UNL     1      19.064 -14.336  23.649  1.00  0.00     0.020 N 
HETATM    5  C18 UNL     1      20.012 -14.098  22.618  1.00  0.00     0.262 C 
HETATM    6  C19 UNL     1      20.393 -15.391  21.948  1.00  0.00     0.048 C 
HETATM    7  C20 UNL     1      19.715 -16.393  22.839  1.00  0.00     0.144 C 
HETATM    8  N5  UNL     1      18.616 -15.690  23.456  1.00  0.00    -0.046 NA
BRANCH   4   9
HETATM    9  C4  UNL     1      17.888 -13.551  23.500  1.00  0.00     0.271 C 
BRANCH   9  10
HETATM   10  C5  UNL     1      16.975 -13.754  22.360  1.00  0.00     0.133 C 
BRANCH  10  11
HETATM   11  C6  UNL     1      16.717 -12.599  21.486  1.00  0.00     0.235 C 
HETATM   12  O1  UNL     1      17.576 -11.649  21.615  1.00  0.00    -0.272 OA
HETATM   13  N2  UNL     1      15.680 -12.428  20.563  1.00  0.00    -0.213 N 
HETATM   14  C7  UNL     1      15.649 -11.149  19.823  1.00  0.00     0.331 C 
HETATM   15  C12 UNL     1      14.555 -13.059  20.026  1.00  0.00     0.220 C 
HETATM   16  O2  UNL     1      16.580 -10.353  19.579  1.00  0.00    -0.246 OA
HETATM   17  N3  UNL     1      14.303 -10.922  19.387  1.00  0.00    -0.331 N 
HETATM   18  C8  UNL     1      13.535 -11.916  20.169  1.00  0.00     0.163 C 
ATOM     19  H3  UNL     1      13.960 -10.244  18.707  1.00  0.00     0.165 HD
BRANCH  18  20
HETATM   20  C9  UNL     1      13.494 -11.344  21.553  1.00  0.00     0.033 C 
BRANCH  20  21
HETATM   21  C10 UNL     1      12.227 -10.543  21.802  1.00  0.00    -0.002 C 
HETATM   22  C11 UNL     1      12.408  -9.517  22.887  1.00  0.00     0.005 C 
ENDBRANCH  20  21
ENDBRANCH  18  20
BRANCH  15  23
HETATM   23  N4  UNL     1      14.025 -14.308  20.218  1.00  0.00    -0.027 N 
HETATM   24  C13 UNL     1      12.782 -14.283  19.325  1.00  0.00     0.281 C 
HETATM   25  C14 UNL     1      13.478 -14.744  21.442  1.00  0.00     0.245 C 
HETATM   26  C15 UNL     1      13.031 -16.169  21.124  1.00  0.00     0.030 C 
HETATM   27  C16 UNL     1      13.926 -16.668  20.043  1.00  0.00     0.030 C 
HETATM   28  C17 UNL     1      14.732 -15.413  19.683  1.00  0.00     0.245 C 
ENDBRANCH  15  23
ENDBRANCH  10  11
ENDBRANCH   9  10
ENDBRANCH   4   9
ENDBRANCH   3   4
TORSDOF 7
ENDMDL
MODEL 3
REMARK VINA RESULT: -7.034994298      2.176      5.567
REMARK  7 active torsions:
REMARK  status: ('A' for Active; 'I' for Inactive)
REMARK    1  A    between atoms: C3_3  and  N1_4 
REMARK    2  A    between atoms: N1_4  and  C4_5 
REMARK    3  A    between atoms: C4_5  and  C5_6 
REMARK    4  A    between atoms: C5_6  and  C6_7 
REMARK       I    between atoms: C6_7  and  N2_9 
REMARK    5  A    between atoms: C8_14  and  C9_15 
REMARK    6  A    between atoms: C9_15  and  C10_16 
REMARK    7  A    between atoms: C12_18  and  N4_19 
ROOT
HETATM    1  C1  UNL     1      14.549 -15.023  17.484  1.00  0.00     0.098 C 
HETATM    2  C2  UNL     1      14.496 -15.663  18.532  1.00  0.00    -0.158 C 
HETATM    3  C3  UNL     1      14.470 -16.438  19.775  1.00  0.00     0.339 C 
ENDROOT
BRANCH   3   4
HETATM    4  N1  UNL     1      13.198 -16.334  20.417  1.00  0.00     0.020 N 
HETATM    5  C18 UNL     1      12.189 -17.037  19.708  1.00  0.00     0.262 C 
HETATM    6  C19 UNL     1      11.935 -18.377  20.346  1.00  0.00     0.048 C 
HETATM    7  C20 UNL     1      13.043 -18.431  21.361  1.00  0.00     0.144 C 
HETATM    8  N5  UNL     1      13.380 -17.057  21.648  1.00  0.00    -0.046 NA
BRANCH   4   9
HETATM    9  C4  UNL     1      12.775 -15.040  20.827  1.00  0.00     0.271 C 
BRANCH   9  10
HETATM   10  C5  UNL     1      13.579 -14.238  21.767  1.00  0.00     0.133 C 
BRANCH  10  11
HETATM   11  C6  UNL     1      13.578 -12.778  21.584  1.00  0.00     0.235 C 
HETATM   12  O1  UNL     1      12.400 -12.260  21.558  1.00  0.00    -0.272 OA
HETATM   13  N2  UNL     1      14.676 -11.924  21.443  1.00  0.00    -0.213 N 
HETATM   14  C7  UNL     1      14.385 -10.487  21.254  1.00  0.00     0.331 C 
HETATM   15  C12 UNL     1      16.073 -11.906  21.403  1.00  0.00     0.220 C 
HETATM   16  O2  UNL     1      13.370  -9.836  21.580  1.00  0.00    -0.246 OA
HETATM   17  N3  UNL     1      15.508  -9.890  20.594  1.00  0.00    -0.331 N 
HETATM   18  C8  UNL     1      16.277 -11.067  20.130  1.00  0.00     0.163 C 
ATOM     19  H3  UNL     1      15.723  -8.901  20.474  1.00  0.00     0.165 HD
BRANCH  18  20
HETATM   20  C9  UNL     1      15.493 -11.583  18.963  1.00  0.00     0.033 C 
BRANCH  20  21
HETATM   21  C10 UNL     1      16.369 -11.808  17.741  1.00  0.00    -0.002 C 
HETATM   22  C11 UNL     1      15.627 -11.559  16.457  1.00  0.00     0.005 C 
ENDBRANCH  20  21
ENDBRANCH  18  20
BRANCH  15  23
HETATM   23  N4  UNL     1      17.007 -12.892  21.577  1.00  0.00    -0.027 N 
HETATM   24  C13 UNL     1      18.315 -12.179  21.226  1.00  0.00     0.281 C 
HETATM   25  C14 UNL     1      17.091 -14.041  20.764  1.00  0.00     0.245 C 
HETATM   26  C15 UNL     1      18.278 -14.793  21.361  1.00  0.00     0.030 C 
HETATM   27  C16 UNL     1      18.340 -14.421  22.801  1.00  0.00     0.030 C 
HETATM   28  C17 UNL     1      17.271 -13.325  22.901  1.00  0.00     0.245 C 
ENDBRANCH  15  23
ENDBRANCH  10  11
ENDBRANCH   9  10
ENDBRANCH   4   9
ENDBRANCH   3   4
TORSDOF 7
ENDMDL
MODEL 4
REMARK VINA RESULT: -7.013065668      2.144      6.002
REMARK  7 active torsions:
REMARK  status: ('A' for Active; 'I' for Inactive)
REMARK    1  A    between atoms: C3_3  and  N1_4 
REMARK    2  A    between atoms: N1_4  and  C4_5 
REMARK    3  A    between atoms: C4_5  and  C5_6 
REMARK    4  A    between atoms: C5_6  and  C6_7 
REMARK       I    between atoms: C6_7  and  N2_9 
REMARK    5  A    between atoms: C8_14  and  C9_15 
REMARK    6  A    between atoms: C9_15  and  C10_16 
REMARK    7  A    between atoms: C12_18  and  N4_19 
ROOT
HETATM    1  C1  UNL     1      14.903 -14.976  17.412  1.00  0.00     0.098 C 
HETATM    2  C2  UNL     1      14.428 -15.669  18.309  1.00  0.00    -0.158 C 
HETATM    3  C3  UNL     1      13.892 -16.520  19.374  1.00  0.00     0.339 C 
ENDROOT
BRANCH   3   4
HETATM    4  N1  UNL     1      12.648 -16.013  19.858  1.00  0.00     0.020 N 
HETATM    5  C18 UNL     1      11.929 -15.323  18.846  1.00  0.00     0.262 C 
HETATM    6  C19 UNL     1      10.863 -16.210  18.261  1.00  0.00     0.048 C 
HETATM    7  C20 UNL     1      11.192 -17.526  18.908  1.00  0.00     0.144 C 
HETATM    8  N5  UNL     1      11.882 -17.200  20.133  1.00  0.00    -0.046 NA
BRANCH   4   9
HETATM    9  C4  UNL     1      12.663 -15.308  21.093  1.00  0.00     0.271 C 
BRANCH   9  10
HETATM   10  C5  UNL     1      13.832 -14.507  21.498  1.00  0.00     0.133 C 
BRANCH  10  11
HETATM   11  C6  UNL     1      13.722 -13.044  21.386  1.00  0.00     0.235 C 
HETATM   12  O1  UNL     1      12.509 -12.621  21.302  1.00  0.00    -0.272 OA
HETATM   13  N2  UNL     1      14.752 -12.099  21.364  1.00  0.00    -0.213 N 
HETATM   14  C7  UNL     1      14.355 -10.682  21.225  1.00  0.00     0.331 C 
HETATM   15  C12 UNL     1      16.142 -11.968  21.424  1.00  0.00     0.220 C 
HETATM   16  O2  UNL     1      13.270 -10.132  21.509  1.00  0.00    -0.246 OA
HETATM   17  N3  UNL     1      15.466  -9.962  20.676  1.00  0.00    -0.331 N 
HETATM   18  C8  UNL     1      16.360 -11.047  20.211  1.00  0.00     0.163 C 
ATOM     19  H3  UNL     1      15.606  -8.954  20.619  1.00  0.00     0.165 HD
BRANCH  18  20
HETATM   20  C9  UNL     1      15.700 -11.561  18.968  1.00  0.00     0.033 C 
BRANCH  20  21
HETATM   21  C10 UNL     1      16.670 -11.645  17.800  1.00  0.00    -0.002 C 
HETATM   22  C11 UNL     1      15.980 -11.473  16.475  1.00  0.00     0.005 C 
ENDBRANCH  20  21
ENDBRANCH  18  20
BRANCH  15  23
HETATM   23  N4  UNL     1      17.142 -12.884  21.616  1.00  0.00    -0.027 N 
HETATM   24  C13 UNL     1      18.406 -12.052  21.386  1.00  0.00     0.281 C 
HETATM   25  C14 UNL     1      17.371 -13.980  20.759  1.00  0.00     0.245 C 
HETATM   26  C15 UNL     1      18.576 -14.664  21.400  1.00  0.00     0.030 C 
HETATM   27  C16 UNL     1      18.516 -14.362  22.857  1.00  0.00     0.030 C 
HETATM   28  C17 UNL     1      17.357 -13.360  22.934  1.00  0.00     0.245 C 
ENDBRANCH  15  23
ENDBRANCH  10  11
ENDBRANCH   9  10
ENDBRANCH   4   9
ENDBRANCH   3   4
TORSDOF 7
ENDMDL
MODEL 5
REMARK VINA RESULT: -7.007349467      2.215      3.940
REMARK  7 active torsions:
REMARK  status: ('A' for Active; 'I' for Inactive)
REMARK    1  A    between atoms: C3_3  and  N1_4 
REMARK    2  A    between atoms: N1_4  and  C4_5 
REMARK    3  A    between atoms: C4_5  and  C5_6 
REMARK    4  A    between atoms: C5_6  and  C6_7 
REMARK       I    between atoms: C6_7  and  N2_9 
REMARK    5  A    between atoms: C8_14  and  C9_15 
REMARK    6  A    between atoms: C9_15  and  C10_16 
REMARK    7  A    between atoms: C12_18  and  N4_19 
ROOT
HETATM    1  C1  UNL     1      20.461 -11.909  19.631  1.00  0.00     0.098 C 
HETATM    2  C2  UNL     1      20.291 -12.820  20.439  1.00  0.00    -0.158 C 
HETATM    3  C3  UNL     1      20.110 -13.929  21.379  1.00  0.00     0.339 C 
ENDROOT
BRANCH   3   4
HETATM    4  N1  UNL     1      19.259 -13.549  22.461  1.00  0.00     0.020 N 
HETATM    5  C18 UNL     1      19.080 -14.608  23.390  1.00  0.00     0.262 C 
HETATM    6  C19 UNL     1      19.981 -14.419  24.581  1.00  0.00     0.048 C 
HETATM    7  C20 UNL     1      20.822 -13.258  24.129  1.00  0.00     0.144 C 
HETATM    8  N5  UNL     1      20.023 -12.549  23.159  1.00  0.00    -0.046 NA
BRANCH   4   9
HETATM    9  C4  UNL     1      18.037 -12.897  22.136  1.00  0.00     0.271 C 
BRANCH   9  10
HETATM   10  C5  UNL     1      16.760 -13.632  22.126  1.00  0.00     0.133 C 
BRANCH  10  11
HETATM   11  C6  UNL     1      16.363 -14.281  20.867  1.00  0.00     0.235 C 
HETATM   12  O1  UNL     1      16.967 -15.396  20.645  1.00  0.00    -0.272 OA
HETATM   13  N2  UNL     1      15.434 -13.837  19.921  1.00  0.00    -0.213 N 
HETATM   14  C7  UNL     1      15.239 -14.685  18.726  1.00  0.00     0.331 C 
HETATM   15  C12 UNL     1      14.540 -12.799  19.643  1.00  0.00     0.220 C 
HETATM   16  O2  UNL     1      15.454 -15.907  18.580  1.00  0.00    -0.246 OA
HETATM   17  N3  UNL     1      14.731 -13.858  17.673  1.00  0.00    -0.331 N 
HETATM   18  C8  UNL     1      14.956 -12.491  18.194  1.00  0.00     0.163 C 
ATOM     19  H3  UNL     1      14.318 -14.140  16.784  1.00  0.00     0.165 HD
BRANCH  18  20
HETATM   20  C9  UNL     1      16.432 -12.279  18.048  1.00  0.00     0.033 C 
BRANCH  20  21
HETATM   21  C10 UNL     1      16.753 -11.149  17.082  1.00  0.00    -0.002 C 
HETATM   22  C11 UNL     1      16.481 -11.529  15.653  1.00  0.00     0.005 C 
ENDBRANCH  20  21
ENDBRANCH  18  20
BRANCH  15  23
HETATM   23  N4  UNL     1      14.163 -11.696  20.362  1.00  0.00    -0.027 N 
HETATM   24  C13 UNL     1      13.445 -10.843  19.314  1.00  0.00     0.281 C 
HETATM   25  C14 UNL     1      15.076 -10.765  20.899  1.00  0.00     0.245 C 
HETATM   26  C15 UNL     1      14.163  -9.751  21.582  1.00  0.00     0.030 C 
HETATM   27  C16 UNL     1      12.930 -10.485  21.982  1.00  0.00     0.030 C 
HETATM   28  C17 UNL     1      13.146 -11.859  21.335  1.00  0.00     0.245 C 
ENDBRANCH  15  23
ENDBRANCH  10  11
ENDBRANCH   9  10
ENDBRANCH   4   9
ENDBRANCH   3   4
TORSDOF 7
ENDMDL
