MODEL 1
REMARK VINA RESULT: -7.168814264      0.000      0.000
REMARK  16 active torsions:
REMARK  status: ('A' for Active; 'I' for Inactive)
REMARK    1  A    between atoms: C2_2  and  C4_5 
REMARK    2  A    between atoms: C4_5  and  N1_6 
REMARK    3  A    between atoms: C4_5  and  C9_20 
REMARK    4  A    between atoms: N1_6  and  C5_8 
REMARK    5  A    between atoms: C5_8  and  C6_9 
REMARK    6  A    between atoms: C6_9  and  C7_10 
REMARK    7  A    between atoms: C7_10  and  C8_11 
REMARK    8  A    between atoms: C8_11  and  N2_12 
REMARK    9  A    between atoms: N2_12  and  S1_14 
REMARK   10  A    between atoms: S1_14  and  N3_15 
REMARK   11  A    between atoms: C23_34  and  C24_35 
REMARK       I    between atoms: C24_35  and  N4_37 
REMARK   12  A    between atoms: N4_37  and  C25_39 
REMARK   13  A    between atoms: C25_39  and  C26_40 
REMARK   14  A    between atoms: C26_40  and  C27_41 
REMARK   15  A    between atoms: C27_41  and  C28_42 
REMARK   16  A    between atoms: C28_42  and  N5_43 
ROOT
HETATM    1  C9  UNL     1      20.484  45.746  43.482  1.00  0.00     0.025 C 
HETATM    2  C10 UNL     1      19.767  46.986  43.717  1.00  0.00     0.008 C 
HETATM    3  C11 UNL     1      20.820  48.036  43.294  1.00  0.00     0.012 C 
HETATM    4  C12 UNL     1      22.012  47.496  44.049  1.00  0.00    -0.017 C 
HETATM    5  C13 UNL     1      21.677  47.604  45.554  1.00  0.00    -0.004 C 
HETATM    6  C14 UNL     1      22.900  47.266  46.408  1.00  0.00     0.010 C 
HETATM    7  C15 UNL     1      24.044  48.197  46.159  1.00  0.00    -0.013 C 
HETATM    8  C16 UNL     1      23.623  49.595  46.505  1.00  0.00     0.009 C 
HETATM    9  C17 UNL     1      22.400  49.918  45.659  1.00  0.00    -0.013 C 
HETATM   10  C18 UNL     1      21.259  48.981  45.958  1.00  0.00     0.010 C 
HETATM   11  C19 UNL     1      22.792  49.784  44.235  1.00  0.00     0.014 C 
HETATM   12  C20 UNL     1      23.189  48.340  43.847  1.00  0.00    -0.035 C 
HETATM   13  C21 UNL     1      23.691  48.525  42.434  1.00  0.00     0.016 C 
HETATM   14  C22 UNL     1      24.390  48.047  44.689  1.00  0.00     0.014 C 
HETATM   15  C23 UNL     1      21.980  46.083  43.694  1.00  0.00     0.093 C 
ENDROOT
BRANCH   1  16
HETATM   16  C4  UNL     1      20.103  44.481  44.184  1.00  0.00     0.120 C 
BRANCH  16  17
HETATM   17  C2  UNL     1      20.629  44.235  45.509  1.00  0.00     0.116 C 
HETATM   18  C1  UNL     1      19.792  43.277  46.348  1.00  0.00     0.053 C 
HETATM   19  C3  UNL     1      22.049  43.801  45.563  1.00  0.00     0.053 C 
HETATM   20  F1  UNL     1      20.669  45.406  46.315  1.00  0.00    -0.242 F 
ENDBRANCH  16  17
BRANCH  16  21
HETATM   21  N1  UNL     1      18.702  44.313  44.116  1.00  0.00    -0.413 N 
ATOM     22  H1  UNL     1      18.163  44.599  44.933  1.00  0.00     0.153 HD
BRANCH  21  23
HETATM   23  C5  UNL     1      17.994  43.798  43.050  1.00  0.00     0.114 C 
BRANCH  23  24
HETATM   24  C6  UNL     1      16.929  44.820  42.549  1.00  0.00     0.021 C 
BRANCH  24  25
HETATM   25  C7  UNL     1      17.384  45.557  41.340  1.00  0.00     0.022 C 
BRANCH  25  26
HETATM   26  C8  UNL     1      16.159  45.756  40.438  1.00  0.00     0.133 C 
BRANCH  26  27
HETATM   27  N2  UNL     1      15.816  47.177  40.440  1.00  0.00    -0.303 N 
ATOM     28  H2  UNL     1      16.506  47.923  40.529  1.00  0.00     0.173 HD
BRANCH  27  29
HETATM   29  S1  UNL     1      14.142  47.457  40.279  1.00  0.00     0.312 S 
HETATM   30  O1  UNL     1      13.781  48.787  40.885  1.00  0.00    -0.183 OA
HETATM   31  O2  UNL     1      13.726  47.390  38.837  1.00  0.00    -0.183 OA
BRANCH  29  32
HETATM   32  N3  UNL     1      13.282  46.258  41.164  1.00  0.00    -0.312 N 
ATOM     33  H32 UNL     1      13.342  45.255  40.991  1.00  0.00     0.170 HD
ATOM     34  H31 UNL     1      12.713  46.713  41.878  1.00  0.00     0.170 HD
ENDBRANCH  29  32
ENDBRANCH  27  29
ENDBRANCH  26  27
ENDBRANCH  25  26
ENDBRANCH  24  25
ENDBRANCH  23  24
ENDBRANCH  21  23
ENDBRANCH  16  21
ENDBRANCH   1  16
BRANCH  15  35
HETATM   35  C24 UNL     1      22.800  45.575  42.593  1.00  0.00     0.223 C 
HETATM   36  O3  UNL     1      23.884  45.007  42.906  1.00  0.00    -0.273 OA
HETATM   37  N4  UNL     1      22.528  45.642  41.223  1.00  0.00    -0.361 N 
ATOM     38  H4  UNL     1      21.667  46.087  40.907  1.00  0.00     0.162 HD
BRANCH  37  39
HETATM   39  C25 UNL     1      23.434  45.098  40.253  1.00  0.00     0.122 C 
BRANCH  39  40
HETATM   40  C26 UNL     1      23.552  45.910  39.003  1.00  0.00     0.021 C 
BRANCH  40  41
HETATM   41  C27 UNL     1      23.314  44.974  37.836  1.00  0.00     0.029 C 
BRANCH  41  42
HETATM   42  C28 UNL     1      24.004  45.457  36.581  1.00  0.00     0.229 C 
BRANCH  42  43
HETATM   43  N5  UNL     1      24.485  46.812  36.718  1.00  0.00    -0.079 N 
ATOM     44  H53 UNL     1      23.726  47.486  36.621  1.00  0.00     0.274 HD
ATOM     45  H52 UNL     1      24.757  47.013  37.681  1.00  0.00     0.274 HD
ATOM     46  H51 UNL     1      25.245  47.014  36.068  1.00  0.00     0.274 HD
ENDBRANCH  42  43
ENDBRANCH  41  42
ENDBRANCH  40  41
ENDBRANCH  39  40
ENDBRANCH  37  39
ENDBRANCH  15  35
TORSDOF 16
ENDMDL
MODEL 2
REMARK VINA RESULT: -6.958927805      0.874      1.006
REMARK  16 active torsions:
REMARK  status: ('A' for Active; 'I' for Inactive)
REMARK    1  A    between atoms: C2_2  and  C4_5 
REMARK    2  A    between atoms: C4_5  and  N1_6 
REMARK    3  A    between atoms: C4_5  and  C9_20 
REMARK    4  A    between atoms: N1_6  and  C5_8 
REMARK    5  A    between atoms: C5_8  and  C6_9 
REMARK    6  A    between atoms: C6_9  and  C7_10 
REMARK    7  A    between atoms: C7_10  and  C8_11 
REMARK    8  A    between atoms: C8_11  and  N2_12 
REMARK    9  A    between atoms: N2_12  and  S1_14 
REMARK   10  A    between atoms: S1_14  and  N3_15 
REMARK   11  A    between atoms: C23_34  and  C24_35 
REMARK       I    between atoms: C24_35  and  N4_37 
REMARK   12  A    between atoms: N4_37  and  C25_39 
REMARK   13  A    between atoms: C25_39  and  C26_40 
REMARK   14  A    between atoms: C26_40  and  C27_41 
REMARK   15  A    between atoms: C27_41  and  C28_42 
REMARK   16  A    between atoms: C28_42  and  N5_43 
ROOT
HETATM    1  C9  UNL     1      20.400  45.668  43.678  1.00  0.00     0.025 C 
HETATM    2  C10 UNL     1      19.691  46.920  43.876  1.00  0.00     0.008 C 
HETATM    3  C11 UNL     1      20.737  47.948  43.387  1.00  0.00     0.012 C 
HETATM    4  C12 UNL     1      21.945  47.435  44.138  1.00  0.00    -0.017 C 
HETATM    5  C13 UNL     1      21.644  47.606  45.644  1.00  0.00    -0.004 C 
HETATM    6  C14 UNL     1      22.884  47.299  46.483  1.00  0.00     0.010 C 
HETATM    7  C15 UNL     1      24.024  48.215  46.172  1.00  0.00    -0.013 C 
HETATM    8  C16 UNL     1      23.615  49.628  46.468  1.00  0.00     0.009 C 
HETATM    9  C17 UNL     1      22.374  49.920  45.637  1.00  0.00    -0.013 C 
HETATM   10  C18 UNL     1      21.238  49.000  45.999  1.00  0.00     0.010 C 
HETATM   11  C19 UNL     1      22.734  49.726  44.211  1.00  0.00     0.014 C 
HETATM   12  C20 UNL     1      23.119  48.265  43.875  1.00  0.00    -0.035 C 
HETATM   13  C21 UNL     1      23.590  48.391  42.445  1.00  0.00     0.016 C 
HETATM   14  C22 UNL     1      24.338  48.004  44.701  1.00  0.00     0.014 C 
HETATM   15  C23 UNL     1      21.901  46.009  43.843  1.00  0.00     0.093 C 
ENDROOT
BRANCH   1  16
HETATM   16  C4  UNL     1      20.031  44.435  44.440  1.00  0.00     0.120 C 
BRANCH  16  17
HETATM   17  C2  UNL     1      20.903  43.988  45.504  1.00  0.00     0.116 C 
HETATM   18  C1  UNL     1      20.238  43.918  46.873  1.00  0.00     0.053 C 
HETATM   19  C3  UNL     1      21.612  42.707  45.252  1.00  0.00     0.053 C 
HETATM   20  F1  UNL     1      21.997  44.867  45.730  1.00  0.00    -0.242 F 
ENDBRANCH  16  17
BRANCH  16  21
HETATM   21  N1  UNL     1      18.681  44.523  44.846  1.00  0.00    -0.413 N 
ATOM     22  H1  UNL     1      18.486  45.066  45.687  1.00  0.00     0.153 HD
BRANCH  21  23
HETATM   23  C5  UNL     1      17.601  43.943  44.213  1.00  0.00     0.114 C 
BRANCH  23  24
HETATM   24  C6  UNL     1      17.800  43.947  42.666  1.00  0.00     0.021 C 
BRANCH  24  25
HETATM   25  C7  UNL     1      17.211  45.153  42.027  1.00  0.00     0.022 C 
BRANCH  25  26
HETATM   26  C8  UNL     1      15.731  44.853  41.762  1.00  0.00     0.133 C 
BRANCH  26  27
HETATM   27  N2  UNL     1      14.960  46.058  42.064  1.00  0.00    -0.303 N 
ATOM     28  H2  UNL     1      14.880  46.456  43.000  1.00  0.00     0.173 HD
BRANCH  27  29
HETATM   29  S1  UNL     1      14.208  46.729  40.689  1.00  0.00     0.312 S 
HETATM   30  O1  UNL     1      14.974  46.354  39.448  1.00  0.00    -0.183 OA
HETATM   31  O2  UNL     1      12.776  46.284  40.592  1.00  0.00    -0.183 OA
BRANCH  29  32
HETATM   32  N3  UNL     1      14.252  48.445  40.802  1.00  0.00    -0.312 N 
ATOM     33  H32 UNL     1      14.534  48.964  41.633  1.00  0.00     0.170 HD
ATOM     34  H31 UNL     1      13.955  48.846  39.913  1.00  0.00     0.170 HD
ENDBRANCH  29  32
ENDBRANCH  27  29
ENDBRANCH  26  27
ENDBRANCH  25  26
ENDBRANCH  24  25
ENDBRANCH  23  24
ENDBRANCH  21  23
ENDBRANCH  16  21
ENDBRANCH   1  16
BRANCH  15  35
HETATM   35  C24 UNL     1      22.695  45.453  42.745  1.00  0.00     0.223 C 
HETATM   36  O3  UNL     1      23.667  44.712  43.065  1.00  0.00    -0.273 OA
HETATM   37  N4  UNL     1      22.508  45.643  41.373  1.00  0.00    -0.361 N 
ATOM     38  H4  UNL     1      21.739  46.230  41.051  1.00  0.00     0.162 HD
BRANCH  37  39
HETATM   39  C25 UNL     1      23.375  45.030  40.408  1.00  0.00     0.122 C 
BRANCH  39  40
HETATM   40  C26 UNL     1      23.619  45.862  39.190  1.00  0.00     0.021 C 
BRANCH  40  41
HETATM   41  C27 UNL     1      23.259  45.013  37.988  1.00  0.00     0.029 C 
BRANCH  41  42
HETATM   42  C28 UNL     1      24.020  45.441  36.753  1.00  0.00     0.229 C 
BRANCH  42  43
HETATM   43  N5  UNL     1      24.482  46.805  36.850  1.00  0.00    -0.079 N 
ATOM     44  H53 UNL     1      24.726  47.046  37.810  1.00  0.00     0.274 HD
ATOM     45  H52 UNL     1      25.400  46.918  36.418  1.00  0.00     0.274 HD
ATOM     46  H51 UNL     1      23.807  47.464  36.463  1.00  0.00     0.274 HD
ENDBRANCH  42  43
ENDBRANCH  41  42
ENDBRANCH  40  41
ENDBRANCH  39  40
ENDBRANCH  37  39
ENDBRANCH  15  35
TORSDOF 16
ENDMDL
MODEL 3
REMARK VINA RESULT: -6.885469234      1.310      1.448
REMARK  16 active torsions:
REMARK  status: ('A' for Active; 'I' for Inactive)
REMARK    1  A    between atoms: C2_2  and  C4_5 
REMARK    2  A    between atoms: C4_5  and  N1_6 
REMARK    3  A    between atoms: C4_5  and  C9_20 
REMARK    4  A    between atoms: N1_6  and  C5_8 
REMARK    5  A    between atoms: C5_8  and  C6_9 
REMARK    6  A    between atoms: C6_9  and  C7_10 
REMARK    7  A    between atoms: C7_10  and  C8_11 
REMARK    8  A    between atoms: C8_11  and  N2_12 
REMARK    9  A    between atoms: N2_12  and  S1_14 
REMARK   10  A    between atoms: S1_14  and  N3_15 
REMARK   11  A    between atoms: C23_34  and  C24_35 
REMARK       I    between atoms: C24_35  and  N4_37 
REMARK   12  A    between atoms: N4_37  and  C25_39 
REMARK   13  A    between atoms: C25_39  and  C26_40 
REMARK   14  A    between atoms: C26_40  and  C27_41 
REMARK   15  A    between atoms: C27_41  and  C28_42 
REMARK   16  A    between atoms: C28_42  and  N5_43 
ROOT
HETATM    1  C9  UNL     1      20.435  45.666  43.710  1.00  0.00     0.025 C 
HETATM    2  C10 UNL     1      19.713  46.910  43.910  1.00  0.00     0.008 C 
HETATM    3  C11 UNL     1      20.744  47.949  43.412  1.00  0.00     0.012 C 
HETATM    4  C12 UNL     1      21.962  47.452  44.158  1.00  0.00    -0.017 C 
HETATM    5  C13 UNL     1      21.667  47.623  45.664  1.00  0.00    -0.004 C 
HETATM    6  C14 UNL     1      22.915  47.332  46.498  1.00  0.00     0.010 C 
HETATM    7  C15 UNL     1      24.043  48.261  46.178  1.00  0.00    -0.013 C 
HETATM    8  C16 UNL     1      23.620  49.669  46.474  1.00  0.00     0.009 C 
HETATM    9  C17 UNL     1      22.371  49.945  45.649  1.00  0.00    -0.013 C 
HETATM   10  C18 UNL     1      21.247  49.013  46.019  1.00  0.00     0.010 C 
HETATM   11  C19 UNL     1      22.726  49.752  44.221  1.00  0.00     0.014 C 
HETATM   12  C20 UNL     1      23.125  48.295  43.886  1.00  0.00    -0.035 C 
HETATM   13  C21 UNL     1      23.587  48.422  42.453  1.00  0.00     0.016 C 
HETATM   14  C22 UNL     1      24.351  48.049  44.707  1.00  0.00     0.014 C 
HETATM   15  C23 UNL     1      21.933  46.024  43.866  1.00  0.00     0.093 C 
ENDROOT
BRANCH   1  16
HETATM   16  C4  UNL     1      20.085  44.430  44.477  1.00  0.00     0.120 C 
BRANCH  16  17
HETATM   17  C2  UNL     1      20.969  43.995  45.536  1.00  0.00     0.116 C 
HETATM   18  C1  UNL     1      20.323  43.955  46.916  1.00  0.00     0.053 C 
HETATM   19  C3  UNL     1      21.663  42.703  45.297  1.00  0.00     0.053 C 
HETATM   20  F1  UNL     1      22.072  44.868  45.731  1.00  0.00    -0.242 F 
ENDBRANCH  16  17
BRANCH  16  21
HETATM   21  N1  UNL     1      18.736  44.505  44.892  1.00  0.00    -0.413 N 
ATOM     22  H1  UNL     1      18.502  45.226  45.573  1.00  0.00     0.153 HD
BRANCH  21  23
HETATM   23  C5  UNL     1      17.707  43.693  44.463  1.00  0.00     0.114 C 
BRANCH  23  24
HETATM   24  C6  UNL     1      17.464  43.871  42.933  1.00  0.00     0.021 C 
BRANCH  24  25
HETATM   25  C7  UNL     1      16.971  45.233  42.598  1.00  0.00     0.022 C 
BRANCH  25  26
HETATM   26  C8  UNL     1      17.448  45.555  41.176  1.00  0.00     0.133 C 
BRANCH  26  27
HETATM   27  N2  UNL     1      17.232  44.373  40.343  1.00  0.00    -0.303 N 
ATOM     28  H2  UNL     1      17.951  43.673  40.161  1.00  0.00     0.173 HD
BRANCH  27  29
HETATM   29  S1  UNL     1      15.652  44.287  39.709  1.00  0.00     0.312 S 
HETATM   30  O1  UNL     1      15.239  45.631  39.169  1.00  0.00    -0.183 OA
HETATM   31  O2  UNL     1      15.560  43.229  38.646  1.00  0.00    -0.183 OA
BRANCH  29  32
HETATM   32  N3  UNL     1      14.555  43.902  40.977  1.00  0.00    -0.312 N 
ATOM     33  H32 UNL     1      13.568  44.157  40.986  1.00  0.00     0.170 HD
ATOM     34  H31 UNL     1      15.051  43.384  41.702  1.00  0.00     0.170 HD
ENDBRANCH  29  32
ENDBRANCH  27  29
ENDBRANCH  26  27
ENDBRANCH  25  26
ENDBRANCH  24  25
ENDBRANCH  23  24
ENDBRANCH  21  23
ENDBRANCH  16  21
ENDBRANCH   1  16
BRANCH  15  35
HETATM   35  C24 UNL     1      22.727  45.475  42.765  1.00  0.00     0.223 C 
HETATM   36  O3  UNL     1      23.718  44.758  43.082  1.00  0.00    -0.273 OA
HETATM   37  N4  UNL     1      22.522  45.647  41.394  1.00  0.00    -0.361 N 
ATOM     38  H4  UNL     1      21.737  46.214  41.074  1.00  0.00     0.162 HD
BRANCH  37  39
HETATM   39  C25 UNL     1      23.392  45.044  40.426  1.00  0.00     0.122 C 
BRANCH  39  40
HETATM   40  C26 UNL     1      23.622  45.878  39.206  1.00  0.00     0.021 C 
BRANCH  40  41
HETATM   41  C27 UNL     1      23.228  45.039  38.008  1.00  0.00     0.029 C 
BRANCH  41  42
HETATM   42  C28 UNL     1      24.053  45.384  36.788  1.00  0.00     0.229 C 
BRANCH  42  43
HETATM   43  N5  UNL     1      24.485  46.761  36.802  1.00  0.00    -0.079 N 
ATOM     44  H53 UNL     1      24.152  47.262  35.978  1.00  0.00     0.274 HD
ATOM     45  H52 UNL     1      23.998  47.296  37.522  1.00  0.00     0.274 HD
ATOM     46  H51 UNL     1      25.497  46.842  36.900  1.00  0.00     0.274 HD
ENDBRANCH  42  43
ENDBRANCH  41  42
ENDBRANCH  40  41
ENDBRANCH  39  40
ENDBRANCH  37  39
ENDBRANCH  15  35
TORSDOF 16
ENDMDL
MODEL 4
REMARK VINA RESULT: -5.726818601      2.506      3.161
REMARK  16 active torsions:
REMARK  status: ('A' for Active; 'I' for Inactive)
REMARK    1  A    between atoms: C2_2  and  C4_5 
REMARK    2  A    between atoms: C4_5  and  N1_6 
REMARK    3  A    between atoms: C4_5  and  C9_20 
REMARK    4  A    between atoms: N1_6  and  C5_8 
REMARK    5  A    between atoms: C5_8  and  C6_9 
REMARK    6  A    between atoms: C6_9  and  C7_10 
REMARK    7  A    between atoms: C7_10  and  C8_11 
REMARK    8  A    between atoms: C8_11  and  N2_12 
REMARK    9  A    between atoms: N2_12  and  S1_14 
REMARK   10  A    between atoms: S1_14  and  N3_15 
REMARK   11  A    between atoms: C23_34  and  C24_35 
REMARK       I    between atoms: C24_35  and  N4_37 
REMARK   12  A    between atoms: N4_37  and  C25_39 
REMARK   13  A    between atoms: C25_39  and  C26_40 
REMARK   14  A    between atoms: C26_40  and  C27_41 
REMARK   15  A    between atoms: C27_41  and  C28_42 
REMARK   16  A    between atoms: C28_42  and  N5_43 
ROOT
HETATM    1  C9  UNL     1      21.058  44.912  43.705  1.00  0.00     0.025 C 
HETATM    2  C10 UNL     1      20.433  46.006  42.984  1.00  0.00     0.008 C 
HETATM    3  C11 UNL     1      21.644  46.927  42.709  1.00  0.00     0.012 C 
HETATM    4  C12 UNL     1      22.244  46.951  44.096  1.00  0.00    -0.017 C 
HETATM    5  C13 UNL     1      21.212  47.634  45.021  1.00  0.00    -0.004 C 
HETATM    6  C14 UNL     1      21.807  47.885  46.407  1.00  0.00     0.010 C 
HETATM    7  C15 UNL     1      22.999  48.788  46.360  1.00  0.00    -0.013 C 
HETATM    8  C16 UNL     1      22.587  50.116  45.797  1.00  0.00     0.009 C 
HETATM    9  C17 UNL     1      21.985  49.855  44.424  1.00  0.00    -0.013 C 
HETATM   10  C18 UNL     1      20.771  48.969  44.512  1.00  0.00     0.010 C 
HETATM   11  C19 UNL     1      23.025  49.192  43.598  1.00  0.00     0.014 C 
HETATM   12  C20 UNL     1      23.433  47.801  44.139  1.00  0.00    -0.035 C 
HETATM   13  C21 UNL     1      24.590  47.444  43.234  1.00  0.00     0.016 C 
HETATM   14  C22 UNL     1      24.020  48.084  45.485  1.00  0.00     0.014 C 
HETATM   15  C23 UNL     1      22.269  45.535  44.439  1.00  0.00     0.093 C 
ENDROOT
BRANCH   1  16
HETATM   16  C4  UNL     1      20.267  44.022  44.611  1.00  0.00     0.120 C 
BRANCH  16  17
HETATM   17  C2  UNL     1      20.828  43.659  45.894  1.00  0.00     0.116 C 
HETATM   18  C1  UNL     1      19.797  43.478  47.001  1.00  0.00     0.053 C 
HETATM   19  C3  UNL     1      21.731  42.479  45.885  1.00  0.00     0.053 C 
HETATM   20  F1  UNL     1      21.688  44.658  46.425  1.00  0.00    -0.242 F 
ENDBRANCH  16  17
BRANCH  16  21
HETATM   21  N1  UNL     1      18.948  44.518  44.716  1.00  0.00    -0.413 N 
ATOM     22  H1  UNL     1      18.820  45.382  45.243  1.00  0.00     0.153 HD
BRANCH  21  23
HETATM   23  C5  UNL     1      17.817  43.943  44.175  1.00  0.00     0.114 C 
BRANCH  23  24
HETATM   24  C6  UNL     1      17.190  44.873  43.091  1.00  0.00     0.021 C 
BRANCH  24  25
HETATM   25  C7  UNL     1      17.199  44.247  41.743  1.00  0.00     0.022 C 
BRANCH  25  26
HETATM   26  C8  UNL     1      17.131  45.381  40.712  1.00  0.00     0.133 C 
BRANCH  26  27
HETATM   27  N2  UNL     1      16.430  46.510  41.320  1.00  0.00    -0.303 N 
ATOM     28  H2  UNL     1      16.864  47.152  41.983  1.00  0.00     0.173 HD
BRANCH  27  29
HETATM   29  S1  UNL     1      14.811  46.643  40.804  1.00  0.00     0.312 S 
HETATM   30  O1  UNL     1      14.274  48.011  41.136  1.00  0.00    -0.183 OA
HETATM   31  O2  UNL     1      14.693  46.360  39.333  1.00  0.00    -0.183 OA
BRANCH  29  32
HETATM   32  N3  UNL     1      13.848  45.509  41.669  1.00  0.00    -0.312 N 
ATOM     33  H32 UNL     1      12.921  45.705  42.047  1.00  0.00     0.170 HD
ATOM     34  H31 UNL     1      14.353  44.625  41.737  1.00  0.00     0.170 HD
ENDBRANCH  29  32
ENDBRANCH  27  29
ENDBRANCH  26  27
ENDBRANCH  25  26
ENDBRANCH  24  25
ENDBRANCH  23  24
ENDBRANCH  21  23
ENDBRANCH  16  21
ENDBRANCH   1  16
BRANCH  15  35
HETATM   35  C24 UNL     1      23.482  44.742  44.231  1.00  0.00     0.223 C 
HETATM   36  O3  UNL     1      23.629  44.217  43.091  1.00  0.00    -0.273 OA
HETATM   37  N4  UNL     1      24.508  44.491  45.146  1.00  0.00    -0.361 N 
ATOM     38  H4  UNL     1      24.448  44.889  46.084  1.00  0.00     0.162 HD
BRANCH  37  39
HETATM   39  C25 UNL     1      25.643  43.686  44.797  1.00  0.00     0.122 C 
BRANCH  39  40
HETATM   40  C26 UNL     1      26.962  44.335  45.073  1.00  0.00     0.021 C 
BRANCH  40  41
HETATM   41  C27 UNL     1      26.836  45.791  44.676  1.00  0.00     0.029 C 
BRANCH  41  42
HETATM   42  C28 UNL     1      28.190  46.437  44.482  1.00  0.00     0.229 C 
BRANCH  42  43
HETATM   43  N5  UNL     1      28.614  47.163  45.656  1.00  0.00    -0.079 N 
ATOM     44  H53 UNL     1      29.053  46.543  46.336  1.00  0.00     0.274 HD
ATOM     45  H52 UNL     1      29.411  47.767  45.451  1.00  0.00     0.274 HD
ATOM     46  H51 UNL     1      27.848  47.690  46.075  1.00  0.00     0.274 HD
ENDBRANCH  42  43
ENDBRANCH  41  42
ENDBRANCH  40  41
ENDBRANCH  39  40
ENDBRANCH  37  39
ENDBRANCH  15  35
TORSDOF 16
ENDMDL
MODEL 5
REMARK VINA RESULT: -5.637020083      2.539      4.705
REMARK  16 active torsions:
REMARK  status: ('A' for Active; 'I' for Inactive)
REMARK    1  A    between atoms: C2_2  and  C4_5 
REMARK    2  A    between atoms: C4_5  and  N1_6 
REMARK    3  A    between atoms: C4_5  and  C9_20 
REMARK    4  A    between atoms: N1_6  and  C5_8 
REMARK    5  A    between atoms: C5_8  and  C6_9 
REMARK    6  A    between atoms: C6_9  and  C7_10 
REMARK    7  A    between atoms: C7_10  and  C8_11 
REMARK    8  A    between atoms: C8_11  and  N2_12 
REMARK    9  A    between atoms: N2_12  and  S1_14 
REMARK   10  A    between atoms: S1_14  and  N3_15 
REMARK   11  A    between atoms: C23_34  and  C24_35 
REMARK       I    between atoms: C24_35  and  N4_37 
REMARK   12  A    between atoms: N4_37  and  C25_39 
REMARK   13  A    between atoms: C25_39  and  C26_40 
REMARK   14  A    between atoms: C26_40  and  C27_41 
REMARK   15  A    between atoms: C27_41  and  C28_42 
REMARK   16  A    between atoms: C28_42  and  N5_43 
ROOT
HETATM    1  C9  UNL     1      19.872  44.928  44.497  1.00  0.00     0.025 C 
HETATM    2  C10 UNL     1      20.840  43.978  45.016  1.00  0.00     0.008 C 
HETATM    3  C11 UNL     1      21.888  44.921  45.650  1.00  0.00     0.012 C 
HETATM    4  C12 UNL     1      22.061  45.891  44.504  1.00  0.00    -0.017 C 
HETATM    5  C13 UNL     1      22.658  45.091  43.324  1.00  0.00    -0.004 C 
HETATM    6  C14 UNL     1      23.055  46.025  42.180  1.00  0.00     0.010 C 
HETATM    7  C15 UNL     1      24.096  47.019  42.590  1.00  0.00    -0.013 C 
HETATM    8  C16 UNL     1      25.330  46.286  43.025  1.00  0.00     0.009 C 
HETATM    9  C17 UNL     1      24.923  45.351  44.155  1.00  0.00    -0.013 C 
HETATM   10  C18 UNL     1      23.899  44.346  43.699  1.00  0.00     0.010 C 
HETATM   11  C19 UNL     1      24.352  46.184  45.241  1.00  0.00     0.014 C 
HETATM   12  C20 UNL     1      23.053  46.916  44.826  1.00  0.00    -0.035 C 
HETATM   13  C21 UNL     1      22.795  47.795  46.027  1.00  0.00     0.016 C 
HETATM   14  C22 UNL     1      23.479  47.826  43.718  1.00  0.00     0.014 C 
HETATM   15  C23 UNL     1      20.680  46.206  44.163  1.00  0.00     0.093 C 
ENDROOT
BRANCH   1  16
HETATM   16  C4  UNL     1      18.941  44.562  43.385  1.00  0.00     0.120 C 
BRANCH  16  17
HETATM   17  C2  UNL     1      17.566  44.244  43.705  1.00  0.00     0.116 C 
HETATM   18  C1  UNL     1      16.783  43.621  42.556  1.00  0.00     0.053 C 
HETATM   19  C3  UNL     1      17.369  43.415  44.922  1.00  0.00     0.053 C 
HETATM   20  F1  UNL     1      16.793  45.392  44.027  1.00  0.00    -0.242 F 
ENDBRANCH  16  17
BRANCH  16  21
HETATM   21  N1  UNL     1      19.050  45.518  42.351  1.00  0.00    -0.413 N 
ATOM     22  H1  UNL     1      19.990  45.747  42.031  1.00  0.00     0.153 HD
BRANCH  21  23
HETATM   23  C5  UNL     1      18.004  46.172  41.732  1.00  0.00     0.114 C 
BRANCH  23  24
HETATM   24  C6  UNL     1      17.632  45.471  40.390  1.00  0.00     0.021 C 
BRANCH  24  25
HETATM   25  C7  UNL     1      16.278  45.856  39.912  1.00  0.00     0.022 C 
BRANCH  25  26
HETATM   26  C8  UNL     1      15.853  47.103  40.697  1.00  0.00     0.133 C 
BRANCH  26  27
HETATM   27  N2  UNL     1      15.116  47.984  39.792  1.00  0.00    -0.303 N 
ATOM     28  H2  UNL     1      15.566  48.621  39.136  1.00  0.00     0.173 HD
BRANCH  27  29
HETATM   29  S1  UNL     1      13.425  47.832  39.948  1.00  0.00     0.312 S 
HETATM   30  O1  UNL     1      12.870  49.009  40.708  1.00  0.00    -0.183 OA
HETATM   31  O2  UNL     1      12.773  47.704  38.601  1.00  0.00    -0.183 OA
BRANCH  29  32
HETATM   32  N3  UNL     1      13.068  46.428  40.877  1.00  0.00    -0.312 N 
ATOM     33  H32 UNL     1      13.704  45.643  41.007  1.00  0.00     0.170 HD
ATOM     34  H31 UNL     1      12.129  46.515  41.266  1.00  0.00     0.170 HD
ENDBRANCH  29  32
ENDBRANCH  27  29
ENDBRANCH  26  27
ENDBRANCH  25  26
ENDBRANCH  24  25
ENDBRANCH  23  24
ENDBRANCH  21  23
ENDBRANCH  16  21
ENDBRANCH   1  16
BRANCH  15  35
HETATM   35  C24 UNL     1      20.033  47.400  44.710  1.00  0.00     0.223 C 
HETATM   36  O3  UNL     1      19.279  47.231  45.709  1.00  0.00    -0.273 OA
HETATM   37  N4  UNL     1      20.148  48.718  44.258  1.00  0.00    -0.361 N 
ATOM     38  H4  UNL     1      20.745  48.919  43.455  1.00  0.00     0.162 HD
BRANCH  37  39
HETATM   39  C25 UNL     1      19.447  49.793  44.899  1.00  0.00     0.122 C 
BRANCH  39  40
HETATM   40  C26 UNL     1      20.230  51.063  44.993  1.00  0.00     0.021 C 
BRANCH  40  41
HETATM   41  C27 UNL     1      21.651  50.746  44.577  1.00  0.00     0.029 C 
BRANCH  41  42
HETATM   42  C28 UNL     1      22.661  51.382  45.506  1.00  0.00     0.229 C 
BRANCH  42  43
HETATM   43  N5  UNL     1      22.321  52.750  45.816  1.00  0.00    -0.079 N 
ATOM     44  H53 UNL     1      22.545  53.372  45.041  1.00  0.00     0.274 HD
ATOM     45  H52 UNL     1      21.309  52.884  45.842  1.00  0.00     0.274 HD
ATOM     46  H51 UNL     1      22.758  53.064  46.683  1.00  0.00     0.274 HD
ENDBRANCH  42  43
ENDBRANCH  41  42
ENDBRANCH  40  41
ENDBRANCH  39  40
ENDBRANCH  37  39
ENDBRANCH  15  35
TORSDOF 16
ENDMDL
