MODEL 1
REMARK VINA RESULT: -9.590805300      0.000      0.000
REMARK  15 active torsions:
REMARK  status: ('A' for Active; 'I' for Inactive)
REMARK    1  A    between atoms: C2_2  and  C3_3 
REMARK    2  A    between atoms: N2_7  and  C5_8 
REMARK    3  A    between atoms: C5_8  and  C6_9 
REMARK    4  A    between atoms: C10_14  and  C11_15 
REMARK    5  A    between atoms: C11_15  and  C12_16 
REMARK    6  A    between atoms: C12_16  and  C14_19 
REMARK    7  A    between atoms: C14_19  and  N4_20 
REMARK    8  A    between atoms: N4_20  and  C15_23 
REMARK    9  A    between atoms: C15_23  and  C16_24 
REMARK   10  A    between atoms: C15_23  and  C23_33 
REMARK   11  A    between atoms: C16_24  and  C17_25 
REMARK   12  A    between atoms: C20_28  and  O1_29 
REMARK   13  A    between atoms: C23_33  and  O2_34 
REMARK   14  A    between atoms: C23_33  and  C24_36 
REMARK   15  A    between atoms: C24_36  and  C25_37 
ROOT
HETATM    1  C12 UNL     1      20.453  45.889  45.630  1.00  0.00     0.122 C 
HETATM    2  C13 UNL     1      21.191  44.606  45.773  1.00  0.00     0.066 C 
HETATM    3  N3  UNL     1      21.751  43.591  45.893  1.00  0.00    -0.197 NA
ENDROOT
BRANCH   1   4
HETATM    4  C11 UNL     1      20.213  46.204  44.176  1.00  0.00     0.059 C 
BRANCH   4   5
HETATM    5  C10 UNL     1      19.049  45.459  43.646  1.00  0.00    -0.053 A 
HETATM    6  C9  UNL     1      18.432  44.505  44.420  1.00  0.00     0.049 A 
HETATM    7  C8  UNL     1      17.348  43.782  43.917  1.00  0.00     0.117 A 
HETATM    8  C7  UNL     1      16.892  44.030  42.624  1.00  0.00     0.051 A 
HETATM    9  F1  UNL     1      16.703  42.836  44.634  1.00  0.00    -0.206 F 
HETATM   10  C6  UNL     1      17.499  44.979  41.841  1.00  0.00    -0.035 A 
HETATM   11  C29 UNL     1      18.575  45.679  42.377  1.00  0.00     0.016 A 
BRANCH  10  12
HETATM   12  C5  UNL     1      17.106  45.328  40.454  1.00  0.00     0.187 C 
BRANCH  12  13
HETATM   13  N2  UNL     1      16.185  46.410  40.334  1.00  0.00    -0.292 N 
HETATM   14  N1  UNL     1      16.503  47.662  40.118  1.00  0.00    -0.309 N 
HETATM   15  C4  UNL     1      15.413  48.428  40.074  1.00  0.00     0.116 A 
ATOM     16  H1  UNL     1      17.457  48.005  39.999  1.00  0.00     0.186 HD
HETATM   17  C3  UNL     1      14.333  47.592  40.276  1.00  0.00    -0.018 A 
HETATM   18  C30 UNL     1      14.856  46.336  40.437  1.00  0.00     0.032 A 
HETATM   19  C31 UNL     1      14.031  45.095  40.669  1.00  0.00     0.070 C 
BRANCH  17  20
HETATM   20  C2  UNL     1      12.890  47.944  40.319  1.00  0.00     0.037 C 
HETATM   21  C1  UNL     1      12.307  47.947  38.930  1.00  0.00     0.010 C 
ENDBRANCH  17  20
ENDBRANCH  12  13
ENDBRANCH  10  12
ENDBRANCH   4   5
ENDBRANCH   1   4
BRANCH   1  22
HETATM   22  C14 UNL     1      21.387  46.929  46.205  1.00  0.00     0.252 C 
BRANCH  22  23
HETATM   23  N4  UNL     1      21.449  48.042  45.320  1.00  0.00    -0.067 N 
ATOM     24  H42 UNL     1      21.393  47.729  44.351  1.00  0.00     0.277 HD
ATOM     25  H41 UNL     1      20.591  48.590  45.378  1.00  0.00     0.277 HD
BRANCH  23  26
HETATM   26  C15 UNL     1      22.615  48.901  45.510  1.00  0.00     0.218 C 
BRANCH  26  27
HETATM   27  C16 UNL     1      23.484  48.426  46.605  1.00  0.00     0.074 C 
BRANCH  27  28
HETATM   28  C17 UNL     1      23.526  49.214  47.847  1.00  0.00    -0.056 A 
HETATM   29  C18 UNL     1      23.820  48.626  49.083  1.00  0.00     0.010 A 
HETATM   30  C19 UNL     1      23.855  49.333  50.252  1.00  0.00     0.037 A 
HETATM   31  C20 UNL     1      23.593  50.676  50.245  1.00  0.00     0.065 A 
HETATM   32  C21 UNL     1      23.297  51.291  49.027  1.00  0.00     0.037 A 
HETATM   33  C22 UNL     1      23.266  50.579  47.867  1.00  0.00     0.010 A 
BRANCH  31  34
HETATM   34  O1  UNL     1      23.618  51.426  51.416  1.00  0.00    -0.361 OA
ATOM     35  H1  UNL     1      23.213  51.111  52.215  1.00  0.00     0.217 HD
ENDBRANCH  31  34
ENDBRANCH  27  28
ENDBRANCH  26  27
BRANCH  26  36
HETATM   36  C23 UNL     1      23.222  49.077  44.154  1.00  0.00     0.149 C 
BRANCH  36  37
HETATM   37  O2  UNL     1      24.527  49.474  44.112  1.00  0.00    -0.393 OA
ATOM     38  H2  UNL     1      24.892  49.655  43.253  1.00  0.00     0.210 HD
ENDBRANCH  36  37
BRANCH  36  39
HETATM   39  C24 UNL     1      22.871  47.963  43.185  1.00  0.00     0.048 C 
BRANCH  39  40
HETATM   40  C25 UNL     1      24.117  47.296  42.636  1.00  0.00     0.082 C 
HETATM   41  C26 UNL     1      23.612  46.192  41.688  1.00  0.00     0.034 C 
HETATM   42  C27 UNL     1      22.945  45.218  42.663  1.00  0.00     0.123 C 
HETATM   43  N5  UNL     1      23.755  45.367  43.869  1.00  0.00    -0.361 N 
HETATM   44  C28 UNL     1      24.719  46.420  43.691  1.00  0.00     0.222 C 
ATOM     45  H5  UNL     1      23.653  44.806  44.714  1.00  0.00     0.162 HD
HETATM   46  O3  UNL     1      25.779  46.492  44.319  1.00  0.00    -0.273 OA
ENDBRANCH  39  40
ENDBRANCH  36  39
ENDBRANCH  26  36
ENDBRANCH  23  26
ENDBRANCH  22  23
ENDBRANCH   1  22
TORSDOF 15
ENDMDL
MODEL 2
REMARK VINA RESULT: -9.441347304      2.355      4.553
REMARK  15 active torsions:
REMARK  status: ('A' for Active; 'I' for Inactive)
REMARK    1  A    between atoms: C2_2  and  C3_3 
REMARK    2  A    between atoms: N2_7  and  C5_8 
REMARK    3  A    between atoms: C5_8  and  C6_9 
REMARK    4  A    between atoms: C10_14  and  C11_15 
REMARK    5  A    between atoms: C11_15  and  C12_16 
REMARK    6  A    between atoms: C12_16  and  C14_19 
REMARK    7  A    between atoms: C14_19  and  N4_20 
REMARK    8  A    between atoms: N4_20  and  C15_23 
REMARK    9  A    between atoms: C15_23  and  C16_24 
REMARK   10  A    between atoms: C15_23  and  C23_33 
REMARK   11  A    between atoms: C16_24  and  C17_25 
REMARK   12  A    between atoms: C20_28  and  O1_29 
REMARK   13  A    between atoms: C23_33  and  O2_34 
REMARK   14  A    between atoms: C23_33  and  C24_36 
REMARK   15  A    between atoms: C24_36  and  C25_37 
ROOT
HETATM    1  C12 UNL     1      22.890  46.079  43.299  1.00  0.00     0.122 C 
HETATM    2  C13 UNL     1      23.314  45.789  41.905  1.00  0.00     0.066 C 
HETATM    3  N3  UNL     1      23.646  45.540  40.816  1.00  0.00    -0.197 NA
ENDROOT
BRANCH   1   4
HETATM    4  C11 UNL     1      21.494  46.649  43.322  1.00  0.00     0.059 C 
BRANCH   4   5
HETATM    5  C10 UNL     1      20.513  45.657  43.817  1.00  0.00    -0.053 A 
HETATM    6  C9  UNL     1      20.715  45.032  45.026  1.00  0.00     0.049 A 
HETATM    7  C8  UNL     1      19.806  44.078  45.487  1.00  0.00     0.117 A 
HETATM    8  C7  UNL     1      18.690  43.758  44.717  1.00  0.00     0.051 A 
HETATM    9  F1  UNL     1      19.953  43.437  46.666  1.00  0.00    -0.206 F 
HETATM   10  C6  UNL     1      18.477  44.373  43.509  1.00  0.00    -0.035 A 
HETATM   11  C29 UNL     1      19.404  45.318  43.084  1.00  0.00     0.016 A 
BRANCH  10  12
HETATM   12  C5  UNL     1      17.331  44.114  42.603  1.00  0.00     0.187 C 
BRANCH  12  13
HETATM   13  N2  UNL     1      16.910  45.226  41.817  1.00  0.00    -0.292 N 
HETATM   14  N1  UNL     1      17.631  46.285  41.545  1.00  0.00    -0.309 N 
HETATM   15  C4  UNL     1      16.943  47.150  40.800  1.00  0.00     0.116 A 
ATOM     16  H1  UNL     1      18.591  46.428  41.860  1.00  0.00     0.186 HD
HETATM   17  C3  UNL     1      15.698  46.589  40.589  1.00  0.00    -0.018 A 
HETATM   18  C30 UNL     1      15.715  45.385  41.243  1.00  0.00     0.032 A 
HETATM   19  C31 UNL     1      14.559  44.416  41.269  1.00  0.00     0.070 C 
BRANCH  17  20
HETATM   20  C2  UNL     1      14.554  47.146  39.822  1.00  0.00     0.037 C 
HETATM   21  C1  UNL     1      13.929  48.294  40.568  1.00  0.00     0.010 C 
ENDBRANCH  17  20
ENDBRANCH  12  13
ENDBRANCH  10  12
ENDBRANCH   4   5
ENDBRANCH   1   4
BRANCH   1  22
HETATM   22  C14 UNL     1      23.855  47.140  43.777  1.00  0.00     0.252 C 
BRANCH  22  23
HETATM   23  N4  UNL     1      23.941  47.090  45.196  1.00  0.00    -0.067 N 
ATOM     24  H42 UNL     1      23.161  46.558  45.581  1.00  0.00     0.277 HD
ATOM     25  H41 UNL     1      24.718  46.495  45.484  1.00  0.00     0.277 HD
BRANCH  23  26
HETATM   26  C15 UNL     1      24.034  48.396  45.843  1.00  0.00     0.218 C 
BRANCH  26  27
HETATM   27  C16 UNL     1      23.954  49.505  44.872  1.00  0.00     0.074 C 
BRANCH  27  28
HETATM   28  C17 UNL     1      22.892  50.508  45.051  1.00  0.00    -0.056 A 
HETATM   29  C18 UNL     1      23.115  51.701  45.748  1.00  0.00     0.010 A 
HETATM   30  C19 UNL     1      22.143  52.643  45.938  1.00  0.00     0.037 A 
HETATM   31  C20 UNL     1      20.887  52.438  45.434  1.00  0.00     0.065 A 
HETATM   32  C21 UNL     1      20.635  51.257  44.733  1.00  0.00     0.037 A 
HETATM   33  C22 UNL     1      21.609  50.324  44.549  1.00  0.00     0.010 A 
BRANCH  31  34
HETATM   34  O1  UNL     1      19.874  53.374  45.609  1.00  0.00    -0.361 OA
ATOM     35  H1  UNL     1      19.115  53.395  45.038  1.00  0.00     0.217 HD
ENDBRANCH  31  34
ENDBRANCH  27  28
ENDBRANCH  26  27
BRANCH  26  36
HETATM   36  C23 UNL     1      23.046  48.371  46.966  1.00  0.00     0.149 C 
BRANCH  36  37
HETATM   37  O2  UNL     1      22.205  47.298  47.020  1.00  0.00    -0.393 OA
ATOM     38  H2  UNL     1      21.345  47.446  47.396  1.00  0.00     0.210 HD
ENDBRANCH  36  37
BRANCH  36  39
HETATM   39  C24 UNL     1      23.638  48.775  48.303  1.00  0.00     0.048 C 
BRANCH  39  40
HETATM   40  C25 UNL     1      22.617  49.491  49.165  1.00  0.00     0.082 C 
HETATM   41  C26 UNL     1      23.137  50.934  49.311  1.00  0.00     0.034 C 
HETATM   42  C27 UNL     1      24.404  50.731  50.148  1.00  0.00     0.123 C 
HETATM   43  N5  UNL     1      24.058  49.581  50.979  1.00  0.00    -0.361 N 
HETATM   44  C28 UNL     1      22.776  49.056  50.589  1.00  0.00     0.222 C 
ATOM     45  H5  UNL     1      24.640  49.205  51.728  1.00  0.00     0.162 HD
HETATM   46  O3  UNL     1      22.046  48.405  51.342  1.00  0.00    -0.273 OA
ENDBRANCH  39  40
ENDBRANCH  36  39
ENDBRANCH  26  36
ENDBRANCH  23  26
ENDBRANCH  22  23
ENDBRANCH   1  22
TORSDOF 15
ENDMDL
MODEL 3
REMARK VINA RESULT: -9.025891320      1.631      2.662
REMARK  15 active torsions:
REMARK  status: ('A' for Active; 'I' for Inactive)
REMARK    1  A    between atoms: C2_2  and  C3_3 
REMARK    2  A    between atoms: N2_7  and  C5_8 
REMARK    3  A    between atoms: C5_8  and  C6_9 
REMARK    4  A    between atoms: C10_14  and  C11_15 
REMARK    5  A    between atoms: C11_15  and  C12_16 
REMARK    6  A    between atoms: C12_16  and  C14_19 
REMARK    7  A    between atoms: C14_19  and  N4_20 
REMARK    8  A    between atoms: N4_20  and  C15_23 
REMARK    9  A    between atoms: C15_23  and  C16_24 
REMARK   10  A    between atoms: C15_23  and  C23_33 
REMARK   11  A    between atoms: C16_24  and  C17_25 
REMARK   12  A    between atoms: C20_28  and  O1_29 
REMARK   13  A    between atoms: C23_33  and  O2_34 
REMARK   14  A    between atoms: C23_33  and  C24_36 
REMARK   15  A    between atoms: C24_36  and  C25_37 
ROOT
HETATM    1  C12 UNL     1      20.500  48.907  44.079  1.00  0.00     0.122 C 
HETATM    2  C13 UNL     1      20.739  50.282  44.587  1.00  0.00     0.066 C 
HETATM    3  N3  UNL     1      20.909  51.369  44.975  1.00  0.00    -0.197 NA
ENDROOT
BRANCH   1   4
HETATM    4  C11 UNL     1      19.919  48.033  45.161  1.00  0.00     0.059 C 
BRANCH   4   5
HETATM    5  C10 UNL     1      19.470  46.730  44.620  1.00  0.00    -0.053 A 
HETATM    6  C9  UNL     1      19.637  45.583  45.360  1.00  0.00     0.049 A 
HETATM    7  C8  UNL     1      19.237  44.348  44.846  1.00  0.00     0.117 A 
HETATM    8  C7  UNL     1      18.667  44.280  43.576  1.00  0.00     0.051 A 
HETATM    9  F1  UNL     1      19.374  43.191  45.529  1.00  0.00    -0.206 F 
HETATM   10  C6  UNL     1      18.495  45.417  42.828  1.00  0.00    -0.035 A 
HETATM   11  C29 UNL     1      18.905  46.628  43.374  1.00  0.00     0.016 A 
BRANCH  10  12
HETATM   12  C5  UNL     1      17.904  45.468  41.468  1.00  0.00     0.187 C 
BRANCH  12  13
HETATM   13  N2  UNL     1      16.508  45.752  41.419  1.00  0.00    -0.292 N 
HETATM   14  N1  UNL     1      15.554  44.969  41.857  1.00  0.00    -0.309 N 
HETATM   15  C4  UNL     1      14.357  45.517  41.650  1.00  0.00     0.116 A 
ATOM     16  H1  UNL     1      15.707  44.061  42.297  1.00  0.00     0.186 HD
HETATM   17  C3  UNL     1      14.579  46.736  41.038  1.00  0.00    -0.018 A 
HETATM   18  C30 UNL     1      15.939  46.847  40.909  1.00  0.00     0.032 A 
HETATM   19  C31 UNL     1      16.640  48.037  40.303  1.00  0.00     0.070 C 
BRANCH  17  20
HETATM   20  C2  UNL     1      13.579  47.742  40.597  1.00  0.00     0.037 C 
HETATM   21  C1  UNL     1      13.321  47.613  39.119  1.00  0.00     0.010 C 
ENDBRANCH  17  20
ENDBRANCH  12  13
ENDBRANCH  10  12
ENDBRANCH   4   5
ENDBRANCH   1   4
BRANCH   1  22
HETATM   22  C14 UNL     1      21.876  48.390  43.724  1.00  0.00     0.252 C 
BRANCH  22  23
HETATM   23  N4  UNL     1      22.856  49.160  44.410  1.00  0.00    -0.067 N 
ATOM     24  H42 UNL     1      23.425  49.685  43.746  1.00  0.00     0.277 HD
ATOM     25  H41 UNL     1      22.415  49.931  44.911  1.00  0.00     0.277 HD
BRANCH  23  26
HETATM   26  C15 UNL     1      23.709  48.390  45.312  1.00  0.00     0.218 C 
BRANCH  26  27
HETATM   27  C16 UNL     1      23.041  48.099  46.596  1.00  0.00     0.074 C 
BRANCH  27  28
HETATM   28  C17 UNL     1      23.295  49.003  47.729  1.00  0.00    -0.056 A 
HETATM   29  C18 UNL     1      23.534  48.518  49.019  1.00  0.00     0.010 A 
HETATM   30  C19 UNL     1      23.762  49.336  50.090  1.00  0.00     0.037 A 
HETATM   31  C20 UNL     1      23.761  50.695  49.923  1.00  0.00     0.065 A 
HETATM   32  C21 UNL     1      23.525  51.209  48.646  1.00  0.00     0.037 A 
HETATM   33  C22 UNL     1      23.301  50.386  47.585  1.00  0.00     0.010 A 
BRANCH  31  34
HETATM   34  O1  UNL     1      23.988  51.557  50.989  1.00  0.00    -0.361 OA
ATOM     35  H1  UNL     1      24.867  51.821  51.235  1.00  0.00     0.217 HD
ENDBRANCH  31  34
ENDBRANCH  27  28
ENDBRANCH  26  27
BRANCH  26  36
HETATM   36  C23 UNL     1      24.223  47.237  44.508  1.00  0.00     0.149 C 
BRANCH  36  37
HETATM   37  O2  UNL     1      25.436  47.402  43.904  1.00  0.00    -0.393 OA
ATOM     38  H2  UNL     1      25.429  47.552  42.966  1.00  0.00     0.210 HD
ENDBRANCH  36  37
BRANCH  36  39
HETATM   39  C24 UNL     1      24.036  45.894  45.189  1.00  0.00     0.048 C 
BRANCH  39  40
HETATM   40  C25 UNL     1      22.756  45.220  44.735  1.00  0.00     0.082 C 
HETATM   41  C26 UNL     1      22.911  43.736  45.121  1.00  0.00     0.034 C 
HETATM   42  C27 UNL     1      24.040  43.283  44.190  1.00  0.00     0.123 C 
HETATM   43  N5  UNL     1      23.831  44.110  43.006  1.00  0.00    -0.361 N 
HETATM   44  C28 UNL     1      22.778  45.062  43.246  1.00  0.00     0.222 C 
ATOM     45  H5  UNL     1      24.355  44.027  42.135  1.00  0.00     0.162 HD
HETATM   46  O3  UNL     1      22.101  45.574  42.350  1.00  0.00    -0.273 OA
ENDBRANCH  39  40
ENDBRANCH  36  39
ENDBRANCH  26  36
ENDBRANCH  23  26
ENDBRANCH  22  23
ENDBRANCH   1  22
TORSDOF 15
ENDMDL
MODEL 4
REMARK VINA RESULT: -8.980826178      1.570      2.137
REMARK  15 active torsions:
REMARK  status: ('A' for Active; 'I' for Inactive)
REMARK    1  A    between atoms: C2_2  and  C3_3 
REMARK    2  A    between atoms: N2_7  and  C5_8 
REMARK    3  A    between atoms: C5_8  and  C6_9 
REMARK    4  A    between atoms: C10_14  and  C11_15 
REMARK    5  A    between atoms: C11_15  and  C12_16 
REMARK    6  A    between atoms: C12_16  and  C14_19 
REMARK    7  A    between atoms: C14_19  and  N4_20 
REMARK    8  A    between atoms: N4_20  and  C15_23 
REMARK    9  A    between atoms: C15_23  and  C16_24 
REMARK   10  A    between atoms: C15_23  and  C23_33 
REMARK   11  A    between atoms: C16_24  and  C17_25 
REMARK   12  A    between atoms: C20_28  and  O1_29 
REMARK   13  A    between atoms: C23_33  and  O2_34 
REMARK   14  A    between atoms: C23_33  and  C24_36 
REMARK   15  A    between atoms: C24_36  and  C25_37 
ROOT
HETATM    1  C12 UNL     1      20.571  48.248  43.775  1.00  0.00     0.122 C 
HETATM    2  C13 UNL     1      19.714  48.160  44.986  1.00  0.00     0.066 C 
HETATM    3  N3  UNL     1      19.024  48.093  45.923  1.00  0.00    -0.197 NA
ENDROOT
BRANCH   1   4
HETATM    4  C11 UNL     1      21.216  46.917  43.483  1.00  0.00     0.059 C 
BRANCH   4   5
HETATM    5  C10 UNL     1      20.344  45.793  43.893  1.00  0.00    -0.053 A 
HETATM    6  C9  UNL     1      20.666  45.039  44.997  1.00  0.00     0.049 A 
HETATM    7  C8  UNL     1      19.861  43.963  45.374  1.00  0.00     0.117 A 
HETATM    8  C7  UNL     1      18.727  43.652  44.627  1.00  0.00     0.051 A 
HETATM    9  F1  UNL     1      20.128  43.191  46.450  1.00  0.00    -0.206 F 
HETATM   10  C6  UNL     1      18.394  44.396  43.523  1.00  0.00    -0.035 A 
HETATM   11  C29 UNL     1      19.220  45.461  43.179  1.00  0.00     0.016 A 
BRANCH  10  12
HETATM   12  C5  UNL     1      17.217  44.161  42.651  1.00  0.00     0.187 C 
BRANCH  12  13
HETATM   13  N2  UNL     1      16.829  45.265  41.838  1.00  0.00    -0.292 N 
HETATM   14  N1  UNL     1      17.573  46.307  41.560  1.00  0.00    -0.309 N 
HETATM   15  C4  UNL     1      16.913  47.169  40.788  1.00  0.00     0.116 A 
ATOM     16  H1  UNL     1      18.529  46.441  41.891  1.00  0.00     0.186 HD
HETATM   17  C3  UNL     1      15.663  46.626  40.564  1.00  0.00    -0.018 A 
HETATM   18  C30 UNL     1      15.648  45.433  41.239  1.00  0.00     0.032 A 
HETATM   19  C31 UNL     1      14.476  44.484  41.261  1.00  0.00     0.070 C 
BRANCH  17  20
HETATM   20  C2  UNL     1      14.543  47.186  39.765  1.00  0.00     0.037 C 
HETATM   21  C1  UNL     1      13.834  48.266  40.540  1.00  0.00     0.010 C 
ENDBRANCH  17  20
ENDBRANCH  12  13
ENDBRANCH  10  12
ENDBRANCH   4   5
ENDBRANCH   1   4
BRANCH   1  22
HETATM   22  C14 UNL     1      21.650  49.239  44.146  1.00  0.00     0.252 C 
BRANCH  22  23
HETATM   23  N4  UNL     1      21.716  49.351  45.562  1.00  0.00    -0.067 N 
ATOM     24  H42 UNL     1      21.295  50.229  45.870  1.00  0.00     0.277 HD
ATOM     25  H41 UNL     1      21.078  48.688  46.001  1.00  0.00     0.277 HD
BRANCH  23  26
HETATM   26  C15 UNL     1      23.059  49.210  46.120  1.00  0.00     0.218 C 
BRANCH  26  27
HETATM   27  C16 UNL     1      23.061  48.433  47.375  1.00  0.00     0.074 C 
BRANCH  27  28
HETATM   28  C17 UNL     1      23.199  49.166  48.644  1.00  0.00    -0.056 A 
HETATM   29  C18 UNL     1      22.848  48.590  49.870  1.00  0.00     0.010 A 
HETATM   30  C19 UNL     1      22.958  49.254  51.060  1.00  0.00     0.037 A 
HETATM   31  C20 UNL     1      23.427  50.539  51.084  1.00  0.00     0.065 A 
HETATM   32  C21 UNL     1      23.786  51.140  49.876  1.00  0.00     0.037 A 
HETATM   33  C22 UNL     1      23.675  50.472  48.695  1.00  0.00     0.010 A 
BRANCH  31  34
HETATM   34  O1  UNL     1      23.550  51.244  52.276  1.00  0.00    -0.361 OA
ATOM     35  H1  UNL     1      24.273  51.842  52.426  1.00  0.00     0.217 HD
ENDBRANCH  31  34
ENDBRANCH  27  28
ENDBRANCH  26  27
BRANCH  26  36
HETATM   36  C23 UNL     1      23.924  48.734  44.996  1.00  0.00     0.149 C 
BRANCH  36  37
HETATM   37  O2  UNL     1      24.822  49.629  44.490  1.00  0.00    -0.393 OA
ATOM     38  H2  UNL     1      25.712  49.321  44.373  1.00  0.00     0.210 HD
ENDBRANCH  36  37
BRANCH  36  39
HETATM   39  C24 UNL     1      24.477  47.338  45.207  1.00  0.00     0.048 C 
BRANCH  39  40
HETATM   40  C25 UNL     1      25.128  46.805  43.946  1.00  0.00     0.082 C 
HETATM   41  C26 UNL     1      24.137  45.775  43.371  1.00  0.00     0.034 C 
HETATM   42  C27 UNL     1      24.181  44.669  44.429  1.00  0.00     0.123 C 
HETATM   43  N5  UNL     1      25.557  44.742  44.913  1.00  0.00    -0.361 N 
HETATM   44  C28 UNL     1      26.232  45.863  44.316  1.00  0.00     0.222 C 
ATOM     45  H5  UNL     1      25.977  44.093  45.578  1.00  0.00     0.162 HD
HETATM   46  O3  UNL     1      27.458  45.933  44.184  1.00  0.00    -0.273 OA
ENDBRANCH  39  40
ENDBRANCH  36  39
ENDBRANCH  26  36
ENDBRANCH  23  26
ENDBRANCH  22  23
ENDBRANCH   1  22
TORSDOF 15
ENDMDL
MODEL 5
REMARK VINA RESULT: -8.744281006      1.620      2.797
REMARK  15 active torsions:
REMARK  status: ('A' for Active; 'I' for Inactive)
REMARK    1  A    between atoms: C2_2  and  C3_3 
REMARK    2  A    between atoms: N2_7  and  C5_8 
REMARK    3  A    between atoms: C5_8  and  C6_9 
REMARK    4  A    between atoms: C10_14  and  C11_15 
REMARK    5  A    between atoms: C11_15  and  C12_16 
REMARK    6  A    between atoms: C12_16  and  C14_19 
REMARK    7  A    between atoms: C14_19  and  N4_20 
REMARK    8  A    between atoms: N4_20  and  C15_23 
REMARK    9  A    between atoms: C15_23  and  C16_24 
REMARK   10  A    between atoms: C15_23  and  C23_33 
REMARK   11  A    between atoms: C16_24  and  C17_25 
REMARK   12  A    between atoms: C20_28  and  O1_29 
REMARK   13  A    between atoms: C23_33  and  O2_34 
REMARK   14  A    between atoms: C23_33  and  C24_36 
REMARK   15  A    between atoms: C24_36  and  C25_37 
ROOT
HETATM    1  C12 UNL     1      20.641  48.870  44.157  1.00  0.00     0.122 C 
HETATM    2  C13 UNL     1      20.737  50.289  44.587  1.00  0.00     0.066 C 
HETATM    3  N3  UNL     1      20.795  51.407  44.913  1.00  0.00    -0.197 NA
ENDROOT
BRANCH   1   4
HETATM    4  C11 UNL     1      20.144  48.004  45.287  1.00  0.00     0.059 C 
BRANCH   4   5
HETATM    5  C10 UNL     1      19.707  46.677  44.798  1.00  0.00    -0.053 A 
HETATM    6  C9  UNL     1      19.849  45.567  45.598  1.00  0.00     0.049 A 
HETATM    7  C8  UNL     1      19.461  44.310  45.133  1.00  0.00     0.117 A 
HETATM    8  C7  UNL     1      18.927  44.180  43.853  1.00  0.00     0.051 A 
HETATM    9  F1  UNL     1      19.575  43.188  45.876  1.00  0.00    -0.206 F 
HETATM   10  C6  UNL     1      18.780  45.279  43.045  1.00  0.00    -0.035 A 
HETATM   11  C29 UNL     1      19.177  46.515  43.543  1.00  0.00     0.016 A 
BRANCH  10  12
HETATM   12  C5  UNL     1      18.229  45.264  41.667  1.00  0.00     0.187 C 
BRANCH  12  13
HETATM   13  N2  UNL     1      16.808  45.343  41.577  1.00  0.00    -0.292 N 
HETATM   14  N1  UNL     1      15.963  44.463  42.053  1.00  0.00    -0.309 N 
HETATM   15  C4  UNL     1      14.707  44.820  41.791  1.00  0.00     0.116 A 
ATOM     16  H1  UNL     1      16.231  43.617  42.558  1.00  0.00     0.186 HD
HETATM   17  C3  UNL     1      14.770  46.015  41.100  1.00  0.00    -0.018 A 
HETATM   18  C30 UNL     1      16.103  46.310  40.985  1.00  0.00     0.032 A 
HETATM   19  C31 UNL     1      16.645  47.544  40.308  1.00  0.00     0.070 C 
BRANCH  17  20
HETATM   20  C2  UNL     1      13.649  46.837  40.575  1.00  0.00     0.037 C 
HETATM   21  C1  UNL     1      13.871  48.292  40.892  1.00  0.00     0.010 C 
ENDBRANCH  17  20
ENDBRANCH  12  13
ENDBRANCH  10  12
ENDBRANCH   4   5
ENDBRANCH   1   4
BRANCH   1  22
HETATM   22  C14 UNL     1      22.064  48.476  43.834  1.00  0.00     0.252 C 
BRANCH  22  23
HETATM   23  N4  UNL     1      22.958  49.306  44.566  1.00  0.00    -0.067 N 
ATOM     24  H42 UNL     1      23.566  49.823  43.929  1.00  0.00     0.277 HD
ATOM     25  H41 UNL     1      22.453  50.082  44.993  1.00  0.00     0.277 HD
BRANCH  23  26
HETATM   26  C15 UNL     1      23.754  48.604  45.569  1.00  0.00     0.218 C 
BRANCH  26  27
HETATM   27  C16 UNL     1      22.980  48.322  46.794  1.00  0.00     0.074 C 
BRANCH  27  28
HETATM   28  C17 UNL     1      23.236  49.152  47.982  1.00  0.00    -0.056 A 
HETATM   29  C18 UNL     1      23.394  50.540  47.891  1.00  0.00     0.010 A 
HETATM   30  C19 UNL     1      23.643  51.331  48.977  1.00  0.00     0.037 A 
HETATM   31  C20 UNL     1      23.748  50.770  50.221  1.00  0.00     0.065 A 
HETATM   32  C21 UNL     1      23.594  49.388  50.344  1.00  0.00     0.037 A 
HETATM   33  C22 UNL     1      23.345  48.607  49.257  1.00  0.00     0.010 A 
BRANCH  31  34
HETATM   34  O1  UNL     1      24.001  51.545  51.347  1.00  0.00    -0.361 OA
ATOM     35  H1  UNL     1      23.739  51.259  52.215  1.00  0.00     0.217 HD
ENDBRANCH  31  34
ENDBRANCH  27  28
ENDBRANCH  26  27
BRANCH  26  36
HETATM   36  C23 UNL     1      24.391  47.453  44.858  1.00  0.00     0.149 C 
BRANCH  36  37
HETATM   37  O2  UNL     1      25.738  47.302  45.016  1.00  0.00    -0.393 OA
ATOM     38  H2  UNL     1      26.062  46.414  45.108  1.00  0.00     0.210 HD
ENDBRANCH  36  37
BRANCH  36  39
HETATM   39  C24 UNL     1      23.597  46.164  44.961  1.00  0.00     0.048 C 
BRANCH  39  40
HETATM   40  C25 UNL     1      24.198  45.075  44.093  1.00  0.00     0.082 C 
HETATM   41  C26 UNL     1      23.056  44.073  43.836  1.00  0.00     0.034 C 
HETATM   42  C27 UNL     1      22.825  43.491  45.234  1.00  0.00     0.123 C 
HETATM   43  N5  UNL     1      24.161  43.531  45.822  1.00  0.00    -0.361 N 
HETATM   44  C28 UNL     1      25.074  44.197  44.932  1.00  0.00     0.222 C 
ATOM     45  H5  UNL     1      24.410  43.144  46.732  1.00  0.00     0.162 HD
HETATM   46  O3  UNL     1      26.295  44.012  44.939  1.00  0.00    -0.273 OA
ENDBRANCH  39  40
ENDBRANCH  36  39
ENDBRANCH  26  36
ENDBRANCH  23  26
ENDBRANCH  22  23
ENDBRANCH   1  22
TORSDOF 15
ENDMDL
