MODEL 1
REMARK VINA RESULT: -7.078265325      0.000      0.000
REMARK  3 active torsions:
REMARK  status: ('A' for Active; 'I' for Inactive)
REMARK    1  A    between atoms: C2_2  and  C3_3 
REMARK    2  A    between atoms: C2_2  and  N5_18 
REMARK    3  A    between atoms: C5_5  and  N1_6 
ROOT
HETATM    1  C3  UNL     1      -1.096  84.520  25.882  1.00  0.00    -0.008 A 
HETATM    2  C4  UNL     1      -0.298  85.403  25.184  1.00  0.00     0.066 A 
HETATM    3  C5  UNL     1       1.059  85.226  25.046  1.00  0.00     0.175 A 
HETATM    4  N2  UNL     1       1.684  84.150  25.599  1.00  0.00    -0.323 N 
ATOM      5  H2  UNL     1       2.690  84.024  25.492  1.00  0.00     0.169 HD
HETATM    6  C6  UNL     1       0.952  83.256  26.291  1.00  0.00     0.122 A 
HETATM    7  N3  UNL     1       1.610  82.248  26.774  1.00  0.00    -0.384 N 
ATOM      8  H31 UNL     1       1.056  81.571  27.298  1.00  0.00     0.157 HD
ATOM      9  H32 UNL     1       2.615  82.117  26.670  1.00  0.00     0.157 HD
HETATM   10  C7  UNL     1      -0.409  83.434  26.432  1.00  0.00     0.096 A 
HETATM   11  C8  UNL     1      -1.157  82.456  27.150  1.00  0.00     0.104 C 
HETATM   12  N4  UNL     1      -1.767  81.659  27.711  1.00  0.00    -0.191 NA
ENDROOT
BRANCH   1  13
HETATM   13  C2  UNL     1      -2.540  84.743  26.111  1.00  0.00     0.110 C 
HETATM   14  C1  UNL     1      -3.385  84.188  24.986  1.00  0.00     0.037 C 
BRANCH  13  15
HETATM   15  N5  UNL     1      -2.848  86.167  26.294  1.00  0.00    -0.405 N 
HETATM   16  C9  UNL     1      -4.044  86.588  25.646  1.00  0.00     0.117 C 
HETATM   17  C10 UNL     1      -4.858  87.484  26.581  1.00  0.00     0.019 C 
HETATM   18  C11 UNL     1      -4.350  88.899  26.295  1.00  0.00     0.002 C 
HETATM   19  C12 UNL     1      -2.882  88.950  26.667  1.00  0.00     0.002 C 
HETATM   20  C13 UNL     1      -2.561  88.081  27.830  1.00  0.00     0.019 C 
HETATM   21  C14 UNL     1      -2.616  86.618  27.618  1.00  0.00     0.117 C 
ENDBRANCH  13  15
ENDBRANCH   1  13
BRANCH   3  22
HETATM   22  N1  UNL     1       1.875  86.165  24.374  1.00  0.00    -0.098 N 
HETATM   23  O1  UNL     1       1.372  87.243  24.062  1.00  0.00    -0.531 OA
HETATM   24  O2  UNL     1       3.208  85.892  24.091  1.00  0.00    -0.531 OA
ENDBRANCH   3  22
TORSDOF 3
ENDMDL
MODEL 2
REMARK VINA RESULT: -6.745837375      1.274      1.627
REMARK  3 active torsions:
REMARK  status: ('A' for Active; 'I' for Inactive)
REMARK    1  A    between atoms: C2_2  and  C3_3 
REMARK    2  A    between atoms: C2_2  and  N5_18 
REMARK    3  A    between atoms: C5_5  and  N1_6 
ROOT
HETATM    1  C3  UNL     1      -1.824  84.711  25.589  1.00  0.00    -0.008 A 
HETATM    2  C4  UNL     1      -1.335  85.786  24.877  1.00  0.00     0.066 A 
HETATM    3  C5  UNL     1       0.009  85.996  24.679  1.00  0.00     0.175 A 
HETATM    4  N2  UNL     1       0.933  85.133  25.185  1.00  0.00    -0.323 N 
ATOM      5  H2  UNL     1       1.929  85.293  25.033  1.00  0.00     0.169 HD
HETATM    6  C6  UNL     1       0.511  84.066  25.888  1.00  0.00     0.122 A 
HETATM    7  N3  UNL     1       1.445  83.277  26.324  1.00  0.00    -0.384 N 
ATOM      8  H31 UNL     1       1.125  82.468  26.856  1.00  0.00     0.157 HD
ATOM      9  H32 UNL     1       2.441  83.432  26.175  1.00  0.00     0.157 HD
HETATM   10  C7  UNL     1      -0.838  83.855  26.089  1.00  0.00     0.096 A 
HETATM   11  C8  UNL     1      -1.251  82.702  26.818  1.00  0.00     0.104 C 
HETATM   12  N4  UNL     1      -1.589  81.763  27.388  1.00  0.00    -0.191 NA
ENDROOT
BRANCH   1  13
HETATM   13  C2  UNL     1      -3.261  84.521  25.882  1.00  0.00     0.110 C 
HETATM   14  C1  UNL     1      -3.898  83.506  24.959  1.00  0.00     0.037 C 
BRANCH  13  15
HETATM   15  N5  UNL     1      -4.004  85.785  25.804  1.00  0.00    -0.405 N 
HETATM   16  C9  UNL     1      -5.161  85.725  24.975  1.00  0.00     0.117 C 
HETATM   17  C10 UNL     1      -6.335  86.421  25.665  1.00  0.00     0.019 C 
HETATM   18  C11 UNL     1      -6.237  87.880  25.212  1.00  0.00     0.002 C 
HETATM   19  C12 UNL     1      -4.924  88.437  25.724  1.00  0.00     0.002 C 
HETATM   20  C13 UNL     1      -4.535  87.859  27.037  1.00  0.00     0.019 C 
HETATM   21  C14 UNL     1      -4.118  86.440  27.056  1.00  0.00     0.117 C 
ENDBRANCH  13  15
ENDBRANCH   1  13
BRANCH   3  22
HETATM   22  N1  UNL     1       0.500  87.130  23.992  1.00  0.00    -0.098 N 
HETATM   23  O1  UNL     1       1.534  87.651  24.407  1.00  0.00    -0.531 OA
HETATM   24  O2  UNL     1      -0.149  87.632  22.870  1.00  0.00    -0.531 OA
ENDBRANCH   3  22
TORSDOF 3
ENDMDL
MODEL 3
REMARK VINA RESULT: -6.545408709      2.086      3.485
REMARK  3 active torsions:
REMARK  status: ('A' for Active; 'I' for Inactive)
REMARK    1  A    between atoms: C2_2  and  C3_3 
REMARK    2  A    between atoms: C2_2  and  N5_18 
REMARK    3  A    between atoms: C5_5  and  N1_6 
ROOT
HETATM    1  C3  UNL     1      -1.753  85.409  25.374  1.00  0.00    -0.008 A 
HETATM    2  C4  UNL     1      -0.515  84.910  25.719  1.00  0.00     0.066 A 
HETATM    3  C5  UNL     1      -0.342  83.646  26.234  1.00  0.00     0.175 A 
HETATM    4  N2  UNL     1      -1.405  82.818  26.424  1.00  0.00    -0.323 N 
ATOM      5  H2  UNL     1      -1.270  81.880  26.805  1.00  0.00     0.169 HD
HETATM    6  C6  UNL     1      -2.637  83.254  26.103  1.00  0.00     0.122 A 
HETATM    7  N3  UNL     1      -3.600  82.406  26.294  1.00  0.00    -0.384 N 
ATOM      8  H31 UNL     1      -4.533  82.736  26.051  1.00  0.00     0.157 HD
ATOM      9  H32 UNL     1      -3.471  81.469  26.674  1.00  0.00     0.157 HD
HETATM   10  C7  UNL     1      -2.812  84.523  25.589  1.00  0.00     0.096 A 
HETATM   11  C8  UNL     1      -4.127  84.945  25.237  1.00  0.00     0.104 C 
HETATM   12  N4  UNL     1      -5.184  85.282  24.934  1.00  0.00    -0.191 NA
ENDROOT
BRANCH   1  13
HETATM   13  C2  UNL     1      -1.963  86.795  24.901  1.00  0.00     0.110 C 
HETATM   14  C1  UNL     1      -0.833  87.269  24.015  1.00  0.00     0.037 C 
BRANCH  13  15
HETATM   15  N5  UNL     1      -2.130  87.731  26.020  1.00  0.00    -0.405 N 
HETATM   16  C9  UNL     1      -1.209  88.817  26.007  1.00  0.00     0.117 C 
HETATM   17  C10 UNL     1      -1.937  90.125  26.323  1.00  0.00     0.019 C 
HETATM   18  C11 UNL     1      -1.869  90.245  27.847  1.00  0.00     0.002 C 
HETATM   19  C12 UNL     1      -2.621  89.071  28.439  1.00  0.00     0.002 C 
HETATM   20  C13 UNL     1      -3.782  88.661  27.605  1.00  0.00     0.019 C 
HETATM   21  C14 UNL     1      -3.489  88.017  26.306  1.00  0.00     0.117 C 
ENDBRANCH  13  15
ENDBRANCH   1  13
BRANCH   3  22
HETATM   22  N1  UNL     1       0.926  83.164  26.633  1.00  0.00    -0.098 N 
HETATM   23  O1  UNL     1       0.983  82.463  27.642  1.00  0.00    -0.531 OA
HETATM   24  O2  UNL     1       2.072  83.453  25.901  1.00  0.00    -0.531 OA
ENDBRANCH   3  22
TORSDOF 3
ENDMDL
MODEL 4
REMARK VINA RESULT: -6.521030819      3.505      5.152
REMARK  3 active torsions:
REMARK  status: ('A' for Active; 'I' for Inactive)
REMARK    1  A    between atoms: C2_2  and  C3_3 
REMARK    2  A    between atoms: C2_2  and  N5_18 
REMARK    3  A    between atoms: C5_5  and  N1_6 
ROOT
HETATM    1  C3  UNL     1      -3.085  85.474  25.852  1.00  0.00    -0.008 A 
HETATM    2  C4  UNL     1      -4.285  85.892  25.315  1.00  0.00     0.066 A 
HETATM    3  C5  UNL     1      -5.182  85.024  24.739  1.00  0.00     0.175 A 
HETATM    4  N2  UNL     1      -4.923  83.690  24.676  1.00  0.00    -0.323 N 
ATOM      5  H2  UNL     1      -5.594  83.051  24.249  1.00  0.00     0.169 HD
HETATM    6  C6  UNL     1      -3.766  83.227  25.185  1.00  0.00     0.122 A 
HETATM    7  N3  UNL     1      -3.593  81.943  25.106  1.00  0.00    -0.384 N 
ATOM      8  H31 UNL     1      -2.717  81.592  25.492  1.00  0.00     0.157 HD
ATOM      9  H32 UNL     1      -4.260  81.300  24.681  1.00  0.00     0.157 HD
HETATM   10  C7  UNL     1      -2.863  84.097  25.761  1.00  0.00     0.096 A 
HETATM   11  C8  UNL     1      -1.658  83.570  26.312  1.00  0.00     0.104 C 
HETATM   12  N4  UNL     1      -0.695  83.146  26.775  1.00  0.00    -0.191 NA
ENDROOT
BRANCH   1  13
HETATM   13  C2  UNL     1      -2.073  86.406  26.395  1.00  0.00     0.110 C 
HETATM   14  C1  UNL     1      -2.619  87.230  27.539  1.00  0.00     0.037 C 
BRANCH  13  15
HETATM   15  N5  UNL     1      -1.546  87.301  25.358  1.00  0.00    -0.405 N 
HETATM   16  C9  UNL     1      -1.450  88.662  25.764  1.00  0.00     0.117 C 
HETATM   17  C10 UNL     1      -0.111  89.250  25.314  1.00  0.00     0.019 C 
HETATM   18  C11 UNL     1      -0.388  89.813  23.918  1.00  0.00     0.002 C 
HETATM   19  C12 UNL     1      -0.781  88.657  23.021  1.00  0.00     0.002 C 
HETATM   20  C13 UNL     1      -0.075  87.398  23.375  1.00  0.00     0.019 C 
HETATM   21  C14 UNL     1      -0.455  86.743  24.645  1.00  0.00     0.117 C 
ENDBRANCH  13  15
ENDBRANCH   1  13
BRANCH   3  22
HETATM   22  N1  UNL     1      -6.386  85.472  24.146  1.00  0.00    -0.098 N 
HETATM   23  O1  UNL     1      -6.708  86.646  24.316  1.00  0.00    -0.531 OA
HETATM   24  O2  UNL     1      -7.171  84.622  23.375  1.00  0.00    -0.531 OA
ENDBRANCH   3  22
TORSDOF 3
ENDMDL
MODEL 5
REMARK VINA RESULT: -6.509646467      1.057      1.815
REMARK  3 active torsions:
REMARK  status: ('A' for Active; 'I' for Inactive)
REMARK    1  A    between atoms: C2_2  and  C3_3 
REMARK    2  A    between atoms: C2_2  and  N5_18 
REMARK    3  A    between atoms: C5_5  and  N1_6 
ROOT
HETATM    1  C3  UNL     1      -1.624  85.152  25.638  1.00  0.00    -0.008 A 
HETATM    2  C4  UNL     1      -1.131  86.180  24.862  1.00  0.00     0.066 A 
HETATM    3  C5  UNL     1       0.195  86.276  24.514  1.00  0.00     0.175 A 
HETATM    4  N2  UNL     1       1.096  85.341  24.924  1.00  0.00    -0.323 N 
ATOM      5  H2  UNL     1       2.079  85.417  24.661  1.00  0.00     0.169 HD
HETATM    6  C6  UNL     1       0.669  84.315  25.684  1.00  0.00     0.122 A 
HETATM    7  N3  UNL     1       1.577  83.453  26.024  1.00  0.00    -0.384 N 
ATOM      8  H31 UNL     1       1.254  82.676  26.599  1.00  0.00     0.157 HD
ATOM      9  H32 UNL     1       2.560  83.524  25.764  1.00  0.00     0.157 HD
HETATM   10  C7  UNL     1      -0.662  84.219  26.036  1.00  0.00     0.096 A 
HETATM   11  C8  UNL     1      -1.085  83.107  26.822  1.00  0.00     0.104 C 
HETATM   12  N4  UNL     1      -1.433  82.202  27.438  1.00  0.00    -0.191 NA
ENDROOT
BRANCH   1  13
HETATM   13  C2  UNL     1      -3.030  85.083  26.092  1.00  0.00     0.110 C 
HETATM   14  C1  UNL     1      -3.960  84.633  24.988  1.00  0.00     0.037 C 
BRANCH  13  15
HETATM   15  N5  UNL     1      -3.493  86.370  26.624  1.00  0.00    -0.405 N 
HETATM   16  C9  UNL     1      -2.620  86.942  27.593  1.00  0.00     0.117 C 
HETATM   17  C10 UNL     1      -2.443  88.436  27.322  1.00  0.00     0.019 C 
HETATM   18  C11 UNL     1      -3.565  89.108  28.116  1.00  0.00     0.002 C 
HETATM   19  C12 UNL     1      -4.886  88.626  27.551  1.00  0.00     0.002 C 
HETATM   20  C13 UNL     1      -4.822  88.383  26.086  1.00  0.00     0.019 C 
HETATM   21  C14 UNL     1      -4.025  87.225  25.626  1.00  0.00     0.117 C 
ENDBRANCH  13  15
ENDBRANCH   1  13
BRANCH   3  22
HETATM   22  N1  UNL     1       0.698  87.363  23.761  1.00  0.00    -0.098 N 
HETATM   23  O1  UNL     1       1.681  87.959  24.198  1.00  0.00    -0.531 OA
HETATM   24  O2  UNL     1       0.118  87.736  22.555  1.00  0.00    -0.531 OA
ENDBRANCH   3  22
TORSDOF 3
ENDMDL
