MODEL 1
REMARK VINA RESULT: -7.448610337      0.000      0.000
REMARK  13 active torsions:
REMARK  status: ('A' for Active; 'I' for Inactive)
REMARK    1  A    between atoms: C2_2  and  C3_3 
REMARK    2  A    between atoms: C3_3  and  N1_6 
REMARK       I    between atoms: N1_6  and  C7_8 
REMARK    3  A    between atoms: C7_8  and  C8_10 
REMARK    4  A    between atoms: C8_10  and  C9_11 
REMARK    5  A    between atoms: C9_11  and  C10_12 
REMARK    6  A    between atoms: C10_12  and  N2_13 
REMARK    7  A    between atoms: C10_12  and  C12_18 
REMARK    8  A    between atoms: C12_18  and  C13_19 
REMARK    9  A    between atoms: C13_19  and  C14_20 
REMARK   10  A    between atoms: C14_20  and  C15_21 
REMARK       I    between atoms: C15_21  and  N5_23 
REMARK   11  A    between atoms: N5_23  and  N6_25 
REMARK       I    between atoms: N6_25  and  C16_27 
REMARK       I    between atoms: N7_30  and  C18_32 
REMARK   12  A    between atoms: N9_34  and  C19_36 
REMARK       I    between atoms: N10_37  and  C20_39 
REMARK   13  A    between atoms: C20_39  and  C21_41 
ROOT
HETATM    1  C12 UNL     1      32.195  13.118 -24.989  1.00  0.00     0.012 C 
HETATM    2  N7  UNL     1      32.716  12.011 -25.258  1.00  0.00    -0.336 N 
ATOM      3  H7  UNL     1      33.727  11.956 -25.126  1.00  0.00     0.168 HD
HETATM    4  C18 UNL     1      32.109  10.855 -25.709  1.00  0.00     0.193 C 
HETATM    5  N8  UNL     1      31.186  10.103 -24.892  1.00  0.00    -0.063 NA
HETATM    6  N9  UNL     1      32.317  10.354 -26.893  1.00  0.00    -0.327 N 
ATOM      7  H9  UNL     1      31.837   9.494 -27.157  1.00  0.00     0.169 HD
ENDROOT
BRANCH   1   8
HETATM    8  C10 UNL     1      30.734  13.422 -25.115  1.00  0.00     0.130 C 
BRANCH   8   9
HETATM    9  C9  UNL     1      30.313  14.005 -23.790  1.00  0.00     0.040 C 
BRANCH   9  10
HETATM   10  C8  UNL     1      30.162  12.920 -22.733  1.00  0.00     0.105 C 
BRANCH  10  11
HETATM   11  C7  UNL     1      29.095  13.280 -21.771  1.00  0.00     0.220 C 
HETATM   12  N1  UNL     1      29.234  13.324 -20.372  1.00  0.00    -0.344 N 
HETATM   13  C6  UNL     1      30.457  12.910 -19.748  1.00  0.00     0.154 C 
HETATM   14  O1  UNL     1      27.951  13.579 -22.301  1.00  0.00    -0.273 OA
BRANCH  12  15
HETATM   15  C3  UNL     1      28.082  13.787 -19.599  1.00  0.00     0.045 C 
HETATM   16  C4  UNL     1      27.371  14.947 -20.284  1.00  0.00     0.043 C 
HETATM   17  C5  UNL     1      27.087  12.722 -19.318  1.00  0.00     0.043 C 
BRANCH  15  18
HETATM   18  C2  UNL     1      28.574  14.352 -18.288  1.00  0.00    -0.007 C 
HETATM   19  C1  UNL     1      27.746  14.442 -17.261  1.00  0.00     0.009 C 
ENDBRANCH  15  18
ENDBRANCH  12  15
ENDBRANCH  10  11
ENDBRANCH   9  10
ENDBRANCH   8   9
BRANCH   8  20
HETATM   20  N2  UNL     1      30.633  14.379 -26.178  1.00  0.00    -0.357 N 
HETATM   21  C11 UNL     1      30.349  14.125 -27.382  1.00  0.00     0.197 C 
HETATM   22  N3  UNL     1      30.288  15.215 -28.338  1.00  0.00    -0.067 NA
HETATM   23  N4  UNL     1      30.089  12.815 -27.848  1.00  0.00    -0.067 NA
ATOM     24  H2  UNL     1      30.807  15.355 -25.940  1.00  0.00     0.162 HD
ENDBRANCH   8  20
ENDBRANCH   1   8
BRANCH   1  25
HETATM   25  C13 UNL     1      33.056  14.199 -24.469  1.00  0.00     0.064 C 
BRANCH  25  26
HETATM   26  C14 UNL     1      34.109  14.766 -25.330  1.00  0.00     0.110 C 
BRANCH  26  27
HETATM   27  C15 UNL     1      33.720  16.175 -25.619  1.00  0.00     0.236 C 
HETATM   28  O2  UNL     1      32.840  16.420 -26.445  1.00  0.00    -0.272 OA
HETATM   29  N5  UNL     1      34.381  17.195 -24.923  1.00  0.00    -0.268 N 
ATOM     30  H5  UNL     1      35.109  16.963 -24.247  1.00  0.00     0.190 HD
BRANCH  29  31
HETATM   31  N6  UNL     1      34.046  18.527 -25.155  1.00  0.00    -0.268 N 
HETATM   32  C16 UNL     1      34.544  19.514 -24.265  1.00  0.00     0.232 C 
HETATM   33  C17 UNL     1      34.185  20.928 -24.508  1.00  0.00     0.119 C 
HETATM   34  O3  UNL     1      35.272  19.211 -23.287  1.00  0.00    -0.272 OA
ATOM     35  H6  UNL     1      33.457  18.787 -25.946  1.00  0.00     0.190 HD
ENDBRANCH  29  31
ENDBRANCH  26  27
ENDBRANCH  25  26
ENDBRANCH   1  25
BRANCH   6  36
HETATM   36  C19 UNL     1      33.180  10.964 -27.814  1.00  0.00     0.185 C 
HETATM   37  N10 UNL     1      33.998  10.269 -28.517  1.00  0.00    -0.323 N 
HETATM   38  C20 UNL     1      33.981   8.849 -28.315  1.00  0.00     0.222 C 
ATOM     39  H10 UNL     1      34.630  10.706 -29.187  1.00  0.00     0.169 HD
HETATM   40  O4  UNL     1      32.997   8.213 -28.792  1.00  0.00    -0.273 OA
BRANCH  38  41
HETATM   41  C21 UNL     1      35.034   8.125 -27.591  1.00  0.00     0.098 C 
HETATM   42  C22 UNL     1      34.489   6.789 -27.146  1.00  0.00     0.014 C 
ENDBRANCH  38  41
ENDBRANCH   6  36
TORSDOF 13
ENDMDL
MODEL 2
REMARK VINA RESULT: -7.232775119      3.741      7.240
REMARK  13 active torsions:
REMARK  status: ('A' for Active; 'I' for Inactive)
REMARK    1  A    between atoms: C2_2  and  C3_3 
REMARK    2  A    between atoms: C3_3  and  N1_6 
REMARK       I    between atoms: N1_6  and  C7_8 
REMARK    3  A    between atoms: C7_8  and  C8_10 
REMARK    4  A    between atoms: C8_10  and  C9_11 
REMARK    5  A    between atoms: C9_11  and  C10_12 
REMARK    6  A    between atoms: C10_12  and  N2_13 
REMARK    7  A    between atoms: C10_12  and  C12_18 
REMARK    8  A    between atoms: C12_18  and  C13_19 
REMARK    9  A    between atoms: C13_19  and  C14_20 
REMARK   10  A    between atoms: C14_20  and  C15_21 
REMARK       I    between atoms: C15_21  and  N5_23 
REMARK   11  A    between atoms: N5_23  and  N6_25 
REMARK       I    between atoms: N6_25  and  C16_27 
REMARK       I    between atoms: N7_30  and  C18_32 
REMARK   12  A    between atoms: N9_34  and  C19_36 
REMARK       I    between atoms: N10_37  and  C20_39 
REMARK   13  A    between atoms: C20_39  and  C21_41 
ROOT
HETATM    1  C12 UNL     1      29.165  10.175 -22.594  1.00  0.00     0.012 C 
HETATM    2  N7  UNL     1      28.027  10.251 -23.111  1.00  0.00    -0.336 N 
ATOM      3  H7  UNL     1      27.754   9.460 -23.695  1.00  0.00     0.168 HD
HETATM    4  C18 UNL     1      27.091  11.262 -22.998  1.00  0.00     0.193 C 
HETATM    5  N8  UNL     1      26.429  11.560 -21.750  1.00  0.00    -0.063 NA
HETATM    6  N9  UNL     1      26.734  12.019 -23.995  1.00  0.00    -0.327 N 
ATOM      7  H9  UNL     1      26.033  12.743 -23.840  1.00  0.00     0.169 HD
ENDROOT
BRANCH   1   8
HETATM    8  C10 UNL     1      29.768  11.221 -21.708  1.00  0.00     0.130 C 
BRANCH   8   9
HETATM    9  C9  UNL     1      30.351  10.485 -20.529  1.00  0.00     0.040 C 
BRANCH   9  10
HETATM   10  C8  UNL     1      30.837  11.452 -19.461  1.00  0.00     0.105 C 
BRANCH  10  11
HETATM   11  C7  UNL     1      29.898  12.588 -19.323  1.00  0.00     0.220 C 
HETATM   12  N1  UNL     1      28.583  12.510 -18.828  1.00  0.00    -0.344 N 
HETATM   13  C6  UNL     1      28.005  11.241 -18.495  1.00  0.00     0.154 C 
HETATM   14  O1  UNL     1      30.364  13.738 -19.695  1.00  0.00    -0.273 OA
BRANCH  12  15
HETATM   15  C3  UNL     1      27.843  13.764 -18.691  1.00  0.00     0.045 C 
HETATM   16  C4  UNL     1      26.337  13.538 -18.726  1.00  0.00     0.043 C 
HETATM   17  C5  UNL     1      28.179  14.521 -17.459  1.00  0.00     0.043 C 
BRANCH  15  18
HETATM   18  C2  UNL     1      28.135  14.632 -19.891  1.00  0.00    -0.007 C 
HETATM   19  C1  UNL     1      27.149  14.990 -20.697  1.00  0.00     0.009 C 
ENDBRANCH  15  18
ENDBRANCH  12  15
ENDBRANCH  10  11
ENDBRANCH   9  10
ENDBRANCH   8   9
BRANCH   8  20
HETATM   20  N2  UNL     1      30.784  11.853 -22.501  1.00  0.00    -0.357 N 
HETATM   21  C11 UNL     1      30.665  12.942 -23.130  1.00  0.00     0.197 C 
HETATM   22  N3  UNL     1      31.795  13.445 -23.888  1.00  0.00    -0.067 NA
HETATM   23  N4  UNL     1      29.470  13.698 -23.133  1.00  0.00    -0.067 NA
ATOM     24  H2  UNL     1      31.684  11.379 -22.561  1.00  0.00     0.162 HD
ENDBRANCH   8  20
ENDBRANCH   1   8
BRANCH   1  25
HETATM   25  C13 UNL     1      29.968   8.957 -22.825  1.00  0.00     0.064 C 
BRANCH  25  26
HETATM   26  C14 UNL     1      30.070   8.403 -24.187  1.00  0.00     0.110 C 
BRANCH  26  27
HETATM   27  C15 UNL     1      31.399   8.813 -24.723  1.00  0.00     0.236 C 
HETATM   28  O2  UNL     1      31.773   9.982 -24.630  1.00  0.00    -0.272 OA
HETATM   29  N5  UNL     1      32.196   7.830 -25.325  1.00  0.00    -0.268 N 
ATOM     30  H5  UNL     1      31.859   6.870 -25.391  1.00  0.00     0.190 HD
BRANCH  29  31
HETATM   31  N6  UNL     1      33.448   8.165 -25.833  1.00  0.00    -0.268 N 
HETATM   32  C16 UNL     1      33.904   7.498 -27.001  1.00  0.00     0.232 C 
HETATM   33  C17 UNL     1      35.236   7.850 -27.538  1.00  0.00     0.119 C 
HETATM   34  O3  UNL     1      33.206   6.625 -27.574  1.00  0.00    -0.272 OA
ATOM     35  H6  UNL     1      34.025   8.873 -25.378  1.00  0.00     0.190 HD
ENDBRANCH  29  31
ENDBRANCH  26  27
ENDBRANCH  25  26
ENDBRANCH   1  25
BRANCH   6  36
HETATM   36  C19 UNL     1      27.284  11.867 -25.275  1.00  0.00     0.185 C 
HETATM   37  N10 UNL     1      27.121  12.763 -26.179  1.00  0.00    -0.323 N 
HETATM   38  C20 UNL     1      26.354  13.920 -25.812  1.00  0.00     0.222 C 
ATOM     39  H10 UNL     1      27.516  12.659 -27.113  1.00  0.00     0.169 HD
HETATM   40  O4  UNL     1      26.912  14.760 -25.049  1.00  0.00    -0.273 OA
BRANCH  38  41
HETATM   41  C21 UNL     1      24.981  14.157 -26.276  1.00  0.00     0.098 C 
HETATM   42  C22 UNL     1      24.687  15.635 -26.189  1.00  0.00     0.014 C 
ENDBRANCH  38  41
ENDBRANCH   6  36
TORSDOF 13
ENDMDL
MODEL 3
REMARK VINA RESULT: -7.230457186      3.442      6.112
REMARK  13 active torsions:
REMARK  status: ('A' for Active; 'I' for Inactive)
REMARK    1  A    between atoms: C2_2  and  C3_3 
REMARK    2  A    between atoms: C3_3  and  N1_6 
REMARK       I    between atoms: N1_6  and  C7_8 
REMARK    3  A    between atoms: C7_8  and  C8_10 
REMARK    4  A    between atoms: C8_10  and  C9_11 
REMARK    5  A    between atoms: C9_11  and  C10_12 
REMARK    6  A    between atoms: C10_12  and  N2_13 
REMARK    7  A    between atoms: C10_12  and  C12_18 
REMARK    8  A    between atoms: C12_18  and  C13_19 
REMARK    9  A    between atoms: C13_19  and  C14_20 
REMARK   10  A    between atoms: C14_20  and  C15_21 
REMARK       I    between atoms: C15_21  and  N5_23 
REMARK   11  A    between atoms: N5_23  and  N6_25 
REMARK       I    between atoms: N6_25  and  C16_27 
REMARK       I    between atoms: N7_30  and  C18_32 
REMARK   12  A    between atoms: N9_34  and  C19_36 
REMARK       I    between atoms: N10_37  and  C20_39 
REMARK   13  A    between atoms: C20_39  and  C21_41 
ROOT
HETATM    1  C12 UNL     1      30.746  10.130 -24.036  1.00  0.00     0.012 C 
HETATM    2  N7  UNL     1      31.274   9.384 -24.893  1.00  0.00    -0.336 N 
ATOM      3  H7  UNL     1      31.632   8.494 -24.543  1.00  0.00     0.168 HD
HETATM    4  C18 UNL     1      31.438   9.603 -26.247  1.00  0.00     0.193 C 
HETATM    5  N8  UNL     1      30.318   9.676 -27.156  1.00  0.00    -0.063 NA
HETATM    6  N9  UNL     1      32.603   9.759 -26.810  1.00  0.00    -0.327 N 
ATOM      7  H9  UNL     1      32.649   9.912 -27.816  1.00  0.00     0.169 HD
ENDROOT
BRANCH   1   8
HETATM    8  C10 UNL     1      30.162  11.477 -24.327  1.00  0.00     0.130 C 
BRANCH   8   9
HETATM    9  C9  UNL     1      28.985  11.632 -23.397  1.00  0.00     0.040 C 
BRANCH   9  10
HETATM   10  C8  UNL     1      29.009  12.983 -22.698  1.00  0.00     0.105 C 
BRANCH  10  11
HETATM   11  C7  UNL     1      28.241  12.926 -21.434  1.00  0.00     0.220 C 
HETATM   12  N1  UNL     1      28.759  13.168 -20.148  1.00  0.00    -0.344 N 
HETATM   13  C6  UNL     1      30.160  13.405 -19.960  1.00  0.00     0.154 C 
HETATM   14  O1  UNL     1      26.986  12.631 -21.563  1.00  0.00    -0.273 OA
BRANCH  12  15
HETATM   15  C3  UNL     1      27.815  13.146 -19.031  1.00  0.00     0.045 C 
HETATM   16  C4  UNL     1      26.569  13.971 -19.328  1.00  0.00     0.043 C 
HETATM   17  C5  UNL     1      27.394  11.779 -18.635  1.00  0.00     0.043 C 
BRANCH  15  18
HETATM   18  C2  UNL     1      28.456  13.822 -17.843  1.00  0.00    -0.007 C 
HETATM   19  C1  UNL     1      27.708  14.518 -17.002  1.00  0.00     0.009 C 
ENDBRANCH  15  18
ENDBRANCH  12  15
ENDBRANCH  10  11
ENDBRANCH   9  10
ENDBRANCH   8   9
BRANCH   8  20
HETATM   20  N2  UNL     1      31.205  12.417 -24.033  1.00  0.00    -0.357 N 
HETATM   21  C11 UNL     1      31.890  13.057 -24.880  1.00  0.00     0.197 C 
HETATM   22  N3  UNL     1      32.912  13.973 -24.413  1.00  0.00    -0.067 NA
HETATM   23  N4  UNL     1      31.707  12.916 -26.276  1.00  0.00    -0.067 NA
ATOM     24  H2  UNL     1      31.413  12.584 -23.049  1.00  0.00     0.162 HD
ENDBRANCH   8  20
ENDBRANCH   1   8
BRANCH   1  25
HETATM   25  C13 UNL     1      30.642   9.647 -22.645  1.00  0.00     0.064 C 
BRANCH  25  26
HETATM   26  C14 UNL     1      30.602   8.198 -22.380  1.00  0.00     0.110 C 
BRANCH  26  27
HETATM   27  C15 UNL     1      29.377   7.939 -21.571  1.00  0.00     0.236 C 
HETATM   28  O2  UNL     1      29.103   6.796 -21.207  1.00  0.00    -0.272 OA
HETATM   29  N5  UNL     1      28.563   9.031 -21.243  1.00  0.00    -0.268 N 
ATOM     30  H5  UNL     1      28.814   9.967 -21.562  1.00  0.00     0.190 HD
BRANCH  29  31
HETATM   31  N6  UNL     1      27.413   8.839 -20.483  1.00  0.00    -0.268 N 
HETATM   32  C16 UNL     1      26.154   9.105 -21.084  1.00  0.00     0.232 C 
HETATM   33  C17 UNL     1      24.932   8.905 -20.275  1.00  0.00     0.119 C 
HETATM   34  O3  UNL     1      26.063   9.503 -22.271  1.00  0.00    -0.272 OA
ATOM     35  H6  UNL     1      27.472   8.514 -19.518  1.00  0.00     0.190 HD
ENDBRANCH  29  31
ENDBRANCH  26  27
ENDBRANCH  25  26
ENDBRANCH   1  25
BRANCH   6  36
HETATM   36  C19 UNL     1      33.793   9.722 -26.070  1.00  0.00     0.185 C 
HETATM   37  N10 UNL     1      34.741   8.913 -26.378  1.00  0.00    -0.323 N 
HETATM   38  C20 UNL     1      34.520   8.059 -27.509  1.00  0.00     0.222 C 
ATOM     39  H10 UNL     1      35.608   8.879 -25.843  1.00  0.00     0.169 HD
HETATM   40  O4  UNL     1      34.578   8.595 -28.653  1.00  0.00    -0.273 OA
BRANCH  38  41
HETATM   41  C21 UNL     1      34.236   6.623 -27.392  1.00  0.00     0.098 C 
HETATM   42  C22 UNL     1      32.842   6.359 -27.907  1.00  0.00     0.014 C 
ENDBRANCH  38  41
ENDBRANCH   6  36
TORSDOF 13
ENDMDL
MODEL 4
REMARK VINA RESULT: -7.211860621      4.145      6.208
REMARK  13 active torsions:
REMARK  status: ('A' for Active; 'I' for Inactive)
REMARK    1  A    between atoms: C2_2  and  C3_3 
REMARK    2  A    between atoms: C3_3  and  N1_6 
REMARK       I    between atoms: N1_6  and  C7_8 
REMARK    3  A    between atoms: C7_8  and  C8_10 
REMARK    4  A    between atoms: C8_10  and  C9_11 
REMARK    5  A    between atoms: C9_11  and  C10_12 
REMARK    6  A    between atoms: C10_12  and  N2_13 
REMARK    7  A    between atoms: C10_12  and  C12_18 
REMARK    8  A    between atoms: C12_18  and  C13_19 
REMARK    9  A    between atoms: C13_19  and  C14_20 
REMARK   10  A    between atoms: C14_20  and  C15_21 
REMARK       I    between atoms: C15_21  and  N5_23 
REMARK   11  A    between atoms: N5_23  and  N6_25 
REMARK       I    between atoms: N6_25  and  C16_27 
REMARK       I    between atoms: N7_30  and  C18_32 
REMARK   12  A    between atoms: N9_34  and  C19_36 
REMARK       I    between atoms: N10_37  and  C20_39 
REMARK   13  A    between atoms: C20_39  and  C21_41 
ROOT
HETATM    1  C12 UNL     1      29.597   8.954 -22.270  1.00  0.00     0.012 C 
HETATM    2  N7  UNL     1      28.715   8.068 -22.335  1.00  0.00    -0.336 N 
ATOM      3  H7  UNL     1      28.985   7.212 -22.821  1.00  0.00     0.168 HD
HETATM    4  C18 UNL     1      27.427   8.091 -21.836  1.00  0.00     0.193 C 
HETATM    5  N8  UNL     1      27.151   8.113 -20.419  1.00  0.00    -0.063 NA
HETATM    6  N9  UNL     1      26.368   8.094 -22.594  1.00  0.00    -0.327 N 
ATOM      7  H9  UNL     1      25.447   8.106 -22.157  1.00  0.00     0.169 HD
ENDROOT
BRANCH   1   8
HETATM    8  C10 UNL     1      29.417  10.285 -21.608  1.00  0.00     0.130 C 
BRANCH   8   9
HETATM    9  C9  UNL     1      30.739  10.614 -20.963  1.00  0.00     0.040 C 
BRANCH   9  10
HETATM   10  C8  UNL     1      30.547  11.128 -19.544  1.00  0.00     0.105 C 
BRANCH  10  11
HETATM   11  C7  UNL     1      29.706  12.347 -19.544  1.00  0.00     0.220 C 
HETATM   12  N1  UNL     1      28.375  12.424 -19.097  1.00  0.00    -0.344 N 
HETATM   13  C6  UNL     1      27.677  11.243 -18.680  1.00  0.00     0.154 C 
HETATM   14  O1  UNL     1      30.283  13.416 -19.995  1.00  0.00    -0.273 OA
BRANCH  12  15
HETATM   15  C3  UNL     1      27.743  13.744 -19.099  1.00  0.00     0.045 C 
HETATM   16  C4  UNL     1      27.944  14.464 -20.426  1.00  0.00     0.043 C 
HETATM   17  C5  UNL     1      26.290  13.707 -18.796  1.00  0.00     0.043 C 
BRANCH  15  18
HETATM   18  C2  UNL     1      28.432  14.612 -18.076  1.00  0.00    -0.007 C 
HETATM   19  C1  UNL     1      28.038  14.577 -16.814  1.00  0.00     0.009 C 
ENDBRANCH  15  18
ENDBRANCH  12  15
ENDBRANCH  10  11
ENDBRANCH   9  10
ENDBRANCH   8   9
BRANCH   8  20
HETATM   20  N2  UNL     1      29.096  11.198 -22.667  1.00  0.00    -0.357 N 
HETATM   21  C11 UNL     1      27.957  11.687 -22.908  1.00  0.00     0.197 C 
HETATM   22  N3  UNL     1      27.802  12.600 -24.024  1.00  0.00    -0.067 NA
HETATM   23  N4  UNL     1      26.813  11.380 -22.134  1.00  0.00    -0.067 NA
ATOM     24  H2  UNL     1      29.859  11.478 -23.284  1.00  0.00     0.162 HD
ENDBRANCH   8  20
ENDBRANCH   1   8
BRANCH   1  25
HETATM   25  C13 UNL     1      30.929   8.671 -22.841  1.00  0.00     0.064 C 
BRANCH  25  26
HETATM   26  C14 UNL     1      31.072   8.492 -24.297  1.00  0.00     0.110 C 
BRANCH  26  27
HETATM   27  C15 UNL     1      31.881   9.639 -24.797  1.00  0.00     0.236 C 
HETATM   28  O2  UNL     1      33.011   9.451 -25.249  1.00  0.00    -0.272 OA
HETATM   29  N5  UNL     1      31.316  10.919 -24.737  1.00  0.00    -0.268 N 
ATOM     30  H5  UNL     1      30.379  11.045 -24.354  1.00  0.00     0.190 HD
BRANCH  29  31
HETATM   31  N6  UNL     1      32.033  12.019 -25.200  1.00  0.00    -0.268 N 
HETATM   32  C16 UNL     1      31.974  13.226 -24.454  1.00  0.00     0.232 C 
HETATM   33  C17 UNL     1      32.731  14.397 -24.947  1.00  0.00     0.119 C 
HETATM   34  O3  UNL     1      31.297  13.315 -23.400  1.00  0.00    -0.272 OA
ATOM     35  H6  UNL     1      32.587  11.960 -26.054  1.00  0.00     0.190 HD
ENDBRANCH  29  31
ENDBRANCH  26  27
ENDBRANCH  25  26
ENDBRANCH   1  25
BRANCH   6  36
HETATM   36  C19 UNL     1      26.458   8.080 -23.993  1.00  0.00     0.185 C 
HETATM   37  N10 UNL     1      26.279   6.998 -24.659  1.00  0.00    -0.323 N 
HETATM   38  C20 UNL     1      25.980   5.815 -23.904  1.00  0.00     0.222 C 
ATOM     39  H10 UNL     1      26.345   6.980 -25.677  1.00  0.00     0.169 HD
HETATM   40  O4  UNL     1      24.820   5.727 -23.408  1.00  0.00    -0.273 OA
BRANCH  38  41
HETATM   41  C21 UNL     1      26.947   4.731 -23.689  1.00  0.00     0.098 C 
HETATM   42  C22 UNL     1      27.047   4.453 -22.209  1.00  0.00     0.014 C 
ENDBRANCH  38  41
ENDBRANCH   6  36
TORSDOF 13
ENDMDL
MODEL 5
REMARK VINA RESULT: -7.142965801      3.799      7.035
REMARK  13 active torsions:
REMARK  status: ('A' for Active; 'I' for Inactive)
REMARK    1  A    between atoms: C2_2  and  C3_3 
REMARK    2  A    between atoms: C3_3  and  N1_6 
REMARK       I    between atoms: N1_6  and  C7_8 
REMARK    3  A    between atoms: C7_8  and  C8_10 
REMARK    4  A    between atoms: C8_10  and  C9_11 
REMARK    5  A    between atoms: C9_11  and  C10_12 
REMARK    6  A    between atoms: C10_12  and  N2_13 
REMARK    7  A    between atoms: C10_12  and  C12_18 
REMARK    8  A    between atoms: C12_18  and  C13_19 
REMARK    9  A    between atoms: C13_19  and  C14_20 
REMARK   10  A    between atoms: C14_20  and  C15_21 
REMARK       I    between atoms: C15_21  and  N5_23 
REMARK   11  A    between atoms: N5_23  and  N6_25 
REMARK       I    between atoms: N6_25  and  C16_27 
REMARK       I    between atoms: N7_30  and  C18_32 
REMARK   12  A    between atoms: N9_34  and  C19_36 
REMARK       I    between atoms: N10_37  and  C20_39 
REMARK   13  A    between atoms: C20_39  and  C21_41 
ROOT
HETATM    1  C12 UNL     1      29.257   8.973 -21.913  1.00  0.00     0.012 C 
HETATM    2  N7  UNL     1      28.302   8.165 -21.862  1.00  0.00    -0.336 N 
ATOM      3  H7  UNL     1      28.456   7.270 -22.330  1.00  0.00     0.168 HD
HETATM    4  C18 UNL     1      27.068   8.319 -21.259  1.00  0.00     0.193 C 
HETATM    5  N8  UNL     1      26.921   8.421 -19.827  1.00  0.00    -0.063 NA
HETATM    6  N9  UNL     1      25.951   8.384 -21.925  1.00  0.00    -0.327 N 
ATOM      7  H9  UNL     1      25.076   8.494 -21.414  1.00  0.00     0.169 HD
ENDROOT
BRANCH   1   8
HETATM    8  C10 UNL     1      29.247  10.340 -21.302  1.00  0.00     0.130 C 
BRANCH   8   9
HETATM    9  C9  UNL     1      30.642  10.576 -20.782  1.00  0.00     0.040 C 
BRANCH   9  10
HETATM   10  C8  UNL     1      30.616  11.149 -19.373  1.00  0.00     0.105 C 
BRANCH  10  11
HETATM   11  C7  UNL     1      29.897  12.443 -19.353  1.00  0.00     0.220 C 
HETATM   12  N1  UNL     1      28.618  12.661 -18.810  1.00  0.00    -0.344 N 
HETATM   13  C6  UNL     1      27.846  11.566 -18.299  1.00  0.00     0.154 C 
HETATM   14  O1  UNL     1      30.535  13.437 -19.884  1.00  0.00    -0.273 OA
BRANCH  12  15
HETATM   15  C3  UNL     1      28.115  14.035 -18.811  1.00  0.00     0.045 C 
HETATM   16  C4  UNL     1      26.618  14.089 -18.539  1.00  0.00     0.043 C 
HETATM   17  C5  UNL     1      28.804  14.921 -17.841  1.00  0.00     0.043 C 
BRANCH  15  18
HETATM   18  C2  UNL     1      28.280  14.610 -20.198  1.00  0.00    -0.007 C 
HETATM   19  C1  UNL     1      27.250  15.186 -20.795  1.00  0.00     0.009 C 
ENDBRANCH  15  18
ENDBRANCH  12  15
ENDBRANCH  10  11
ENDBRANCH   9  10
ENDBRANCH   8   9
BRANCH   8  20
HETATM   20  N2  UNL     1      28.915  11.235 -22.372  1.00  0.00    -0.357 N 
HETATM   21  C11 UNL     1      27.806  11.817 -22.539  1.00  0.00     0.197 C 
HETATM   22  N3  UNL     1      27.634  12.694 -23.681  1.00  0.00    -0.067 NA
HETATM   23  N4  UNL     1      26.713  11.647 -21.657  1.00  0.00    -0.067 NA
ATOM     24  H2  UNL     1      29.642  11.419 -23.064  1.00  0.00     0.162 HD
ENDBRANCH   8  20
ENDBRANCH   1   8
BRANCH   1  25
HETATM   25  C13 UNL     1      30.506   8.553 -22.581  1.00  0.00     0.064 C 
BRANCH  25  26
HETATM   26  C14 UNL     1      30.549   8.465 -24.051  1.00  0.00     0.110 C 
BRANCH  26  27
HETATM   27  C15 UNL     1      31.457   9.548 -24.523  1.00  0.00     0.236 C 
HETATM   28  O2  UNL     1      32.590   9.278 -24.922  1.00  0.00    -0.272 OA
HETATM   29  N5  UNL     1      30.979  10.864 -24.500  1.00  0.00    -0.268 N 
ATOM     30  H5  UNL     1      30.037  11.058 -24.161  1.00  0.00     0.190 HD
BRANCH  29  31
HETATM   31  N6  UNL     1      31.790  11.908 -24.939  1.00  0.00    -0.268 N 
HETATM   32  C16 UNL     1      31.787  13.121 -24.201  1.00  0.00     0.232 C 
HETATM   33  C17 UNL     1      32.645  14.231 -24.669  1.00  0.00     0.119 C 
HETATM   34  O3  UNL     1      31.078  13.266 -23.175  1.00  0.00    -0.272 OA
ATOM     35  H6  UNL     1      32.372  11.803 -25.770  1.00  0.00     0.190 HD
ENDBRANCH  29  31
ENDBRANCH  26  27
ENDBRANCH  25  26
ENDBRANCH   1  25
BRANCH   6  36
HETATM   36  C19 UNL     1      25.917   8.308 -23.325  1.00  0.00     0.185 C 
HETATM   37  N10 UNL     1      24.872   8.655 -23.983  1.00  0.00    -0.323 N 
HETATM   38  C20 UNL     1      23.752   9.125 -23.218  1.00  0.00     0.222 C 
ATOM     39  H10 UNL     1      24.839   8.600 -25.001  1.00  0.00     0.169 HD
HETATM   40  O4  UNL     1      23.846  10.281 -22.714  1.00  0.00    -0.273 OA
BRANCH  38  41
HETATM   41  C21 UNL     1      22.534   8.334 -23.004  1.00  0.00     0.098 C 
HETATM   42  C22 UNL     1      22.062   8.542 -21.585  1.00  0.00     0.014 C 
ENDBRANCH  38  41
ENDBRANCH   6  36
TORSDOF 13
ENDMDL
