MODEL 1
REMARK VINA RESULT: -8.371743131      0.000      0.000
REMARK  14 active torsions:
REMARK  status: ('A' for Active; 'I' for Inactive)
REMARK    1  A    between atoms: C3_3  and  N1_4 
REMARK    2  A    between atoms: N1_4  and  C4_5 
REMARK       I    between atoms: N1_4  and  C8_9 
REMARK    3  A    between atoms: C4_5  and  C5_6 
REMARK    4  A    between atoms: C5_6  and  C6_7 
REMARK    5  A    between atoms: C8_9  and  C9_11 
REMARK    6  A    between atoms: C9_11  and  N2_12 
REMARK    7  A    between atoms: C10_13  and  S1_14 
REMARK    8  A    between atoms: S1_14  and  C11_15 
REMARK    9  A    between atoms: C13_19  and  C14_20 
REMARK   10  A    between atoms: C21_29  and  O2_30 
REMARK   11  A    between atoms: N6_38  and  C26_39 
REMARK   12  A    between atoms: C26_39  and  C27_40 
REMARK   13  A    between atoms: C27_40  and  C28_41 
REMARK   14  A    between atoms: C28_41  and  O3_42 
ROOT
HETATM    1  C1  UNL     1      14.415  21.492  19.136  1.00  0.00     0.014 C 
HETATM    2  C2  UNL     1      14.443  22.344  18.290  1.00  0.00    -0.098 C 
HETATM    3  C3  UNL     1      14.498  23.415  17.252  1.00  0.00     0.219 C 
ENDROOT
BRANCH   3   4
HETATM    4  N1  UNL     1      15.867  23.331  16.714  1.00  0.00    -0.340 N 
HETATM    5  C8  UNL     1      16.835  24.293  17.135  1.00  0.00     0.238 C 
HETATM    6  O1  UNL     1      16.497  25.202  17.933  1.00  0.00    -0.271 OA
BRANCH   4   7
HETATM    7  C4  UNL     1      16.148  22.245  15.807  1.00  0.00     0.127 C 
BRANCH   7   8
HETATM    8  C5  UNL     1      15.966  22.578  14.364  1.00  0.00     0.020 C 
BRANCH   8   9
HETATM    9  C6  UNL     1      15.026  21.584  13.719  1.00  0.00    -0.003 C 
HETATM   10  C7  UNL     1      14.478  22.105  12.402  1.00  0.00     0.005 C 
ENDBRANCH   8   9
ENDBRANCH   7   8
ENDBRANCH   4   7
BRANCH   5  11
HETATM   11  C9  UNL     1      18.217  24.166  16.599  1.00  0.00     0.234 C 
BRANCH  11  12
HETATM   12  N2  UNL     1      19.238  24.474  17.543  1.00  0.00    -0.312 N 
HETATM   13  C10 UNL     1      19.503  23.713  18.628  1.00  0.00     0.148 A 
HETATM   14  N3  UNL     1      20.449  24.039  19.530  1.00  0.00    -0.334 N 
HETATM   15  C13 UNL     1      21.199  25.121  19.444  1.00  0.00     0.076 A 
ATOM     16  H3  UNL     1      20.593  23.415  20.324  1.00  0.00     0.168 HD
HETATM   17  C24 UNL     1      20.976  25.957  18.337  1.00  0.00     0.094 A 
HETATM   18  N5  UNL     1      21.738  27.035  18.226  1.00  0.00    -0.348 N 
HETATM   19  C30 UNL     1      19.989  25.604  17.405  1.00  0.00     0.135 A 
HETATM   20  C25 UNL     1      21.562  27.838  17.168  1.00  0.00     0.186 A 
ATOM     21  H5  UNL     1      22.444  27.249  18.931  1.00  0.00     0.167 HD
HETATM   22  N6  UNL     1      20.633  27.574  16.220  1.00  0.00    -0.308 N 
HETATM   23  C29 UNL     1      19.846  26.453  16.341  1.00  0.00     0.278 A 
HETATM   24  O4  UNL     1      19.003  26.219  15.475  1.00  0.00    -0.265 OA
BRANCH  13  25
HETATM   25  S1  UNL     1      18.560  22.198  18.862  1.00  0.00    -0.094 SA
BRANCH  25  26
HETATM   26  C11 UNL     1      17.867  22.113  20.505  1.00  0.00     0.078 C 
HETATM   27  C12 UNL     1      18.906  21.607  21.507  1.00  0.00     0.016 C 
ENDBRANCH  25  26
ENDBRANCH  13  25
BRANCH  15  28
HETATM   28  C14 UNL     1      22.230  25.503  20.404  1.00  0.00     0.028 A 
HETATM   29  C15 UNL     1      22.225  26.424  21.410  1.00  0.00     0.019 A 
HETATM   30  C16 UNL     1      20.989  27.256  21.711  1.00  0.00     0.069 C 
HETATM   31  N4  UNL     1      23.378  26.495  22.066  1.00  0.00    -0.358 N 
HETATM   32  C17 UNL     1      24.204  25.573  21.471  1.00  0.00     0.044 A 
ATOM     33  H4  UNL     1      23.603  27.108  22.849  1.00  0.00     0.166 HD
HETATM   34  C18 UNL     1      25.502  25.229  21.736  1.00  0.00     0.039 A 
HETATM   35  C23 UNL     1      23.522  24.962  20.458  1.00  0.00     0.008 A 
HETATM   36  C19 UNL     1      26.143  24.245  20.966  1.00  0.00    -0.027 A 
HETATM   37  C20 UNL     1      27.543  23.839  21.212  1.00  0.00     0.051 C 
HETATM   38  C21 UNL     1      25.405  23.656  19.950  1.00  0.00     0.072 A 
HETATM   39  C22 UNL     1      24.103  23.976  19.658  1.00  0.00     0.051 A 
BRANCH  38  40
HETATM   40  O2  UNL     1      26.060  22.690  19.205  1.00  0.00    -0.360 OA
ATOM     41  H2  UNL     1      25.597  22.368  18.439  1.00  0.00     0.217 HD
ENDBRANCH  38  40
ENDBRANCH  15  28
BRANCH  22  42
HETATM   42  C26 UNL     1      20.468  28.427  15.072  1.00  0.00     0.135 C 
BRANCH  42  43
HETATM   43  C27 UNL     1      21.496  28.306  14.009  1.00  0.00     0.046 C 
BRANCH  43  44
HETATM   44  C28 UNL     1      22.901  28.149  14.615  1.00  0.00     0.165 C 
BRANCH  44  45
HETATM   45  O3  UNL     1      23.471  29.429  14.765  1.00  0.00    -0.401 OA
ATOM     46  H3  UNL     1      23.309  29.926  13.972  1.00  0.00     0.209 HD
ENDBRANCH  44  45
ENDBRANCH  43  44
ENDBRANCH  42  43
ENDBRANCH  22  42
ENDBRANCH  11  12
ENDBRANCH   5  11
ENDBRANCH   3   4
TORSDOF 14
ENDMDL
MODEL 2
REMARK VINA RESULT: -8.284905882      0.908      2.133
REMARK  14 active torsions:
REMARK  status: ('A' for Active; 'I' for Inactive)
REMARK    1  A    between atoms: C3_3  and  N1_4 
REMARK    2  A    between atoms: N1_4  and  C4_5 
REMARK       I    between atoms: N1_4  and  C8_9 
REMARK    3  A    between atoms: C4_5  and  C5_6 
REMARK    4  A    between atoms: C5_6  and  C6_7 
REMARK    5  A    between atoms: C8_9  and  C9_11 
REMARK    6  A    between atoms: C9_11  and  N2_12 
REMARK    7  A    between atoms: C10_13  and  S1_14 
REMARK    8  A    between atoms: S1_14  and  C11_15 
REMARK    9  A    between atoms: C13_19  and  C14_20 
REMARK   10  A    between atoms: C21_29  and  O2_30 
REMARK   11  A    between atoms: N6_38  and  C26_39 
REMARK   12  A    between atoms: C26_39  and  C27_40 
REMARK   13  A    between atoms: C27_40  and  C28_41 
REMARK   14  A    between atoms: C28_41  and  O3_42 
ROOT
HETATM    1  C1  UNL     1      15.490  22.311  13.485  1.00  0.00     0.014 C 
HETATM    2  C2  UNL     1      15.785  21.959  14.595  1.00  0.00    -0.098 C 
HETATM    3  C3  UNL     1      16.175  21.538  15.973  1.00  0.00     0.219 C 
ENDROOT
BRANCH   3   4
HETATM    4  N1  UNL     1      16.212  22.795  16.742  1.00  0.00    -0.340 N 
HETATM    5  C8  UNL     1      17.446  23.507  16.841  1.00  0.00     0.238 C 
HETATM    6  O1  UNL     1      18.476  23.039  16.295  1.00  0.00    -0.271 OA
BRANCH   4   7
HETATM    7  C4  UNL     1      14.971  23.243  17.324  1.00  0.00     0.127 C 
BRANCH   7   8
HETATM    8  C5  UNL     1      14.044  22.147  17.731  1.00  0.00     0.020 C 
BRANCH   8   9
HETATM    9  C6  UNL     1      14.428  21.626  19.098  1.00  0.00    -0.003 C 
HETATM   10  C7  UNL     1      14.678  20.128  19.075  1.00  0.00     0.005 C 
ENDBRANCH   8   9
ENDBRANCH   7   8
ENDBRANCH   4   7
BRANCH   5  11
HETATM   11  C9  UNL     1      17.448  24.788  17.597  1.00  0.00     0.234 C 
BRANCH  11  12
HETATM   12  N2  UNL     1      18.611  24.992  18.393  1.00  0.00    -0.312 N 
HETATM   13  C10 UNL     1      18.812  24.389  19.586  1.00  0.00     0.148 A 
HETATM   14  N3  UNL     1      19.902  24.622  20.343  1.00  0.00    -0.334 N 
HETATM   15  C13 UNL     1      20.868  25.452  19.997  1.00  0.00     0.076 A 
ATOM     16  H3  UNL     1      19.985  24.129  21.232  1.00  0.00     0.168 HD
HETATM   17  C24 UNL     1      20.723  26.112  18.765  1.00  0.00     0.094 A 
HETATM   18  N5  UNL     1      21.697  26.930  18.396  1.00  0.00    -0.348 N 
HETATM   19  C30 UNL     1      19.583  25.859  17.988  1.00  0.00     0.135 A 
HETATM   20  C25 UNL     1      21.594  27.556  17.216  1.00  0.00     0.186 A 
ATOM     21  H5  UNL     1      22.507  27.081  18.998  1.00  0.00     0.167 HD
HETATM   22  N6  UNL     1      20.529  27.370  16.401  1.00  0.00    -0.308 N 
HETATM   23  C29 UNL     1      19.523  26.519  16.790  1.00  0.00     0.278 A 
HETATM   24  O4  UNL     1      18.558  26.355  16.044  1.00  0.00    -0.265 OA
BRANCH  13  25
HETATM   25  S1  UNL     1      17.576  23.221  20.173  1.00  0.00    -0.094 SA
BRANCH  25  26
HETATM   26  C11 UNL     1      18.187  21.544  20.112  1.00  0.00     0.078 C 
HETATM   27  C12 UNL     1      18.921  21.187  21.406  1.00  0.00     0.016 C 
ENDBRANCH  25  26
ENDBRANCH  13  25
BRANCH  15  28
HETATM   28  C14 UNL     1      22.059  25.726  20.794  1.00  0.00     0.028 A 
HETATM   29  C15 UNL     1      22.275  26.601  21.818  1.00  0.00     0.019 A 
HETATM   30  C16 UNL     1      21.160  27.494  22.339  1.00  0.00     0.069 C 
HETATM   31  N4  UNL     1      23.518  26.571  22.286  1.00  0.00    -0.358 N 
HETATM   32  C17 UNL     1      24.176  25.626  21.537  1.00  0.00     0.044 A 
ATOM     33  H4  UNL     1      23.903  27.134  23.044  1.00  0.00     0.166 HD
HETATM   34  C18 UNL     1      25.472  25.191  21.582  1.00  0.00     0.039 A 
HETATM   35  C23 UNL     1      23.304  25.104  20.625  1.00  0.00     0.008 A 
HETATM   36  C19 UNL     1      25.917  24.203  20.687  1.00  0.00    -0.027 A 
HETATM   37  C20 UNL     1      27.307  23.701  20.695  1.00  0.00     0.051 C 
HETATM   38  C21 UNL     1      24.991  23.707  19.782  1.00  0.00     0.072 A 
HETATM   39  C22 UNL     1      23.684  24.120  19.710  1.00  0.00     0.051 A 
BRANCH  38  40
HETATM   40  O2  UNL     1      25.454  22.735  18.910  1.00  0.00    -0.360 OA
ATOM     41  H2  UNL     1      24.861  22.485  18.211  1.00  0.00     0.217 HD
ENDBRANCH  38  40
ENDBRANCH  15  28
BRANCH  22  42
HETATM   42  C26 UNL     1      20.440  28.026  15.122  1.00  0.00     0.135 C 
BRANCH  42  43
HETATM   43  C27 UNL     1      21.372  27.547  14.071  1.00  0.00     0.046 C 
BRANCH  43  44
HETATM   44  C28 UNL     1      22.269  28.689  13.566  1.00  0.00     0.165 C 
BRANCH  44  45
HETATM   45  O3  UNL     1      23.148  29.061  14.602  1.00  0.00    -0.401 OA
ATOM     46  H3  UNL     1      23.124  30.006  14.695  1.00  0.00     0.209 HD
ENDBRANCH  44  45
ENDBRANCH  43  44
ENDBRANCH  42  43
ENDBRANCH  22  42
ENDBRANCH  11  12
ENDBRANCH   5  11
ENDBRANCH   3   4
TORSDOF 14
ENDMDL
MODEL 3
REMARK VINA RESULT: -8.153067869      1.393      1.576
REMARK  14 active torsions:
REMARK  status: ('A' for Active; 'I' for Inactive)
REMARK    1  A    between atoms: C3_3  and  N1_4 
REMARK    2  A    between atoms: N1_4  and  C4_5 
REMARK       I    between atoms: N1_4  and  C8_9 
REMARK    3  A    between atoms: C4_5  and  C5_6 
REMARK    4  A    between atoms: C5_6  and  C6_7 
REMARK    5  A    between atoms: C8_9  and  C9_11 
REMARK    6  A    between atoms: C9_11  and  N2_12 
REMARK    7  A    between atoms: C10_13  and  S1_14 
REMARK    8  A    between atoms: S1_14  and  C11_15 
REMARK    9  A    between atoms: C13_19  and  C14_20 
REMARK   10  A    between atoms: C21_29  and  O2_30 
REMARK   11  A    between atoms: N6_38  and  C26_39 
REMARK   12  A    between atoms: C26_39  and  C27_40 
REMARK   13  A    between atoms: C27_40  and  C28_41 
REMARK   14  A    between atoms: C28_41  and  O3_42 
ROOT
HETATM    1  C1  UNL     1      15.170  20.171  18.623  1.00  0.00     0.014 C 
HETATM    2  C2  UNL     1      15.690  20.603  17.629  1.00  0.00    -0.098 C 
HETATM    3  C3  UNL     1      16.315  21.157  16.392  1.00  0.00     0.219 C 
ENDROOT
BRANCH   3   4
HETATM    4  N1  UNL     1      16.565  22.573  16.713  1.00  0.00    -0.340 N 
HETATM    5  C8  UNL     1      17.910  23.005  16.924  1.00  0.00     0.238 C 
HETATM    6  O1  UNL     1      18.847  22.171  16.857  1.00  0.00    -0.271 OA
BRANCH   4   7
HETATM    7  C4  UNL     1      15.419  23.446  16.762  1.00  0.00     0.127 C 
BRANCH   7   8
HETATM    8  C5  UNL     1      14.826  23.768  15.431  1.00  0.00     0.020 C 
BRANCH   8   9
HETATM    9  C6  UNL     1      13.431  23.191  15.334  1.00  0.00    -0.003 C 
HETATM   10  C7  UNL     1      13.027  22.943  13.890  1.00  0.00     0.005 C 
ENDBRANCH   8   9
ENDBRANCH   7   8
ENDBRANCH   4   7
BRANCH   5  11
HETATM   11  C9  UNL     1      18.137  24.446  17.217  1.00  0.00     0.234 C 
BRANCH  11  12
HETATM   12  N2  UNL     1      19.224  24.696  18.102  1.00  0.00    -0.312 N 
HETATM   13  C10 UNL     1      19.204  24.375  19.415  1.00  0.00     0.148 A 
HETATM   14  N3  UNL     1      20.227  24.652  20.246  1.00  0.00    -0.334 N 
HETATM   15  C13 UNL     1      21.336  25.256  19.864  1.00  0.00     0.076 A 
ATOM     16  H3  UNL     1      20.140  24.379  21.226  1.00  0.00     0.168 HD
HETATM   17  C24 UNL     1      21.424  25.616  18.509  1.00  0.00     0.094 A 
HETATM   18  N5  UNL     1      22.541  26.203  18.107  1.00  0.00    -0.348 N 
HETATM   19  C30 UNL     1      20.351  25.321  17.655  1.00  0.00     0.135 A 
HETATM   20  C25 UNL     1      22.660  26.537  16.815  1.00  0.00     0.186 A 
ATOM     21  H5  UNL     1      23.295  26.397  18.768  1.00  0.00     0.167 HD
HETATM   22  N6  UNL     1      21.675  26.289  15.921  1.00  0.00    -0.308 N 
HETATM   23  C29 UNL     1      20.518  25.679  16.345  1.00  0.00     0.278 A 
HETATM   24  O4  UNL     1      19.626  25.456  15.526  1.00  0.00    -0.265 OA
BRANCH  13  25
HETATM   25  S1  UNL     1      17.754  23.533  20.068  1.00  0.00    -0.094 SA
BRANCH  25  26
HETATM   26  C11 UNL     1      18.049  21.783  20.257  1.00  0.00     0.078 C 
HETATM   27  C12 UNL     1      18.939  21.511  21.471  1.00  0.00     0.016 C 
ENDBRANCH  25  26
ENDBRANCH  13  25
BRANCH  15  28
HETATM   28  C14 UNL     1      22.461  25.571  20.739  1.00  0.00     0.028 A 
HETATM   29  C15 UNL     1      22.594  26.490  21.738  1.00  0.00     0.019 A 
HETATM   30  C16 UNL     1      21.441  27.400  22.131  1.00  0.00     0.069 C 
HETATM   31  N4  UNL     1      23.797  26.487  22.302  1.00  0.00    -0.358 N 
HETATM   32  C17 UNL     1      24.513  25.513  21.648  1.00  0.00     0.044 A 
ATOM     33  H4  UNL     1      24.122  27.083  23.062  1.00  0.00     0.166 HD
HETATM   34  C18 UNL     1      25.803  25.088  21.812  1.00  0.00     0.039 A 
HETATM   35  C23 UNL     1      23.716  24.948  20.695  1.00  0.00     0.008 A 
HETATM   36  C19 UNL     1      26.318  24.064  20.999  1.00  0.00    -0.027 A 
HETATM   37  C20 UNL     1      27.703  23.570  21.137  1.00  0.00     0.051 C 
HETATM   38  C21 UNL     1      25.467  23.524  20.046  1.00  0.00     0.072 A 
HETATM   39  C22 UNL     1      24.168  23.928  19.856  1.00  0.00     0.051 A 
BRANCH  38  40
HETATM   40  O2  UNL     1      25.997  22.519  19.257  1.00  0.00    -0.360 OA
ATOM     41  H2  UNL     1      25.517  22.314  18.462  1.00  0.00     0.217 HD
ENDBRANCH  38  40
ENDBRANCH  15  28
BRANCH  22  42
HETATM   42  C26 UNL     1      21.822  26.627  14.529  1.00  0.00     0.135 C 
BRANCH  42  43
HETATM   43  C27 UNL     1      21.887  28.074  14.206  1.00  0.00     0.046 C 
BRANCH  43  44
HETATM   44  C28 UNL     1      20.506  28.612  13.798  1.00  0.00     0.165 C 
BRANCH  44  45
HETATM   45  O3  UNL     1      19.698  28.695  14.949  1.00  0.00    -0.401 OA
ATOM     46  H3  UNL     1      19.076  29.403  14.831  1.00  0.00     0.209 HD
ENDBRANCH  44  45
ENDBRANCH  43  44
ENDBRANCH  42  43
ENDBRANCH  22  42
ENDBRANCH  11  12
ENDBRANCH   5  11
ENDBRANCH   3   4
TORSDOF 14
ENDMDL
MODEL 4
REMARK VINA RESULT: -7.959740673      1.464      2.082
REMARK  14 active torsions:
REMARK  status: ('A' for Active; 'I' for Inactive)
REMARK    1  A    between atoms: C3_3  and  N1_4 
REMARK    2  A    between atoms: N1_4  and  C4_5 
REMARK       I    between atoms: N1_4  and  C8_9 
REMARK    3  A    between atoms: C4_5  and  C5_6 
REMARK    4  A    between atoms: C5_6  and  C6_7 
REMARK    5  A    between atoms: C8_9  and  C9_11 
REMARK    6  A    between atoms: C9_11  and  N2_12 
REMARK    7  A    between atoms: C10_13  and  S1_14 
REMARK    8  A    between atoms: S1_14  and  C11_15 
REMARK    9  A    between atoms: C13_19  and  C14_20 
REMARK   10  A    between atoms: C21_29  and  O2_30 
REMARK   11  A    between atoms: N6_38  and  C26_39 
REMARK   12  A    between atoms: C26_39  and  C27_40 
REMARK   13  A    between atoms: C27_40  and  C28_41 
REMARK   14  A    between atoms: C28_41  and  O3_42 
ROOT
HETATM    1  C1  UNL     1      13.662  23.381  15.144  1.00  0.00     0.014 C 
HETATM    2  C2  UNL     1      14.243  23.453  16.193  1.00  0.00    -0.098 C 
HETATM    3  C3  UNL     1      14.970  23.515  17.495  1.00  0.00     0.219 C 
ENDROOT
BRANCH   3   4
HETATM    4  N1  UNL     1      16.318  23.007  17.186  1.00  0.00    -0.340 N 
HETATM    5  C8  UNL     1      17.430  23.896  17.282  1.00  0.00     0.238 C 
HETATM    6  O1  UNL     1      17.238  25.095  17.604  1.00  0.00    -0.271 OA
BRANCH   4   7
HETATM    7  C4  UNL     1      16.426  21.613  16.831  1.00  0.00     0.127 C 
BRANCH   7   8
HETATM    8  C5  UNL     1      16.077  20.663  17.928  1.00  0.00     0.020 C 
BRANCH   8   9
HETATM    9  C6  UNL     1      14.797  19.932  17.591  1.00  0.00    -0.003 C 
HETATM   10  C7  UNL     1      13.712  20.203  18.619  1.00  0.00     0.005 C 
ENDBRANCH   8   9
ENDBRANCH   7   8
ENDBRANCH   4   7
BRANCH   5  11
HETATM   11  C9  UNL     1      18.783  23.348  16.993  1.00  0.00     0.234 C 
BRANCH  11  12
HETATM   12  N2  UNL     1      19.799  23.811  17.878  1.00  0.00    -0.312 N 
HETATM   13  C10 UNL     1      19.944  23.363  19.145  1.00  0.00     0.148 A 
HETATM   14  N3  UNL     1      20.888  23.837  19.980  1.00  0.00    -0.334 N 
HETATM   15  C13 UNL     1      21.754  24.775  19.646  1.00  0.00     0.076 A 
ATOM     16  H3  UNL     1      20.937  23.450  20.922  1.00  0.00     0.168 HD
HETATM   17  C24 UNL     1      21.661  25.284  18.339  1.00  0.00     0.094 A 
HETATM   18  N5  UNL     1      22.539  26.210  17.984  1.00  0.00    -0.348 N 
HETATM   19  C30 UNL     1      20.673  24.780  17.481  1.00  0.00     0.135 A 
HETATM   20  C25 UNL     1      22.487  26.697  16.737  1.00  0.00     0.186 A 
ATOM     21  H5  UNL     1      23.241  26.545  18.646  1.00  0.00     0.167 HD
HETATM   22  N6  UNL     1      21.567  26.267  15.842  1.00  0.00    -0.308 N 
HETATM   23  C29 UNL     1      20.659  25.306  16.218  1.00  0.00     0.278 A 
HETATM   24  O4  UNL     1      19.825  24.920  15.398  1.00  0.00    -0.265 OA
BRANCH  13  25
HETATM   25  S1  UNL     1      18.834  22.071  19.728  1.00  0.00    -0.094 SA
BRANCH  25  26
HETATM   26  C11 UNL     1      17.465  22.758  20.645  1.00  0.00     0.078 C 
HETATM   27  C12 UNL     1      17.704  24.238  20.949  1.00  0.00     0.016 C 
ENDBRANCH  25  26
ENDBRANCH  13  25
BRANCH  15  28
HETATM   28  C14 UNL     1      22.788  25.311  20.526  1.00  0.00     0.028 A 
HETATM   29  C15 UNL     1      22.753  26.318  21.445  1.00  0.00     0.019 A 
HETATM   30  C16 UNL     1      21.473  27.091  21.720  1.00  0.00     0.069 C 
HETATM   31  N4  UNL     1      23.920  26.525  22.046  1.00  0.00    -0.358 N 
HETATM   32  C17 UNL     1      24.788  25.609  21.503  1.00  0.00     0.044 A 
ATOM     33  H4  UNL     1      24.128  27.221  22.762  1.00  0.00     0.166 HD
HETATM   34  C18 UNL     1      26.114  25.378  21.746  1.00  0.00     0.039 A 
HETATM   35  C23 UNL     1      24.116  24.864  20.577  1.00  0.00     0.008 A 
HETATM   36  C19 UNL     1      26.796  24.372  21.042  1.00  0.00    -0.027 A 
HETATM   37  C20 UNL     1      28.228  24.084  21.267  1.00  0.00     0.051 C 
HETATM   38  C21 UNL     1      26.067  23.644  20.113  1.00  0.00     0.072 A 
HETATM   39  C22 UNL     1      24.736  23.849  19.845  1.00  0.00     0.051 A 
BRANCH  38  40
HETATM   40  O2  UNL     1      26.762  22.659  19.431  1.00  0.00    -0.360 OA
ATOM     41  H2  UNL     1      26.841  21.822  19.873  1.00  0.00     0.217 HD
ENDBRANCH  38  40
ENDBRANCH  15  28
BRANCH  22  42
HETATM   42  C26 UNL     1      21.534  26.776  14.495  1.00  0.00     0.135 C 
BRANCH  42  43
HETATM   43  C27 UNL     1      21.159  28.204  14.341  1.00  0.00     0.046 C 
BRANCH  43  44
HETATM   44  C28 UNL     1      19.675  28.425  14.678  1.00  0.00     0.165 C 
BRANCH  44  45
HETATM   45  O3  UNL     1      18.924  27.380  14.103  1.00  0.00    -0.401 OA
ATOM     46  H3  UNL     1      18.450  27.725  13.356  1.00  0.00     0.209 HD
ENDBRANCH  44  45
ENDBRANCH  43  44
ENDBRANCH  42  43
ENDBRANCH  22  42
ENDBRANCH  11  12
ENDBRANCH   5  11
ENDBRANCH   3   4
TORSDOF 14
ENDMDL
MODEL 5
REMARK VINA RESULT: -7.569203534      5.492     12.405
REMARK  14 active torsions:
REMARK  status: ('A' for Active; 'I' for Inactive)
REMARK    1  A    between atoms: C3_3  and  N1_4 
REMARK    2  A    between atoms: N1_4  and  C4_5 
REMARK       I    between atoms: N1_4  and  C8_9 
REMARK    3  A    between atoms: C4_5  and  C5_6 
REMARK    4  A    between atoms: C5_6  and  C6_7 
REMARK    5  A    between atoms: C8_9  and  C9_11 
REMARK    6  A    between atoms: C9_11  and  N2_12 
REMARK    7  A    between atoms: C10_13  and  S1_14 
REMARK    8  A    between atoms: S1_14  and  C11_15 
REMARK    9  A    between atoms: C13_19  and  C14_20 
REMARK   10  A    between atoms: C21_29  and  O2_30 
REMARK   11  A    between atoms: N6_38  and  C26_39 
REMARK   12  A    between atoms: C26_39  and  C27_40 
REMARK   13  A    between atoms: C27_40  and  C28_41 
REMARK   14  A    between atoms: C28_41  and  O3_42 
ROOT
HETATM    1  C1  UNL     1      18.425  21.602  20.404  1.00  0.00     0.014 C 
HETATM    2  C2  UNL     1      18.221  21.871  19.251  1.00  0.00    -0.098 C 
HETATM    3  C3  UNL     1      17.948  22.186  17.818  1.00  0.00     0.219 C 
ENDROOT
BRANCH   3   4
HETATM    4  N1  UNL     1      16.524  22.563  17.792  1.00  0.00    -0.340 N 
HETATM    5  C8  UNL     1      15.549  21.556  17.521  1.00  0.00     0.238 C 
HETATM    6  O1  UNL     1      15.922  20.380  17.286  1.00  0.00    -0.271 OA
BRANCH   4   7
HETATM    7  C4  UNL     1      16.206  23.940  18.080  1.00  0.00     0.127 C 
BRANCH   7   8
HETATM    8  C5  UNL     1      17.290  24.911  17.748  1.00  0.00     0.020 C 
BRANCH   8   9
HETATM    9  C6  UNL     1      17.101  25.437  16.343  1.00  0.00    -0.003 C 
HETATM   10  C7  UNL     1      18.218  24.982  15.420  1.00  0.00     0.005 C 
ENDBRANCH   8   9
ENDBRANCH   7   8
ENDBRANCH   4   7
BRANCH   5  11
HETATM   11  C9  UNL     1      14.116  21.959  17.531  1.00  0.00     0.234 C 
BRANCH  11  12
HETATM   12  N2  UNL     1      13.340  21.375  16.489  1.00  0.00    -0.312 N 
HETATM   13  C10 UNL     1      13.390  21.789  15.203  1.00  0.00     0.148 A 
HETATM   14  N3  UNL     1      12.622  21.250  14.237  1.00  0.00    -0.334 N 
HETATM   15  C13 UNL     1      11.757  20.277  14.449  1.00  0.00     0.076 A 
ATOM     16  H3  UNL     1      12.714  21.615  13.288  1.00  0.00     0.168 HD
HETATM   17  C24 UNL     1      11.657  19.796  15.766  1.00  0.00     0.094 A 
HETATM   18  N5  UNL     1      10.809  18.803  15.987  1.00  0.00    -0.348 N 
HETATM   19  C30 UNL     1      12.463  20.367  16.761  1.00  0.00     0.135 A 
HETATM   20  C25 UNL     1      10.709  18.312  17.230  1.00  0.00     0.186 A 
ATOM     21  H5  UNL     1      10.243  18.421  15.228  1.00  0.00     0.167 HD
HETATM   22  N6  UNL     1      11.450  18.801  18.251  1.00  0.00    -0.308 N 
HETATM   23  C29 UNL     1      12.328  19.832  18.013  1.00  0.00     0.278 A 
HETATM   24  O4  UNL     1      12.999  20.272  18.947  1.00  0.00    -0.265 OA
BRANCH  13  25
HETATM   25  S1  UNL     1      14.538  23.105  14.771  1.00  0.00    -0.094 SA
BRANCH  25  26
HETATM   26  C11 UNL     1      15.935  22.474  13.857  1.00  0.00     0.078 C 
HETATM   27  C12 UNL     1      15.514  22.050  12.449  1.00  0.00     0.016 C 
ENDBRANCH  25  26
ENDBRANCH  13  25
BRANCH  15  28
HETATM   28  C14 UNL     1      10.911  19.672  13.425  1.00  0.00     0.028 A 
HETATM   29  C15 UNL     1       9.652  19.982  13.000  1.00  0.00     0.019 A 
HETATM   30  C16 UNL     1       8.885  21.152  13.595  1.00  0.00     0.069 C 
HETATM   31  N4  UNL     1       9.204  19.177  12.043  1.00  0.00    -0.358 N 
HETATM   32  C17 UNL     1      10.215  18.276  11.810  1.00  0.00     0.044 A 
ATOM     33  H4  UNL     1       8.298  19.219  11.578  1.00  0.00     0.166 HD
HETATM   34  C18 UNL     1      10.294  17.224  10.938  1.00  0.00     0.039 A 
HETATM   35  C23 UNL     1      11.258  18.562  12.642  1.00  0.00     0.008 A 
HETATM   36  C19 UNL     1      11.452  16.430  10.893  1.00  0.00    -0.027 A 
HETATM   37  C20 UNL     1      11.587  15.284   9.970  1.00  0.00     0.051 C 
HETATM   38  C21 UNL     1      12.483  16.764  11.760  1.00  0.00     0.072 A 
HETATM   39  C22 UNL     1      12.436  17.811  12.646  1.00  0.00     0.051 A 
BRANCH  38  40
HETATM   40  O2  UNL     1      13.612  15.966  11.698  1.00  0.00    -0.360 OA
ATOM     41  H2  UNL     1      14.443  16.422  11.633  1.00  0.00     0.217 HD
ENDBRANCH  38  40
ENDBRANCH  15  28
BRANCH  22  42
HETATM   42  C26 UNL     1      11.357  18.249  19.578  1.00  0.00     0.135 C 
BRANCH  42  43
HETATM   43  C27 UNL     1      12.442  17.320  19.981  1.00  0.00     0.046 C 
BRANCH  43  44
HETATM   44  C28 UNL     1      13.272  17.905  21.135  1.00  0.00     0.165 C 
BRANCH  44  45
HETATM   45  O3  UNL     1      12.634  19.072  21.599  1.00  0.00    -0.401 OA
ATOM     46  H3  UNL     1      12.897  19.800  21.049  1.00  0.00     0.209 HD
ENDBRANCH  44  45
ENDBRANCH  43  44
ENDBRANCH  42  43
ENDBRANCH  22  42
ENDBRANCH  11  12
ENDBRANCH   5  11
ENDBRANCH   3   4
TORSDOF 14
ENDMDL
