MODEL 1
REMARK VINA RESULT: -7.113854364      0.000      0.000
REMARK  2 active torsions:
REMARK  status: ('A' for Active; 'I' for Inactive)
REMARK    1  A    between atoms: C3_6  and  N2_7 
REMARK    2  A    between atoms: N2_7  and  N3_9 
ROOT
HETATM    1  N3  UNL     1     -35.844 -16.648 -16.730  1.00  0.00    -0.278 N 
ATOM      2  H3  UNL     1     -36.118 -16.284 -17.642  1.00  0.00     0.189 HD
HETATM    3  C4  UNL     1     -35.016 -17.648 -16.644  1.00  0.00     0.192 A 
HETATM    4  N4  UNL     1     -34.388 -18.362 -17.700  1.00  0.00    -0.314 N 
ATOM      5  H4  UNL     1     -34.518 -18.165 -18.692  1.00  0.00     0.170 HD
HETATM    6  C5  UNL     1     -33.550 -19.390 -17.179  1.00  0.00     0.180 A 
HETATM    7  S1  UNL     1     -32.638 -20.455 -18.028  1.00  0.00    -0.040 SA
HETATM    8  N5  UNL     1     -33.637 -19.342 -15.755  1.00  0.00    -0.297 N 
ATOM      9  H5  UNL     1     -33.150 -19.954 -15.100  1.00  0.00     0.171 HD
HETATM   10  C6  UNL     1     -34.527 -18.284 -15.414  1.00  0.00     0.293 A 
HETATM   11  O2  UNL     1     -34.819 -17.980 -14.228  1.00  0.00    -0.264 OA
ENDROOT
BRANCH   1  12
HETATM   12  N2  UNL     1     -36.350 -16.085 -15.574  1.00  0.00    -0.269 N 
ATOM     13  H2  UNL     1     -35.816 -15.353 -15.103  1.00  0.00     0.190 HD
BRANCH  12  14
HETATM   14  C3  UNL     1     -37.602 -16.499 -15.021  1.00  0.00     0.197 A 
HETATM   15  N1  UNL     1     -38.461 -15.744 -14.459  1.00  0.00    -0.352 N 
HETATM   16  C2  UNL     1     -39.624 -16.451 -14.002  1.00  0.00     0.225 A 
ATOM     17  H1  UNL     1     -38.335 -14.738 -14.347  1.00  0.00     0.163 HD
HETATM   18  C1  UNL     1     -39.345 -17.850 -14.387  1.00  0.00     0.242 A 
HETATM   19  O1  UNL     1     -40.084 -18.864 -14.195  1.00  0.00    -0.271 OA
HETATM   20  N6  UNL     1     -38.077 -17.848 -15.020  1.00  0.00    -0.296 N 
ATOM     21  H6  UNL     1     -37.592 -18.659 -15.405  1.00  0.00     0.172 HD
ENDBRANCH  12  14
ENDBRANCH   1  12
TORSDOF 2
ENDMDL
MODEL 2
REMARK VINA RESULT: -7.004142098      0.801      1.258
REMARK  2 active torsions:
REMARK  status: ('A' for Active; 'I' for Inactive)
REMARK    1  A    between atoms: C3_6  and  N2_7 
REMARK    2  A    between atoms: N2_7  and  N3_9 
ROOT
HETATM    1  N3  UNL     1     -35.880 -16.656 -16.696  1.00  0.00    -0.278 N 
ATOM      2  H3  UNL     1     -36.164 -16.296 -17.607  1.00  0.00     0.189 HD
HETATM    3  C4  UNL     1     -35.045 -17.650 -16.615  1.00  0.00     0.192 A 
HETATM    4  N4  UNL     1     -34.423 -18.364 -17.674  1.00  0.00    -0.314 N 
ATOM      5  H4  UNL     1     -34.564 -18.171 -18.666  1.00  0.00     0.170 HD
HETATM    6  C5  UNL     1     -33.575 -19.386 -17.158  1.00  0.00     0.180 A 
HETATM    7  S1  UNL     1     -32.665 -20.448 -18.012  1.00  0.00    -0.040 SA
HETATM    8  N5  UNL     1     -33.648 -19.334 -15.733  1.00  0.00    -0.297 N 
ATOM      9  H5  UNL     1     -33.151 -19.941 -15.081  1.00  0.00     0.171 HD
HETATM   10  C6  UNL     1     -34.541 -18.280 -15.387  1.00  0.00     0.293 A 
HETATM   11  O2  UNL     1     -34.823 -17.974 -14.199  1.00  0.00    -0.264 OA
ENDROOT
BRANCH   1  12
HETATM   12  N2  UNL     1     -36.378 -16.091 -15.536  1.00  0.00    -0.269 N 
ATOM     13  H2  UNL     1     -35.838 -15.363 -15.067  1.00  0.00     0.190 HD
BRANCH  12  14
HETATM   14  C3  UNL     1     -37.629 -16.501 -14.978  1.00  0.00     0.197 A 
HETATM   15  N1  UNL     1     -38.083 -17.691 -14.947  1.00  0.00    -0.352 N 
HETATM   16  C2  UNL     1     -39.370 -17.790 -14.320  1.00  0.00     0.225 A 
ATOM     17  H1  UNL     1     -37.581 -18.492 -15.330  1.00  0.00     0.163 HD
HETATM   18  C1  UNL     1     -39.671 -16.395 -13.938  1.00  0.00     0.242 A 
HETATM   19  O1  UNL     1     -40.709 -15.964 -13.347  1.00  0.00    -0.271 OA
HETATM   20  N6  UNL     1     -38.566 -15.615 -14.361  1.00  0.00    -0.296 N 
ATOM     21  H6  UNL     1     -38.459 -14.606 -14.247  1.00  0.00     0.172 HD
ENDBRANCH  12  14
ENDBRANCH   1  12
TORSDOF 2
ENDMDL
MODEL 3
REMARK VINA RESULT: -6.908163186      2.073      2.519
REMARK  2 active torsions:
REMARK  status: ('A' for Active; 'I' for Inactive)
REMARK    1  A    between atoms: C3_6  and  N2_7 
REMARK    2  A    between atoms: N2_7  and  N3_9 
ROOT
HETATM    1  N3  UNL     1     -37.104 -17.643 -15.129  1.00  0.00    -0.278 N 
ATOM      2  H3  UNL     1     -37.598 -18.409 -14.671  1.00  0.00     0.189 HD
HETATM    3  C4  UNL     1     -36.083 -17.888 -15.896  1.00  0.00     0.192 A 
HETATM    4  N4  UNL     1     -35.508 -19.146 -16.221  1.00  0.00    -0.314 N 
ATOM      5  H4  UNL     1     -35.844 -20.045 -15.875  1.00  0.00     0.170 HD
HETATM    6  C5  UNL     1     -34.397 -18.978 -17.098  1.00  0.00     0.180 A 
HETATM    7  S1  UNL     1     -33.440 -20.150 -17.726  1.00  0.00    -0.040 SA
HETATM    8  N5  UNL     1     -34.248 -17.580 -17.348  1.00  0.00    -0.297 N 
ATOM      9  H5  UNL     1     -33.540 -17.145 -17.939  1.00  0.00     0.171 HD
HETATM   10  C6  UNL     1     -35.269 -16.902 -16.622  1.00  0.00     0.293 A 
HETATM   11  O2  UNL     1     -35.412 -15.652 -16.632  1.00  0.00    -0.264 OA
ENDROOT
BRANCH   1  12
HETATM   12  N2  UNL     1     -37.512 -16.336 -14.938  1.00  0.00    -0.269 N 
ATOM     13  H2  UNL     1     -36.964 -15.580 -15.349  1.00  0.00     0.190 HD
BRANCH  12  14
HETATM   14  C3  UNL     1     -38.684 -16.018 -14.182  1.00  0.00     0.197 A 
HETATM   15  N1  UNL     1     -39.404 -16.843 -13.532  1.00  0.00    -0.352 N 
HETATM   16  C2  UNL     1     -40.518 -16.224 -12.870  1.00  0.00     0.225 A 
ATOM     17  H1  UNL     1     -39.209 -17.843 -13.487  1.00  0.00     0.163 HD
HETATM   18  C1  UNL     1     -40.375 -14.797 -13.227  1.00  0.00     0.242 A 
HETATM   19  O1  UNL     1     -41.127 -13.836 -12.877  1.00  0.00    -0.271 OA
HETATM   20  N6  UNL     1     -39.222 -14.700 -14.045  1.00  0.00    -0.296 N 
ATOM     21  H6  UNL     1     -38.845 -13.847 -14.460  1.00  0.00     0.172 HD
ENDBRANCH  12  14
ENDBRANCH   1  12
TORSDOF 2
ENDMDL
MODEL 4
REMARK VINA RESULT: -6.847432977      1.278      1.628
REMARK  2 active torsions:
REMARK  status: ('A' for Active; 'I' for Inactive)
REMARK    1  A    between atoms: C3_6  and  N2_7 
REMARK    2  A    between atoms: N2_7  and  N3_9 
ROOT
HETATM    1  N3  UNL     1     -35.540 -17.609 -14.363  1.00  0.00    -0.278 N 
ATOM      2  H3  UNL     1     -35.481 -18.208 -13.540  1.00  0.00     0.189 HD
HETATM    3  C4  UNL     1     -34.929 -17.943 -15.462  1.00  0.00     0.192 A 
HETATM    4  N4  UNL     1     -34.137 -19.096 -15.712  1.00  0.00    -0.314 N 
ATOM      5  H4  UNL     1     -33.946 -19.829 -15.029  1.00  0.00     0.170 HD
HETATM    6  C5  UNL     1     -33.646 -19.085 -17.050  1.00  0.00     0.180 A 
HETATM    7  S1  UNL     1     -32.696 -20.209 -17.770  1.00  0.00    -0.040 SA
HETATM    8  N5  UNL     1     -34.131 -17.899 -17.682  1.00  0.00    -0.297 N 
ATOM      9  H5  UNL     1     -33.949 -17.611 -18.643  1.00  0.00     0.171 HD
HETATM   10  C6  UNL     1     -34.915 -17.193 -16.726  1.00  0.00     0.293 A 
HETATM   11  O2  UNL     1     -35.487 -16.099 -16.972  1.00  0.00    -0.264 OA
ENDROOT
BRANCH   1  12
HETATM   12  N2  UNL     1     -36.268 -16.435 -14.321  1.00  0.00    -0.269 N 
ATOM     13  H2  UNL     1     -35.774 -15.546 -14.236  1.00  0.00     0.190 HD
BRANCH  12  14
HETATM   14  C3  UNL     1     -37.696 -16.433 -14.396  1.00  0.00     0.197 A 
HETATM   15  N1  UNL     1     -38.460 -15.446 -14.138  1.00  0.00    -0.352 N 
HETATM   16  C2  UNL     1     -39.853 -15.750 -14.302  1.00  0.00     0.225 A 
ATOM     17  H1  UNL     1     -38.115 -14.532 -13.845  1.00  0.00     0.163 HD
HETATM   18  C1  UNL     1     -39.845 -17.165 -14.729  1.00  0.00     0.242 A 
HETATM   19  O1  UNL     1     -40.849 -17.893 -15.001  1.00  0.00    -0.271 OA
HETATM   20  N6  UNL     1     -38.486 -17.562 -14.778  1.00  0.00    -0.296 N 
ATOM     21  H6  UNL     1     -38.135 -18.484 -15.039  1.00  0.00     0.172 HD
ENDBRANCH  12  14
ENDBRANCH   1  12
TORSDOF 2
ENDMDL
MODEL 5
REMARK VINA RESULT: -6.588537199      1.551      1.838
REMARK  2 active torsions:
REMARK  status: ('A' for Active; 'I' for Inactive)
REMARK    1  A    between atoms: C3_6  and  N2_7 
REMARK    2  A    between atoms: N2_7  and  N3_9 
ROOT
HETATM    1  N3  UNL     1     -36.628 -16.570 -15.962  1.00  0.00    -0.278 N 
ATOM      2  H3  UNL     1     -37.062 -16.258 -16.831  1.00  0.00     0.189 HD
HETATM    3  C4  UNL     1     -35.730 -17.511 -15.978  1.00  0.00     0.192 A 
HETATM    4  N4  UNL     1     -35.221 -18.222 -17.098  1.00  0.00    -0.314 N 
ATOM      5  H4  UNL     1     -35.514 -18.071 -18.064  1.00  0.00     0.170 HD
HETATM    6  C5  UNL     1     -34.246 -19.175 -16.686  1.00  0.00     0.180 A 
HETATM    7  S1  UNL     1     -33.402 -20.209 -17.636  1.00  0.00    -0.040 SA
HETATM    8  N5  UNL     1     -34.119 -19.080 -15.266  1.00  0.00    -0.297 N 
ATOM      9  H5  UNL     1     -33.497 -19.634 -14.678  1.00  0.00     0.171 HD
HETATM   10  C6  UNL     1     -35.017 -18.069 -14.821  1.00  0.00     0.293 A 
HETATM   11  O2  UNL     1     -35.146 -17.740 -13.613  1.00  0.00    -0.264 OA
ENDROOT
BRANCH   1  12
HETATM   12  N2  UNL     1     -36.990 -15.998 -14.757  1.00  0.00    -0.269 N 
ATOM     13  H2  UNL     1     -36.280 -15.523 -14.200  1.00  0.00     0.190 HD
BRANCH  12  14
HETATM   14  C3  UNL     1     -38.334 -16.053 -14.272  1.00  0.00     0.197 A 
HETATM   15  N1  UNL     1     -38.941 -17.095 -13.860  1.00  0.00    -0.352 N 
HETATM   16  C2  UNL     1     -40.287 -16.837 -13.434  1.00  0.00     0.225 A 
ATOM     17  H1  UNL     1     -38.512 -18.020 -13.836  1.00  0.00     0.163 HD
HETATM   18  C1  UNL     1     -40.440 -15.383 -13.655  1.00  0.00     0.242 A 
HETATM   19  O1  UNL     1     -41.467 -14.673 -13.426  1.00  0.00    -0.271 OA
HETATM   20  N6  UNL     1     -39.205 -14.924 -14.177  1.00  0.00    -0.296 N 
ATOM     21  H6  UNL     1     -38.980 -13.963 -14.438  1.00  0.00     0.172 HD
ENDBRANCH  12  14
ENDBRANCH   1  12
TORSDOF 2
ENDMDL
