MODEL 1
REMARK VINA RESULT: -6.691634634      0.000      0.000
REMARK  7 active torsions:
REMARK  status: ('A' for Active; 'I' for Inactive)
REMARK    1  A    between atoms: N1_1  and  C1_4 
REMARK    2  A    between atoms: C2_7  and  N3_8 
REMARK       I    between atoms: N3_8  and  C3_10 
REMARK    3  A    between atoms: C3_10  and  C4_12 
REMARK    4  A    between atoms: C4_12  and  N4_13 
REMARK    5  A    between atoms: C10_25  and  C11_26 
REMARK    6  A    between atoms: N8_27  and  C12_29 
REMARK    7  A    between atoms: C12_29  and  C13_30 
ROOT
HETATM    1  C1  UNL     1      42.067 -15.189  13.490  1.00  0.00     0.129 A 
HETATM    2  N2  UNL     1      41.189 -15.602  14.413  1.00  0.00    -0.176 N 
ATOM      3  H2  UNL     1      41.183 -15.160  15.333  1.00  0.00     0.186 HD
HETATM    4  C2  UNL     1      40.299 -16.605  14.143  1.00  0.00     0.687 A 
HETATM    5  N6  UNL     1      40.348 -17.144  12.926  1.00  0.00    -0.177 N 
ATOM      6  H6  UNL     1      39.688 -17.891  12.714  1.00  0.00     0.185 HD
HETATM    7  C9  UNL     1      41.210 -16.773  11.950  1.00  0.00     0.147 A 
HETATM    8  N7  UNL     1      41.216 -17.382  10.678  1.00  0.00    -0.081 NA
HETATM    9  C10 UNL     1      42.101 -15.764  12.232  1.00  0.00     0.065 A 
ENDROOT
BRANCH   4  10
HETATM   10  N3  UNL     1      39.483 -16.953  15.079  1.00  0.00    -0.158 N 
HETATM   11  C3  UNL     1      38.590 -18.043  14.820  1.00  0.00     0.264 C 
HETATM   12  O1  UNL     1      39.014 -19.204  14.673  1.00  0.00    -0.271 OA
ATOM     13  H3  UNL     1      39.474 -16.468  15.975  1.00  0.00     0.187 HD
BRANCH  11  14
HETATM   14  C4  UNL     1      37.161 -17.720  14.739  1.00  0.00     0.375 C 
BRANCH  14  15
HETATM   15  N4  UNL     1      36.452 -17.902  15.974  1.00  0.00     0.100 N 
HETATM   16  C5  UNL     1      35.571 -19.001  15.912  1.00  0.00     0.300 C 
HETATM   17  C6  UNL     1      34.603 -19.087  17.071  1.00  0.00     0.262 C 
HETATM   18  N5  UNL     1      34.735 -17.959  17.970  1.00  0.00    -0.072 N 
HETATM   19  C7  UNL     1      34.582 -16.767  17.130  1.00  0.00     0.262 C 
ATOM     20  H52 UNL     1      34.093 -17.988  18.761  1.00  0.00     0.277 HD
ATOM     21  H51 UNL     1      35.597 -17.968  18.514  1.00  0.00     0.277 HD
HETATM   22  C8  UNL     1      35.839 -16.644  16.328  1.00  0.00     0.300 C 
ENDBRANCH  14  15
ENDBRANCH  11  14
ENDBRANCH   4  10
BRANCH   1  23
HETATM   23  N1  UNL     1      42.918 -14.241  13.727  1.00  0.00    -0.384 N 
ATOM     24  H12 UNL     1      43.832 -14.519  14.086  1.00  0.00     0.157 HD
ATOM     25  H11 UNL     1      42.694 -13.260  13.565  1.00  0.00     0.157 HD
ENDBRANCH   1  23
BRANCH   9  26
HETATM   26  C11 UNL     1      43.082 -15.279  11.272  1.00  0.00     0.101 C 
HETATM   27  N8  UNL     1      42.780 -14.980  10.063  1.00  0.00    -0.396 N 
ATOM     28  H8  UNL     1      41.802 -15.100   9.798  1.00  0.00     0.158 HD
BRANCH  27  29
HETATM   29  C12 UNL     1      43.656 -14.500   9.048  1.00  0.00     0.152 C 
BRANCH  29  30
HETATM   30  C13 UNL     1      43.944 -15.572   8.047  1.00  0.00     0.203 C 
HETATM   31  C14 UNL     1      44.295 -14.996   6.686  1.00  0.00     0.036 C 
HETATM   32  C15 UNL     1      42.929 -14.755   6.086  1.00  0.00     0.029 C 
HETATM   33  C16 UNL     1      42.107 -15.867   6.651  1.00  0.00     0.233 C 
HETATM   34  N9  UNL     1      42.773 -16.357   7.820  1.00  0.00    -0.069 N 
ATOM     35  H92 UNL     1      42.978 -17.355   7.762  1.00  0.00     0.277 HD
ATOM     36  H91 UNL     1      42.159 -16.385   8.635  1.00  0.00     0.277 HD
ENDBRANCH  29  30
ENDBRANCH  27  29
ENDBRANCH   9  26
TORSDOF 7
ENDMDL
MODEL 2
REMARK VINA RESULT: -6.634441872      1.142      1.719
REMARK  7 active torsions:
REMARK  status: ('A' for Active; 'I' for Inactive)
REMARK    1  A    between atoms: N1_1  and  C1_4 
REMARK    2  A    between atoms: C2_7  and  N3_8 
REMARK       I    between atoms: N3_8  and  C3_10 
REMARK    3  A    between atoms: C3_10  and  C4_12 
REMARK    4  A    between atoms: C4_12  and  N4_13 
REMARK    5  A    between atoms: C10_25  and  C11_26 
REMARK    6  A    between atoms: N8_27  and  C12_29 
REMARK    7  A    between atoms: C12_29  and  C13_30 
ROOT
HETATM    1  C1  UNL     1      41.356 -16.918  12.204  1.00  0.00     0.129 A 
HETATM    2  N2  UNL     1      40.402 -16.854  13.141  1.00  0.00    -0.176 N 
ATOM      3  H2  UNL     1      40.033 -17.716  13.542  1.00  0.00     0.186 HD
HETATM    4  C2  UNL     1      39.913 -15.650  13.570  1.00  0.00     0.687 A 
HETATM    5  N6  UNL     1      40.432 -14.556  13.015  1.00  0.00    -0.177 N 
ATOM      6  H6  UNL     1      40.077 -13.653  13.329  1.00  0.00     0.185 HD
HETATM    7  C9  UNL     1      41.398 -14.553  12.065  1.00  0.00     0.147 A 
HETATM    8  N7  UNL     1      41.910 -13.360  11.514  1.00  0.00    -0.081 NA
HETATM    9  C10 UNL     1      41.881 -15.769  11.641  1.00  0.00     0.065 A 
ENDROOT
BRANCH   4  10
HETATM   10  N3  UNL     1      38.993 -15.661  14.472  1.00  0.00    -0.158 N 
HETATM   11  C3  UNL     1      38.458 -16.930  14.871  1.00  0.00     0.264 C 
HETATM   12  O1  UNL     1      39.155 -17.759  15.483  1.00  0.00    -0.271 OA
ATOM     13  H3  UNL     1      38.655 -14.794  14.889  1.00  0.00     0.187 HD
BRANCH  11  14
HETATM   14  C4  UNL     1      37.058 -17.194  14.521  1.00  0.00     0.375 C 
BRANCH  14  15
HETATM   15  N4  UNL     1      36.291 -17.771  15.588  1.00  0.00     0.100 N 
HETATM   16  C5  UNL     1      35.250 -18.587  15.101  1.00  0.00     0.300 C 
HETATM   17  C6  UNL     1      34.245 -19.006  16.151  1.00  0.00     0.262 C 
HETATM   18  N5  UNL     1      34.525 -18.403  17.437  1.00  0.00    -0.072 N 
HETATM   19  C7  UNL     1      34.588 -16.959  17.190  1.00  0.00     0.262 C 
ATOM     20  H52 UNL     1      33.862 -18.665  18.166  1.00  0.00     0.277 HD
ATOM     21  H51 UNL     1      35.358 -18.776  17.892  1.00  0.00     0.277 HD
HETATM   22  C8  UNL     1      35.873 -16.705  16.467  1.00  0.00     0.300 C 
ENDBRANCH  14  15
ENDBRANCH  11  14
ENDBRANCH   4  10
BRANCH   1  23
HETATM   23  N1  UNL     1      41.831 -18.049  11.784  1.00  0.00    -0.384 N 
ATOM     24  H12 UNL     1      42.810 -18.245  11.992  1.00  0.00     0.157 HD
ATOM     25  H11 UNL     1      41.259 -18.718  11.270  1.00  0.00     0.157 HD
ENDBRANCH   1  23
BRANCH   9  26
HETATM   26  C11 UNL     1      42.913 -15.901  10.622  1.00  0.00     0.101 C 
HETATM   27  N8  UNL     1      42.874 -15.266   9.510  1.00  0.00    -0.396 N 
ATOM     28  H8  UNL     1      42.073 -14.652   9.367  1.00  0.00     0.158 HD
BRANCH  27  29
HETATM   29  C12 UNL     1      43.825 -15.322   8.451  1.00  0.00     0.152 C 
BRANCH  29  30
HETATM   30  C13 UNL     1      43.470 -16.400   7.478  1.00  0.00     0.203 C 
HETATM   31  C14 UNL     1      44.279 -16.294   6.196  1.00  0.00     0.036 C 
HETATM   32  C15 UNL     1      43.487 -15.275   5.410  1.00  0.00     0.029 C 
HETATM   33  C16 UNL     1      42.077 -15.546   5.823  1.00  0.00     0.233 C 
HETATM   34  N9  UNL     1      42.111 -16.257   7.064  1.00  0.00    -0.069 N 
ATOM     35  H92 UNL     1      41.623 -17.152   7.014  1.00  0.00     0.277 HD
ATOM     36  H91 UNL     1      41.530 -15.819   7.780  1.00  0.00     0.277 HD
ENDBRANCH  29  30
ENDBRANCH  27  29
ENDBRANCH   9  26
TORSDOF 7
ENDMDL
MODEL 3
REMARK VINA RESULT: -6.519984223      3.221      9.022
REMARK  7 active torsions:
REMARK  status: ('A' for Active; 'I' for Inactive)
REMARK    1  A    between atoms: N1_1  and  C1_4 
REMARK    2  A    between atoms: C2_7  and  N3_8 
REMARK       I    between atoms: N3_8  and  C3_10 
REMARK    3  A    between atoms: C3_10  and  C4_12 
REMARK    4  A    between atoms: C4_12  and  N4_13 
REMARK    5  A    between atoms: C10_25  and  C11_26 
REMARK    6  A    between atoms: N8_27  and  C12_29 
REMARK    7  A    between atoms: C12_29  and  C13_30 
ROOT
HETATM    1  C1  UNL     1      40.331 -15.987  13.236  1.00  0.00     0.129 A 
HETATM    2  N2  UNL     1      41.062 -15.836  12.125  1.00  0.00    -0.176 N 
ATOM      3  H2  UNL     1      41.102 -14.923  11.670  1.00  0.00     0.186 HD
HETATM    4  C2  UNL     1      41.758 -16.885  11.589  1.00  0.00     0.687 A 
HETATM    5  N6  UNL     1      41.674 -18.052  12.225  1.00  0.00    -0.177 N 
ATOM      6  H6  UNL     1      42.190 -18.840  11.835  1.00  0.00     0.185 HD
HETATM    7  C9  UNL     1      40.953 -18.270  13.351  1.00  0.00     0.147 A 
HETATM    8  N7  UNL     1      40.902 -19.531  13.980  1.00  0.00    -0.081 NA
HETATM    9  C10 UNL     1      40.257 -17.209  13.881  1.00  0.00     0.065 A 
ENDROOT
BRANCH   4  10
HETATM   10  N3  UNL     1      42.439 -16.669  10.516  1.00  0.00    -0.158 N 
HETATM   11  C3  UNL     1      42.429 -17.679   9.499  1.00  0.00     0.264 C 
HETATM   12  O1  UNL     1      41.392 -17.941   8.862  1.00  0.00    -0.271 OA
ATOM     13  H3  UNL     1      42.970 -15.807  10.395  1.00  0.00     0.187 HD
BRANCH  11  14
HETATM   14  C4  UNL     1      43.694 -18.379   9.251  1.00  0.00     0.375 C 
BRANCH  14  15
HETATM   15  N4  UNL     1      43.583 -19.809   9.282  1.00  0.00     0.100 N 
HETATM   16  C5  UNL     1      44.303 -20.365  10.359  1.00  0.00     0.300 C 
HETATM   17  C6  UNL     1      44.452 -21.869  10.296  1.00  0.00     0.262 C 
HETATM   18  N5  UNL     1      43.886 -22.417   9.081  1.00  0.00    -0.072 N 
HETATM   19  C7  UNL     1      44.530 -21.691   7.983  1.00  0.00     0.262 C 
ATOM     20  H52 UNL     1      43.974 -23.431   9.009  1.00  0.00     0.277 HD
ATOM     21  H51 UNL     1      42.867 -22.383   9.052  1.00  0.00     0.277 HD
HETATM   22  C8  UNL     1      43.943 -20.315   7.979  1.00  0.00     0.300 C 
ENDBRANCH  14  15
ENDBRANCH  11  14
ENDBRANCH   4  10
BRANCH   1  23
HETATM   23  N1  UNL     1      39.665 -15.005  13.759  1.00  0.00    -0.384 N 
ATOM     24  H12 UNL     1      39.991 -14.062  13.549  1.00  0.00     0.157 HD
ATOM     25  H11 UNL     1      38.850 -15.161  14.352  1.00  0.00     0.157 HD
ENDBRANCH   1  23
BRANCH   9  26
HETATM   26  C11 UNL     1      39.441 -17.315  15.082  1.00  0.00     0.101 C 
HETATM   27  N8  UNL     1      38.298 -17.894  15.094  1.00  0.00    -0.396 N 
ATOM     28  H8  UNL     1      37.980 -18.286  14.208  1.00  0.00     0.158 HD
BRANCH  27  29
HETATM   29  C12 UNL     1      37.424 -18.053  16.208  1.00  0.00     0.152 C 
BRANCH  29  30
HETATM   30  C13 UNL     1      36.110 -18.616  15.772  1.00  0.00     0.203 C 
HETATM   31  C14 UNL     1      35.270 -17.587  15.036  1.00  0.00     0.036 C 
HETATM   32  C15 UNL     1      34.612 -16.845  16.177  1.00  0.00     0.029 C 
HETATM   33  C16 UNL     1      34.427 -17.907  17.212  1.00  0.00     0.233 C 
HETATM   34  N9  UNL     1      35.330 -18.976  16.912  1.00  0.00    -0.069 N 
ATOM     35  H92 UNL     1      34.850 -19.868  16.790  1.00  0.00     0.277 HD
ATOM     36  H91 UNL     1      35.907 -19.234  17.713  1.00  0.00     0.277 HD
ENDBRANCH  29  30
ENDBRANCH  27  29
ENDBRANCH   9  26
TORSDOF 7
ENDMDL
MODEL 4
REMARK VINA RESULT: -6.497249077      1.878      8.893
REMARK  7 active torsions:
REMARK  status: ('A' for Active; 'I' for Inactive)
REMARK    1  A    between atoms: N1_1  and  C1_4 
REMARK    2  A    between atoms: C2_7  and  N3_8 
REMARK       I    between atoms: N3_8  and  C3_10 
REMARK    3  A    between atoms: C3_10  and  C4_12 
REMARK    4  A    between atoms: C4_12  and  N4_13 
REMARK    5  A    between atoms: C10_25  and  C11_26 
REMARK    6  A    between atoms: N8_27  and  C12_29 
REMARK    7  A    between atoms: C12_29  and  C13_30 
ROOT
HETATM    1  C1  UNL     1      40.314 -18.273  15.269  1.00  0.00     0.129 A 
HETATM    2  N2  UNL     1      41.286 -17.407  14.955  1.00  0.00    -0.176 N 
ATOM      3  H2  UNL     1      42.248 -17.614  15.225  1.00  0.00     0.186 HD
HETATM    4  C2  UNL     1      41.011 -16.251  14.277  1.00  0.00     0.687 A 
HETATM    5  N6  UNL     1      39.740 -16.033  13.947  1.00  0.00    -0.177 N 
ATOM      6  H6  UNL     1      39.524 -15.175  13.440  1.00  0.00     0.185 HD
HETATM    7  C9  UNL     1      38.712 -16.868  14.234  1.00  0.00     0.147 A 
HETATM    8  N7  UNL     1      37.383 -16.583  13.858  1.00  0.00    -0.081 NA
HETATM    9  C10 UNL     1      38.999 -18.027  14.916  1.00  0.00     0.065 A 
ENDROOT
BRANCH   4  10
HETATM   10  N3  UNL     1      41.995 -15.462  14.010  1.00  0.00    -0.158 N 
HETATM   11  C3  UNL     1      41.998 -14.797  12.741  1.00  0.00     0.264 C 
HETATM   12  O1  UNL     1      41.148 -13.931  12.465  1.00  0.00    -0.271 OA
ATOM     13  H3  UNL     1      42.748 -15.316  14.682  1.00  0.00     0.187 HD
BRANCH  11  14
HETATM   14  C4  UNL     1      43.047 -15.188  11.794  1.00  0.00     0.375 C 
BRANCH  14  15
HETATM   15  N4  UNL     1      42.547 -15.686  10.544  1.00  0.00     0.100 N 
HETATM   16  C5  UNL     1      41.872 -16.912  10.703  1.00  0.00     0.300 C 
HETATM   17  C6  UNL     1      41.557 -17.621   9.405  1.00  0.00     0.262 C 
HETATM   18  N5  UNL     1      42.098 -16.917   8.260  1.00  0.00    -0.072 N 
HETATM   19  C7  UNL     1      43.528 -16.754   8.539  1.00  0.00     0.262 C 
ATOM     20  H52 UNL     1      41.904 -17.374   7.369  1.00  0.00     0.277 HD
ATOM     21  H51 UNL     1      41.619 -16.042   8.054  1.00  0.00     0.277 HD
HETATM   22  C8  UNL     1      43.640 -15.706   9.600  1.00  0.00     0.300 C 
ENDBRANCH  14  15
ENDBRANCH  11  14
ENDBRANCH   4  10
BRANCH   1  23
HETATM   23  N1  UNL     1      40.555 -19.373  15.911  1.00  0.00    -0.384 N 
ATOM     24  H12 UNL     1      41.524 -19.553  16.173  1.00  0.00     0.157 HD
ATOM     25  H11 UNL     1      39.815 -20.034  16.146  1.00  0.00     0.157 HD
ENDBRANCH   1  23
BRANCH   9  26
HETATM   26  C11 UNL     1      37.984 -19.001  15.289  1.00  0.00     0.101 C 
HETATM   27  N8  UNL     1      36.868 -18.669  15.825  1.00  0.00    -0.396 N 
ATOM     28  H8  UNL     1      36.721 -17.672  15.982  1.00  0.00     0.158 HD
BRANCH  27  29
HETATM   29  C12 UNL     1      35.812 -19.536  16.227  1.00  0.00     0.152 C 
BRANCH  29  30
HETATM   30  C13 UNL     1      34.488 -18.857  16.086  1.00  0.00     0.203 C 
HETATM   31  C14 UNL     1      34.615 -17.507  15.400  1.00  0.00     0.036 C 
HETATM   32  C15 UNL     1      34.994 -16.605  16.552  1.00  0.00     0.029 C 
HETATM   33  C16 UNL     1      34.266 -17.207  17.710  1.00  0.00     0.233 C 
HETATM   34  N9  UNL     1      33.950 -18.562  17.375  1.00  0.00    -0.069 N 
ATOM     35  H92 UNL     1      32.949 -18.754  17.432  1.00  0.00     0.277 HD
ATOM     36  H91 UNL     1      34.262 -19.222  18.088  1.00  0.00     0.277 HD
ENDBRANCH  29  30
ENDBRANCH  27  29
ENDBRANCH   9  26
TORSDOF 7
ENDMDL
MODEL 5
REMARK VINA RESULT: -6.477353366      3.298      9.255
REMARK  7 active torsions:
REMARK  status: ('A' for Active; 'I' for Inactive)
REMARK    1  A    between atoms: N1_1  and  C1_4 
REMARK    2  A    between atoms: C2_7  and  N3_8 
REMARK       I    between atoms: N3_8  and  C3_10 
REMARK    3  A    between atoms: C3_10  and  C4_12 
REMARK    4  A    between atoms: C4_12  and  N4_13 
REMARK    5  A    between atoms: C10_25  and  C11_26 
REMARK    6  A    between atoms: N8_27  and  C12_29 
REMARK    7  A    between atoms: C12_29  and  C13_30 
ROOT
HETATM    1  C1  UNL     1      41.143 -18.450  13.355  1.00  0.00     0.129 A 
HETATM    2  N2  UNL     1      41.875 -18.222  12.258  1.00  0.00    -0.176 N 
ATOM      3  H2  UNL     1      42.462 -18.967  11.883  1.00  0.00     0.186 HD
HETATM    4  C2  UNL     1      41.850 -17.005  11.632  1.00  0.00     0.687 A 
HETATM    5  N6  UNL     1      41.065 -16.070  12.163  1.00  0.00    -0.177 N 
ATOM      6  H6  UNL     1      41.037 -15.160  11.703  1.00  0.00     0.185 HD
HETATM    7  C9  UNL     1      40.300 -16.237  13.269  1.00  0.00     0.147 A 
HETATM    8  N7  UNL     1      39.487 -15.207  13.785  1.00  0.00    -0.081 NA
HETATM    9  C10 UNL     1      40.334 -17.463  13.891  1.00  0.00     0.065 A 
ENDROOT
BRANCH   4  10
HETATM   10  N3  UNL     1      42.582 -16.854  10.582  1.00  0.00    -0.158 N 
HETATM   11  C3  UNL     1      42.540 -17.878   9.580  1.00  0.00     0.264 C 
HETATM   12  O1  UNL     1      41.512 -18.082   8.909  1.00  0.00    -0.271 OA
ATOM     13  H3  UNL     1      43.173 -16.031  10.468  1.00  0.00     0.187 HD
BRANCH  11  14
HETATM   14  C4  UNL     1      43.763 -18.665   9.390  1.00  0.00     0.375 C 
BRANCH  14  15
HETATM   15  N4  UNL     1      43.540 -19.957   8.806  1.00  0.00     0.100 N 
HETATM   16  C5  UNL     1      43.983 -20.995   9.649  1.00  0.00     0.300 C 
HETATM   17  C6  UNL     1      44.026 -22.356   8.991  1.00  0.00     0.262 C 
HETATM   18  N5  UNL     1      43.675 -22.287   7.587  1.00  0.00    -0.072 N 
HETATM   19  C7  UNL     1      44.581 -21.294   7.003  1.00  0.00     0.262 C 
ATOM     20  H52 UNL     1      43.698 -23.191   7.115  1.00  0.00     0.277 HD
ATOM     21  H51 UNL     1      42.689 -22.089   7.421  1.00  0.00     0.277 HD
HETATM   22  C8  UNL     1      44.114 -19.956   7.482  1.00  0.00     0.300 C 
ENDBRANCH  14  15
ENDBRANCH  11  14
ENDBRANCH   4  10
BRANCH   1  23
HETATM   23  N1  UNL     1      41.154 -19.595  13.963  1.00  0.00    -0.384 N 
ATOM     24  H12 UNL     1      41.351 -19.585  14.964  1.00  0.00     0.157 HD
ATOM     25  H11 UNL     1      40.976 -20.469  13.471  1.00  0.00     0.157 HD
ENDBRANCH   1  23
BRANCH   9  26
HETATM   26  C11 UNL     1      39.565 -17.767  15.089  1.00  0.00     0.101 C 
HETATM   27  N8  UNL     1      38.284 -17.796  15.101  1.00  0.00    -0.396 N 
ATOM     28  H8  UNL     1      37.818 -17.592  14.217  1.00  0.00     0.158 HD
BRANCH  27  29
HETATM   29  C12 UNL     1      37.439 -18.081  16.212  1.00  0.00     0.152 C 
BRANCH  29  30
HETATM   30  C13 UNL     1      36.133 -18.646  15.751  1.00  0.00     0.203 C 
HETATM   31  C14 UNL     1      35.281 -17.602  15.051  1.00  0.00     0.036 C 
HETATM   32  C15 UNL     1      34.610 -16.912  16.216  1.00  0.00     0.029 C 
HETATM   33  C16 UNL     1      34.436 -18.013  17.211  1.00  0.00     0.233 C 
HETATM   34  N9  UNL     1      35.355 -19.058  16.875  1.00  0.00    -0.069 N 
ATOM     35  H92 UNL     1      34.888 -19.952  16.719  1.00  0.00     0.277 HD
ATOM     36  H91 UNL     1      35.933 -19.337  17.668  1.00  0.00     0.277 HD
ENDBRANCH  29  30
ENDBRANCH  27  29
ENDBRANCH   9  26
TORSDOF 7
ENDMDL
