MODEL 1
REMARK VINA RESULT: -6.237005945      0.000      0.000
REMARK  5 active torsions:
REMARK  status: ('A' for Active; 'I' for Inactive)
REMARK       I    between atoms: C1_2  and  N1_3 
REMARK    1  A    between atoms: C1_2  and  C9_16 
REMARK    2  A    between atoms: N1_3  and  C2_5 
REMARK    3  A    between atoms: C2_5  and  C3_6 
REMARK    4  A    between atoms: C3_6  and  C4_7 
REMARK    5  A    between atoms: C4_7  and  N2_8 
ROOT
HETATM    1  C9  UNL     1      40.568 -22.256  16.950  1.00  0.00     0.195 C 
HETATM    2  C10 UNL     1      41.021 -21.558  18.240  1.00  0.00     0.266 C 
HETATM    3  N4  UNL     1      41.238 -22.597  19.228  1.00  0.00    -0.073 N 
ATOM      4  H41 UNL     1      42.232 -22.728  19.412  1.00  0.00     0.277 HD
ATOM      5  H42 UNL     1      41.020 -23.518  18.848  1.00  0.00     0.277 HD
HETATM    6  C11 UNL     1      40.504 -22.353  20.462  1.00  0.00     0.234 C 
HETATM    7  C12 UNL     1      40.443 -23.633  21.256  1.00  0.00     0.055 C 
HETATM    8  C13 UNL     1      39.071 -23.908  21.830  1.00  0.00     0.234 C 
HETATM    9  N5  UNL     1      38.106 -24.198  20.800  1.00  0.00    -0.073 N 
ATOM     10  H51 UNL     1      38.160 -23.508  20.050  1.00  0.00     0.277 HD
ATOM     11  H52 UNL     1      37.159 -24.014  21.132  1.00  0.00     0.277 HD
HETATM   12  C14 UNL     1      38.209 -25.533  20.272  1.00  0.00     0.259 C 
HETATM   13  C15 UNL     1      37.991 -25.580  18.773  1.00  0.00     0.259 C 
HETATM   14  N6  UNL     1      39.267 -25.594  18.086  1.00  0.00    -0.072 N 
ATOM     15  H61 UNL     1      39.766 -26.463  18.279  1.00  0.00     0.277 HD
ATOM     16  H62 UNL     1      39.909 -24.927  18.514  1.00  0.00     0.277 HD
HETATM   17  C16 UNL     1      39.179 -25.372  16.680  1.00  0.00     0.251 C 
HETATM   18  C17 UNL     1      38.945 -23.931  16.282  1.00  0.00     0.142 C 
HETATM   19  N7  UNL     1      39.468 -23.082  17.294  1.00  0.00    -0.406 N 
ATOM     20  H7  UNL     1      39.067 -23.068  18.232  1.00  0.00     0.154 HD
ENDROOT
BRANCH   1  21
HETATM   21  C1  UNL     1      40.296 -21.281  15.886  1.00  0.00     0.241 C 
HETATM   22  O1  UNL     1      40.836 -21.451  14.739  1.00  0.00    -0.271 OA
HETATM   23  N1  UNL     1      39.457 -20.152  16.079  1.00  0.00    -0.359 N 
ATOM     24  H1  UNL     1      39.029 -20.019  16.995  1.00  0.00     0.162 HD
BRANCH  23  25
HETATM   25  C2  UNL     1      39.177 -19.186  15.050  1.00  0.00     0.124 C 
BRANCH  25  26
HETATM   26  C3  UNL     1      37.935 -18.356  15.338  1.00  0.00     0.050 C 
BRANCH  26  27
HETATM   27  C4  UNL     1      36.785 -19.221  15.767  1.00  0.00     0.274 C 
BRANCH  27  28
HETATM   28  N2  UNL     1      35.532 -18.650  15.413  1.00  0.00     0.091 N 
HETATM   29  C5  UNL     1      34.426 -19.545  15.771  1.00  0.00     0.300 C 
HETATM   30  C6  UNL     1      34.173 -19.464  17.272  1.00  0.00     0.262 C 
HETATM   31  N3  UNL     1      33.837 -18.101  17.630  1.00  0.00    -0.072 N 
HETATM   32  C7  UNL     1      35.028 -17.281  17.380  1.00  0.00     0.262 C 
ATOM     33  H32 UNL     1      33.006 -17.755  17.151  1.00  0.00     0.277 HD
ATOM     34  H31 UNL     1      33.485 -18.014  18.584  1.00  0.00     0.277 HD
HETATM   35  C8  UNL     1      35.291 -17.321  15.878  1.00  0.00     0.300 C 
ENDBRANCH  27  28
ENDBRANCH  26  27
ENDBRANCH  25  26
ENDBRANCH  23  25
ENDBRANCH   1  21
TORSDOF 5
ENDMDL
MODEL 2
REMARK VINA RESULT: -6.185054122      2.584      3.643
REMARK  5 active torsions:
REMARK  status: ('A' for Active; 'I' for Inactive)
REMARK       I    between atoms: C1_2  and  N1_3 
REMARK    1  A    between atoms: C1_2  and  C9_16 
REMARK    2  A    between atoms: N1_3  and  C2_5 
REMARK    3  A    between atoms: C2_5  and  C3_6 
REMARK    4  A    between atoms: C3_6  and  C4_7 
REMARK    5  A    between atoms: C4_7  and  N2_8 
ROOT
HETATM    1  C9  UNL     1      41.407 -18.991  14.967  1.00  0.00     0.195 C 
HETATM    2  C10 UNL     1      42.542 -18.261  15.698  1.00  0.00     0.266 C 
HETATM    3  N4  UNL     1      43.337 -19.275  16.364  1.00  0.00    -0.073 N 
ATOM      4  H41 UNL     1      44.237 -19.397  15.903  1.00  0.00     0.277 HD
ATOM      5  H42 UNL     1      42.948 -20.205  16.212  1.00  0.00     0.277 HD
HETATM    6  C11 UNL     1      43.507 -19.003  17.784  1.00  0.00     0.234 C 
HETATM    7  C12 UNL     1      43.967 -20.263  18.471  1.00  0.00     0.055 C 
HETATM    8  C13 UNL     1      43.238 -20.529  19.770  1.00  0.00     0.234 C 
HETATM    9  N5  UNL     1      41.850 -20.848  19.551  1.00  0.00    -0.073 N 
ATOM     10  H51 UNL     1      41.422 -20.176  18.913  1.00  0.00     0.277 HD
ATOM     11  H52 UNL     1      41.301 -20.659  20.389  1.00  0.00     0.277 HD
HETATM   12  C14 UNL     1      41.631 -22.195  19.093  1.00  0.00     0.259 C 
HETATM   13  C15 UNL     1      40.543 -22.279  18.042  1.00  0.00     0.259 C 
HETATM   14  N6  UNL     1      41.132 -22.306  16.719  1.00  0.00    -0.072 N 
ATOM     15  H61 UNL     1      41.660 -23.168  16.580  1.00  0.00     0.277 HD
ATOM     16  H62 UNL     1      41.889 -21.626  16.652  1.00  0.00     0.277 HD
HETATM   17  C16 UNL     1      40.198 -22.117  15.657  1.00  0.00     0.251 C 
HETATM   18  C17 UNL     1      39.744 -20.688  15.461  1.00  0.00     0.142 C 
HETATM   19  N7  UNL     1      40.762 -19.813  15.926  1.00  0.00    -0.406 N 
ATOM     20  H7  UNL     1      41.018 -19.777  16.913  1.00  0.00     0.154 HD
ENDROOT
BRANCH   1  21
HETATM   21  C1  UNL     1      40.524 -18.043  14.275  1.00  0.00     0.241 C 
HETATM   22  O1  UNL     1      40.703 -17.830  13.027  1.00  0.00    -0.271 OA
HETATM   23  N1  UNL     1      39.477 -17.350  14.938  1.00  0.00    -0.359 N 
ATOM     24  H1  UNL     1      39.338 -17.523  15.934  1.00  0.00     0.162 HD
BRANCH  23  25
HETATM   25  C2  UNL     1      38.600 -16.419  14.279  1.00  0.00     0.124 C 
BRANCH  25  26
HETATM   26  C3  UNL     1      37.274 -17.041  13.868  1.00  0.00     0.050 C 
BRANCH  26  27
HETATM   27  C4  UNL     1      36.654 -17.808  15.000  1.00  0.00     0.274 C 
BRANCH  27  28
HETATM   28  N2  UNL     1      35.247 -17.610  15.067  1.00  0.00     0.091 N 
HETATM   29  C5  UNL     1      34.552 -18.871  15.349  1.00  0.00     0.300 C 
HETATM   30  C6  UNL     1      34.693 -19.208  16.829  1.00  0.00     0.262 C 
HETATM   31  N3  UNL     1      34.119 -18.142  17.623  1.00  0.00    -0.072 N 
HETATM   32  C7  UNL     1      34.942 -16.947  17.405  1.00  0.00     0.262 C 
ATOM     33  H32 UNL     1      33.130 -17.987  17.428  1.00  0.00     0.277 HD
ATOM     34  H31 UNL     1      34.022 -18.385  18.609  1.00  0.00     0.277 HD
HETATM   35  C8  UNL     1      34.798 -16.568  15.934  1.00  0.00     0.300 C 
ENDBRANCH  27  28
ENDBRANCH  26  27
ENDBRANCH  25  26
ENDBRANCH  23  25
ENDBRANCH   1  21
TORSDOF 5
ENDMDL
MODEL 3
REMARK VINA RESULT: -6.067157508      2.556      3.944
REMARK  5 active torsions:
REMARK  status: ('A' for Active; 'I' for Inactive)
REMARK       I    between atoms: C1_2  and  N1_3 
REMARK    1  A    between atoms: C1_2  and  C9_16 
REMARK    2  A    between atoms: N1_3  and  C2_5 
REMARK    3  A    between atoms: C2_5  and  C3_6 
REMARK    4  A    between atoms: C3_6  and  C4_7 
REMARK    5  A    between atoms: C4_7  and  N2_8 
ROOT
HETATM    1  C9  UNL     1      40.075 -20.153  16.072  1.00  0.00     0.195 C 
HETATM    2  C10 UNL     1      39.259 -21.416  15.763  1.00  0.00     0.266 C 
HETATM    3  N4  UNL     1      39.629 -22.410  16.752  1.00  0.00    -0.073 N 
ATOM      4  H41 UNL     1      38.875 -22.559  17.422  1.00  0.00     0.277 HD
ATOM      5  H42 UNL     1      40.342 -22.051  17.385  1.00  0.00     0.277 HD
HETATM    6  C11 UNL     1      40.049 -23.666  16.147  1.00  0.00     0.234 C 
HETATM    7  C12 UNL     1      40.791 -24.479  17.176  1.00  0.00     0.055 C 
HETATM    8  C13 UNL     1      42.056 -25.107  16.634  1.00  0.00     0.234 C 
HETATM    9  N5  UNL     1      43.055 -24.117  16.319  1.00  0.00    -0.073 N 
ATOM     10  H51 UNL     1      42.650 -23.357  15.774  1.00  0.00     0.277 HD
ATOM     11  H52 UNL     1      43.719 -24.481  15.636  1.00  0.00     0.277 HD
HETATM   12  C14 UNL     1      43.744 -23.605  17.475  1.00  0.00     0.259 C 
HETATM   13  C15 UNL     1      44.007 -22.116  17.378  1.00  0.00     0.259 C 
HETATM   14  N6  UNL     1      42.988 -21.383  18.103  1.00  0.00    -0.072 N 
ATOM     15  H61 UNL     1      43.060 -21.570  19.104  1.00  0.00     0.277 HD
ATOM     16  H62 UNL     1      42.066 -21.778  17.918  1.00  0.00     0.277 HD
HETATM   17  C16 UNL     1      42.989 -19.978  17.857  1.00  0.00     0.251 C 
HETATM   18  C17 UNL     1      42.384 -19.568  16.532  1.00  0.00     0.142 C 
HETATM   19  N7  UNL     1      41.436 -20.548  16.136  1.00  0.00    -0.406 N 
ATOM     20  H7  UNL     1      41.723 -21.500  15.906  1.00  0.00     0.154 HD
ENDROOT
BRANCH   1  21
HETATM   21  C1  UNL     1      39.789 -19.086  15.104  1.00  0.00     0.241 C 
HETATM   22  O1  UNL     1      40.426 -19.071  13.995  1.00  0.00    -0.271 OA
HETATM   23  N1  UNL     1      38.833 -18.066  15.350  1.00  0.00    -0.359 N 
ATOM     24  H1  UNL     1      38.328 -18.081  16.236  1.00  0.00     0.162 HD
BRANCH  23  25
HETATM   25  C2  UNL     1      38.538 -17.012  14.416  1.00  0.00     0.124 C 
BRANCH  25  26
HETATM   26  C3  UNL     1      37.067 -16.960  14.025  1.00  0.00     0.050 C 
BRANCH  26  27
HETATM   27  C4  UNL     1      36.306 -18.119  14.601  1.00  0.00     0.274 C 
BRANCH  27  28
HETATM   28  N2  UNL     1      34.994 -17.745  15.000  1.00  0.00     0.091 N 
HETATM   29  C5  UNL     1      34.278 -18.884  15.586  1.00  0.00     0.300 C 
HETATM   30  C6  UNL     1      34.771 -19.116  17.010  1.00  0.00     0.262 C 
HETATM   31  N3  UNL     1      34.534 -17.926  17.801  1.00  0.00    -0.072 N 
HETATM   32  C7  UNL     1      35.383 -16.863  17.252  1.00  0.00     0.262 C 
ATOM     33  H32 UNL     1      33.548 -17.667  17.847  1.00  0.00     0.277 HD
ATOM     34  H31 UNL     1      34.678 -18.076  18.800  1.00  0.00     0.277 HD
HETATM   35  C8  UNL     1      34.893 -16.589  15.833  1.00  0.00     0.300 C 
ENDBRANCH  27  28
ENDBRANCH  26  27
ENDBRANCH  25  26
ENDBRANCH  23  25
ENDBRANCH   1  21
TORSDOF 5
ENDMDL
MODEL 4
REMARK VINA RESULT: -6.004323128      5.881      9.444
REMARK  5 active torsions:
REMARK  status: ('A' for Active; 'I' for Inactive)
REMARK       I    between atoms: C1_2  and  N1_3 
REMARK    1  A    between atoms: C1_2  and  C9_16 
REMARK    2  A    between atoms: N1_3  and  C2_5 
REMARK    3  A    between atoms: C2_5  and  C3_6 
REMARK    4  A    between atoms: C3_6  and  C4_7 
REMARK    5  A    between atoms: C4_7  and  N2_8 
ROOT
HETATM    1  C9  UNL     1      41.399 -15.934  12.308  1.00  0.00     0.195 C 
HETATM    2  C10 UNL     1      42.209 -14.759  12.873  1.00  0.00     0.266 C 
HETATM    3  N4  UNL     1      42.729 -14.020  11.738  1.00  0.00    -0.073 N 
ATOM      4  H41 UNL     1      42.247 -13.129  11.628  1.00  0.00     0.277 HD
ATOM      5  H42 UNL     1      42.460 -14.461  10.859  1.00  0.00     0.277 HD
HETATM    6  C11 UNL     1      44.171 -13.832  11.811  1.00  0.00     0.234 C 
HETATM    7  C12 UNL     1      44.682 -13.442  10.448  1.00  0.00     0.055 C 
HETATM    8  C13 UNL     1      45.942 -14.182  10.054  1.00  0.00     0.234 C 
HETATM    9  N5  UNL     1      45.697 -15.586   9.844  1.00  0.00    -0.073 N 
ATOM     10  H51 UNL     1      45.156 -15.977  10.616  1.00  0.00     0.277 HD
ATOM     11  H52 UNL     1      46.558 -16.122   9.951  1.00  0.00     0.277 HD
HETATM   12  C14 UNL     1      45.068 -15.880   8.583  1.00  0.00     0.259 C 
HETATM   13  C15 UNL     1      44.025 -16.974   8.697  1.00  0.00     0.259 C 
HETATM   14  N6  UNL     1      42.704 -16.390   8.813  1.00  0.00    -0.072 N 
ATOM     15  H61 UNL     1      42.449 -15.911   7.949  1.00  0.00     0.277 HD
ATOM     16  H62 UNL     1      42.721 -15.596   9.453  1.00  0.00     0.277 HD
HETATM   17  C16 UNL     1      41.685 -17.314   9.190  1.00  0.00     0.251 C 
HETATM   18  C17 UNL     1      41.682 -17.688  10.656  1.00  0.00     0.142 C 
HETATM   19  N7  UNL     1      42.249 -16.622  11.405  1.00  0.00    -0.406 N 
ATOM     20  H7  UNL     1      43.230 -16.362  11.297  1.00  0.00     0.154 HD
ENDROOT
BRANCH   1  21
HETATM   21  C1  UNL     1      40.846 -16.764  13.387  1.00  0.00     0.241 C 
HETATM   22  O1  UNL     1      41.650 -17.336  14.200  1.00  0.00    -0.271 OA
HETATM   23  N1  UNL     1      39.451 -16.960  13.562  1.00  0.00    -0.359 N 
ATOM     24  H1  UNL     1      38.813 -16.503  12.910  1.00  0.00     0.162 HD
BRANCH  23  25
HETATM   25  C2  UNL     1      38.889 -17.768  14.611  1.00  0.00     0.124 C 
BRANCH  25  26
HETATM   26  C3  UNL     1      37.466 -17.366  14.972  1.00  0.00     0.050 C 
BRANCH  26  27
HETATM   27  C4  UNL     1      36.655 -18.553  15.405  1.00  0.00     0.274 C 
BRANCH  27  28
HETATM   28  N2  UNL     1      35.259 -18.323  15.258  1.00  0.00     0.091 N 
HETATM   29  C5  UNL     1      34.484 -19.482  15.714  1.00  0.00     0.300 C 
HETATM   30  C6  UNL     1      34.441 -19.495  17.238  1.00  0.00     0.262 C 
HETATM   31  N3  UNL     1      33.824 -18.274  17.713  1.00  0.00    -0.072 N 
HETATM   32  C7  UNL     1      34.715 -17.167  17.347  1.00  0.00     0.262 C 
ATOM     33  H32 UNL     1      32.871 -18.149  17.371  1.00  0.00     0.277 HD
ATOM     34  H31 UNL     1      33.605 -18.298  18.709  1.00  0.00     0.277 HD
HETATM   35  C8  UNL     1      34.757 -17.111  15.824  1.00  0.00     0.300 C 
ENDBRANCH  27  28
ENDBRANCH  26  27
ENDBRANCH  25  26
ENDBRANCH  23  25
ENDBRANCH   1  21
TORSDOF 5
ENDMDL
MODEL 5
REMARK VINA RESULT: -5.982911045      5.416      8.452
REMARK  5 active torsions:
REMARK  status: ('A' for Active; 'I' for Inactive)
REMARK       I    between atoms: C1_2  and  N1_3 
REMARK    1  A    between atoms: C1_2  and  C9_16 
REMARK    2  A    between atoms: N1_3  and  C2_5 
REMARK    3  A    between atoms: C2_5  and  C3_6 
REMARK    4  A    between atoms: C3_6  and  C4_7 
REMARK    5  A    between atoms: C4_7  and  N2_8 
ROOT
HETATM    1  C9  UNL     1      41.577 -17.597  13.579  1.00  0.00     0.195 C 
HETATM    2  C10 UNL     1      41.812 -17.495  12.066  1.00  0.00     0.266 C 
HETATM    3  N4  UNL     1      43.216 -17.185  11.877  1.00  0.00    -0.073 N 
ATOM      4  H41 UNL     1      43.723 -17.989  11.508  1.00  0.00     0.277 HD
ATOM      5  H42 UNL     1      43.695 -17.088  12.772  1.00  0.00     0.277 HD
HETATM    6  C11 UNL     1      43.419 -16.009  11.043  1.00  0.00     0.234 C 
HETATM    7  C12 UNL     1      44.831 -15.516  11.228  1.00  0.00     0.055 C 
HETATM    8  C13 UNL     1      44.918 -14.015  11.390  1.00  0.00     0.234 C 
HETATM    9  N5  UNL     1      44.328 -13.574  12.629  1.00  0.00    -0.073 N 
ATOM     10  H51 UNL     1      43.410 -13.998  12.762  1.00  0.00     0.277 HD
ATOM     11  H52 UNL     1      44.054 -12.593  12.568  1.00  0.00     0.277 HD
HETATM   12  C14 UNL     1      45.164 -13.798  13.779  1.00  0.00     0.259 C 
HETATM   13  C15 UNL     1      44.373 -14.249  14.990  1.00  0.00     0.259 C 
HETATM   14  N6  UNL     1      44.432 -15.692  15.112  1.00  0.00    -0.072 N 
ATOM     15  H61 UNL     1      45.382 -15.993  15.327  1.00  0.00     0.277 HD
ATOM     16  H62 UNL     1      44.312 -16.132  14.199  1.00  0.00     0.277 HD
HETATM   17  C16 UNL     1      43.511 -16.239  16.054  1.00  0.00     0.251 C 
HETATM   18  C17 UNL     1      42.078 -16.307  15.572  1.00  0.00     0.142 C 
HETATM   19  N7  UNL     1      42.073 -16.399  14.154  1.00  0.00    -0.406 N 
ATOM     20  H7  UNL     1      42.413 -15.633  13.573  1.00  0.00     0.154 HD
ENDROOT
BRANCH   1  21
HETATM   21  C1  UNL     1      40.168 -17.886  13.879  1.00  0.00     0.241 C 
HETATM   22  O1  UNL     1      39.856 -19.042  14.328  1.00  0.00    -0.271 OA
HETATM   23  N1  UNL     1      39.134 -16.931  13.689  1.00  0.00    -0.359 N 
ATOM     24  H1  UNL     1      39.387 -16.010  13.330  1.00  0.00     0.162 HD
BRANCH  23  25
HETATM   25  C2  UNL     1      37.749 -17.193  13.977  1.00  0.00     0.124 C 
BRANCH  25  26
HETATM   26  C3  UNL     1      37.454 -17.248  15.470  1.00  0.00     0.050 C 
BRANCH  26  27
HETATM   27  C4  UNL     1      36.677 -18.481  15.829  1.00  0.00     0.274 C 
BRANCH  27  28
HETATM   28  N2  UNL     1      35.299 -18.353  15.501  1.00  0.00     0.091 N 
HETATM   29  C5  UNL     1      34.564 -19.580  15.832  1.00  0.00     0.300 C 
HETATM   30  C6  UNL     1      34.322 -19.637  17.336  1.00  0.00     0.262 C 
HETATM   31  N3  UNL     1      33.554 -18.478  17.744  1.00  0.00    -0.072 N 
HETATM   32  C7  UNL     1      34.396 -17.298  17.518  1.00  0.00     0.262 C 
ATOM     33  H32 UNL     1      32.647 -18.417  17.280  1.00  0.00     0.277 HD
ATOM     34  H31 UNL     1      33.208 -18.545  18.701  1.00  0.00     0.277 HD
HETATM   35  C8  UNL     1      34.633 -17.199  16.014  1.00  0.00     0.300 C 
ENDBRANCH  27  28
ENDBRANCH  26  27
ENDBRANCH  25  26
ENDBRANCH  23  25
ENDBRANCH   1  21
TORSDOF 5
ENDMDL
