MODEL 1
REMARK VINA RESULT: -8.696954582      0.000      0.000
REMARK  8 active torsions:
REMARK  status: ('A' for Active; 'I' for Inactive)
REMARK    1  A    between atoms: N1_2  and  C4_5 
REMARK    2  A    between atoms: C4_5  and  C5_6 
REMARK    3  A    between atoms: N2_13  and  C12_14 
REMARK    4  A    between atoms: C12_14  and  C13_15 
REMARK    5  A    between atoms: C14_16  and  C15_17 
REMARK    6  A    between atoms: C15_17  and  O1_18 
REMARK    7  A    between atoms: O1_18  and  C16_19 
REMARK    8  A    between atoms: C17_20  and  C18_21 
ROOT
HETATM    1  C13 UNL     1      15.223 -11.651  21.146  1.00  0.00    -0.074 C 
HETATM    2  C14 UNL     1      14.641 -10.597  21.296  1.00  0.00    -0.078 C 
ENDROOT
BRANCH   1   3
HETATM    3  C12 UNL     1      15.923 -12.920  20.943  1.00  0.00     0.366 C 
BRANCH   3   4
HETATM    4  N2  UNL     1      17.067 -12.926  21.801  1.00  0.00     0.108 N 
HETATM    5  C7  UNL     1      16.997 -13.862  22.882  1.00  0.00     0.225 C 
HETATM    6  C6  UNL     1      18.081 -13.575  23.855  1.00  0.00     0.042 C 
HETATM    7  C8  UNL     1      17.211 -15.236  22.285  1.00  0.00     0.038 C 
HETATM    8  C5  UNL     1      19.407 -13.172  23.255  1.00  0.00     0.016 C 
HETATM    9  C11 UNL     1      19.475 -13.180  21.777  1.00  0.00     0.042 C 
HETATM   10  C10 UNL     1      18.186 -13.473  21.055  1.00  0.00     0.225 C 
HETATM   11  C9  UNL     1      17.926 -14.967  20.987  1.00  0.00     0.038 C 
BRANCH   8  12
HETATM   12  C4  UNL     1      20.503 -13.943  23.941  1.00  0.00     0.240 C 
BRANCH  12  13
HETATM   13  N1  UNL     1      21.396 -13.213  24.761  1.00  0.00    -0.078 N 
HETATM   14  C1  UNL     1      20.931 -11.980  25.309  1.00  0.00     0.271 C 
HETATM   15  C2  UNL     1      22.684 -12.959  24.115  1.00  0.00     0.271 C 
HETATM   16  C3  UNL     1      21.708 -14.081  25.918  1.00  0.00     0.271 C 
ENDBRANCH  12  13
ENDBRANCH   8  12
ENDBRANCH   3   4
ENDBRANCH   1   3
BRANCH   2  17
HETATM   17  C15 UNL     1      13.943  -9.308  21.456  1.00  0.00     0.269 C 
BRANCH  17  18
HETATM   18  O1  UNL     1      12.557  -9.481  21.566  1.00  0.00    -0.332 OA
BRANCH  18  19
HETATM   19  C16 UNL     1      11.885 -10.088  22.586  1.00  0.00     0.169 A 
HETATM   20  C17 UNL     1      11.485  -9.505  23.758  1.00  0.00     0.102 A 
HETATM   21  N4  UNL     1      10.846 -10.468  24.489  1.00  0.00    -0.294 N 
HETATM   22  N5  UNL     1      10.851 -11.595  23.802  1.00  0.00    -0.264 N 
ATOM     23  H4  UNL     1      10.434 -10.336  25.412  1.00  0.00     0.187 HD
HETATM   24  C19 UNL     1      11.472 -11.426  22.628  1.00  0.00     0.295 A 
ATOM     25  H5  UNL     1      10.440 -12.473  24.121  1.00  0.00     0.190 HD
HETATM   26  O2  UNL     1      11.648 -12.296  21.745  1.00  0.00    -0.264 OA
BRANCH  20  27
HETATM   27  C18 UNL     1      11.672  -8.131  24.234  1.00  0.00     0.114 C 
HETATM   28  N3  UNL     1      12.832  -7.595  24.369  1.00  0.00    -0.406 N 
ATOM     29  H32 UNL     1      13.646  -8.163  24.132  1.00  0.00     0.155 HD
ATOM     30  H31 UNL     1      12.962  -6.640  24.700  1.00  0.00     0.155 HD
ENDBRANCH  20  27
ENDBRANCH  18  19
ENDBRANCH  17  18
ENDBRANCH   2  17
TORSDOF 8
ENDMDL
MODEL 2
REMARK VINA RESULT: -8.395825451      0.907      1.967
REMARK  8 active torsions:
REMARK  status: ('A' for Active; 'I' for Inactive)
REMARK    1  A    between atoms: N1_2  and  C4_5 
REMARK    2  A    between atoms: C4_5  and  C5_6 
REMARK    3  A    between atoms: N2_13  and  C12_14 
REMARK    4  A    between atoms: C12_14  and  C13_15 
REMARK    5  A    between atoms: C14_16  and  C15_17 
REMARK    6  A    between atoms: C15_17  and  O1_18 
REMARK    7  A    between atoms: O1_18  and  C16_19 
REMARK    8  A    between atoms: C17_20  and  C18_21 
ROOT
HETATM    1  C13 UNL     1      15.353 -11.614  21.038  1.00  0.00    -0.074 C 
HETATM    2  C14 UNL     1      14.735 -10.587  21.223  1.00  0.00    -0.078 C 
ENDROOT
BRANCH   1   3
HETATM    3  C12 UNL     1      16.113 -12.842  20.801  1.00  0.00     0.366 C 
BRANCH   3   4
HETATM    4  N2  UNL     1      17.196 -12.869  21.735  1.00  0.00     0.108 N 
HETATM    5  C7  UNL     1      17.025 -13.786  22.820  1.00  0.00     0.225 C 
HETATM    6  C6  UNL     1      18.049 -13.515  23.862  1.00  0.00     0.042 C 
HETATM    7  C8  UNL     1      17.237 -15.174  22.258  1.00  0.00     0.038 C 
HETATM    8  C5  UNL     1      19.424 -13.161  23.348  1.00  0.00     0.016 C 
HETATM    9  C11 UNL     1      19.591 -13.194  21.878  1.00  0.00     0.042 C 
HETATM   10  C10 UNL     1      18.346 -13.459  21.074  1.00  0.00     0.225 C 
HETATM   11  C9  UNL     1      18.046 -14.946  21.009  1.00  0.00     0.038 C 
BRANCH   8  12
HETATM   12  C4  UNL     1      20.447 -13.953  24.117  1.00  0.00     0.240 C 
BRANCH  12  13
HETATM   13  N1  UNL     1      21.409 -13.227  24.857  1.00  0.00    -0.078 N 
HETATM   14  C1  UNL     1      21.001 -11.986  25.433  1.00  0.00     0.271 C 
HETATM   15  C2  UNL     1      22.643 -12.988  24.107  1.00  0.00     0.271 C 
HETATM   16  C3  UNL     1      21.807 -14.091  25.991  1.00  0.00     0.271 C 
ENDBRANCH  12  13
ENDBRANCH   8  12
ENDBRANCH   3   4
ENDBRANCH   1   3
BRANCH   2  17
HETATM   17  C15 UNL     1      14.004  -9.325  21.446  1.00  0.00     0.269 C 
BRANCH  17  18
HETATM   18  O1  UNL     1      12.623  -9.539  21.547  1.00  0.00    -0.332 OA
BRANCH  18  19
HETATM   19  C16 UNL     1      11.948 -10.045  22.618  1.00  0.00     0.169 A 
HETATM   20  C17 UNL     1      11.555 -11.344  22.794  1.00  0.00     0.102 A 
HETATM   21  N4  UNL     1      10.915 -11.412  24.000  1.00  0.00    -0.294 N 
HETATM   22  N5  UNL     1      10.912 -10.211  24.547  1.00  0.00    -0.264 N 
ATOM     23  H4  UNL     1      10.509 -12.253  24.410  1.00  0.00     0.187 HD
HETATM   24  C19 UNL     1      11.530  -9.331  23.749  1.00  0.00     0.295 A 
ATOM     25  H5  UNL     1      10.496  -9.984  25.451  1.00  0.00     0.190 HD
HETATM   26  O2  UNL     1      11.698  -8.111  23.973  1.00  0.00    -0.264 OA
BRANCH  20  27
HETATM   27  C18 UNL     1      11.724 -12.503  21.911  1.00  0.00     0.114 C 
HETATM   28  N3  UNL     1      12.459 -13.510  22.221  1.00  0.00    -0.406 N 
ATOM     29  H32 UNL     1      12.938 -13.486  23.122  1.00  0.00     0.155 HD
ATOM     30  H31 UNL     1      12.578 -14.315  21.607  1.00  0.00     0.155 HD
ENDBRANCH  20  27
ENDBRANCH  18  19
ENDBRANCH  17  18
ENDBRANCH   2  17
TORSDOF 8
ENDMDL
MODEL 3
REMARK VINA RESULT: -7.980918417      1.991      2.992
REMARK  8 active torsions:
REMARK  status: ('A' for Active; 'I' for Inactive)
REMARK    1  A    between atoms: N1_2  and  C4_5 
REMARK    2  A    between atoms: C4_5  and  C5_6 
REMARK    3  A    between atoms: N2_13  and  C12_14 
REMARK    4  A    between atoms: C12_14  and  C13_15 
REMARK    5  A    between atoms: C14_16  and  C15_17 
REMARK    6  A    between atoms: C15_17  and  O1_18 
REMARK    7  A    between atoms: O1_18  and  C16_19 
REMARK    8  A    between atoms: C17_20  and  C18_21 
ROOT
HETATM    1  C13 UNL     1      15.951 -10.963  20.532  1.00  0.00    -0.074 C 
HETATM    2  C14 UNL     1      14.868 -10.435  20.675  1.00  0.00    -0.078 C 
ENDROOT
BRANCH   1   3
HETATM    3  C12 UNL     1      17.250 -11.607  20.339  1.00  0.00     0.366 C 
BRANCH   3   4
HETATM    4  N2  UNL     1      17.255 -12.813  21.108  1.00  0.00     0.108 N 
HETATM    5  C7  UNL     1      18.016 -13.882  20.536  1.00  0.00     0.225 C 
HETATM    6  C6  UNL     1      17.708 -15.146  21.253  1.00  0.00     0.042 C 
HETATM    7  C8  UNL     1      19.475 -13.536  20.736  1.00  0.00     0.038 C 
HETATM    8  C5  UNL     1      17.534 -15.023  22.748  1.00  0.00     0.016 C 
HETATM    9  C11 UNL     1      17.759 -13.674  23.314  1.00  0.00     0.042 C 
HETATM   10  C10 UNL     1      18.015 -12.571  22.320  1.00  0.00     0.225 C 
HETATM   11  C9  UNL     1      19.468 -12.559  21.882  1.00  0.00     0.038 C 
BRANCH   8  12
HETATM   12  C4  UNL     1      18.311 -16.125  23.418  1.00  0.00     0.240 C 
BRANCH  12  13
HETATM   13  N1  UNL     1      17.570 -17.143  24.063  1.00  0.00    -0.078 N 
HETATM   14  C1  UNL     1      16.146 -17.046  24.027  1.00  0.00     0.271 C 
HETATM   15  C2  UNL     1      17.970 -17.344  25.455  1.00  0.00     0.271 C 
HETATM   16  C3  UNL     1      17.909 -18.409  23.376  1.00  0.00     0.271 C 
ENDBRANCH  12  13
ENDBRANCH   8  12
ENDBRANCH   3   4
ENDBRANCH   1   3
BRANCH   2  17
HETATM   17  C15 UNL     1      13.551  -9.788  20.825  1.00  0.00     0.269 C 
BRANCH  17  18
HETATM   18  O1  UNL     1      13.261  -9.511  22.168  1.00  0.00    -0.332 OA
BRANCH  18  19
HETATM   19  C16 UNL     1      12.253 -10.043  22.915  1.00  0.00     0.169 A 
HETATM   20  C17 UNL     1      11.550  -9.409  23.904  1.00  0.00     0.102 A 
HETATM   21  N4  UNL     1      10.634 -10.303  24.385  1.00  0.00    -0.294 N 
HETATM   22  N5  UNL     1      10.764 -11.439  23.725  1.00  0.00    -0.264 N 
ATOM     23  H4  UNL     1       9.962 -10.122  25.130  1.00  0.00     0.187 HD
HETATM   24  C19 UNL     1      11.737 -11.342  22.811  1.00  0.00     0.295 A 
ATOM     25  H5  UNL     1      10.201 -12.274  23.888  1.00  0.00     0.190 HD
HETATM   26  O2  UNL     1      12.112 -12.238  22.022  1.00  0.00    -0.264 OA
BRANCH  20  27
HETATM   27  C18 UNL     1      11.690  -8.046  24.428  1.00  0.00     0.114 C 
HETATM   28  N3  UNL     1      12.811  -7.420  24.441  1.00  0.00    -0.406 N 
ATOM     29  H32 UNL     1      13.628  -7.904  24.069  1.00  0.00     0.155 HD
ATOM     30  H31 UNL     1      12.908  -6.473  24.806  1.00  0.00     0.155 HD
ENDBRANCH  20  27
ENDBRANCH  18  19
ENDBRANCH  17  18
ENDBRANCH   2  17
TORSDOF 8
ENDMDL
MODEL 4
REMARK VINA RESULT: -7.930700872      1.862      2.604
REMARK  8 active torsions:
REMARK  status: ('A' for Active; 'I' for Inactive)
REMARK    1  A    between atoms: N1_2  and  C4_5 
REMARK    2  A    between atoms: C4_5  and  C5_6 
REMARK    3  A    between atoms: N2_13  and  C12_14 
REMARK    4  A    between atoms: C12_14  and  C13_15 
REMARK    5  A    between atoms: C14_16  and  C15_17 
REMARK    6  A    between atoms: C15_17  and  O1_18 
REMARK    7  A    between atoms: O1_18  and  C16_19 
REMARK    8  A    between atoms: C17_20  and  C18_21 
ROOT
HETATM    1  C13 UNL     1      14.946 -11.170  19.682  1.00  0.00    -0.074 C 
HETATM    2  C14 UNL     1      14.083 -10.444  20.132  1.00  0.00    -0.078 C 
ENDROOT
BRANCH   1   3
HETATM    3  C12 UNL     1      16.000 -12.028  19.141  1.00  0.00     0.366 C 
BRANCH   3   4
HETATM    4  N2  UNL     1      16.466 -12.865  20.202  1.00  0.00     0.108 N 
HETATM    5  C7  UNL     1      17.723 -13.503  19.952  1.00  0.00     0.225 C 
HETATM    6  C6  UNL     1      17.954 -14.557  20.972  1.00  0.00     0.042 C 
HETATM    7  C8  UNL     1      18.788 -12.437  20.083  1.00  0.00     0.038 C 
HETATM    8  C5  UNL     1      17.518 -14.213  22.376  1.00  0.00     0.016 C 
HETATM    9  C11 UNL     1      16.980 -12.848  22.568  1.00  0.00     0.042 C 
HETATM   10  C10 UNL     1      16.823 -12.015  21.323  1.00  0.00     0.225 C 
HETATM   11  C9  UNL     1      18.140 -11.371  20.928  1.00  0.00     0.038 C 
BRANCH   8  12
HETATM   12  C4  UNL     1      18.616 -14.598  23.332  1.00  0.00     0.240 C 
BRANCH  12  13
HETATM   13  N1  UNL     1      18.299 -15.536  24.341  1.00  0.00    -0.078 N 
HETATM   14  C1  UNL     1      19.361 -16.344  24.849  1.00  0.00     0.271 C 
HETATM   15  C2  UNL     1      17.199 -16.426  23.968  1.00  0.00     0.271 C 
HETATM   16  C3  UNL     1      17.793 -14.759  25.495  1.00  0.00     0.271 C 
ENDBRANCH  12  13
ENDBRANCH   8  12
ENDBRANCH   3   4
ENDBRANCH   1   3
BRANCH   2  17
HETATM   17  C15 UNL     1      13.052  -9.550  20.691  1.00  0.00     0.269 C 
BRANCH  17  18
HETATM   18  O1  UNL     1      13.075  -9.548  22.092  1.00  0.00    -0.332 OA
BRANCH  18  19
HETATM   19  C16 UNL     1      12.135 -10.073  22.928  1.00  0.00     0.169 A 
HETATM   20  C17 UNL     1      11.516  -9.428  23.966  1.00  0.00     0.102 A 
HETATM   21  N4  UNL     1      10.647 -10.318  24.532  1.00  0.00    -0.294 N 
HETATM   22  N5  UNL     1      10.724 -11.462  23.878  1.00  0.00    -0.264 N 
ATOM     23  H4  UNL     1      10.040 -10.129  25.330  1.00  0.00     0.187 HD
HETATM   24  C19 UNL     1      11.617 -11.374  22.884  1.00  0.00     0.295 A 
ATOM     25  H5  UNL     1      10.179 -12.296  24.098  1.00  0.00     0.190 HD
HETATM   26  O2  UNL     1      11.927 -12.279  22.078  1.00  0.00    -0.264 OA
BRANCH  20  27
HETATM   27  C18 UNL     1      11.696  -8.059  24.459  1.00  0.00     0.114 C 
HETATM   28  N3  UNL     1      12.820  -7.441  24.399  1.00  0.00    -0.406 N 
ATOM     29  H32 UNL     1      13.612  -7.938  23.988  1.00  0.00     0.155 HD
ATOM     30  H31 UNL     1      12.945  -6.489  24.742  1.00  0.00     0.155 HD
ENDBRANCH  20  27
ENDBRANCH  18  19
ENDBRANCH  17  18
ENDBRANCH   2  17
TORSDOF 8
ENDMDL
MODEL 5
REMARK VINA RESULT: -7.898272984      1.624      2.812
REMARK  8 active torsions:
REMARK  status: ('A' for Active; 'I' for Inactive)
REMARK    1  A    between atoms: N1_2  and  C4_5 
REMARK    2  A    between atoms: C4_5  and  C5_6 
REMARK    3  A    between atoms: N2_13  and  C12_14 
REMARK    4  A    between atoms: C12_14  and  C13_15 
REMARK    5  A    between atoms: C14_16  and  C15_17 
REMARK    6  A    between atoms: C15_17  and  O1_18 
REMARK    7  A    between atoms: O1_18  and  C16_19 
REMARK    8  A    between atoms: C17_20  and  C18_21 
ROOT
HETATM    1  C13 UNL     1      15.458 -11.019  19.822  1.00  0.00    -0.074 C 
HETATM    2  C14 UNL     1      14.533 -10.358  20.246  1.00  0.00    -0.078 C 
ENDROOT
BRANCH   1   3
HETATM    3  C12 UNL     1      16.570 -11.808  19.291  1.00  0.00     0.366 C 
BRANCH   3   4
HETATM    4  N2  UNL     1      17.167 -12.509  20.386  1.00  0.00     0.108 N 
HETATM    5  C7  UNL     1      18.254 -13.366  20.024  1.00  0.00     0.225 C 
HETATM    6  C6  UNL     1      18.591 -14.248  21.171  1.00  0.00     0.042 C 
HETATM    7  C8  UNL     1      19.435 -12.470  19.719  1.00  0.00     0.038 C 
HETATM    8  C5  UNL     1      18.526 -13.600  22.533  1.00  0.00     0.016 C 
HETATM    9  C11 UNL     1      18.203 -12.156  22.546  1.00  0.00     0.042 C 
HETATM   10  C10 UNL     1      17.862 -11.540  21.214  1.00  0.00     0.225 C 
HETATM   11  C9  UNL     1      19.119 -11.186  20.440  1.00  0.00     0.038 C 
BRANCH   8  12
HETATM   12  C4  UNL     1      19.762 -13.976  23.307  1.00  0.00     0.240 C 
BRANCH  12  13
HETATM   13  N1  UNL     1      19.605 -14.258  24.684  1.00  0.00    -0.078 N 
HETATM   14  C1  UNL     1      18.311 -14.659  25.133  1.00  0.00     0.271 C 
HETATM   15  C2  UNL     1      20.058 -13.165  25.545  1.00  0.00     0.271 C 
HETATM   16  C3  UNL     1      20.510 -15.389  24.987  1.00  0.00     0.271 C 
ENDBRANCH  12  13
ENDBRANCH   8  12
ENDBRANCH   3   4
ENDBRANCH   1   3
BRANCH   2  17
HETATM   17  C15 UNL     1      13.413  -9.537  20.743  1.00  0.00     0.269 C 
BRANCH  17  18
HETATM   18  O1  UNL     1      13.331  -9.570  22.142  1.00  0.00    -0.332 OA
BRANCH  18  19
HETATM   19  C16 UNL     1      12.292 -10.037  22.890  1.00  0.00     0.169 A 
HETATM   20  C17 UNL     1      11.710 -11.273  22.796  1.00  0.00     0.102 A 
HETATM   21  N4  UNL     1      10.713 -11.322  23.730  1.00  0.00    -0.294 N 
HETATM   22  N5  UNL     1      10.677 -10.169  24.373  1.00  0.00    -0.264 N 
ATOM     23  H4  UNL     1      10.099 -12.118  23.902  1.00  0.00     0.187 HD
HETATM   24  C19 UNL     1      11.619  -9.342  23.904  1.00  0.00     0.295 A 
ATOM     25  H5  UNL     1      10.022  -9.941  25.121  1.00  0.00     0.190 HD
HETATM   26  O2  UNL     1      11.850  -8.176  24.297  1.00  0.00    -0.264 OA
BRANCH  20  27
HETATM   27  C18 UNL     1      12.017 -12.387  21.892  1.00  0.00     0.114 C 
HETATM   28  N3  UNL     1      12.653 -13.435  22.274  1.00  0.00    -0.406 N 
ATOM     29  H32 UNL     1      12.950 -13.479  23.249  1.00  0.00     0.155 HD
ATOM     30  H31 UNL     1      12.866 -14.210  21.646  1.00  0.00     0.155 HD
ENDBRANCH  20  27
ENDBRANCH  18  19
ENDBRANCH  17  18
ENDBRANCH   2  17
TORSDOF 8
ENDMDL
