MODEL 1
REMARK VINA RESULT: -6.420519271      0.000      0.000
REMARK  8 active torsions:
REMARK  status: ('A' for Active; 'I' for Inactive)
REMARK    1  A    between atoms: C2_2  and  N1_4 
REMARK    2  A    between atoms: C6_7  and  C7_8 
REMARK    3  A    between atoms: C7_8  and  O1_9 
REMARK    4  A    between atoms: C7_8  and  C8_11 
REMARK    5  A    between atoms: C8_11  and  N2_12 
REMARK    6  A    between atoms: N2_12  and  C9_14 
REMARK    7  A    between atoms: C9_14  and  C10_15 
REMARK    8  A    between atoms: C10_15  and  C13_18 
ROOT
HETATM    1  C7  UNL     1      27.588  -3.381   5.279  1.00  0.00     0.141 C 
ENDROOT
BRANCH   1   2
HETATM    2  C6  UNL     1      27.752  -4.916   5.334  1.00  0.00     0.038 C 
HETATM    3  C5  UNL     1      28.343  -5.413   4.055  1.00  0.00     0.053 C 
HETATM    4  C4  UNL     1      27.634  -6.697   3.792  1.00  0.00     0.059 C 
HETATM    5  N1  UNL     1      26.496  -6.735   4.603  1.00  0.00    -0.389 N 
HETATM    6  C14 UNL     1      26.462  -5.622   5.475  1.00  0.00     0.130 C 
BRANCH   5   7
HETATM    7  C2  UNL     1      25.910  -7.947   4.977  1.00  0.00     0.075 C 
HETATM    8  C1  UNL     1      25.591  -8.090   6.449  1.00  0.00     0.032 C 
HETATM    9  C3  UNL     1      26.833  -9.074   4.540  1.00  0.00     0.032 C 
ENDBRANCH   5   7
ENDBRANCH   1   2
BRANCH   1  10
HETATM   10  O1  UNL     1      28.816  -2.789   5.454  1.00  0.00    -0.393 OA
ATOM     11  H1  UNL     1      29.202  -2.613   4.604  1.00  0.00     0.210 HD
ENDBRANCH   1  10
BRANCH   1  12
HETATM   12  C8  UNL     1      26.534  -2.974   6.267  1.00  0.00     0.150 C 
BRANCH  12  13
HETATM   13  N2  UNL     1      26.869  -3.016   7.636  1.00  0.00    -0.399 N 
ATOM     14  H2  UNL     1      27.847  -3.037   7.923  1.00  0.00     0.158 HD
BRANCH  13  15
HETATM   15  C9  UNL     1      25.862  -3.027   8.595  1.00  0.00     0.073 C 
BRANCH  15  16
HETATM   16  C10 UNL     1      25.612  -4.227   9.428  1.00  0.00     0.082 C 
HETATM   17  C11 UNL     1      26.778  -5.205   9.145  1.00  0.00     0.030 C 
HETATM   18  C12 UNL     1      25.675  -3.954  10.911  1.00  0.00     0.030 C 
BRANCH  16  19
HETATM   19  C13 UNL     1      24.380  -5.015   9.168  1.00  0.00     0.399 C 
HETATM   20  F1  UNL     1      23.236  -4.562   9.783  1.00  0.00    -0.170 F 
HETATM   21  F2  UNL     1      24.613  -6.283   9.732  1.00  0.00    -0.170 F 
HETATM   22  F3  UNL     1      24.188  -5.287   7.828  1.00  0.00    -0.170 F 
ENDBRANCH  16  19
ENDBRANCH  15  16
ENDBRANCH  13  15
ENDBRANCH  12  13
ENDBRANCH   1  12
TORSDOF 8
ENDMDL
MODEL 2
REMARK VINA RESULT: -6.386825224      2.921      4.083
REMARK  8 active torsions:
REMARK  status: ('A' for Active; 'I' for Inactive)
REMARK    1  A    between atoms: C2_2  and  N1_4 
REMARK    2  A    between atoms: C6_7  and  C7_8 
REMARK    3  A    between atoms: C7_8  and  O1_9 
REMARK    4  A    between atoms: C7_8  and  C8_11 
REMARK    5  A    between atoms: C8_11  and  N2_12 
REMARK    6  A    between atoms: N2_12  and  C9_14 
REMARK    7  A    between atoms: C9_14  and  C10_15 
REMARK    8  A    between atoms: C10_15  and  C13_18 
ROOT
HETATM    1  C7  UNL     1      25.963  -4.204   8.999  1.00  0.00     0.141 C 
ENDROOT
BRANCH   1   2
HETATM    2  C6  UNL     1      26.807  -4.425   7.724  1.00  0.00     0.038 C 
HETATM    3  C5  UNL     1      26.914  -3.148   6.955  1.00  0.00     0.053 C 
HETATM    4  C4  UNL     1      26.829  -3.566   5.528  1.00  0.00     0.059 C 
HETATM    5  N1  UNL     1      26.332  -4.872   5.489  1.00  0.00    -0.389 N 
HETATM    6  C14 UNL     1      26.194  -5.396   6.796  1.00  0.00     0.130 C 
BRANCH   5   7
HETATM    7  C2  UNL     1      26.594  -5.718   4.410  1.00  0.00     0.075 C 
HETATM    8  C1  UNL     1      26.432  -7.197   4.687  1.00  0.00     0.032 C 
HETATM    9  C3  UNL     1      28.008  -5.440   3.922  1.00  0.00     0.032 C 
ENDBRANCH   5   7
ENDBRANCH   1   2
BRANCH   1  10
HETATM   10  O1  UNL     1      26.779  -4.292  10.102  1.00  0.00    -0.393 OA
ATOM     11  H1  UNL     1      26.804  -3.450  10.539  1.00  0.00     0.210 HD
ENDBRANCH   1  10
BRANCH   1  12
HETATM   12  C8  UNL     1      24.806  -5.159   8.981  1.00  0.00     0.150 C 
BRANCH  12  13
HETATM   13  N2  UNL     1      23.619  -4.764   9.633  1.00  0.00    -0.399 N 
ATOM     14  H2  UNL     1      23.658  -4.105  10.410  1.00  0.00     0.158 HD
BRANCH  13  15
HETATM   15  C9  UNL     1      22.396  -5.275   9.214  1.00  0.00     0.073 C 
BRANCH  15  16
HETATM   16  C10 UNL     1      21.122  -4.769   9.777  1.00  0.00     0.082 C 
HETATM   17  C11 UNL     1      20.316  -6.014  10.222  1.00  0.00     0.030 C 
HETATM   18  C12 UNL     1      21.301  -3.944  11.029  1.00  0.00     0.030 C 
BRANCH  16  19
HETATM   19  C13 UNL     1      20.206  -4.023   8.875  1.00  0.00     0.399 C 
HETATM   20  F1  UNL     1      20.629  -2.772   8.491  1.00  0.00    -0.170 F 
HETATM   21  F2  UNL     1      19.038  -3.793   9.624  1.00  0.00    -0.170 F 
HETATM   22  F3  UNL     1      19.764  -4.783   7.811  1.00  0.00    -0.170 F 
ENDBRANCH  16  19
ENDBRANCH  15  16
ENDBRANCH  13  15
ENDBRANCH  12  13
ENDBRANCH   1  12
TORSDOF 8
ENDMDL
MODEL 3
REMARK VINA RESULT: -6.309494012      3.024      4.134
REMARK  8 active torsions:
REMARK  status: ('A' for Active; 'I' for Inactive)
REMARK    1  A    between atoms: C2_2  and  N1_4 
REMARK    2  A    between atoms: C6_7  and  C7_8 
REMARK    3  A    between atoms: C7_8  and  O1_9 
REMARK    4  A    between atoms: C7_8  and  C8_11 
REMARK    5  A    between atoms: C8_11  and  N2_12 
REMARK    6  A    between atoms: N2_12  and  C9_14 
REMARK    7  A    between atoms: C9_14  and  C10_15 
REMARK    8  A    between atoms: C10_15  and  C13_18 
ROOT
HETATM    1  C7  UNL     1      25.792  -4.176   9.120  1.00  0.00     0.141 C 
ENDROOT
BRANCH   1   2
HETATM    2  C6  UNL     1      26.654  -4.460   7.869  1.00  0.00     0.038 C 
HETATM    3  C5  UNL     1      26.800  -3.214   7.056  1.00  0.00     0.053 C 
HETATM    4  C4  UNL     1      26.731  -3.682   5.644  1.00  0.00     0.059 C 
HETATM    5  N1  UNL     1      26.209  -4.978   5.644  1.00  0.00    -0.389 N 
HETATM    6  C14 UNL     1      26.037  -5.452   6.966  1.00  0.00     0.130 C 
BRANCH   5   7
HETATM    7  C2  UNL     1      26.472  -5.869   4.600  1.00  0.00     0.075 C 
HETATM    8  C1  UNL     1      26.314  -7.335   4.939  1.00  0.00     0.032 C 
HETATM    9  C3  UNL     1      27.884  -5.607   4.099  1.00  0.00     0.032 C 
ENDBRANCH   5   7
ENDBRANCH   1   2
BRANCH   1  10
HETATM   10  O1  UNL     1      26.590  -4.226  10.238  1.00  0.00    -0.393 OA
ATOM     11  H1  UNL     1      26.164  -3.757  10.946  1.00  0.00     0.210 HD
ENDBRANCH   1  10
BRANCH   1  12
HETATM   12  C8  UNL     1      24.625  -5.119   9.123  1.00  0.00     0.150 C 
BRANCH  12  13
HETATM   13  N2  UNL     1      23.405  -4.649   9.653  1.00  0.00    -0.399 N 
ATOM     14  H2  UNL     1      23.403  -4.036  10.467  1.00  0.00     0.158 HD
BRANCH  13  15
HETATM   15  C9  UNL     1      22.204  -5.024   9.062  1.00  0.00     0.073 C 
BRANCH  15  16
HETATM   16  C10 UNL     1      20.910  -4.810   9.753  1.00  0.00     0.082 C 
HETATM   17  C11 UNL     1      21.243  -4.115  11.096  1.00  0.00     0.030 C 
HETATM   18  C12 UNL     1      19.991  -3.856   9.030  1.00  0.00     0.030 C 
BRANCH  16  19
HETATM   19  C13 UNL     1      20.111  -6.005  10.130  1.00  0.00     0.399 C 
HETATM   20  F1  UNL     1      19.756  -6.096  11.455  1.00  0.00    -0.170 F 
HETATM   21  F2  UNL     1      20.951  -7.111   9.906  1.00  0.00    -0.170 F 
HETATM   22  F3  UNL     1      19.047  -6.229   9.280  1.00  0.00    -0.170 F 
ENDBRANCH  16  19
ENDBRANCH  15  16
ENDBRANCH  13  15
ENDBRANCH  12  13
ENDBRANCH   1  12
TORSDOF 8
ENDMDL
MODEL 4
REMARK VINA RESULT: -6.292929065      1.286      1.862
REMARK  8 active torsions:
REMARK  status: ('A' for Active; 'I' for Inactive)
REMARK    1  A    between atoms: C2_2  and  N1_4 
REMARK    2  A    between atoms: C6_7  and  C7_8 
REMARK    3  A    between atoms: C7_8  and  O1_9 
REMARK    4  A    between atoms: C7_8  and  C8_11 
REMARK    5  A    between atoms: C8_11  and  N2_12 
REMARK    6  A    between atoms: N2_12  and  C9_14 
REMARK    7  A    between atoms: C9_14  and  C10_15 
REMARK    8  A    between atoms: C10_15  and  C13_18 
ROOT
HETATM    1  C7  UNL     1      26.642  -3.782   5.492  1.00  0.00     0.141 C 
ENDROOT
BRANCH   1   2
HETATM    2  C6  UNL     1      27.271  -5.193   5.460  1.00  0.00     0.038 C 
HETATM    3  C5  UNL     1      28.032  -5.384   4.188  1.00  0.00     0.053 C 
HETATM    4  C4  UNL     1      27.765  -6.799   3.804  1.00  0.00     0.059 C 
HETATM    5  N1  UNL     1      26.668  -7.247   4.544  1.00  0.00    -0.389 N 
HETATM    6  C14 UNL     1      26.260  -6.268   5.481  1.00  0.00     0.130 C 
BRANCH   5   7
HETATM    7  C2  UNL     1      26.472  -8.605   4.806  1.00  0.00     0.075 C 
HETATM    8  C1  UNL     1      25.780  -9.386   3.710  1.00  0.00     0.032 C 
HETATM    9  C3  UNL     1      25.683  -8.729   6.101  1.00  0.00     0.032 C 
ENDBRANCH   5   7
ENDBRANCH   1   2
BRANCH   1  10
HETATM   10  O1  UNL     1      26.581  -3.285   4.212  1.00  0.00    -0.393 OA
ATOM     11  H1  UNL     1      25.955  -3.791   3.710  1.00  0.00     0.210 HD
ENDBRANCH   1  10
BRANCH   1  12
HETATM   12  C8  UNL     1      27.404  -2.939   6.472  1.00  0.00     0.150 C 
BRANCH  12  13
HETATM   13  N2  UNL     1      26.915  -2.867   7.794  1.00  0.00    -0.399 N 
ATOM     14  H2  UNL     1      27.481  -2.437   8.525  1.00  0.00     0.158 HD
BRANCH  13  15
HETATM   15  C9  UNL     1      25.661  -3.384   8.097  1.00  0.00     0.073 C 
BRANCH  15  16
HETATM   16  C10 UNL     1      25.497  -4.448   9.115  1.00  0.00     0.082 C 
HETATM   17  C11 UNL     1      24.214  -5.226   8.732  1.00  0.00     0.030 C 
HETATM   18  C12 UNL     1      26.603  -5.475   9.097  1.00  0.00     0.030 C 
BRANCH  16  19
HETATM   19  C13 UNL     1      25.287  -4.039  10.528  1.00  0.00     0.399 C 
HETATM   20  F1  UNL     1      26.182  -3.121  11.026  1.00  0.00    -0.170 F 
HETATM   21  F2  UNL     1      25.496  -5.198  11.296  1.00  0.00    -0.170 F 
HETATM   22  F3  UNL     1      23.976  -3.701  10.801  1.00  0.00    -0.170 F 
ENDBRANCH  16  19
ENDBRANCH  15  16
ENDBRANCH  13  15
ENDBRANCH  12  13
ENDBRANCH   1  12
TORSDOF 8
ENDMDL
MODEL 5
REMARK VINA RESULT: -6.288495843      2.705      4.125
REMARK  8 active torsions:
REMARK  status: ('A' for Active; 'I' for Inactive)
REMARK    1  A    between atoms: C2_2  and  N1_4 
REMARK    2  A    between atoms: C6_7  and  C7_8 
REMARK    3  A    between atoms: C7_8  and  O1_9 
REMARK    4  A    between atoms: C7_8  and  C8_11 
REMARK    5  A    between atoms: C8_11  and  N2_12 
REMARK    6  A    between atoms: N2_12  and  C9_14 
REMARK    7  A    between atoms: C9_14  and  C10_15 
REMARK    8  A    between atoms: C10_15  and  C13_18 
ROOT
HETATM    1  C7  UNL     1      25.841  -4.662   9.012  1.00  0.00     0.141 C 
ENDROOT
BRANCH   1   2
HETATM    2  C6  UNL     1      26.779  -4.514   7.793  1.00  0.00     0.038 C 
HETATM    3  C5  UNL     1      26.718  -3.116   7.269  1.00  0.00     0.053 C 
HETATM    4  C4  UNL     1      26.782  -3.272   5.788  1.00  0.00     0.059 C 
HETATM    5  N1  UNL     1      26.508  -4.608   5.483  1.00  0.00    -0.389 N 
HETATM    6  C14 UNL     1      26.386  -5.379   6.663  1.00  0.00     0.130 C 
BRANCH   5   7
HETATM    7  C2  UNL     1      26.964  -5.192   4.299  1.00  0.00     0.075 C 
HETATM    8  C1  UNL     1      27.195  -6.686   4.356  1.00  0.00     0.032 C 
HETATM    9  C3  UNL     1      28.250  -4.489   3.889  1.00  0.00     0.032 C 
ENDBRANCH   5   7
ENDBRANCH   1   2
BRANCH   1  10
HETATM   10  O1  UNL     1      26.515  -4.285  10.150  1.00  0.00    -0.393 OA
ATOM     11  H1  UNL     1      26.320  -4.901  10.846  1.00  0.00     0.210 HD
ENDBRANCH   1  10
BRANCH   1  12
HETATM   12  C8  UNL     1      25.289  -6.057   9.027  1.00  0.00     0.150 C 
BRANCH  12  13
HETATM   13  N2  UNL     1      23.894  -6.212   8.884  1.00  0.00    -0.399 N 
ATOM     14  H2  UNL     1      23.512  -7.082   8.514  1.00  0.00     0.158 HD
BRANCH  13  15
HETATM   15  C9  UNL     1      23.042  -5.176   9.247  1.00  0.00     0.073 C 
BRANCH  15  16
HETATM   16  C10 UNL     1      21.596  -5.415   9.467  1.00  0.00     0.082 C 
HETATM   17  C11 UNL     1      20.892  -5.109   8.123  1.00  0.00     0.030 C 
HETATM   18  C12 UNL     1      21.263  -6.855   9.770  1.00  0.00     0.030 C 
BRANCH  16  19
HETATM   19  C13 UNL     1      20.892  -4.571  10.468  1.00  0.00     0.399 C 
HETATM   20  F1  UNL     1      21.691  -3.943  11.393  1.00  0.00    -0.170 F 
HETATM   21  F2  UNL     1      20.097  -5.455  11.220  1.00  0.00    -0.170 F 
HETATM   22  F3  UNL     1      19.971  -3.715   9.896  1.00  0.00    -0.170 F 
ENDBRANCH  16  19
ENDBRANCH  15  16
ENDBRANCH  13  15
ENDBRANCH  12  13
ENDBRANCH   1  12
TORSDOF 8
ENDMDL
