MODEL 1
REMARK VINA RESULT: -5.219284342      0.000      0.000
REMARK  3 active torsions:
REMARK  status: ('A' for Active; 'I' for Inactive)
REMARK    1  A    between atoms: C2_7  and  C3_8 
REMARK    2  A    between atoms: C3_8  and  N3_9 
REMARK    3  A    between atoms: C4_14  and  N4_15 
ROOT
HETATM    1  N1  UNL     1       0.100  30.121  18.068  1.00  0.00    -0.234 N 
ATOM      2  H11 UNL     1      -0.731  30.130  17.477  1.00  0.00     0.174 HD
ATOM      3  H12 UNL     1       0.895  29.561  17.762  1.00  0.00     0.174 HD
HETATM    4  C1  UNL     1       0.169  30.792  19.177  1.00  0.00     0.680 A 
HETATM    5  N2  UNL     1       1.263  30.781  19.955  1.00  0.00    -0.172 N 
ATOM      6  H2  UNL     1       2.072  30.229  19.670  1.00  0.00     0.186 HD
HETATM    7  C2  UNL     1       1.314  31.472  21.085  1.00  0.00     0.168 A 
HETATM    8  O1  UNL     1       0.266  32.186  21.450  1.00  0.00    -0.264 OA
HETATM    9  C4  UNL     1      -0.827  32.231  20.728  1.00  0.00     0.237 A 
HETATM   10  N5  UNL     1      -0.880  31.531  19.581  1.00  0.00    -0.155 N 
ATOM     11  H5  UNL     1      -1.725  31.560  19.012  1.00  0.00     0.188 HD
ENDROOT
BRANCH   7  12
HETATM   12  C3  UNL     1       2.503  31.470  21.947  1.00  0.00     0.314 C 
BRANCH  12  13
HETATM   13  N3  UNL     1       2.291  30.629  23.075  1.00  0.00    -0.072 N 
ATOM     14  H33 UNL     1       1.593  29.909  22.888  1.00  0.00     0.274 HD
ATOM     15  H32 UNL     1       3.090  30.019  23.252  1.00  0.00     0.274 HD
ATOM     16  H31 UNL     1       2.052  31.189  23.892  1.00  0.00     0.274 HD
ENDBRANCH  12  13
ENDBRANCH   7  12
BRANCH   9  17
HETATM   17  N4  UNL     1      -1.853  32.941  21.103  1.00  0.00    -0.364 N 
ATOM     18  H42 UNL     1      -2.004  33.867  20.700  1.00  0.00     0.159 HD
ATOM     19  H41 UNL     1      -2.513  32.591  21.797  1.00  0.00     0.159 HD
ENDBRANCH   9  17
TORSDOF 3
ENDMDL
MODEL 2
REMARK VINA RESULT: -5.049573997      1.993      2.207
REMARK  3 active torsions:
REMARK  status: ('A' for Active; 'I' for Inactive)
REMARK    1  A    between atoms: C2_7  and  C3_8 
REMARK    2  A    between atoms: C3_8  and  N3_9 
REMARK    3  A    between atoms: C4_14  and  N4_15 
ROOT
HETATM    1  N1  UNL     1       1.740  34.612  18.537  1.00  0.00    -0.234 N 
ATOM      2  H11 UNL     1       1.066  35.120  17.965  1.00  0.00     0.174 HD
ATOM      3  H12 UNL     1       2.730  34.724  18.317  1.00  0.00     0.174 HD
HETATM    4  C1  UNL     1       1.378  33.840  19.516  1.00  0.00     0.680 A 
HETATM    5  N2  UNL     1       2.265  33.170  20.268  1.00  0.00    -0.172 N 
ATOM      6  H2  UNL     1       3.261  33.267  20.069  1.00  0.00     0.186 HD
HETATM    7  C2  UNL     1       1.875  32.387  21.263  1.00  0.00     0.168 A 
HETATM    8  O1  UNL     1       0.586  32.265  21.519  1.00  0.00    -0.264 OA
HETATM    9  C4  UNL     1      -0.322  32.896  20.815  1.00  0.00     0.237 A 
HETATM   10  N5  UNL     1       0.072  33.692  19.805  1.00  0.00    -0.155 N 
ATOM     11  H5  UNL     1      -0.626  34.188  19.252  1.00  0.00     0.188 HD
ENDROOT
BRANCH   7  12
HETATM   12  C3  UNL     1       2.834  31.647  22.095  1.00  0.00     0.314 C 
BRANCH  12  13
HETATM   13  N3  UNL     1       2.145  30.747  22.956  1.00  0.00    -0.072 N 
ATOM     14  H33 UNL     1       1.879  31.190  23.836  1.00  0.00     0.274 HD
ATOM     15  H32 UNL     1       1.210  30.529  22.610  1.00  0.00     0.274 HD
ATOM     16  H31 UNL     1       2.702  29.907  23.105  1.00  0.00     0.274 HD
ENDBRANCH  12  13
ENDBRANCH   7  12
BRANCH   9  17
HETATM   17  N4  UNL     1      -1.591  32.765  21.081  1.00  0.00    -0.364 N 
ATOM     18  H42 UNL     1      -2.191  32.240  20.445  1.00  0.00     0.159 HD
ATOM     19  H41 UNL     1      -2.001  33.183  21.916  1.00  0.00     0.159 HD
ENDBRANCH   9  17
TORSDOF 3
ENDMDL
MODEL 3
REMARK VINA RESULT: -5.005019709      1.030      2.519
REMARK  3 active torsions:
REMARK  status: ('A' for Active; 'I' for Inactive)
REMARK    1  A    between atoms: C2_7  and  C3_8 
REMARK    2  A    between atoms: C3_8  and  N3_9 
REMARK    3  A    between atoms: C4_14  and  N4_15 
ROOT
HETATM    1  N1  UNL     1      -1.938  33.007  21.156  1.00  0.00    -0.234 N 
ATOM      2  H11 UNL     1      -2.803  33.074  20.621  1.00  0.00     0.174 HD
ATOM      3  H12 UNL     1      -1.885  33.514  22.040  1.00  0.00     0.174 HD
HETATM    4  C1  UNL     1      -0.922  32.308  20.749  1.00  0.00     0.680 A 
HETATM    5  N2  UNL     1       0.217  32.220  21.454  1.00  0.00    -0.172 N 
ATOM      6  H2  UNL     1       0.294  32.717  22.341  1.00  0.00     0.186 HD
HETATM    7  C2  UNL     1       1.243  31.502  21.021  1.00  0.00     0.168 A 
HETATM    8  O1  UNL     1       1.140  30.859  19.874  1.00  0.00    -0.264 OA
HETATM    9  C4  UNL     1       0.051  30.911  19.146  1.00  0.00     0.237 A 
HETATM   10  N5  UNL     1      -0.991  31.640  19.584  1.00  0.00    -0.155 N 
ATOM     11  H5  UNL     1      -1.844  31.686  19.026  1.00  0.00     0.188 HD
ENDROOT
BRANCH   7  12
HETATM   12  C3  UNL     1       2.496  31.396  21.781  1.00  0.00     0.314 C 
BRANCH  12  13
HETATM   13  N3  UNL     1       2.272  30.703  23.004  1.00  0.00    -0.072 N 
ATOM     14  H33 UNL     1       1.290  30.724  23.279  1.00  0.00     0.274 HD
ATOM     15  H32 UNL     1       2.376  29.694  22.895  1.00  0.00     0.274 HD
ATOM     16  H31 UNL     1       2.881  31.073  23.734  1.00  0.00     0.274 HD
ENDBRANCH  12  13
ENDBRANCH   7  12
BRANCH   9  17
HETATM   17  N4  UNL     1      -0.035  30.270  18.015  1.00  0.00    -0.364 N 
ATOM     18  H42 UNL     1       0.593  30.509  17.247  1.00  0.00     0.159 HD
ATOM     19  H41 UNL     1      -0.724  29.530  17.879  1.00  0.00     0.159 HD
ENDBRANCH   9  17
TORSDOF 3
ENDMDL
MODEL 4
REMARK VINA RESULT: -4.938195486      1.665      3.120
REMARK  3 active torsions:
REMARK  status: ('A' for Active; 'I' for Inactive)
REMARK    1  A    between atoms: C2_7  and  C3_8 
REMARK    2  A    between atoms: C3_8  and  N3_9 
REMARK    3  A    between atoms: C4_14  and  N4_15 
ROOT
HETATM    1  N1  UNL     1      -0.334  30.842  18.903  1.00  0.00    -0.234 N 
ATOM      2  H11 UNL     1      -0.220  29.838  18.764  1.00  0.00     0.174 HD
ATOM      3  H12 UNL     1      -0.898  31.355  18.226  1.00  0.00     0.174 HD
HETATM    4  C1  UNL     1       0.212  31.471  19.899  1.00  0.00     0.680 A 
HETATM    5  N2  UNL     1       0.063  32.791  20.082  1.00  0.00    -0.172 N 
ATOM      6  H2  UNL     1      -0.498  33.327  19.419  1.00  0.00     0.186 HD
HETATM    7  C2  UNL     1       0.629  33.415  21.105  1.00  0.00     0.168 A 
HETATM    8  O1  UNL     1       1.352  32.721  21.962  1.00  0.00    -0.264 OA
HETATM    9  C4  UNL     1       1.530  31.429  21.830  1.00  0.00     0.237 A 
HETATM   10  N5  UNL     1       0.957  30.794  20.793  1.00  0.00    -0.155 N 
ATOM     11  H5  UNL     1       1.088  29.789  20.681  1.00  0.00     0.188 HD
ENDROOT
BRANCH   7  12
HETATM   12  C3  UNL     1       0.475  34.861  21.319  1.00  0.00     0.314 C 
BRANCH  12  13
HETATM   13  N3  UNL     1      -0.742  35.129  22.006  1.00  0.00    -0.072 N 
ATOM     14  H33 UNL     1      -0.710  34.812  22.975  1.00  0.00     0.274 HD
ATOM     15  H32 UNL     1      -0.870  36.127  22.179  1.00  0.00     0.274 HD
ATOM     16  H31 UNL     1      -1.529  34.726  21.498  1.00  0.00     0.274 HD
ENDBRANCH  12  13
ENDBRANCH   7  12
BRANCH   9  17
HETATM   17  N4  UNL     1       2.247  30.756  22.686  1.00  0.00    -0.364 N 
ATOM     18  H42 UNL     1       1.944  30.685  23.657  1.00  0.00     0.159 HD
ATOM     19  H41 UNL     1       3.113  30.297  22.403  1.00  0.00     0.159 HD
ENDBRANCH   9  17
TORSDOF 3
ENDMDL
MODEL 5
REMARK VINA RESULT: -4.936960410      2.217      2.787
REMARK  3 active torsions:
REMARK  status: ('A' for Active; 'I' for Inactive)
REMARK    1  A    between atoms: C2_7  and  C3_8 
REMARK    2  A    between atoms: C3_8  and  N3_9 
REMARK    3  A    between atoms: C4_14  and  N4_15 
ROOT
HETATM    1  N1  UNL     1      -1.553  32.692  20.862  1.00  0.00    -0.234 N 
ATOM      2  H11 UNL     1      -2.248  33.162  20.283  1.00  0.00     0.174 HD
ATOM      3  H12 UNL     1      -1.886  32.015  21.549  1.00  0.00     0.174 HD
HETATM    4  C1  UNL     1      -0.282  32.928  20.750  1.00  0.00     0.680 A 
HETATM    5  N2  UNL     1       0.633  32.310  21.512  1.00  0.00    -0.172 N 
ATOM      6  H2  UNL     1       0.326  31.628  22.206  1.00  0.00     0.186 HD
HETATM    7  C2  UNL     1       1.927  32.565  21.382  1.00  0.00     0.168 A 
HETATM    8  O1  UNL     1       2.322  33.446  20.483  1.00  0.00    -0.264 OA
HETATM    9  C4  UNL     1       1.471  34.079  19.713  1.00  0.00     0.237 A 
HETATM   10  N5  UNL     1       0.157  33.821  19.844  1.00  0.00    -0.155 N 
ATOM     11  H5  UNL     1      -0.513  34.307  19.249  1.00  0.00     0.188 HD
ENDROOT
BRANCH   7  12
HETATM   12  C3  UNL     1       2.941  31.896  22.209  1.00  0.00     0.314 C 
BRANCH  12  13
HETATM   13  N3  UNL     1       2.348  30.838  22.953  1.00  0.00    -0.072 N 
ATOM     14  H33 UNL     1       1.463  31.119  23.377  1.00  0.00     0.274 HD
ATOM     15  H32 UNL     1       1.995  30.097  22.347  1.00  0.00     0.274 HD
ATOM     16  H31 UNL     1       3.006  30.483  23.646  1.00  0.00     0.274 HD
ENDBRANCH  12  13
ENDBRANCH   7  12
BRANCH   9  17
HETATM   17  N4  UNL     1       1.877  34.946  18.830  1.00  0.00    -0.364 N 
ATOM     18  H42 UNL     1       2.361  35.791  19.133  1.00  0.00     0.159 HD
ATOM     19  H41 UNL     1       1.717  34.798  17.833  1.00  0.00     0.159 HD
ENDBRANCH   9  17
TORSDOF 3
ENDMDL
