MODEL 1
REMARK VINA RESULT: -6.916935304      0.000      0.000
REMARK  4 active torsions:
REMARK  status: ('A' for Active; 'I' for Inactive)
REMARK    1  A    between atoms: C2_2  and  C3_3 
REMARK    2  A    between atoms: C3_3  and  N1_4 
REMARK    3  A    between atoms: N2_6  and  C5_8 
REMARK    4  A    between atoms: C8_17  and  N6_18 
ROOT
HETATM    1  N1  UNL     1     -15.746 -26.788 -25.225  1.00  0.00    -0.162 N 
HETATM    2  C4  UNL     1     -14.767 -27.180 -26.061  1.00  0.00     0.689 A 
HETATM    3  N2  UNL     1     -13.514 -26.932 -25.854  1.00  0.00    -0.161 N 
ATOM      4  H2  UNL     1     -13.212 -26.417 -25.027  1.00  0.00     0.187 HD
HETATM    5  N5  UNL     1     -15.323 -27.844 -27.098  1.00  0.00    -0.184 N 
ATOM      6  H5  UNL     1     -14.825 -28.258 -27.887  1.00  0.00     0.184 HD
HETATM    7  C7  UNL     1     -16.659 -27.861 -26.898  1.00  0.00     0.137 A 
HETATM    8  C8  UNL     1     -17.709 -28.401 -27.637  1.00  0.00     0.131 A 
HETATM    9  N7  UNL     1     -18.949 -28.235 -27.143  1.00  0.00    -0.337 N 
ATOM     10  H7  UNL     1     -19.730 -28.623 -27.671  1.00  0.00     0.168 HD
HETATM   11  C9  UNL     1     -19.219 -27.592 -26.002  1.00  0.00     0.183 A 
HETATM   12  N8  UNL     1     -18.214 -27.074 -25.290  1.00  0.00    -0.336 N 
ATOM     13  H8  UNL     1     -18.411 -26.584 -24.418  1.00  0.00     0.168 HD
HETATM   14  C10 UNL     1     -16.937 -27.196 -25.717  1.00  0.00     0.156 A 
ENDROOT
BRANCH   1  15
HETATM   15  C3  UNL     1     -15.569 -26.041 -23.983  1.00  0.00     0.176 C 
BRANCH  15  16
HETATM   16  C2  UNL     1     -15.903 -24.610 -24.189  1.00  0.00    -0.016 C 
HETATM   17  C1  UNL     1     -14.954 -23.658 -24.202  1.00  0.00     0.008 C 
ENDBRANCH  15  16
ENDBRANCH   1  15
BRANCH   3  18
HETATM   18  C5  UNL     1     -12.550 -27.407 -26.828  1.00  0.00     0.192 A 
HETATM   19  N3  UNL     1     -11.970 -26.958 -27.848  1.00  0.00    -0.346 N 
HETATM   20  C6  UNL     1     -11.252 -28.152 -28.077  1.00  0.00     0.249 A 
ATOM     21  H3  UNL     1     -12.005 -26.061 -28.333  1.00  0.00     0.164 HD
HETATM   22  N4  UNL     1     -11.915 -28.639 -26.924  1.00  0.00    -0.346 N 
ATOM     23  H4  UNL     1     -11.922 -29.512 -26.396  1.00  0.00     0.164 HD
ENDBRANCH   3  18
BRANCH   8  24
HETATM   24  N6  UNL     1     -17.486 -29.024 -28.737  1.00  0.00    -0.383 N 
ATOM     25  H62 UNL     1     -16.824 -29.797 -28.802  1.00  0.00     0.157 HD
ATOM     26  H61 UNL     1     -17.973 -28.762 -29.595  1.00  0.00     0.157 HD
ENDBRANCH   8  24
TORSDOF 4
ENDMDL
MODEL 2
REMARK VINA RESULT: -6.834118020      1.891      5.199
REMARK  4 active torsions:
REMARK  status: ('A' for Active; 'I' for Inactive)
REMARK    1  A    between atoms: C2_2  and  C3_3 
REMARK    2  A    between atoms: C3_3  and  N1_4 
REMARK    3  A    between atoms: N2_6  and  C5_8 
REMARK    4  A    between atoms: C8_17  and  N6_18 
ROOT
HETATM    1  N1  UNL     1     -15.980 -27.179 -25.928  1.00  0.00    -0.162 N 
HETATM    2  C4  UNL     1     -15.471 -26.492 -24.890  1.00  0.00     0.689 A 
HETATM    3  N2  UNL     1     -16.194 -26.017 -23.928  1.00  0.00    -0.161 N 
ATOM      4  H2  UNL     1     -17.206 -26.149 -23.920  1.00  0.00     0.187 HD
HETATM    5  N5  UNL     1     -14.131 -26.403 -25.044  1.00  0.00    -0.184 N 
ATOM      6  H5  UNL     1     -13.480 -25.938 -24.410  1.00  0.00     0.184 HD
HETATM    7  C7  UNL     1     -13.813 -27.042 -26.191  1.00  0.00     0.137 A 
HETATM    8  C8  UNL     1     -12.597 -27.260 -26.833  1.00  0.00     0.131 A 
HETATM    9  N7  UNL     1     -12.634 -27.951 -27.987  1.00  0.00    -0.337 N 
ATOM     10  H7  UNL     1     -11.753 -28.121 -28.471  1.00  0.00     0.168 HD
HETATM   11  C9  UNL     1     -13.755 -28.430 -28.536  1.00  0.00     0.183 A 
HETATM   12  N8  UNL     1     -14.923 -28.222 -27.921  1.00  0.00    -0.336 N 
ATOM     13  H8  UNL     1     -15.783 -28.584 -28.333  1.00  0.00     0.168 HD
HETATM   14  C10 UNL     1     -14.974 -27.536 -26.757  1.00  0.00     0.156 A 
ENDROOT
BRANCH   1  15
HETATM   15  C3  UNL     1     -17.389 -27.496 -26.142  1.00  0.00     0.176 C 
BRANCH  15  16
HETATM   16  C2  UNL     1     -17.676 -28.888 -25.714  1.00  0.00    -0.016 C 
HETATM   17  C1  UNL     1     -18.519 -29.677 -26.400  1.00  0.00     0.008 C 
ENDBRANCH  15  16
ENDBRANCH   1  15
BRANCH   3  18
HETATM   18  C5  UNL     1     -15.530 -25.293 -22.861  1.00  0.00     0.192 A 
HETATM   19  N3  UNL     1     -15.228 -24.101 -22.604  1.00  0.00    -0.346 N 
HETATM   20  C6  UNL     1     -14.622 -24.426 -21.370  1.00  0.00     0.249 A 
ATOM     21  H3  UNL     1     -15.368 -23.222 -23.102  1.00  0.00     0.164 HD
HETATM   22  N4  UNL     1     -14.973 -25.763 -21.678  1.00  0.00    -0.346 N 
ATOM     23  H4  UNL     1     -14.865 -26.672 -21.229  1.00  0.00     0.164 HD
ENDBRANCH   3  18
BRANCH   8  24
HETATM   24  N6  UNL     1     -11.500 -26.816 -26.335  1.00  0.00    -0.383 N 
ATOM     25  H62 UNL     1     -10.783 -26.371 -26.907  1.00  0.00     0.157 HD
ATOM     26  H61 UNL     1     -11.309 -26.894 -25.335  1.00  0.00     0.157 HD
ENDBRANCH   8  24
TORSDOF 4
ENDMDL
MODEL 3
REMARK VINA RESULT: -6.712548012      1.664      3.825
REMARK  4 active torsions:
REMARK  status: ('A' for Active; 'I' for Inactive)
REMARK    1  A    between atoms: C2_2  and  C3_3 
REMARK    2  A    between atoms: C3_3  and  N1_4 
REMARK    3  A    between atoms: N2_6  and  C5_8 
REMARK    4  A    between atoms: C8_17  and  N6_18 
ROOT
HETATM    1  N1  UNL     1     -15.477 -27.761 -26.705  1.00  0.00    -0.162 N 
HETATM    2  C4  UNL     1     -14.191 -27.835 -26.318  1.00  0.00     0.689 A 
HETATM    3  N2  UNL     1     -13.260 -28.371 -27.041  1.00  0.00    -0.161 N 
ATOM      4  H2  UNL     1     -13.472 -28.768 -27.956  1.00  0.00     0.187 HD
HETATM    5  N5  UNL     1     -14.072 -27.271 -25.096  1.00  0.00    -0.184 N 
ATOM      6  H5  UNL     1     -13.213 -27.183 -24.552  1.00  0.00     0.184 HD
HETATM    7  C7  UNL     1     -15.301 -26.846 -24.726  1.00  0.00     0.137 A 
HETATM    8  C8  UNL     1     -15.761 -26.201 -23.581  1.00  0.00     0.131 A 
HETATM    9  N7  UNL     1     -17.074 -25.913 -23.533  1.00  0.00    -0.337 N 
ATOM     10  H7  UNL     1     -17.430 -25.442 -22.701  1.00  0.00     0.168 HD
HETATM   11  C9  UNL     1     -17.941 -26.206 -24.508  1.00  0.00     0.183 A 
HETATM   12  N8  UNL     1     -17.501 -26.824 -25.608  1.00  0.00    -0.336 N 
ATOM     13  H8  UNL     1     -18.155 -27.050 -26.357  1.00  0.00     0.168 HD
HETATM   14  C10 UNL     1     -16.195 -27.150 -25.737  1.00  0.00     0.156 A 
ENDROOT
BRANCH   1  15
HETATM   15  C3  UNL     1     -16.026 -28.255 -27.964  1.00  0.00     0.176 C 
BRANCH  15  16
HETATM   16  C2  UNL     1     -17.452 -28.629 -27.794  1.00  0.00    -0.016 C 
HETATM   17  C1  UNL     1     -18.127 -29.293 -28.747  1.00  0.00     0.008 C 
ENDBRANCH  15  16
ENDBRANCH   1  15
BRANCH   3  18
HETATM   18  C5  UNL     1     -11.908 -28.391 -26.516  1.00  0.00     0.192 A 
HETATM   19  N3  UNL     1     -11.247 -29.075 -25.695  1.00  0.00    -0.346 N 
HETATM   20  C6  UNL     1     -10.067 -28.323 -25.881  1.00  0.00     0.249 A 
ATOM     21  H3  UNL     1     -11.478 -29.878 -25.110  1.00  0.00     0.164 HD
HETATM   22  N4  UNL     1     -10.829 -27.565 -26.803  1.00  0.00    -0.346 N 
ATOM     23  H4  UNL     1     -10.659 -26.764 -27.412  1.00  0.00     0.164 HD
ENDBRANCH   3  18
BRANCH   8  24
HETATM   24  N6  UNL     1     -14.958 -25.904 -22.625  1.00  0.00    -0.383 N 
ATOM     25  H62 UNL     1     -13.946 -25.888 -22.748  1.00  0.00     0.157 HD
ATOM     26  H61 UNL     1     -15.312 -25.671 -21.697  1.00  0.00     0.157 HD
ENDBRANCH   8  24
TORSDOF 4
ENDMDL
MODEL 4
REMARK VINA RESULT: -6.648602199      1.682      5.339
REMARK  4 active torsions:
REMARK  status: ('A' for Active; 'I' for Inactive)
REMARK    1  A    between atoms: C2_2  and  C3_3 
REMARK    2  A    between atoms: C3_3  and  N1_4 
REMARK    3  A    between atoms: N2_6  and  C5_8 
REMARK    4  A    between atoms: C8_17  and  N6_18 
ROOT
HETATM    1  N1  UNL     1     -15.754 -27.486 -26.379  1.00  0.00    -0.162 N 
HETATM    2  C4  UNL     1     -15.346 -26.803 -25.294  1.00  0.00     0.689 A 
HETATM    3  N2  UNL     1     -16.155 -26.353 -24.391  1.00  0.00    -0.161 N 
ATOM      4  H2  UNL     1     -17.162 -26.502 -24.469  1.00  0.00     0.187 HD
HETATM    5  N5  UNL     1     -13.999 -26.690 -25.334  1.00  0.00    -0.184 N 
ATOM      6  H5  UNL     1     -13.412 -26.223 -24.643  1.00  0.00     0.184 HD
HETATM    7  C7  UNL     1     -13.575 -27.310 -26.457  1.00  0.00     0.137 A 
HETATM    8  C8  UNL     1     -12.305 -27.500 -26.997  1.00  0.00     0.131 A 
HETATM    9  N7  UNL     1     -12.234 -28.177 -28.157  1.00  0.00    -0.337 N 
ATOM     10  H7  UNL     1     -11.312 -28.325 -28.569  1.00  0.00     0.168 HD
HETATM   11  C9  UNL     1     -13.296 -28.667 -28.805  1.00  0.00     0.183 A 
HETATM   12  N8  UNL     1     -14.516 -28.486 -28.288  1.00  0.00    -0.336 N 
ATOM     13  H8  UNL     1     -15.331 -28.858 -28.774  1.00  0.00     0.168 HD
HETATM   14  C10 UNL     1     -14.676 -27.816 -27.125  1.00  0.00     0.156 A 
ENDROOT
BRANCH   1  15
HETATM   15  C3  UNL     1     -17.134 -27.824 -26.714  1.00  0.00     0.176 C 
BRANCH  15  16
HETATM   16  C2  UNL     1     -17.188 -28.553 -28.005  1.00  0.00    -0.016 C 
HETATM   17  C1  UNL     1     -18.337 -29.068 -28.477  1.00  0.00     0.008 C 
ENDBRANCH  15  16
ENDBRANCH   1  15
BRANCH   3  18
HETATM   18  C5  UNL     1     -15.596 -25.631 -23.264  1.00  0.00     0.192 A 
HETATM   19  N3  UNL     1     -15.146 -25.906 -22.124  1.00  0.00    -0.346 N 
HETATM   20  C6  UNL     1     -14.859 -24.559 -21.813  1.00  0.00     0.249 A 
ATOM     21  H3  UNL     1     -15.029 -26.780 -21.611  1.00  0.00     0.164 HD
HETATM   22  N4  UNL     1     -15.369 -24.270 -23.102  1.00  0.00    -0.346 N 
ATOM     23  H4  UNL     1     -15.508 -23.431 -23.665  1.00  0.00     0.164 HD
ENDBRANCH   3  18
BRANCH   8  24
HETATM   24  N6  UNL     1     -11.263 -27.043 -26.404  1.00  0.00    -0.383 N 
ATOM     25  H62 UNL     1     -10.752 -27.584 -25.706  1.00  0.00     0.157 HD
ATOM     26  H61 UNL     1     -10.906 -26.111 -26.615  1.00  0.00     0.157 HD
ENDBRANCH   8  24
TORSDOF 4
ENDMDL
MODEL 5
REMARK VINA RESULT: -6.525745008      1.092      1.264
REMARK  4 active torsions:
REMARK  status: ('A' for Active; 'I' for Inactive)
REMARK    1  A    between atoms: C2_2  and  C3_3 
REMARK    2  A    between atoms: C3_3  and  N1_4 
REMARK    3  A    between atoms: N2_6  and  C5_8 
REMARK    4  A    between atoms: C8_17  and  N6_18 
ROOT
HETATM    1  N1  UNL     1     -15.710 -26.127 -24.723  1.00  0.00    -0.162 N 
HETATM    2  C4  UNL     1     -14.736 -26.653 -25.488  1.00  0.00     0.689 A 
HETATM    3  N2  UNL     1     -13.479 -26.404 -25.309  1.00  0.00    -0.161 N 
ATOM      4  H2  UNL     1     -13.170 -25.783 -24.561  1.00  0.00     0.187 HD
HETATM    5  N5  UNL     1     -15.301 -27.446 -26.425  1.00  0.00    -0.184 N 
ATOM      6  H5  UNL     1     -14.808 -27.977 -27.144  1.00  0.00     0.184 HD
HETATM    7  C7  UNL     1     -16.638 -27.407 -26.234  1.00  0.00     0.137 A 
HETATM    8  C8  UNL     1     -17.696 -28.025 -26.898  1.00  0.00     0.131 A 
HETATM    9  N7  UNL     1     -18.934 -27.766 -26.441  1.00  0.00    -0.337 N 
ATOM     10  H7  UNL     1     -19.721 -28.208 -26.915  1.00  0.00     0.168 HD
HETATM   11  C9  UNL     1     -19.196 -26.963 -25.404  1.00  0.00     0.183 A 
HETATM   12  N8  UNL     1     -18.183 -26.370 -24.766  1.00  0.00    -0.336 N 
ATOM     13  H8  UNL     1     -18.374 -25.757 -23.973  1.00  0.00     0.168 HD
HETATM   14  C10 UNL     1     -16.907 -26.577 -25.161  1.00  0.00     0.156 A 
ENDROOT
BRANCH   1  15
HETATM   15  C3  UNL     1     -15.523 -25.216 -23.598  1.00  0.00     0.176 C 
BRANCH  15  16
HETATM   16  C2  UNL     1     -15.722 -25.934 -22.314  1.00  0.00    -0.016 C 
HETATM   17  C1  UNL     1     -15.036 -25.602 -21.207  1.00  0.00     0.008 C 
ENDBRANCH  15  16
ENDBRANCH   1  15
BRANCH   3  18
HETATM   18  C5  UNL     1     -12.521 -27.032 -26.199  1.00  0.00     0.192 A 
HETATM   19  N3  UNL     1     -11.969 -26.766 -27.296  1.00  0.00    -0.346 N 
HETATM   20  C6  UNL     1     -11.228 -27.968 -27.316  1.00  0.00     0.249 A 
ATOM     21  H3  UNL     1     -12.032 -25.975 -27.936  1.00  0.00     0.164 HD
HETATM   22  N4  UNL     1     -11.859 -28.247 -26.080  1.00  0.00    -0.346 N 
ATOM     23  H4  UNL     1     -11.838 -29.008 -25.401  1.00  0.00     0.164 HD
ENDBRANCH   3  18
BRANCH   8  24
HETATM   24  N6  UNL     1     -17.482 -28.801 -27.897  1.00  0.00    -0.383 N 
ATOM     25  H62 UNL     1     -16.713 -29.472 -27.912  1.00  0.00     0.157 HD
ATOM     26  H61 UNL     1     -18.083 -28.772 -28.721  1.00  0.00     0.157 HD
ENDBRANCH   8  24
TORSDOF 4
ENDMDL
