MODEL 1
REMARK VINA RESULT: -7.505736407      0.000      0.000
REMARK  4 active torsions:
REMARK  status: ('A' for Active; 'I' for Inactive)
REMARK       I    between atoms: C2_2  and  N1_4 
REMARK    1  A    between atoms: N1_4  and  N2_6 
REMARK    2  A    between atoms: C3_8  and  C5_11 
REMARK    3  A    between atoms: C6_12  and  N4_13 
REMARK    4  A    between atoms: C7_20  and  N7_21 
ROOT
HETATM    1  N2  UNL     1     -15.077 -28.575 -26.067  1.00  0.00    -0.287 N 
ATOM      2  H2  UNL     1     -14.934 -29.432 -26.602  1.00  0.00     0.188 HD
HETATM    3  C3  UNL     1     -14.220 -27.635 -26.166  1.00  0.00     0.146 C 
HETATM    4  C4  UNL     1     -14.464 -26.429 -25.383  1.00  0.00     0.120 C 
HETATM    5  N3  UNL     1     -14.686 -25.488 -24.751  1.00  0.00    -0.190 NA
ENDROOT
BRANCH   3   6
HETATM    6  C5  UNL     1     -13.038 -27.686 -26.992  1.00  0.00     0.099 A 
HETATM    7  C6  UNL     1     -12.876 -28.176 -28.268  1.00  0.00     0.205 A 
HETATM    8  N5  UNL     1     -11.550 -27.970 -28.561  1.00  0.00    -0.278 N 
HETATM    9  N6  UNL     1     -10.947 -27.409 -27.565  1.00  0.00    -0.283 N 
ATOM     10  H5  UNL     1     -11.103 -28.225 -29.441  1.00  0.00     0.189 HD
HETATM   11  C7  UNL     1     -11.790 -27.194 -26.545  1.00  0.00     0.131 A 
ATOM     12  H6  UNL     1      -9.958 -27.161 -27.556  1.00  0.00     0.188 HD
BRANCH   7  13
HETATM   13  N4  UNL     1     -13.813 -28.765 -29.134  1.00  0.00    -0.095 N 
HETATM   14  O2  UNL     1     -13.350 -29.300 -30.217  1.00  0.00    -0.530 OA
HETATM   15  O3  UNL     1     -15.153 -28.859 -29.004  1.00  0.00    -0.530 OA
ENDBRANCH   7  13
BRANCH  11  16
HETATM   16  N7  UNL     1     -11.515 -26.654 -25.404  1.00  0.00    -0.384 N 
ATOM     17  H72 UNL     1     -12.124 -26.593 -24.587  1.00  0.00     0.157 HD
ATOM     18  H71 UNL     1     -10.647 -26.198 -25.121  1.00  0.00     0.157 HD
ENDBRANCH  11  16
ENDBRANCH   3   6
BRANCH   1  19
HETATM   19  N1  UNL     1     -16.202 -28.468 -25.251  1.00  0.00    -0.269 N 
HETATM   20  C2  UNL     1     -17.472 -28.955 -25.631  1.00  0.00     0.232 C 
HETATM   21  C1  UNL     1     -18.638 -28.822 -24.739  1.00  0.00     0.119 C 
HETATM   22  O1  UNL     1     -17.610 -29.509 -26.744  1.00  0.00    -0.272 OA
ATOM     23  H1  UNL     1     -16.104 -28.019 -24.340  1.00  0.00     0.190 HD
ENDBRANCH   1  19
TORSDOF 4
ENDMDL
MODEL 2
REMARK VINA RESULT: -7.376072528      1.109      1.109
REMARK  4 active torsions:
REMARK  status: ('A' for Active; 'I' for Inactive)
REMARK       I    between atoms: C2_2  and  N1_4 
REMARK    1  A    between atoms: N1_4  and  N2_6 
REMARK    2  A    between atoms: C3_8  and  C5_11 
REMARK    3  A    between atoms: C6_12  and  N4_13 
REMARK    4  A    between atoms: C7_20  and  N7_21 
ROOT
HETATM    1  N2  UNL     1     -15.686 -27.961 -27.290  1.00  0.00    -0.287 N 
ATOM      2  H2  UNL     1     -15.602 -28.487 -28.160  1.00  0.00     0.188 HD
HETATM    3  C3  UNL     1     -14.631 -27.498 -26.743  1.00  0.00     0.146 C 
HETATM    4  C4  UNL     1     -14.798 -26.753 -25.500  1.00  0.00     0.120 C 
HETATM    5  N3  UNL     1     -14.964 -26.167 -24.519  1.00  0.00    -0.190 NA
ENDROOT
BRANCH   3   6
HETATM    6  C5  UNL     1     -13.295 -27.662 -27.267  1.00  0.00     0.099 A 
HETATM    7  C6  UNL     1     -12.866 -28.334 -28.388  1.00  0.00     0.205 A 
HETATM    8  N5  UNL     1     -11.504 -28.165 -28.403  1.00  0.00    -0.278 N 
HETATM    9  N6  UNL     1     -11.123 -27.457 -27.392  1.00  0.00    -0.283 N 
ATOM     10  H5  UNL     1     -10.879 -28.544 -29.115  1.00  0.00     0.189 HD
HETATM   11  C7  UNL     1     -12.166 -27.100 -26.629  1.00  0.00     0.131 A 
ATOM     12  H6  UNL     1     -10.154 -27.204 -27.197  1.00  0.00     0.188 HD
BRANCH   7  13
HETATM   13  N4  UNL     1     -13.602 -29.053 -29.346  1.00  0.00    -0.095 N 
HETATM   14  O2  UNL     1     -13.026 -29.264 -30.486  1.00  0.00    -0.530 OA
HETATM   15  O3  UNL     1     -14.847 -29.567 -29.256  1.00  0.00    -0.530 OA
ENDBRANCH   7  13
BRANCH  11  16
HETATM   16  N7  UNL     1     -12.138 -26.394 -25.546  1.00  0.00    -0.384 N 
ATOM     17  H72 UNL     1     -11.949 -26.723 -24.600  1.00  0.00     0.157 HD
ATOM     18  H71 UNL     1     -12.299 -25.391 -25.451  1.00  0.00     0.157 HD
ENDBRANCH  11  16
ENDBRANCH   3   6
BRANCH   1  19
HETATM   19  N1  UNL     1     -16.951 -27.770 -26.735  1.00  0.00    -0.269 N 
HETATM   20  C2  UNL     1     -18.130 -28.279 -27.325  1.00  0.00     0.232 C 
HETATM   21  C1  UNL     1     -19.449 -28.054 -26.708  1.00  0.00     0.119 C 
HETATM   22  O1  UNL     1     -18.051 -28.931 -28.389  1.00  0.00    -0.272 OA
ATOM     23  H1  UNL     1     -17.029 -27.240 -25.867  1.00  0.00     0.190 HD
ENDBRANCH   1  19
TORSDOF 4
ENDMDL
MODEL 3
REMARK VINA RESULT: -7.367127319      2.089      2.877
REMARK  4 active torsions:
REMARK  status: ('A' for Active; 'I' for Inactive)
REMARK       I    between atoms: C2_2  and  N1_4 
REMARK    1  A    between atoms: N1_4  and  N2_6 
REMARK    2  A    between atoms: C3_8  and  C5_11 
REMARK    3  A    between atoms: C6_12  and  N4_13 
REMARK    4  A    between atoms: C7_20  and  N7_21 
ROOT
HETATM    1  N2  UNL     1     -13.928 -26.382 -25.292  1.00  0.00    -0.287 N 
ATOM      2  H2  UNL     1     -13.209 -25.692 -25.512  1.00  0.00     0.188 HD
HETATM    3  C3  UNL     1     -13.878 -27.526 -25.852  1.00  0.00     0.146 C 
HETATM    4  C4  UNL     1     -14.927 -28.480 -25.509  1.00  0.00     0.120 C 
HETATM    5  N3  UNL     1     -15.771 -29.213 -25.216  1.00  0.00    -0.190 NA
ENDROOT
BRANCH   3   6
HETATM    6  C5  UNL     1     -12.864 -27.936 -26.794  1.00  0.00     0.099 A 
HETATM    7  C6  UNL     1     -12.992 -28.378 -28.090  1.00  0.00     0.205 A 
HETATM    8  N5  UNL     1     -11.709 -28.627 -28.509  1.00  0.00    -0.278 N 
HETATM    9  N6  UNL     1     -10.865 -28.365 -27.567  1.00  0.00    -0.283 N 
ATOM     10  H5  UNL     1     -11.457 -28.971 -29.436  1.00  0.00     0.189 HD
HETATM   11  C7  UNL     1     -11.489 -27.931 -26.463  1.00  0.00     0.131 A 
ATOM     12  H6  UNL     1      -9.854 -28.475 -27.651  1.00  0.00     0.188 HD
BRANCH   7  13
HETATM   13  N4  UNL     1     -14.147 -28.558 -28.871  1.00  0.00    -0.095 N 
HETATM   14  O2  UNL     1     -13.973 -28.703 -30.145  1.00  0.00    -0.530 OA
HETATM   15  O3  UNL     1     -15.440 -28.604 -28.485  1.00  0.00    -0.530 OA
ENDBRANCH   7  13
BRANCH  11  16
HETATM   16  N7  UNL     1     -10.946 -27.584 -25.342  1.00  0.00    -0.384 N 
ATOM     17  H72 UNL     1     -11.282 -26.879 -24.686  1.00  0.00     0.157 HD
ATOM     18  H71 UNL     1     -10.093 -27.952 -24.921  1.00  0.00     0.157 HD
ENDBRANCH  11  16
ENDBRANCH   3   6
BRANCH   1  19
HETATM   19  N1  UNL     1     -14.935 -26.043 -24.389  1.00  0.00    -0.269 N 
HETATM   20  C2  UNL     1     -15.214 -24.708 -24.019  1.00  0.00     0.232 C 
HETATM   21  C1  UNL     1     -16.287 -24.392 -23.059  1.00  0.00     0.119 C 
HETATM   22  O1  UNL     1     -14.538 -23.780 -24.514  1.00  0.00    -0.272 OA
ATOM     23  H1  UNL     1     -15.494 -26.791 -23.977  1.00  0.00     0.190 HD
ENDBRANCH   1  19
TORSDOF 4
ENDMDL
MODEL 4
REMARK VINA RESULT: -6.917607004      2.189      4.955
REMARK  4 active torsions:
REMARK  status: ('A' for Active; 'I' for Inactive)
REMARK       I    between atoms: C2_2  and  N1_4 
REMARK    1  A    between atoms: N1_4  and  N2_6 
REMARK    2  A    between atoms: C3_8  and  C5_11 
REMARK    3  A    between atoms: C6_12  and  N4_13 
REMARK    4  A    between atoms: C7_20  and  N7_21 
ROOT
HETATM    1  N2  UNL     1     -13.466 -28.841 -25.419  1.00  0.00    -0.287 N 
ATOM      2  H2  UNL     1     -13.749 -28.881 -24.440  1.00  0.00     0.188 HD
HETATM    3  C3  UNL     1     -14.209 -28.223 -26.252  1.00  0.00     0.146 C 
HETATM    4  C4  UNL     1     -13.767 -28.191 -27.641  1.00  0.00     0.120 C 
HETATM    5  N3  UNL     1     -13.390 -28.183 -28.733  1.00  0.00    -0.190 NA
ENDROOT
BRANCH   3   6
HETATM    6  C5  UNL     1     -15.447 -27.562 -25.913  1.00  0.00     0.099 A 
HETATM    7  C6  UNL     1     -16.730 -27.825 -26.333  1.00  0.00     0.205 A 
HETATM    8  N5  UNL     1     -17.511 -26.890 -25.699  1.00  0.00    -0.278 N 
HETATM    9  N6  UNL     1     -16.784 -26.121 -24.958  1.00  0.00    -0.283 N 
ATOM     10  H5  UNL     1     -18.523 -26.814 -25.800  1.00  0.00     0.189 HD
HETATM   11  C7  UNL     1     -15.490 -26.461 -25.027  1.00  0.00     0.131 A 
ATOM     12  H6  UNL     1     -17.149 -25.354 -24.393  1.00  0.00     0.188 HD
BRANCH   7  13
HETATM   13  N4  UNL     1     -17.206 -28.814 -27.212  1.00  0.00    -0.095 N 
HETATM   14  O2  UNL     1     -17.867 -29.794 -26.685  1.00  0.00    -0.530 OA
HETATM   15  O3  UNL     1     -17.075 -28.898 -28.553  1.00  0.00    -0.530 OA
ENDBRANCH   7  13
BRANCH  11  16
HETATM   16  N7  UNL     1     -14.500 -25.900 -24.413  1.00  0.00    -0.384 N 
ATOM     17  H72 UNL     1     -14.145 -26.121 -23.482  1.00  0.00     0.157 HD
ATOM     18  H71 UNL     1     -13.903 -25.145 -24.751  1.00  0.00     0.157 HD
ENDBRANCH  11  16
ENDBRANCH   3   6
BRANCH   1  19
HETATM   19  N1  UNL     1     -12.279 -29.462 -25.807  1.00  0.00    -0.269 N 
HETATM   20  C2  UNL     1     -11.036 -28.791 -25.826  1.00  0.00     0.232 C 
HETATM   21  C1  UNL     1      -9.803 -29.483 -26.244  1.00  0.00     0.119 C 
HETATM   22  O1  UNL     1     -10.981 -27.589 -25.485  1.00  0.00    -0.272 OA
ATOM     23  H1  UNL     1     -12.310 -30.442 -26.088  1.00  0.00     0.190 HD
ENDBRANCH   1  19
TORSDOF 4
ENDMDL
MODEL 5
REMARK VINA RESULT: -6.916892143      2.248      3.645
REMARK  4 active torsions:
REMARK  status: ('A' for Active; 'I' for Inactive)
REMARK       I    between atoms: C2_2  and  N1_4 
REMARK    1  A    between atoms: N1_4  and  N2_6 
REMARK    2  A    between atoms: C3_8  and  C5_11 
REMARK    3  A    between atoms: C6_12  and  N4_13 
REMARK    4  A    between atoms: C7_20  and  N7_21 
ROOT
HETATM    1  N2  UNL     1     -15.353 -28.057 -27.611  1.00  0.00    -0.287 N 
ATOM      2  H2  UNL     1     -15.624 -27.604 -26.739  1.00  0.00     0.188 HD
HETATM    3  C3  UNL     1     -14.114 -28.138 -27.906  1.00  0.00     0.146 C 
HETATM    4  C4  UNL     1     -13.771 -28.794 -29.163  1.00  0.00     0.120 C 
HETATM    5  N3  UNL     1     -13.532 -29.318 -30.164  1.00  0.00    -0.190 NA
ENDROOT
BRANCH   3   6
HETATM    6  C5  UNL     1     -13.041 -27.628 -27.086  1.00  0.00     0.099 A 
HETATM    7  C6  UNL     1     -13.091 -26.826 -25.969  1.00  0.00     0.205 A 
HETATM    8  N5  UNL     1     -11.780 -26.653 -25.598  1.00  0.00    -0.278 N 
HETATM    9  N6  UNL     1     -10.993 -27.285 -26.403  1.00  0.00    -0.283 N 
ATOM     10  H5  UNL     1     -11.472 -26.102 -24.797  1.00  0.00     0.189 HD
HETATM   11  C7  UNL     1     -11.685 -27.920 -27.360  1.00  0.00     0.131 A 
ATOM     12  H6  UNL     1      -9.976 -27.300 -26.323  1.00  0.00     0.188 HD
BRANCH   7  13
HETATM   13  N4  UNL     1     -14.200 -26.272 -25.305  1.00  0.00    -0.095 N 
HETATM   14  O2  UNL     1     -14.133 -25.014 -25.007  1.00  0.00    -0.530 OA
HETATM   15  O3  UNL     1     -15.348 -26.867 -24.922  1.00  0.00    -0.530 OA
ENDBRANCH   7  13
BRANCH  11  16
HETATM   16  N7  UNL     1     -11.210 -28.640 -28.322  1.00  0.00    -0.384 N 
ATOM     17  H72 UNL     1     -11.430 -28.567 -29.315  1.00  0.00     0.157 HD
ATOM     18  H71 UNL     1     -10.535 -29.403 -28.256  1.00  0.00     0.157 HD
ENDBRANCH  11  16
ENDBRANCH   3   6
BRANCH   1  19
HETATM   19  N1  UNL     1     -16.346 -28.570 -28.445  1.00  0.00    -0.269 N 
HETATM   20  C2  UNL     1     -17.523 -29.175 -27.950  1.00  0.00     0.232 C 
HETATM   21  C1  UNL     1     -18.549 -29.706 -28.865  1.00  0.00     0.119 C 
HETATM   22  O1  UNL     1     -17.695 -29.263 -26.715  1.00  0.00    -0.272 OA
ATOM     23  H1  UNL     1     -16.218 -28.504 -29.455  1.00  0.00     0.190 HD
ENDBRANCH   1  19
TORSDOF 4
ENDMDL
