MODEL 1
REMARK VINA RESULT: -9.019503757      0.000      0.000
REMARK  7 active torsions:
REMARK  status: ('A' for Active; 'I' for Inactive)
REMARK    1  A    between atoms: N1_9  and  O2_11 
REMARK    2  A    between atoms: C8_13  and  C9_14 
REMARK       I    between atoms: C9_14  and  N2_16 
REMARK    3  A    between atoms: N2_16  and  C10_18 
REMARK    4  A    between atoms: C13_21  and  N3_22 
REMARK    5  A    between atoms: C18_27  and  C19_28 
REMARK    6  A    between atoms: C19_28  and  C20_29 
REMARK    7  A    between atoms: C20_29  and  C21_30 
ROOT
HETATM    1  C10 UNL     1       6.039   7.651  14.331  1.00  0.00     0.035 A 
HETATM    2  C11 UNL     1       6.143   8.769  13.568  1.00  0.00     0.032 A 
HETATM    3  C12 UNL     1       6.480   9.979  14.132  1.00  0.00     0.031 A 
HETATM    4  C13 UNL     1       6.726  10.145  15.462  1.00  0.00     0.030 A 
HETATM    5  C22 UNL     1       6.626   9.007  16.273  1.00  0.00     0.031 A 
HETATM    6  C23 UNL     1       6.292   7.814  15.703  1.00  0.00     0.032 A 
ENDROOT
BRANCH   1   7
HETATM    7  N2  UNL     1       5.729   6.366  13.889  1.00  0.00    -0.324 N 
HETATM    8  C9  UNL     1       6.619   5.279  13.954  1.00  0.00     0.266 C 
HETATM    9  O3  UNL     1       7.780   5.287  14.405  1.00  0.00    -0.269 OA
ATOM     10  H2  UNL     1       4.802   6.205  13.496  1.00  0.00     0.169 HD
BRANCH   8  11
HETATM   11  C8  UNL     1       6.188   3.918  13.439  1.00  0.00     0.214 C 
HETATM   12  C5  UNL     1       5.662   3.164  14.612  1.00  0.00     0.066 C 
HETATM   13  C4  UNL     1       6.506   1.938  14.706  1.00  0.00     0.048 C 
HETATM   14  C6  UNL     1       4.231   2.896  14.237  1.00  0.00     0.185 C 
HETATM   15  C2  UNL     1       7.359   1.997  13.472  1.00  0.00     0.056 C 
HETATM   16  C1  UNL     1       8.839   1.800  13.808  1.00  0.00     0.045 C 
HETATM   17  C3  UNL     1       6.926   0.892  12.533  1.00  0.00     0.045 C 
HETATM   18  O4  UNL     1       7.252   3.245  12.912  1.00  0.00    -0.351 OA
HETATM   19  O1  UNL     1       4.089   3.218  12.862  1.00  0.00    -0.335 OA
HETATM   20  C7  UNL     1       5.065   4.145  12.530  1.00  0.00     0.183 C 
HETATM   21  N1  UNL     1       5.026   5.046  11.609  1.00  0.00    -0.248 N 
ATOM     22  H1  UNL     1       5.826   5.665  11.477  1.00  0.00     0.196 HD
BRANCH  21  23
HETATM   23  O2  UNL     1       3.931   5.183  10.805  1.00  0.00    -0.288 OA
ATOM     24  H2  UNL     1       3.342   5.922  10.903  1.00  0.00     0.244 HD
ENDBRANCH  21  23
ENDBRANCH   8  11
ENDBRANCH   1   7
BRANCH   4  25
HETATM   25  N3  UNL     1       7.059  11.340  16.091  1.00  0.00    -0.373 N 
HETATM   26  C14 UNL     1       6.214  11.754  17.227  1.00  0.00     0.123 C 
HETATM   27  C15 UNL     1       7.148  11.727  18.415  1.00  0.00     0.020 C 
HETATM   28  C16 UNL     1       8.562  11.346  18.068  1.00  0.00     0.004 C 
HETATM   29  C17 UNL     1       9.137  12.171  16.916  1.00  0.00     0.029 C 
HETATM   30  C18 UNL     1       8.130  12.289  15.792  1.00  0.00     0.107 C 
BRANCH  30  31
HETATM   31  C19 UNL     1       8.599  12.214  14.413  1.00  0.00     0.003 C 
BRANCH  31  32
HETATM   32  C20 UNL     1       9.926  12.623  13.950  1.00  0.00     0.086 C 
BRANCH  32  33
HETATM   33  C21 UNL     1      10.575  13.887  14.301  1.00  0.00     0.407 C 
HETATM   34  F1  UNL     1      11.839  13.850  13.594  1.00  0.00    -0.167 F 
HETATM   35  F2  UNL     1      10.887  14.088  15.603  1.00  0.00    -0.167 F 
HETATM   36  F3  UNL     1      10.027  15.031  13.682  1.00  0.00    -0.167 F 
ENDBRANCH  32  33
ENDBRANCH  31  32
ENDBRANCH  30  31
ENDBRANCH   4  25
TORSDOF 7
ENDMDL
MODEL 2
REMARK VINA RESULT: -8.857384948      2.256      2.718
REMARK  7 active torsions:
REMARK  status: ('A' for Active; 'I' for Inactive)
REMARK    1  A    between atoms: N1_9  and  O2_11 
REMARK    2  A    between atoms: C8_13  and  C9_14 
REMARK       I    between atoms: C9_14  and  N2_16 
REMARK    3  A    between atoms: N2_16  and  C10_18 
REMARK    4  A    between atoms: C13_21  and  N3_22 
REMARK    5  A    between atoms: C18_27  and  C19_28 
REMARK    6  A    between atoms: C19_28  and  C20_29 
REMARK    7  A    between atoms: C20_29  and  C21_30 
ROOT
HETATM    1  C10 UNL     1       5.888   7.237  15.762  1.00  0.00     0.035 A 
HETATM    2  C11 UNL     1       5.113   7.878  16.673  1.00  0.00     0.032 A 
HETATM    3  C12 UNL     1       5.461   9.124  17.143  1.00  0.00     0.031 A 
HETATM    4  C13 UNL     1       6.580   9.791  16.744  1.00  0.00     0.030 A 
HETATM    5  C22 UNL     1       7.399   9.152  15.804  1.00  0.00     0.031 A 
HETATM    6  C23 UNL     1       7.043   7.918  15.345  1.00  0.00     0.032 A 
ENDROOT
BRANCH   1   7
HETATM    7  N2  UNL     1       5.643   5.990  15.189  1.00  0.00    -0.324 N 
HETATM    8  C9  UNL     1       6.361   5.476  14.094  1.00  0.00     0.266 C 
HETATM    9  O3  UNL     1       7.298   6.028  13.487  1.00  0.00    -0.269 OA
ATOM     10  H2  UNL     1       4.900   5.416  15.588  1.00  0.00     0.169 HD
BRANCH   8  11
HETATM   11  C8  UNL     1       6.012   4.108  13.537  1.00  0.00     0.214 C 
HETATM   12  C5  UNL     1       5.404   3.334  14.655  1.00  0.00     0.066 C 
HETATM   13  C4  UNL     1       6.267   2.129  14.819  1.00  0.00     0.048 C 
HETATM   14  C6  UNL     1       4.019   3.032  14.154  1.00  0.00     0.185 C 
HETATM   15  C2  UNL     1       7.224   2.217  13.665  1.00  0.00     0.056 C 
HETATM   16  C1  UNL     1       8.673   2.054  14.131  1.00  0.00     0.045 C 
HETATM   17  C3  UNL     1       6.905   1.107  12.687  1.00  0.00     0.045 C 
HETATM   18  O4  UNL     1       7.135   3.465  13.103  1.00  0.00    -0.351 OA
HETATM   19  O1  UNL     1       3.991   3.359  12.773  1.00  0.00    -0.335 OA
HETATM   20  C7  UNL     1       4.968   4.313  12.533  1.00  0.00     0.183 C 
HETATM   21  N1  UNL     1       4.988   5.218  11.616  1.00  0.00    -0.248 N 
ATOM     22  H1  UNL     1       5.780   5.858  11.558  1.00  0.00     0.196 HD
BRANCH  21  23
HETATM   23  O2  UNL     1       3.965   5.333  10.719  1.00  0.00    -0.288 OA
ATOM     24  H2  UNL     1       3.393   6.091  10.724  1.00  0.00     0.244 HD
ENDBRANCH  21  23
ENDBRANCH   8  11
ENDBRANCH   1   7
BRANCH   4  25
HETATM   25  N3  UNL     1       6.991  11.043  17.189  1.00  0.00    -0.373 N 
HETATM   26  C14 UNL     1       7.437  11.139  18.592  1.00  0.00     0.123 C 
HETATM   27  C15 UNL     1       8.897  11.515  18.493  1.00  0.00     0.020 C 
HETATM   28  C16 UNL     1       9.385  11.695  17.081  1.00  0.00     0.004 C 
HETATM   29  C17 UNL     1       8.503  12.638  16.261  1.00  0.00     0.029 C 
HETATM   30  C18 UNL     1       7.039  12.320  16.479  1.00  0.00     0.107 C 
BRANCH  30  31
HETATM   31  C19 UNL     1       6.126  12.383  15.343  1.00  0.00     0.003 C 
BRANCH  31  32
HETATM   32  C20 UNL     1       6.465  12.017  13.966  1.00  0.00     0.086 C 
BRANCH  32  33
HETATM   33  C21 UNL     1       5.798  10.963  13.199  1.00  0.00     0.407 C 
HETATM   34  F1  UNL     1       4.889  10.352  14.147  1.00  0.00    -0.167 F 
HETATM   35  F2  UNL     1       6.567   9.957  12.723  1.00  0.00    -0.167 F 
HETATM   36  F3  UNL     1       4.844  11.420  12.265  1.00  0.00    -0.167 F 
ENDBRANCH  32  33
ENDBRANCH  31  32
ENDBRANCH  30  31
ENDBRANCH   4  25
TORSDOF 7
ENDMDL
MODEL 3
REMARK VINA RESULT: -8.104225140      1.610      2.711
REMARK  7 active torsions:
REMARK  status: ('A' for Active; 'I' for Inactive)
REMARK    1  A    between atoms: N1_9  and  O2_11 
REMARK    2  A    between atoms: C8_13  and  C9_14 
REMARK       I    between atoms: C9_14  and  N2_16 
REMARK    3  A    between atoms: N2_16  and  C10_18 
REMARK    4  A    between atoms: C13_21  and  N3_22 
REMARK    5  A    between atoms: C18_27  and  C19_28 
REMARK    6  A    between atoms: C19_28  and  C20_29 
REMARK    7  A    between atoms: C20_29  and  C21_30 
ROOT
HETATM    1  C10 UNL     1       6.061   6.906  14.353  1.00  0.00     0.035 A 
HETATM    2  C11 UNL     1       6.145   7.936  13.472  1.00  0.00     0.032 A 
HETATM    3  C12 UNL     1       6.350   9.225  13.911  1.00  0.00     0.031 A 
HETATM    4  C13 UNL     1       6.478   9.559  15.226  1.00  0.00     0.030 A 
HETATM    5  C22 UNL     1       6.395   8.516  16.157  1.00  0.00     0.031 A 
HETATM    6  C23 UNL     1       6.193   7.244  15.710  1.00  0.00     0.032 A 
ENDROOT
BRANCH   1   7
HETATM    7  N2  UNL     1       5.880   5.559  14.047  1.00  0.00    -0.324 N 
HETATM    8  C9  UNL     1       6.896   4.591  14.132  1.00  0.00     0.266 C 
HETATM    9  O3  UNL     1       8.076   4.774  14.488  1.00  0.00    -0.269 OA
ATOM     10  H2  UNL     1       4.954   5.257  13.742  1.00  0.00     0.169 HD
BRANCH   8  11
HETATM   11  C8  UNL     1       6.600   3.149  13.769  1.00  0.00     0.214 C 
HETATM   12  C5  UNL     1       6.903   3.002  12.318  1.00  0.00     0.066 C 
HETATM   13  C4  UNL     1       5.628   2.553  11.689  1.00  0.00     0.048 C 
HETATM   14  C6  UNL     1       7.996   1.970  12.294  1.00  0.00     0.185 C 
HETATM   15  C2  UNL     1       4.719   2.314  12.860  1.00  0.00     0.056 C 
HETATM   16  C1  UNL     1       3.371   3.015  12.670  1.00  0.00     0.045 C 
HETATM   17  C3  UNL     1       4.475   0.826  12.987  1.00  0.00     0.045 C 
HETATM   18  O4  UNL     1       5.284   2.859  13.984  1.00  0.00    -0.351 OA
HETATM   19  O1  UNL     1       8.062   1.399  13.593  1.00  0.00    -0.335 OA
HETATM   20  C7  UNL     1       7.561   2.322  14.499  1.00  0.00     0.183 C 
HETATM   21  N1  UNL     1       7.859   2.455  15.745  1.00  0.00    -0.248 N 
ATOM     22  H1  UNL     1       7.406   3.185  16.294  1.00  0.00     0.196 HD
BRANCH  21  23
HETATM   23  O2  UNL     1       8.771   1.633  16.342  1.00  0.00    -0.288 OA
ATOM     24  H2  UNL     1       8.846   0.720  16.091  1.00  0.00     0.244 HD
ENDBRANCH  21  23
ENDBRANCH   8  11
ENDBRANCH   1   7
BRANCH   4  25
HETATM   25  N3  UNL     1       6.674  10.840  15.730  1.00  0.00    -0.373 N 
HETATM   26  C14 UNL     1       5.610  11.387  16.594  1.00  0.00     0.123 C 
HETATM   27  C15 UNL     1       6.275  11.555  17.941  1.00  0.00     0.020 C 
HETATM   28  C16 UNL     1       7.730  11.170  17.953  1.00  0.00     0.004 C 
HETATM   29  C17 UNL     1       8.535  11.839  16.838  1.00  0.00     0.029 C 
HETATM   30  C18 UNL     1       7.785  11.767  15.525  1.00  0.00     0.107 C 
BRANCH  30  31
HETATM   31  C19 UNL     1       8.532  11.510  14.299  1.00  0.00     0.003 C 
BRANCH  31  32
HETATM   32  C20 UNL     1       9.698  12.272  13.846  1.00  0.00     0.086 C 
BRANCH  32  33
HETATM   33  C21 UNL     1      10.807  12.685  14.708  1.00  0.00     0.407 C 
HETATM   34  F1  UNL     1      11.760  13.290  13.800  1.00  0.00    -0.167 F 
HETATM   35  F2  UNL     1      11.485  11.712  15.361  1.00  0.00    -0.167 F 
HETATM   36  F3  UNL     1      10.546  13.814  15.515  1.00  0.00    -0.167 F 
ENDBRANCH  32  33
ENDBRANCH  31  32
ENDBRANCH  30  31
ENDBRANCH   4  25
TORSDOF 7
ENDMDL
MODEL 4
REMARK VINA RESULT: -8.000463294      1.545      2.612
REMARK  7 active torsions:
REMARK  status: ('A' for Active; 'I' for Inactive)
REMARK    1  A    between atoms: N1_9  and  O2_11 
REMARK    2  A    between atoms: C8_13  and  C9_14 
REMARK       I    between atoms: C9_14  and  N2_16 
REMARK    3  A    between atoms: N2_16  and  C10_18 
REMARK    4  A    between atoms: C13_21  and  N3_22 
REMARK    5  A    between atoms: C18_27  and  C19_28 
REMARK    6  A    between atoms: C19_28  and  C20_29 
REMARK    7  A    between atoms: C20_29  and  C21_30 
ROOT
HETATM    1  C10 UNL     1       6.247   7.281  14.295  1.00  0.00     0.035 A 
HETATM    2  C11 UNL     1       6.253   8.276  13.370  1.00  0.00     0.032 A 
HETATM    3  C12 UNL     1       6.469   9.584  13.743  1.00  0.00     0.031 A 
HETATM    4  C13 UNL     1       6.685   9.971  15.031  1.00  0.00     0.030 A 
HETATM    5  C22 UNL     1       6.684   8.965  16.006  1.00  0.00     0.031 A 
HETATM    6  C23 UNL     1       6.470   7.674  15.625  1.00  0.00     0.032 A 
ENDROOT
BRANCH   1   7
HETATM    7  N2  UNL     1       6.065   5.921  14.054  1.00  0.00    -0.324 N 
HETATM    8  C9  UNL     1       6.925   4.917  14.535  1.00  0.00     0.266 C 
HETATM    9  O3  UNL     1       7.946   5.076  15.232  1.00  0.00    -0.269 OA
ATOM     10  H2  UNL     1       5.259   5.636  13.497  1.00  0.00     0.169 HD
BRANCH   8  11
HETATM   11  C8  UNL     1       6.644   3.462  14.212  1.00  0.00     0.214 C 
HETATM   12  C5  UNL     1       5.901   3.447  12.920  1.00  0.00     0.066 C 
HETATM   13  C4  UNL     1       4.606   2.768  13.216  1.00  0.00     0.048 C 
HETATM   14  C6  UNL     1       6.808   2.668  12.009  1.00  0.00     0.185 C 
HETATM   15  C2  UNL     1       4.768   2.294  14.631  1.00  0.00     0.056 C 
HETATM   16  C1  UNL     1       3.573   2.705  15.495  1.00  0.00     0.045 C 
HETATM   17  C3  UNL     1       4.862   0.783  14.626  1.00  0.00     0.045 C 
HETATM   18  O4  UNL     1       5.870   2.894  15.182  1.00  0.00    -0.351 OA
HETATM   19  O1  UNL     1       7.805   2.066  12.821  1.00  0.00    -0.335 OA
HETATM   20  C7  UNL     1       7.938   2.822  13.976  1.00  0.00     0.183 C 
HETATM   21  N1  UNL     1       8.981   2.960  14.720  1.00  0.00    -0.248 N 
ATOM     22  H1  UNL     1       8.932   3.555  15.548  1.00  0.00     0.196 HD
BRANCH  21  23
HETATM   23  O2  UNL     1      10.149   2.321  14.419  1.00  0.00    -0.288 OA
ATOM     24  H2  UNL     1      10.346   1.464  14.779  1.00  0.00     0.244 HD
ENDBRANCH  21  23
ENDBRANCH   8  11
ENDBRANCH   1   7
BRANCH   4  25
HETATM   25  N3  UNL     1       6.896  11.274  15.470  1.00  0.00    -0.373 N 
HETATM   26  C14 UNL     1       5.759  11.953  16.119  1.00  0.00     0.123 C 
HETATM   27  C15 UNL     1       6.225  12.186  17.538  1.00  0.00     0.020 C 
HETATM   28  C16 UNL     1       7.629  11.713  17.802  1.00  0.00     0.004 C 
HETATM   29  C17 UNL     1       8.639  12.240  16.782  1.00  0.00     0.029 C 
HETATM   30  C18 UNL     1       8.092  12.111  15.377  1.00  0.00     0.107 C 
BRANCH  30  31
HETATM   31  C19 UNL     1       8.993  11.711  14.302  1.00  0.00     0.003 C 
BRANCH  31  32
HETATM   32  C20 UNL     1      10.230  12.405  13.937  1.00  0.00     0.086 C 
BRANCH  32  33
HETATM   33  C21 UNL     1      11.421  12.481  14.784  1.00  0.00     0.407 C 
HETATM   34  F1  UNL     1      12.393  13.184  13.972  1.00  0.00    -0.167 F 
HETATM   35  F2  UNL     1      12.010  11.316  15.139  1.00  0.00    -0.167 F 
HETATM   36  F3  UNL     1      11.337  13.405  15.848  1.00  0.00    -0.167 F 
ENDBRANCH  32  33
ENDBRANCH  31  32
ENDBRANCH  30  31
ENDBRANCH   4  25
TORSDOF 7
ENDMDL
MODEL 5
REMARK VINA RESULT: -7.983376777      1.839      2.946
REMARK  7 active torsions:
REMARK  status: ('A' for Active; 'I' for Inactive)
REMARK    1  A    between atoms: N1_9  and  O2_11 
REMARK    2  A    between atoms: C8_13  and  C9_14 
REMARK       I    between atoms: C9_14  and  N2_16 
REMARK    3  A    between atoms: N2_16  and  C10_18 
REMARK    4  A    between atoms: C13_21  and  N3_22 
REMARK    5  A    between atoms: C18_27  and  C19_28 
REMARK    6  A    between atoms: C19_28  and  C20_29 
REMARK    7  A    between atoms: C20_29  and  C21_30 
ROOT
HETATM    1  C10 UNL     1       6.109   7.434  14.631  1.00  0.00     0.035 A 
HETATM    2  C11 UNL     1       6.048   7.847  15.923  1.00  0.00     0.032 A 
HETATM    3  C12 UNL     1       6.503   9.094  16.287  1.00  0.00     0.031 A 
HETATM    4  C13 UNL     1       7.038   9.985  15.406  1.00  0.00     0.030 A 
HETATM    5  C22 UNL     1       7.113   9.585  14.066  1.00  0.00     0.031 A 
HETATM    6  C23 UNL     1       6.658   8.348  13.717  1.00  0.00     0.032 A 
ENDROOT
BRANCH   1   7
HETATM    7  N2  UNL     1       5.667   6.214  14.124  1.00  0.00    -0.324 N 
HETATM    8  C9  UNL     1       6.512   5.122  13.860  1.00  0.00     0.266 C 
HETATM    9  O3  UNL     1       7.745   5.069  14.036  1.00  0.00    -0.269 OA
ATOM     10  H2  UNL     1       4.670   6.107  13.933  1.00  0.00     0.169 HD
BRANCH   8  11
HETATM   11  C8  UNL     1       5.934   3.836  13.299  1.00  0.00     0.214 C 
HETATM   12  C5  UNL     1       5.334   3.101  14.448  1.00  0.00     0.066 C 
HETATM   13  C4  UNL     1       6.039   1.788  14.491  1.00  0.00     0.048 C 
HETATM   14  C6  UNL     1       3.880   3.005  14.077  1.00  0.00     0.185 C 
HETATM   15  C2  UNL     1       6.888   1.800  13.252  1.00  0.00     0.056 C 
HETATM   16  C1  UNL     1       8.339   1.429  13.568  1.00  0.00     0.045 C 
HETATM   17  C3  UNL     1       6.333   0.783  12.277  1.00  0.00     0.045 C 
HETATM   18  O4  UNL     1       6.915   3.071  12.739  1.00  0.00    -0.351 OA
HETATM   19  O1  UNL     1       3.768   3.390  12.715  1.00  0.00    -0.335 OA
HETATM   20  C7  UNL     1       4.838   4.218  12.408  1.00  0.00     0.183 C 
HETATM   21  N1  UNL     1       4.893   5.150  11.521  1.00  0.00    -0.248 N 
ATOM     22  H1  UNL     1       5.755   5.683  11.405  1.00  0.00     0.196 HD
BRANCH  21  23
HETATM   23  O2  UNL     1       3.815   5.436  10.733  1.00  0.00    -0.288 OA
ATOM     24  H2  UNL     1       3.078   4.840  10.676  1.00  0.00     0.244 HD
ENDBRANCH  21  23
ENDBRANCH   8  11
ENDBRANCH   1   7
BRANCH   4  25
HETATM   25  N3  UNL     1       7.524  11.251  15.714  1.00  0.00    -0.373 N 
HETATM   26  C14 UNL     1       7.876  12.126  14.579  1.00  0.00     0.123 C 
HETATM   27  C15 UNL     1       6.908  13.281  14.685  1.00  0.00     0.020 C 
HETATM   28  C16 UNL     1       5.979  13.190  15.866  1.00  0.00     0.004 C 
HETATM   29  C17 UNL     1       6.713  12.945  17.185  1.00  0.00     0.029 C 
HETATM   30  C18 UNL     1       7.765  11.870  17.016  1.00  0.00     0.107 C 
BRANCH  30  31
HETATM   31  C19 UNL     1       7.963  10.901  18.088  1.00  0.00     0.003 C 
BRANCH  31  32
HETATM   32  C20 UNL     1       8.617  11.180  19.369  1.00  0.00     0.086 C 
BRANCH  32  33
HETATM   33  C21 UNL     1      10.059  11.095  19.601  1.00  0.00     0.407 C 
HETATM   34  F1  UNL     1      10.315   9.676  19.744  1.00  0.00    -0.167 F 
HETATM   35  F2  UNL     1      10.546  11.672  20.724  1.00  0.00    -0.167 F 
HETATM   36  F3  UNL     1      10.861  11.334  18.464  1.00  0.00    -0.167 F 
ENDBRANCH  32  33
ENDBRANCH  31  32
ENDBRANCH  30  31
ENDBRANCH   4  25
TORSDOF 7
ENDMDL
