MODEL 1
REMARK VINA RESULT: -6.693400457      0.000      0.000
REMARK  8 active torsions:
REMARK  status: ('A' for Active; 'I' for Inactive)
REMARK    1  A    between atoms: C2_2  and  N1_3 
REMARK    2  A    between atoms: N1_3  and  C3_4 
REMARK    3  A    between atoms: N1_3  and  C5_6 
REMARK    4  A    between atoms: C5_6  and  C6_7 
REMARK    5  A    between atoms: C6_7  and  N2_8 
REMARK    6  A    between atoms: N2_8  and  C7_9 
REMARK    7  A    between atoms: C8_12  and  N4_13 
REMARK       I    between atoms: N8_26  and  C14_27 
REMARK    8  A    between atoms: C14_27  and  C15_29 
ROOT
HETATM    1  C7  UNL     1      10.868  -7.030  -0.548  1.00  0.00     0.223 A 
HETATM    2  N3  UNL     1       9.941  -6.067  -0.938  1.00  0.00    -0.162 N 
ATOM      3  H3  UNL     1       9.000  -6.144  -0.553  1.00  0.00     0.187 HD
HETATM    4  C8  UNL     1      10.173  -5.059  -1.765  1.00  0.00     0.679 A 
HETATM    5  N5  UNL     1      11.387  -4.940  -2.276  1.00  0.00    -0.174 N 
ATOM      6  H5  UNL     1      11.580  -4.169  -2.915  1.00  0.00     0.186 HD
HETATM    7  C9  UNL     1      12.364  -5.793  -1.983  1.00  0.00     0.154 A 
HETATM    8  N6  UNL     1      13.648  -5.894  -2.374  1.00  0.00    -0.328 N 
ATOM      9  H6  UNL     1      14.116  -5.254  -3.017  1.00  0.00     0.169 HD
HETATM   10  C10 UNL     1      14.217  -6.946  -1.802  1.00  0.00     0.104 A 
HETATM   11  N7  UNL     1      13.275  -7.567  -0.998  1.00  0.00    -0.327 N 
HETATM   12  C11 UNL     1      12.141  -6.862  -1.113  1.00  0.00     0.140 A 
HETATM   13  C12 UNL     1      13.757  -8.708  -0.274  1.00  0.00     0.151 C 
HETATM   14  C13 UNL     1      15.091  -8.340   0.423  1.00  0.00     0.146 C 
HETATM   15  N8  UNL     1      16.039  -7.871  -0.564  1.00  0.00    -0.343 N 
HETATM   16  C14 UNL     1      17.401  -7.735  -0.232  1.00  0.00     0.228 C 
HETATM   17  O1  UNL     1      17.771  -8.046   0.936  1.00  0.00    -0.273 OA
HETATM   18  C21 UNL     1      15.550  -7.587  -1.874  1.00  0.00     0.202 C 
ENDROOT
BRANCH  16  19
HETATM   19  C15 UNL     1      18.392  -7.251  -1.175  1.00  0.00     0.112 C 
HETATM   20  C16 UNL     1      19.232  -6.108  -0.521  1.00  0.00     0.100 C 
HETATM   21  C17 UNL     1      20.586  -6.363  -0.850  1.00  0.00    -0.156 C 
HETATM   22  C18 UNL     1      21.836  -6.797  -1.314  1.00  0.00     0.254 C 
HETATM   23  O2  UNL     1      21.690  -8.030  -2.032  1.00  0.00    -0.353 OA
HETATM   24  C19 UNL     1      20.401  -8.284  -2.473  1.00  0.00     0.132 C 
HETATM   25  C20 UNL     1      19.263  -8.425  -1.597  1.00  0.00     0.012 C 
ENDBRANCH  16  19
BRANCH   1  26
HETATM   26  N2  UNL     1      10.541  -7.909   0.187  1.00  0.00    -0.396 NA
BRANCH  26  27
HETATM   27  C6  UNL     1      10.152  -9.025   0.768  1.00  0.00     0.202 C 
BRANCH  27  28
HETATM   28  C5  UNL     1       8.900  -9.784   0.425  1.00  0.00     0.121 C 
BRANCH  28  29
HETATM   29  N1  UNL     1       8.090 -10.260   1.469  1.00  0.00    -0.369 N 
BRANCH  29  30
HETATM   30  C2  UNL     1       8.330 -11.509   2.062  1.00  0.00     0.059 C 
HETATM   31  C1  UNL     1       7.136 -12.034   2.811  1.00  0.00     0.055 C 
ENDBRANCH  29  30
BRANCH  29  32
HETATM   32  C3  UNL     1       6.663 -10.053   1.175  1.00  0.00     0.123 C 
HETATM   33  C4  UNL     1       6.543  -9.409  -0.189  1.00  0.00     0.027 C 
ENDBRANCH  29  32
ENDBRANCH  28  29
ENDBRANCH  27  28
ENDBRANCH  26  27
ENDBRANCH   1  26
BRANCH   4  34
HETATM   34  N4  UNL     1       9.209  -4.219  -2.053  1.00  0.00    -0.234 N 
ATOM     35  H42 UNL     1       8.368  -4.508  -2.553  1.00  0.00     0.174 HD
ATOM     36  H41 UNL     1       9.288  -3.242  -1.772  1.00  0.00     0.174 HD
ENDBRANCH   4  34
TORSDOF 8
ENDMDL
MODEL 2
REMARK VINA RESULT: -6.684998972      0.479      1.225
REMARK  8 active torsions:
REMARK  status: ('A' for Active; 'I' for Inactive)
REMARK    1  A    between atoms: C2_2  and  N1_3 
REMARK    2  A    between atoms: N1_3  and  C3_4 
REMARK    3  A    between atoms: N1_3  and  C5_6 
REMARK    4  A    between atoms: C5_6  and  C6_7 
REMARK    5  A    between atoms: C6_7  and  N2_8 
REMARK    6  A    between atoms: N2_8  and  C7_9 
REMARK    7  A    between atoms: C8_12  and  N4_13 
REMARK       I    between atoms: N8_26  and  C14_27 
REMARK    8  A    between atoms: C14_27  and  C15_29 
ROOT
HETATM    1  C7  UNL     1      11.075  -7.016  -0.429  1.00  0.00     0.223 A 
HETATM    2  N3  UNL     1      10.132  -6.065  -0.812  1.00  0.00    -0.162 N 
ATOM      3  H3  UNL     1       9.199  -6.149  -0.410  1.00  0.00     0.187 HD
HETATM    4  C8  UNL     1      10.341  -5.062  -1.649  1.00  0.00     0.679 A 
HETATM    5  N5  UNL     1      11.546  -4.935  -2.182  1.00  0.00    -0.174 N 
ATOM      6  H5  UNL     1      11.720  -4.167  -2.830  1.00  0.00     0.186 HD
HETATM    7  C9  UNL     1      12.535  -5.776  -1.898  1.00  0.00     0.154 A 
HETATM    8  N6  UNL     1      13.814  -5.867  -2.310  1.00  0.00    -0.328 N 
ATOM      9  H6  UNL     1      14.264  -5.228  -2.965  1.00  0.00     0.169 HD
HETATM   10  C10 UNL     1      14.403  -6.909  -1.738  1.00  0.00     0.104 A 
HETATM   11  N7  UNL     1      13.480  -7.533  -0.914  1.00  0.00    -0.327 N 
HETATM   12  C11 UNL     1      12.338  -6.840  -1.017  1.00  0.00     0.140 A 
HETATM   13  C12 UNL     1      13.986  -8.664  -0.190  1.00  0.00     0.151 C 
HETATM   14  C13 UNL     1      15.327  -8.277   0.482  1.00  0.00     0.146 C 
HETATM   15  N8  UNL     1      16.253  -7.806  -0.524  1.00  0.00    -0.343 N 
HETATM   16  C14 UNL     1      17.619  -7.654  -0.216  1.00  0.00     0.228 C 
HETATM   17  O1  UNL     1      18.012  -7.953   0.948  1.00  0.00    -0.273 OA
HETATM   18  C21 UNL     1      15.741  -7.538  -1.828  1.00  0.00     0.202 C 
ENDROOT
BRANCH  16  19
HETATM   19  C15 UNL     1      18.591  -7.168  -1.179  1.00  0.00     0.112 C 
HETATM   20  C16 UNL     1      19.485  -6.070  -0.520  1.00  0.00     0.100 C 
HETATM   21  C17 UNL     1      20.819  -6.351  -0.906  1.00  0.00    -0.156 C 
HETATM   22  C18 UNL     1      22.039  -6.805  -1.428  1.00  0.00     0.254 C 
HETATM   23  O2  UNL     1      21.832  -8.010  -2.178  1.00  0.00    -0.353 OA
HETATM   24  C19 UNL     1      20.522  -8.214  -2.580  1.00  0.00     0.132 C 
HETATM   25  C20 UNL     1      19.412  -8.351  -1.667  1.00  0.00     0.012 C 
ENDBRANCH  16  19
BRANCH   1  26
HETATM   26  N2  UNL     1      10.770  -7.893   0.317  1.00  0.00    -0.396 NA
BRANCH  26  27
HETATM   27  C6  UNL     1      10.562  -9.022   0.963  1.00  0.00     0.202 C 
BRANCH  27  28
HETATM   28  C5  UNL     1       9.265  -9.418   1.612  1.00  0.00     0.121 C 
BRANCH  28  29
HETATM   29  N1  UNL     1       8.296 -10.079   0.839  1.00  0.00    -0.369 N 
BRANCH  29  30
HETATM   30  C2  UNL     1       7.583  -9.404  -0.164  1.00  0.00     0.059 C 
HETATM   31  C1  UNL     1       6.098  -9.401   0.083  1.00  0.00     0.055 C 
ENDBRANCH  29  30
BRANCH  29  32
HETATM   32  C3  UNL     1       7.418 -10.908   1.679  1.00  0.00     0.123 C 
HETATM   33  C4  UNL     1       8.273 -11.905   2.430  1.00  0.00     0.027 C 
ENDBRANCH  29  32
ENDBRANCH  28  29
ENDBRANCH  27  28
ENDBRANCH  26  27
ENDBRANCH   1  26
BRANCH   4  34
HETATM   34  N4  UNL     1       9.364  -4.234  -1.928  1.00  0.00    -0.234 N 
ATOM     35  H42 UNL     1       8.389  -4.455  -1.724  1.00  0.00     0.174 HD
ATOM     36  H41 UNL     1       9.572  -3.334  -2.362  1.00  0.00     0.174 HD
ENDBRANCH   4  34
TORSDOF 8
ENDMDL
MODEL 3
REMARK VINA RESULT: -6.517705323      0.965      1.621
REMARK  8 active torsions:
REMARK  status: ('A' for Active; 'I' for Inactive)
REMARK    1  A    between atoms: C2_2  and  N1_3 
REMARK    2  A    between atoms: N1_3  and  C3_4 
REMARK    3  A    between atoms: N1_3  and  C5_6 
REMARK    4  A    between atoms: C5_6  and  C6_7 
REMARK    5  A    between atoms: C6_7  and  N2_8 
REMARK    6  A    between atoms: N2_8  and  C7_9 
REMARK    7  A    between atoms: C8_12  and  N4_13 
REMARK       I    between atoms: N8_26  and  C14_27 
REMARK    8  A    between atoms: C14_27  and  C15_29 
ROOT
HETATM    1  C7  UNL     1      10.919  -6.980  -0.542  1.00  0.00     0.223 A 
HETATM    2  N3  UNL     1       9.996  -6.015  -0.937  1.00  0.00    -0.162 N 
ATOM      3  H3  UNL     1       9.056  -6.085  -0.550  1.00  0.00     0.187 HD
HETATM    4  C8  UNL     1      10.232  -5.015  -1.771  1.00  0.00     0.679 A 
HETATM    5  N5  UNL     1      11.446  -4.905  -2.286  1.00  0.00    -0.174 N 
ATOM      6  H5  UNL     1      11.641  -4.140  -2.931  1.00  0.00     0.186 HD
HETATM    7  C9  UNL     1      12.418  -5.760  -1.988  1.00  0.00     0.154 A 
HETATM    8  N6  UNL     1      13.702  -5.870  -2.381  1.00  0.00    -0.328 N 
ATOM      9  H6  UNL     1      14.171  -5.237  -3.029  1.00  0.00     0.169 HD
HETATM   10  C10 UNL     1      14.267  -6.920  -1.802  1.00  0.00     0.104 A 
HETATM   11  N7  UNL     1      13.323  -7.531  -0.992  1.00  0.00    -0.327 N 
HETATM   12  C11 UNL     1      12.193  -6.821  -1.110  1.00  0.00     0.140 A 
HETATM   13  C12 UNL     1      13.802  -8.669  -0.261  1.00  0.00     0.151 C 
HETATM   14  C13 UNL     1      15.138  -8.302   0.431  1.00  0.00     0.146 C 
HETATM   15  N8  UNL     1      16.086  -7.845  -0.561  1.00  0.00    -0.343 N 
HETATM   16  C14 UNL     1      17.450  -7.712  -0.232  1.00  0.00     0.228 C 
HETATM   17  O1  UNL     1      17.821  -8.017   0.937  1.00  0.00    -0.273 OA
HETATM   18  C21 UNL     1      15.597  -7.568  -1.872  1.00  0.00     0.202 C 
ENDROOT
BRANCH  16  19
HETATM   19  C15 UNL     1      18.442  -7.240  -1.181  1.00  0.00     0.112 C 
HETATM   20  C16 UNL     1      19.271  -6.078  -0.547  1.00  0.00     0.100 C 
HETATM   21  C17 UNL     1      20.628  -6.329  -0.865  1.00  0.00    -0.156 C 
HETATM   22  C18 UNL     1      21.883  -6.764  -1.314  1.00  0.00     0.254 C 
HETATM   23  O2  UNL     1      21.748  -8.012  -2.009  1.00  0.00    -0.353 OA
HETATM   24  C19 UNL     1      20.463  -8.284  -2.450  1.00  0.00     0.132 C 
HETATM   25  C20 UNL     1      19.323  -8.415  -1.575  1.00  0.00     0.012 C 
ENDBRANCH  16  19
BRANCH   1  26
HETATM   26  N2  UNL     1      10.590  -7.852   0.200  1.00  0.00    -0.396 NA
BRANCH  26  27
HETATM   27  C6  UNL     1      10.296  -8.980   0.812  1.00  0.00     0.202 C 
BRANCH  27  28
HETATM   28  C5  UNL     1       9.037  -9.774   0.597  1.00  0.00     0.121 C 
BRANCH  28  29
HETATM   29  N1  UNL     1       8.308  -9.578  -0.587  1.00  0.00    -0.369 N 
BRANCH  29  30
HETATM   30  C2  UNL     1       7.017  -9.029  -0.561  1.00  0.00     0.059 C 
HETATM   31  C1  UNL     1       6.861  -7.868  -1.506  1.00  0.00     0.055 C 
ENDBRANCH  29  30
BRANCH  29  32
HETATM   32  C3  UNL     1       8.391 -10.754  -1.467  1.00  0.00     0.123 C 
HETATM   33  C4  UNL     1       9.530 -10.546  -2.440  1.00  0.00     0.027 C 
ENDBRANCH  29  32
ENDBRANCH  28  29
ENDBRANCH  27  28
ENDBRANCH  26  27
ENDBRANCH   1  26
BRANCH   4  34
HETATM   34  N4  UNL     1       9.271  -4.172  -2.064  1.00  0.00    -0.234 N 
ATOM     35  H42 UNL     1       8.287  -4.443  -2.046  1.00  0.00     0.174 HD
ATOM     36  H41 UNL     1       9.500  -3.211  -2.318  1.00  0.00     0.174 HD
ENDBRANCH   4  34
TORSDOF 8
ENDMDL
MODEL 4
REMARK VINA RESULT: -6.274262651      1.274      1.832
REMARK  8 active torsions:
REMARK  status: ('A' for Active; 'I' for Inactive)
REMARK    1  A    between atoms: C2_2  and  N1_3 
REMARK    2  A    between atoms: N1_3  and  C3_4 
REMARK    3  A    between atoms: N1_3  and  C5_6 
REMARK    4  A    between atoms: C5_6  and  C6_7 
REMARK    5  A    between atoms: C6_7  and  N2_8 
REMARK    6  A    between atoms: N2_8  and  C7_9 
REMARK    7  A    between atoms: C8_12  and  N4_13 
REMARK       I    between atoms: N8_26  and  C14_27 
REMARK    8  A    between atoms: C14_27  and  C15_29 
ROOT
HETATM    1  C7  UNL     1      10.322  -5.900  -1.834  1.00  0.00     0.223 A 
HETATM    2  N3  UNL     1       9.649  -4.733  -2.190  1.00  0.00    -0.162 N 
ATOM      3  H3  UNL     1       8.659  -4.678  -1.953  1.00  0.00     0.187 HD
HETATM    4  C8  UNL     1      10.181  -3.691  -2.807  1.00  0.00     0.679 A 
HETATM    5  N5  UNL     1      11.465  -3.741  -3.123  1.00  0.00    -0.174 N 
ATOM      6  H5  UNL     1      11.888  -2.945  -3.600  1.00  0.00     0.186 HD
HETATM    7  C9  UNL     1      12.221  -4.797  -2.838  1.00  0.00     0.154 A 
HETATM    8  N6  UNL     1      13.516  -5.091  -3.062  1.00  0.00    -0.328 N 
ATOM      9  H6  UNL     1      14.184  -4.475  -3.525  1.00  0.00     0.169 HD
HETATM   10  C10 UNL     1      13.796  -6.299  -2.591  1.00  0.00     0.104 A 
HETATM   11  N7  UNL     1      12.643  -6.826  -2.031  1.00  0.00    -0.327 N 
HETATM   12  C11 UNL     1      11.681  -5.907  -2.187  1.00  0.00     0.140 A 
HETATM   13  C12 UNL     1      12.800  -8.123  -1.438  1.00  0.00     0.151 C 
HETATM   14  C13 UNL     1      14.045  -8.113  -0.517  1.00  0.00     0.146 C 
HETATM   15  N8  UNL     1      15.207  -7.710  -1.279  1.00  0.00    -0.343 N 
HETATM   16  C14 UNL     1      16.500  -7.883  -0.747  1.00  0.00     0.228 C 
HETATM   17  O1  UNL     1      16.616  -8.410   0.396  1.00  0.00    -0.273 OA
HETATM   18  C21 UNL     1      14.994  -7.169  -2.581  1.00  0.00     0.202 C 
ENDROOT
BRANCH  16  19
HETATM   19  C15 UNL     1      17.700  -7.480  -1.458  1.00  0.00     0.112 C 
HETATM   20  C16 UNL     1      18.556  -6.533  -0.558  1.00  0.00     0.100 C 
HETATM   21  C17 UNL     1      19.900  -6.963  -0.685  1.00  0.00    -0.156 C 
HETATM   22  C18 UNL     1      21.142  -7.542  -0.980  1.00  0.00     0.254 C 
HETATM   23  O2  UNL     1      20.961  -8.677  -1.838  1.00  0.00    -0.353 OA
HETATM   24  C19 UNL     1      19.749  -8.697  -2.510  1.00  0.00     0.132 C 
HETATM   25  C20 UNL     1      18.465  -8.734  -1.852  1.00  0.00     0.012 C 
ENDBRANCH  16  19
BRANCH   1  26
HETATM   26  N2  UNL     1       9.736  -6.788  -1.299  1.00  0.00    -0.396 NA
BRANCH  26  27
HETATM   27  C6  UNL     1       9.014  -7.837  -0.963  1.00  0.00     0.202 C 
BRANCH  27  28
HETATM   28  C5  UNL     1       9.548  -9.070  -0.288  1.00  0.00     0.121 C 
BRANCH  28  29
HETATM   29  N1  UNL     1       9.693  -9.068   1.109  1.00  0.00    -0.369 N 
BRANCH  29  30
HETATM   30  C2  UNL     1      10.929  -8.778   1.709  1.00  0.00     0.059 C 
HETATM   31  C1  UNL     1      10.832  -8.662   3.206  1.00  0.00     0.055 C 
ENDBRANCH  29  30
BRANCH  29  32
HETATM   32  C3  UNL     1       9.046 -10.242   1.715  1.00  0.00     0.123 C 
HETATM   33  C4  UNL     1       7.586 -10.241   1.320  1.00  0.00     0.027 C 
ENDBRANCH  29  32
ENDBRANCH  28  29
ENDBRANCH  27  28
ENDBRANCH  26  27
ENDBRANCH   1  26
BRANCH   4  34
HETATM   34  N4  UNL     1       9.435  -2.650  -3.087  1.00  0.00    -0.234 N 
ATOM     35  H42 UNL     1       9.822  -1.796  -3.489  1.00  0.00     0.174 HD
ATOM     36  H41 UNL     1       8.431  -2.683  -2.906  1.00  0.00     0.174 HD
ENDBRANCH   4  34
TORSDOF 8
ENDMDL
MODEL 5
REMARK VINA RESULT: -6.098648984      3.256      5.324
REMARK  8 active torsions:
REMARK  status: ('A' for Active; 'I' for Inactive)
REMARK    1  A    between atoms: C2_2  and  N1_3 
REMARK    2  A    between atoms: N1_3  and  C3_4 
REMARK    3  A    between atoms: N1_3  and  C5_6 
REMARK    4  A    between atoms: C5_6  and  C6_7 
REMARK    5  A    between atoms: C6_7  and  N2_8 
REMARK    6  A    between atoms: N2_8  and  C7_9 
REMARK    7  A    between atoms: C8_12  and  N4_13 
REMARK       I    between atoms: N8_26  and  C14_27 
REMARK    8  A    between atoms: C14_27  and  C15_29 
ROOT
HETATM    1  C7  UNL     1       9.758  -3.366  -2.850  1.00  0.00     0.223 A 
HETATM    2  N3  UNL     1       9.794  -2.305  -3.752  1.00  0.00    -0.162 N 
ATOM      3  H3  UNL     1       9.026  -1.636  -3.713  1.00  0.00     0.187 HD
HETATM    4  C8  UNL     1      10.738  -2.089  -4.654  1.00  0.00     0.679 A 
HETATM    5  N5  UNL     1      11.744  -2.945  -4.721  1.00  0.00    -0.174 N 
ATOM      6  H5  UNL     1      12.478  -2.791  -5.413  1.00  0.00     0.186 HD
HETATM    7  C9  UNL     1      11.829  -3.999  -3.916  1.00  0.00     0.154 A 
HETATM    8  N6  UNL     1      12.723  -4.999  -3.799  1.00  0.00    -0.328 N 
ATOM      9  H6  UNL     1      13.564  -5.102  -4.367  1.00  0.00     0.169 HD
HETATM   10  C10 UNL     1      12.350  -5.832  -2.836  1.00  0.00     0.104 A 
HETATM   11  N7  UNL     1      11.164  -5.365  -2.292  1.00  0.00    -0.327 N 
HETATM   12  C11 UNL     1      10.847  -4.246  -2.957  1.00  0.00     0.140 A 
HETATM   13  C12 UNL     1      10.653  -6.145  -1.202  1.00  0.00     0.151 C 
HETATM   14  C13 UNL     1      11.794  -6.410  -0.188  1.00  0.00     0.146 C 
HETATM   15  N8  UNL     1      12.898  -7.059  -0.861  1.00  0.00    -0.343 N 
HETATM   16  C14 UNL     1      13.937  -7.648  -0.115  1.00  0.00     0.228 C 
HETATM   17  O1  UNL     1      13.871  -7.610   1.147  1.00  0.00    -0.273 OA
HETATM   18  C21 UNL     1      12.874  -7.103  -2.287  1.00  0.00     0.202 C 
ENDROOT
BRANCH  16  19
HETATM   19  C15 UNL     1      15.078  -8.296  -0.737  1.00  0.00     0.112 C 
HETATM   20  C16 UNL     1      15.962  -7.231  -1.460  1.00  0.00     0.100 C 
HETATM   21  C17 UNL     1      17.307  -7.535  -1.136  1.00  0.00    -0.156 C 
HETATM   22  C18 UNL     1      18.544  -8.035  -0.705  1.00  0.00     0.254 C 
HETATM   23  O2  UNL     1      18.341  -9.144   0.181  1.00  0.00    -0.353 OA
HETATM   24  C19 UNL     1      17.091  -9.733   0.082  1.00  0.00     0.132 C 
HETATM   25  C20 UNL     1      15.852  -9.038   0.341  1.00  0.00     0.012 C 
ENDBRANCH  16  19
BRANCH   1  26
HETATM   26  N2  UNL     1       8.845  -3.475  -2.093  1.00  0.00    -0.396 NA
BRANCH  26  27
HETATM   27  C6  UNL     1       7.974  -3.414  -1.106  1.00  0.00     0.202 C 
BRANCH  27  28
HETATM   28  C5  UNL     1       6.502  -3.690  -1.237  1.00  0.00     0.121 C 
BRANCH  28  29
HETATM   29  N1  UNL     1       5.793  -3.092  -2.292  1.00  0.00    -0.369 N 
BRANCH  29  30
HETATM   30  C2  UNL     1       4.912  -2.025  -2.061  1.00  0.00     0.059 C 
HETATM   31  C1  UNL     1       5.298  -0.781  -2.816  1.00  0.00     0.055 C 
ENDBRANCH  29  30
BRANCH  29  32
HETATM   32  C3  UNL     1       5.211  -4.106  -3.186  1.00  0.00     0.123 C 
HETATM   33  C4  UNL     1       6.093  -4.231  -4.408  1.00  0.00     0.027 C 
ENDBRANCH  29  32
ENDBRANCH  28  29
ENDBRANCH  27  28
ENDBRANCH  26  27
ENDBRANCH   1  26
BRANCH   4  34
HETATM   34  N4  UNL     1      10.652  -1.049  -5.448  1.00  0.00    -0.234 N 
ATOM     35  H42 UNL     1      11.157  -0.182  -5.264  1.00  0.00     0.174 HD
ATOM     36  H41 UNL     1      10.067  -1.096  -6.282  1.00  0.00     0.174 HD
ENDBRANCH   4  34
TORSDOF 8
ENDMDL
