MODEL 1
REMARK VINA RESULT: -5.967707480      0.000      0.000
REMARK  4 active torsions:
REMARK  status: ('A' for Active; 'I' for Inactive)
REMARK    1  A    between atoms: N1_1  and  C1_4 
REMARK    2  A    between atoms: C2_9  and  S1_10 
REMARK    3  A    between atoms: S1_10  and  N4_11 
REMARK    4  A    between atoms: N5_16  and  N6_17 
ROOT
HETATM    1  C1  UNL     1     -11.016 -28.815 -25.761  1.00  0.00     0.713 A 
HETATM    2  N2  UNL     1     -11.370 -29.968 -25.189  1.00  0.00    -0.128 N 
ATOM      3  H2  UNL     1     -10.741 -30.720 -24.906  1.00  0.00     0.205 HD
HETATM    4  N3  UNL     1     -12.673 -29.956 -25.056  1.00  0.00    -0.258 N 
ATOM      5  H3  UNL     1     -13.218 -30.715 -24.646  1.00  0.00     0.190 HD
HETATM    6  C2  UNL     1     -13.201 -28.815 -25.530  1.00  0.00     0.276 A 
HETATM    7  N5  UNL     1     -12.142 -28.118 -25.965  1.00  0.00    -0.061 N 
ENDROOT
BRANCH   6   8
HETATM    8  S1  UNL     1     -14.898 -28.381 -25.551  1.00  0.00     0.292 S 
HETATM    9  O1  UNL     1     -15.268 -27.752 -26.874  1.00  0.00    -0.198 OA
HETATM   10  O2  UNL     1     -15.770 -29.595 -25.310  1.00  0.00    -0.198 OA
BRANCH   8  11
HETATM   11  N4  UNL     1     -15.161 -27.261 -24.285  1.00  0.00    -0.322 N 
ATOM     12  H42 UNL     1     -14.777 -26.316 -24.242  1.00  0.00     0.169 HD
ATOM     13  H41 UNL     1     -15.763 -27.711 -23.595  1.00  0.00     0.169 HD
ENDBRANCH   8  11
ENDBRANCH   6   8
BRANCH   7  14
HETATM   14  N6  UNL     1     -12.219 -26.850 -26.545  1.00  0.00    -0.322 N 
ATOM     15  H62 UNL     1     -11.490 -26.439 -27.129  1.00  0.00     0.178 HD
ATOM     16  H61 UNL     1     -13.001 -26.202 -26.453  1.00  0.00     0.178 HD
ENDBRANCH   7  14
BRANCH   1  17
HETATM   17  N1  UNL     1      -9.790 -28.431 -26.069  1.00  0.00    -0.231 N 
ATOM     18  H12 UNL     1      -8.923 -28.824 -25.702  1.00  0.00     0.174 HD
ATOM     19  H11 UNL     1      -9.530 -27.687 -26.717  1.00  0.00     0.174 HD
ENDBRANCH   1  17
TORSDOF 4
ENDMDL
MODEL 2
REMARK VINA RESULT: -5.849985119      1.414      1.631
REMARK  4 active torsions:
REMARK  status: ('A' for Active; 'I' for Inactive)
REMARK    1  A    between atoms: N1_1  and  C1_4 
REMARK    2  A    between atoms: C2_9  and  S1_10 
REMARK    3  A    between atoms: S1_10  and  N4_11 
REMARK    4  A    between atoms: N5_16  and  N6_17 
ROOT
HETATM    1  C1  UNL     1     -11.195 -28.681 -26.274  1.00  0.00     0.713 A 
HETATM    2  N2  UNL     1     -11.622 -29.823 -26.818  1.00  0.00    -0.128 N 
ATOM      3  H2  UNL     1     -11.043 -30.527 -27.275  1.00  0.00     0.205 HD
HETATM    4  N3  UNL     1     -12.922 -29.872 -26.655  1.00  0.00    -0.258 N 
ATOM      5  H3  UNL     1     -13.513 -30.638 -26.976  1.00  0.00     0.190 HD
HETATM    6  C2  UNL     1     -13.374 -28.783 -26.012  1.00  0.00     0.276 A 
HETATM    7  N5  UNL     1     -12.273 -28.053 -25.785  1.00  0.00    -0.061 N 
ENDROOT
BRANCH   6   8
HETATM    8  S1  UNL     1     -15.039 -28.440 -25.588  1.00  0.00     0.292 S 
HETATM    9  O1  UNL     1     -15.734 -29.695 -25.113  1.00  0.00    -0.198 OA
HETATM   10  O2  UNL     1     -15.115 -27.382 -24.507  1.00  0.00    -0.198 OA
BRANCH   8  11
HETATM   11  N4  UNL     1     -15.817 -27.845 -26.990  1.00  0.00    -0.322 N 
ATOM     12  H42 UNL     1     -15.376 -27.281 -27.717  1.00  0.00     0.169 HD
ATOM     13  H41 UNL     1     -16.788 -28.156 -26.959  1.00  0.00     0.169 HD
ENDBRANCH   8  11
ENDBRANCH   6   8
BRANCH   7  14
HETATM   14  N6  UNL     1     -12.268 -26.819 -25.131  1.00  0.00    -0.322 N 
ATOM     15  H62 UNL     1     -12.425 -26.698 -24.130  1.00  0.00     0.178 HD
ATOM     16  H61 UNL     1     -12.108 -25.914 -25.573  1.00  0.00     0.178 HD
ENDBRANCH   7  14
BRANCH   1  17
HETATM   17  N1  UNL     1      -9.948 -28.248 -26.226  1.00  0.00    -0.231 N 
ATOM     18  H12 UNL     1      -9.516 -27.576 -26.859  1.00  0.00     0.174 HD
ATOM     19  H11 UNL     1      -9.233 -28.523 -25.550  1.00  0.00     0.174 HD
ENDBRANCH   1  17
TORSDOF 4
ENDMDL
MODEL 3
REMARK VINA RESULT: -5.836549361      1.723      2.645
REMARK  4 active torsions:
REMARK  status: ('A' for Active; 'I' for Inactive)
REMARK    1  A    between atoms: N1_1  and  C1_4 
REMARK    2  A    between atoms: C2_9  and  S1_10 
REMARK    3  A    between atoms: S1_10  and  N4_11 
REMARK    4  A    between atoms: N5_16  and  N6_17 
ROOT
HETATM    1  C1  UNL     1     -10.219 -29.768 -25.130  1.00  0.00     0.713 A 
HETATM    2  N2  UNL     1      -9.467 -28.841 -25.727  1.00  0.00    -0.128 N 
ATOM      3  H2  UNL     1      -8.454 -28.748 -25.656  1.00  0.00     0.205 HD
HETATM    4  N3  UNL     1     -10.271 -28.073 -26.421  1.00  0.00    -0.258 N 
ATOM      5  H3  UNL     1      -9.965 -27.277 -26.981  1.00  0.00     0.190 HD
HETATM    6  C2  UNL     1     -11.548 -28.468 -26.300  1.00  0.00     0.276 A 
HETATM    7  N5  UNL     1     -11.488 -29.532 -25.486  1.00  0.00    -0.061 N 
ENDROOT
BRANCH   6   8
HETATM    8  S1  UNL     1     -12.945 -27.728 -27.056  1.00  0.00     0.292 S 
HETATM    9  O1  UNL     1     -12.558 -27.083 -28.367  1.00  0.00    -0.198 OA
HETATM   10  O2  UNL     1     -14.034 -28.751 -27.300  1.00  0.00    -0.198 OA
BRANCH   8  11
HETATM   11  N4  UNL     1     -13.544 -26.539 -25.982  1.00  0.00    -0.322 N 
ATOM     12  H42 UNL     1     -14.529 -26.362 -25.785  1.00  0.00     0.169 HD
ATOM     13  H41 UNL     1     -12.741 -26.051 -25.584  1.00  0.00     0.169 HD
ENDBRANCH   8  11
ENDBRANCH   6   8
BRANCH   7  14
HETATM   14  N6  UNL     1     -12.598 -30.275 -25.079  1.00  0.00    -0.322 N 
ATOM     15  H62 UNL     1     -12.830 -31.204 -25.432  1.00  0.00     0.178 HD
ATOM     16  H61 UNL     1     -13.292 -29.979 -24.392  1.00  0.00     0.178 HD
ENDBRANCH   7  14
BRANCH   1  17
HETATM   17  N1  UNL     1      -9.794 -30.737 -24.337  1.00  0.00    -0.231 N 
ATOM     18  H12 UNL     1      -9.930 -31.738 -24.480  1.00  0.00     0.174 HD
ATOM     19  H11 UNL     1      -9.271 -30.627 -23.468  1.00  0.00     0.174 HD
ENDBRANCH   1  17
TORSDOF 4
ENDMDL
MODEL 4
REMARK VINA RESULT: -5.815945605      1.101      1.759
REMARK  4 active torsions:
REMARK  status: ('A' for Active; 'I' for Inactive)
REMARK    1  A    between atoms: N1_1  and  C1_4 
REMARK    2  A    between atoms: C2_9  and  S1_10 
REMARK    3  A    between atoms: S1_10  and  N4_11 
REMARK    4  A    between atoms: N5_16  and  N6_17 
ROOT
HETATM    1  C1  UNL     1     -11.564 -28.105 -25.804  1.00  0.00     0.713 A 
HETATM    2  N2  UNL     1     -11.815 -26.950 -25.183  1.00  0.00    -0.128 N 
ATOM      3  H2  UNL     1     -11.123 -26.268 -24.875  1.00  0.00     0.205 HD
HETATM    4  N3  UNL     1     -13.115 -26.856 -25.043  1.00  0.00    -0.258 N 
ATOM      5  H3  UNL     1     -13.590 -26.070 -24.598  1.00  0.00     0.190 HD
HETATM    6  C2  UNL     1     -13.740 -27.926 -25.559  1.00  0.00     0.276 A 
HETATM    7  N5  UNL     1     -12.747 -28.693 -26.029  1.00  0.00    -0.061 N 
ENDROOT
BRANCH   6   8
HETATM    8  S1  UNL     1     -15.469 -28.210 -25.587  1.00  0.00     0.292 S 
HETATM    9  O1  UNL     1     -16.052 -27.800 -26.920  1.00  0.00    -0.198 OA
HETATM   10  O2  UNL     1     -15.782 -29.669 -25.329  1.00  0.00    -0.198 OA
BRANCH   8  11
HETATM   11  N4  UNL     1     -16.167 -27.273 -24.338  1.00  0.00    -0.322 N 
ATOM     12  H42 UNL     1     -15.653 -26.681 -23.685  1.00  0.00     0.169 HD
ATOM     13  H41 UNL     1     -17.176 -27.416 -24.373  1.00  0.00     0.169 HD
ENDBRANCH   8  11
ENDBRANCH   6   8
BRANCH   7  14
HETATM   14  N6  UNL     1     -12.935 -29.925 -26.660  1.00  0.00    -0.322 N 
ATOM     15  H62 UNL     1     -12.275 -30.701 -26.615  1.00  0.00     0.178 HD
ATOM     16  H61 UNL     1     -13.741 -30.184 -27.228  1.00  0.00     0.178 HD
ENDBRANCH   7  14
BRANCH   1  17
HETATM   17  N1  UNL     1     -10.377 -28.580 -26.136  1.00  0.00    -0.231 N 
ATOM     18  H12 UNL     1      -9.884 -28.417 -27.013  1.00  0.00     0.174 HD
ATOM     19  H11 UNL     1      -9.780 -29.180 -25.565  1.00  0.00     0.174 HD
ENDBRANCH   1  17
TORSDOF 4
ENDMDL
MODEL 5
REMARK VINA RESULT: -5.805279863      1.555      2.269
REMARK  4 active torsions:
REMARK  status: ('A' for Active; 'I' for Inactive)
REMARK    1  A    between atoms: N1_1  and  C1_4 
REMARK    2  A    between atoms: C2_9  and  S1_10 
REMARK    3  A    between atoms: S1_10  and  N4_11 
REMARK    4  A    between atoms: N5_16  and  N6_17 
ROOT
HETATM    1  C1  UNL     1     -11.787 -27.961 -25.943  1.00  0.00     0.713 A 
HETATM    2  N2  UNL     1     -12.060 -26.824 -25.298  1.00  0.00    -0.128 N 
ATOM      3  H2  UNL     1     -11.391 -26.094 -25.053  1.00  0.00     0.205 HD
HETATM    4  N3  UNL     1     -13.344 -26.820 -25.040  1.00  0.00    -0.258 N 
ATOM      5  H3  UNL     1     -13.831 -26.067 -24.552  1.00  0.00     0.190 HD
HETATM    6  C2  UNL     1     -13.938 -27.933 -25.499  1.00  0.00     0.276 A 
HETATM    7  N5  UNL     1     -12.941 -28.631 -26.060  1.00  0.00    -0.061 N 
ENDROOT
BRANCH   6   8
HETATM    8  S1  UNL     1     -15.638 -28.337 -25.369  1.00  0.00     0.292 S 
HETATM    9  O1  UNL     1     -15.816 -29.828 -25.194  1.00  0.00    -0.198 OA
HETATM   10  O2  UNL     1     -16.280 -27.613 -24.205  1.00  0.00    -0.198 OA
BRANCH   8  11
HETATM   11  N4  UNL     1     -16.400 -27.832 -26.815  1.00  0.00    -0.322 N 
ATOM     12  H42 UNL     1     -17.397 -27.914 -27.018  1.00  0.00     0.169 HD
ATOM     13  H41 UNL     1     -15.680 -27.440 -27.422  1.00  0.00     0.169 HD
ENDBRANCH   8  11
ENDBRANCH   6   8
BRANCH   7  14
HETATM   14  N6  UNL     1     -13.099 -29.876 -26.674  1.00  0.00    -0.322 N 
ATOM     15  H62 UNL     1     -12.915 -30.770 -26.219  1.00  0.00     0.178 HD
ATOM     16  H61 UNL     1     -13.413 -30.029 -27.632  1.00  0.00     0.178 HD
ENDBRANCH   7  14
BRANCH   1  17
HETATM   17  N1  UNL     1     -10.604 -28.354 -26.382  1.00  0.00    -0.231 N 
ATOM     18  H12 UNL     1     -10.260 -28.282 -27.340  1.00  0.00     0.174 HD
ATOM     19  H11 UNL     1      -9.862 -28.787 -25.831  1.00  0.00     0.174 HD
ENDBRANCH   1  17
TORSDOF 4
ENDMDL
