MODEL 1
REMARK VINA RESULT: -6.926709815      0.000      0.000
REMARK  6 active torsions:
REMARK  status: ('A' for Active; 'I' for Inactive)
REMARK    1  A    between atoms: C4_4  and  N1_5 
REMARK    2  A    between atoms: N1_5  and  C5_7 
REMARK    3  A    between atoms: C5_7  and  C6_8 
REMARK    4  A    between atoms: C6_8  and  O1_9 
REMARK    5  A    between atoms: O1_9  and  C7_10 
REMARK    6  A    between atoms: C13_18  and  N3_19 
ROOT
HETATM    1  C1  UNL     1     -10.346 -29.721   1.089  1.00  0.00     0.069 C 
HETATM    2  C2  UNL     1     -10.567 -29.272   2.490  1.00  0.00     0.026 A 
HETATM    3  C3  UNL     1      -9.901 -28.185   3.026  1.00  0.00     0.073 A 
HETATM    4  C4  UNL     1     -10.096 -27.759   4.319  1.00  0.00     0.118 A 
HETATM    5  N2  UNL     1     -10.969 -28.439   5.074  1.00  0.00    -0.177 N 
ATOM      6  H2  UNL     1     -11.132 -28.144   6.036  1.00  0.00     0.185 HD
HETATM    7  C13 UNL     1     -11.645 -29.518   4.581  1.00  0.00     0.677 A 
HETATM    8  N4  UNL     1     -11.431 -29.908   3.312  1.00  0.00    -0.196 N 
ATOM      9  H4  UNL     1     -11.943 -30.715   2.955  1.00  0.00     0.184 HD
ENDROOT
BRANCH   4  10
HETATM   10  N1  UNL     1      -9.487 -26.758   4.821  1.00  0.00    -0.374 N 
ATOM     11  H1  UNL     1     -10.068 -26.084   5.319  1.00  0.00     0.161 HD
BRANCH  10  12
HETATM   12  C5  UNL     1      -8.096 -26.469   4.771  1.00  0.00     0.148 C 
BRANCH  12  13
HETATM   13  C6  UNL     1      -7.860 -25.091   4.234  1.00  0.00     0.195 C 
BRANCH  13  14
HETATM   14  O1  UNL     1      -7.329 -25.112   2.927  1.00  0.00    -0.350 OA
BRANCH  14  15
HETATM   15  C7  UNL     1      -8.055 -25.339   1.793  1.00  0.00     0.068 A 
HETATM   16  C8  UNL     1      -7.544 -26.083   0.760  1.00  0.00     0.037 A 
HETATM   17  C9  UNL     1      -8.303 -26.293  -0.368  1.00  0.00     0.003 A 
HETATM   18  C10 UNL     1      -9.572 -25.771  -0.487  1.00  0.00     0.000 A 
HETATM   19  C11 UNL     1     -10.098 -25.021   0.544  1.00  0.00     0.003 A 
HETATM   20  C12 UNL     1      -9.320 -24.823   1.666  1.00  0.00     0.037 A 
ENDBRANCH  14  15
ENDBRANCH  13  14
ENDBRANCH  12  13
ENDBRANCH  10  12
ENDBRANCH   4  10
BRANCH   7  21
HETATM   21  N3  UNL     1     -12.462 -30.128   5.340  1.00  0.00    -0.234 N 
ATOM     22  H32 UNL     1     -12.195 -30.447   6.271  1.00  0.00     0.174 HD
ATOM     23  H31 UNL     1     -13.410 -30.301   5.004  1.00  0.00     0.174 HD
ENDBRANCH   7  21
TORSDOF 6
ENDMDL
MODEL 2
REMARK VINA RESULT: -6.923520754      0.031      1.118
REMARK  6 active torsions:
REMARK  status: ('A' for Active; 'I' for Inactive)
REMARK    1  A    between atoms: C4_4  and  N1_5 
REMARK    2  A    between atoms: N1_5  and  C5_7 
REMARK    3  A    between atoms: C5_7  and  C6_8 
REMARK    4  A    between atoms: C6_8  and  O1_9 
REMARK    5  A    between atoms: O1_9  and  C7_10 
REMARK    6  A    between atoms: C13_18  and  N3_19 
ROOT
HETATM    1  C1  UNL     1     -10.369 -29.730   1.089  1.00  0.00     0.069 C 
HETATM    2  C2  UNL     1     -10.584 -29.280   2.490  1.00  0.00     0.026 A 
HETATM    3  C3  UNL     1      -9.918 -28.191   3.022  1.00  0.00     0.073 A 
HETATM    4  C4  UNL     1     -10.106 -27.764   4.315  1.00  0.00     0.118 A 
HETATM    5  N2  UNL     1     -10.975 -28.444   5.075  1.00  0.00    -0.177 N 
ATOM      6  H2  UNL     1     -11.134 -28.149   6.038  1.00  0.00     0.185 HD
HETATM    7  C13 UNL     1     -11.652 -29.525   4.586  1.00  0.00     0.677 A 
HETATM    8  N4  UNL     1     -11.444 -29.915   3.317  1.00  0.00    -0.196 N 
ATOM      9  H4  UNL     1     -11.955 -30.724   2.963  1.00  0.00     0.184 HD
ENDROOT
BRANCH   4  10
HETATM   10  N1  UNL     1      -9.497 -26.762   4.814  1.00  0.00    -0.374 N 
ATOM     11  H1  UNL     1     -10.078 -26.082   5.305  1.00  0.00     0.161 HD
BRANCH  10  12
HETATM   12  C5  UNL     1      -8.105 -26.477   4.768  1.00  0.00     0.148 C 
BRANCH  12  13
HETATM   13  C6  UNL     1      -7.864 -25.093   4.247  1.00  0.00     0.195 C 
BRANCH  13  14
HETATM   14  O1  UNL     1      -7.360 -25.099   2.930  1.00  0.00    -0.350 OA
BRANCH  14  15
HETATM   15  C7  UNL     1      -8.109 -25.315   1.809  1.00  0.00     0.068 A 
HETATM   16  C8  UNL     1      -9.372 -24.791   1.687  1.00  0.00     0.037 A 
HETATM   17  C9  UNL     1     -10.099 -25.028   0.544  1.00  0.00     0.003 A 
HETATM   18  C10 UNL     1      -9.589 -25.782  -0.489  1.00  0.00     0.000 A 
HETATM   19  C11 UNL     1      -8.322 -26.315  -0.379  1.00  0.00     0.003 A 
HETATM   20  C12 UNL     1      -7.609 -26.066   0.775  1.00  0.00     0.037 A 
ENDBRANCH  14  15
ENDBRANCH  13  14
ENDBRANCH  12  13
ENDBRANCH  10  12
ENDBRANCH   4  10
BRANCH   7  21
HETATM   21  N3  UNL     1     -12.465 -30.136   5.349  1.00  0.00    -0.234 N 
ATOM     22  H32 UNL     1     -12.237 -30.341   6.322  1.00  0.00     0.174 HD
ATOM     23  H31 UNL     1     -13.368 -30.426   4.974  1.00  0.00     0.174 HD
ENDBRANCH   7  21
TORSDOF 6
ENDMDL
MODEL 3
REMARK VINA RESULT: -6.921926711      2.076      3.235
REMARK  6 active torsions:
REMARK  status: ('A' for Active; 'I' for Inactive)
REMARK    1  A    between atoms: C4_4  and  N1_5 
REMARK    2  A    between atoms: N1_5  and  C5_7 
REMARK    3  A    between atoms: C5_7  and  C6_8 
REMARK    4  A    between atoms: C6_8  and  O1_9 
REMARK    5  A    between atoms: O1_9  and  C7_10 
REMARK    6  A    between atoms: C13_18  and  N3_19 
ROOT
HETATM    1  C1  UNL     1      -9.956 -29.980   2.287  1.00  0.00     0.069 C 
HETATM    2  C2  UNL     1      -9.849 -28.704   3.044  1.00  0.00     0.026 A 
HETATM    3  C3  UNL     1     -10.020 -27.474   2.437  1.00  0.00     0.073 A 
HETATM    4  C4  UNL     1      -9.924 -26.287   3.124  1.00  0.00     0.118 A 
HETATM    5  N2  UNL     1      -9.653 -26.346   4.434  1.00  0.00    -0.177 N 
ATOM      6  H2  UNL     1      -9.576 -25.480   4.968  1.00  0.00     0.185 HD
HETATM    7  C13 UNL     1      -9.476 -27.542   5.070  1.00  0.00     0.677 A 
HETATM    8  N4  UNL     1      -9.577 -28.684   4.368  1.00  0.00    -0.196 N 
ATOM      9  H4  UNL     1      -9.443 -29.571   4.854  1.00  0.00     0.184 HD
ENDROOT
BRANCH   4  10
HETATM   10  N1  UNL     1     -10.081 -25.148   2.573  1.00  0.00    -0.374 N 
ATOM     11  H1  UNL     1     -10.586 -24.451   3.119  1.00  0.00     0.161 HD
BRANCH  10  12
HETATM   12  C5  UNL     1      -9.635 -24.733   1.288  1.00  0.00     0.148 C 
BRANCH  12  13
HETATM   13  C6  UNL     1      -8.138 -24.704   1.230  1.00  0.00     0.195 C 
BRANCH  13  14
HETATM   14  O1  UNL     1      -7.610 -25.811   0.535  1.00  0.00    -0.350 OA
BRANCH  14  15
HETATM   15  C7  UNL     1      -6.977 -25.744  -0.673  1.00  0.00     0.068 A 
HETATM   16  C8  UNL     1      -7.680 -25.530  -1.832  1.00  0.00     0.037 A 
HETATM   17  C9  UNL     1      -7.012 -25.467  -3.032  1.00  0.00     0.003 A 
HETATM   18  C10 UNL     1      -5.644 -25.614  -3.101  1.00  0.00     0.000 A 
HETATM   19  C11 UNL     1      -4.925 -25.829  -1.944  1.00  0.00     0.003 A 
HETATM   20  C12 UNL     1      -5.615 -25.888  -0.751  1.00  0.00     0.037 A 
ENDBRANCH  14  15
ENDBRANCH  13  14
ENDBRANCH  12  13
ENDBRANCH  10  12
ENDBRANCH   4  10
BRANCH   7  21
HETATM   21  N3  UNL     1      -9.220 -27.542   6.315  1.00  0.00    -0.234 N 
ATOM     22  H32 UNL     1      -9.043 -28.406   6.827  1.00  0.00     0.174 HD
ATOM     23  H31 UNL     1      -9.190 -26.651   6.811  1.00  0.00     0.174 HD
ENDBRANCH   7  21
TORSDOF 6
ENDMDL
MODEL 4
REMARK VINA RESULT: -6.875573084      1.596      2.302
REMARK  6 active torsions:
REMARK  status: ('A' for Active; 'I' for Inactive)
REMARK    1  A    between atoms: C4_4  and  N1_5 
REMARK    2  A    between atoms: N1_5  and  C5_7 
REMARK    3  A    between atoms: C5_7  and  C6_8 
REMARK    4  A    between atoms: C6_8  and  O1_9 
REMARK    5  A    between atoms: O1_9  and  C7_10 
REMARK    6  A    between atoms: C13_18  and  N3_19 
ROOT
HETATM    1  C1  UNL     1      -8.818 -29.840   1.005  1.00  0.00     0.069 C 
HETATM    2  C2  UNL     1      -8.930 -28.876   2.132  1.00  0.00     0.026 A 
HETATM    3  C3  UNL     1      -8.088 -27.786   2.253  1.00  0.00     0.073 A 
HETATM    4  C4  UNL     1      -8.181 -26.888   3.289  1.00  0.00     0.118 A 
HETATM    5  N2  UNL     1      -9.132 -27.094   4.210  1.00  0.00    -0.177 N 
ATOM      6  H2  UNL     1      -9.223 -26.443   4.989  1.00  0.00     0.185 HD
HETATM    7  C13 UNL     1      -9.983 -28.159   4.126  1.00  0.00     0.677 A 
HETATM    8  N4  UNL     1      -9.864 -29.019   3.099  1.00  0.00    -0.196 N 
ATOM      9  H4  UNL     1     -10.506 -29.811   3.047  1.00  0.00     0.184 HD
ENDROOT
BRANCH   4  10
HETATM   10  N1  UNL     1      -7.409 -25.880   3.409  1.00  0.00    -0.374 N 
ATOM     11  H1  UNL     1      -6.704 -25.939   4.143  1.00  0.00     0.161 HD
BRANCH  10  12
HETATM   12  C5  UNL     1      -7.414 -24.683   2.641  1.00  0.00     0.148 C 
BRANCH  12  13
HETATM   13  C6  UNL     1      -8.742 -24.485   1.977  1.00  0.00     0.195 C 
BRANCH  13  14
HETATM   14  O1  UNL     1      -8.626 -24.367   0.577  1.00  0.00    -0.350 OA
BRANCH  14  15
HETATM   15  C7  UNL     1      -8.842 -25.381  -0.312  1.00  0.00     0.068 A 
HETATM   16  C8  UNL     1      -7.893 -25.724  -1.242  1.00  0.00     0.037 A 
HETATM   17  C9  UNL     1      -8.143 -26.751  -2.122  1.00  0.00     0.003 A 
HETATM   18  C10 UNL     1      -9.331 -27.449  -2.094  1.00  0.00     0.000 A 
HETATM   19  C11 UNL     1     -10.293 -27.114  -1.164  1.00  0.00     0.003 A 
HETATM   20  C12 UNL     1     -10.022 -26.081  -0.291  1.00  0.00     0.037 A 
ENDBRANCH  14  15
ENDBRANCH  13  14
ENDBRANCH  12  13
ENDBRANCH  10  12
ENDBRANCH   4  10
BRANCH   7  21
HETATM   21  N3  UNL     1     -10.867 -28.310   5.026  1.00  0.00    -0.234 N 
ATOM     22  H32 UNL     1     -11.738 -27.779   5.017  1.00  0.00     0.174 HD
ATOM     23  H31 UNL     1     -10.697 -28.981   5.775  1.00  0.00     0.174 HD
ENDBRANCH   7  21
TORSDOF 6
ENDMDL
MODEL 5
REMARK VINA RESULT: -6.785389721      2.570      4.223
REMARK  6 active torsions:
REMARK  status: ('A' for Active; 'I' for Inactive)
REMARK    1  A    between atoms: C4_4  and  N1_5 
REMARK    2  A    between atoms: N1_5  and  C5_7 
REMARK    3  A    between atoms: C5_7  and  C6_8 
REMARK    4  A    between atoms: C6_8  and  O1_9 
REMARK    5  A    between atoms: O1_9  and  C7_10 
REMARK    6  A    between atoms: C13_18  and  N3_19 
ROOT
HETATM    1  C1  UNL     1     -10.281 -24.310   2.510  1.00  0.00     0.069 C 
HETATM    2  C2  UNL     1      -9.807 -25.657   2.926  1.00  0.00     0.026 A 
HETATM    3  C3  UNL     1      -9.197 -26.526   2.040  1.00  0.00     0.073 A 
HETATM    4  C4  UNL     1      -8.755 -27.774   2.410  1.00  0.00     0.118 A 
HETATM    5  N2  UNL     1      -8.931 -28.145   3.686  1.00  0.00    -0.177 N 
ATOM      6  H2  UNL     1      -8.613 -29.066   3.987  1.00  0.00     0.185 HD
HETATM    7  C13 UNL     1      -9.530 -27.315   4.590  1.00  0.00     0.677 A 
HETATM    8  N4  UNL     1      -9.951 -26.102   4.194  1.00  0.00    -0.196 N 
ATOM      9  H4  UNL     1     -10.397 -25.491   4.879  1.00  0.00     0.184 HD
ENDROOT
BRANCH   4  10
HETATM   10  N1  UNL     1      -8.191 -28.582   1.602  1.00  0.00    -0.374 N 
ATOM     11  H1  UNL     1      -7.172 -28.612   1.634  1.00  0.00     0.161 HD
BRANCH  10  12
HETATM   12  C5  UNL     1      -8.812 -29.447   0.659  1.00  0.00     0.148 C 
BRANCH  12  13
HETATM   13  C6  UNL     1      -8.291 -29.189  -0.721  1.00  0.00     0.195 C 
BRANCH  13  14
HETATM   14  O1  UNL     1      -8.449 -27.842  -1.108  1.00  0.00    -0.350 OA
BRANCH  14  15
HETATM   15  C7  UNL     1      -7.476 -27.075  -1.680  1.00  0.00     0.068 A 
HETATM   16  C8  UNL     1      -7.561 -26.682  -2.992  1.00  0.00     0.037 A 
HETATM   17  C9  UNL     1      -6.562 -25.908  -3.537  1.00  0.00     0.003 A 
HETATM   18  C10 UNL     1      -5.472 -25.514  -2.793  1.00  0.00     0.000 A 
HETATM   19  C11 UNL     1      -5.375 -25.902  -1.473  1.00  0.00     0.003 A 
HETATM   20  C12 UNL     1      -6.386 -26.678  -0.947  1.00  0.00     0.037 A 
ENDBRANCH  14  15
ENDBRANCH  13  14
ENDBRANCH  12  13
ENDBRANCH  10  12
ENDBRANCH   4  10
BRANCH   7  21
HETATM   21  N3  UNL     1      -9.675 -27.716   5.788  1.00  0.00    -0.234 N 
ATOM     22  H32 UNL     1      -9.252 -28.583   6.118  1.00  0.00     0.174 HD
ATOM     23  H31 UNL     1     -10.228 -27.151   6.432  1.00  0.00     0.174 HD
ENDBRANCH   7  21
TORSDOF 6
ENDMDL
