MODEL 1
REMARK VINA RESULT: -7.553784586      0.000      0.000
REMARK  7 active torsions:
REMARK  status: ('A' for Active; 'I' for Inactive)
REMARK    1  A    between atoms: N1_2  and  C2_5 
REMARK    2  A    between atoms: C2_5  and  C3_6 
REMARK    3  A    between atoms: C7_12  and  N3_13 
REMARK    4  A    between atoms: N3_13  and  C8_14 
REMARK    5  A    between atoms: C8_14  and  N4_15 
REMARK    6  A    between atoms: C8_14  and  C9_19 
REMARK    7  A    between atoms: C9_19  and  C10_20 
ROOT
HETATM    1  N3  UNL     1      -9.500 -26.491   1.133  1.00  0.00    -0.396 NA
ENDROOT
BRANCH   1   2
HETATM    2  C7  UNL     1      -9.758 -27.279   2.031  1.00  0.00     0.183 A 
HETATM    3  C3  UNL     1      -9.930 -26.853   3.356  1.00  0.00     0.025 A 
HETATM    4  C4  UNL     1     -10.229 -27.758   4.328  1.00  0.00     0.015 A 
HETATM    5  C5  UNL     1     -10.374 -29.105   4.071  1.00  0.00     0.018 A 
HETATM    6  C6  UNL     1     -10.197 -29.486   2.760  1.00  0.00     0.090 A 
HETATM    7  N2  UNL     1      -9.907 -28.617   1.810  1.00  0.00    -0.341 N 
ATOM      8  H2  UNL     1      -9.788 -28.965   0.859  1.00  0.00     0.167 HD
BRANCH   3   9
HETATM    9  C2  UNL     1      -9.769 -25.403   3.688  1.00  0.00     0.275 C 
BRANCH   9  10
HETATM   10  N1  UNL     1      -8.617 -25.229   4.584  1.00  0.00    -0.075 N 
HETATM   11  C1  UNL     1      -7.397 -25.193   3.820  1.00  0.00     0.267 C 
ATOM     12  H12 UNL     1      -8.589 -25.942   5.313  1.00  0.00     0.277 HD
ATOM     13  H11 UNL     1      -8.718 -24.408   5.180  1.00  0.00     0.277 HD
ENDBRANCH   9  10
ENDBRANCH   3   9
ENDBRANCH   1   2
BRANCH   1  14
HETATM   14  C8  UNL     1      -9.174 -25.614   0.206  1.00  0.00     0.364 C 
BRANCH  14  15
HETATM   15  N4  UNL     1     -10.300 -24.668  -0.027  1.00  0.00    -0.046 N 
ATOM     16  H43 UNL     1     -10.989 -25.048  -0.676  1.00  0.00     0.278 HD
ATOM     17  H42 UNL     1     -10.899 -24.580   0.793  1.00  0.00     0.278 HD
ATOM     18  H41 UNL     1      -9.943 -23.764  -0.337  1.00  0.00     0.278 HD
ENDBRANCH  14  15
BRANCH  14  19
HETATM   19  C9  UNL     1      -8.925 -26.160  -1.218  1.00  0.00     0.107 C 
BRANCH  19  20
HETATM   20  C10 UNL     1      -7.548 -25.978  -1.662  1.00  0.00    -0.053 A 
HETATM   21  C11 UNL     1      -6.511 -25.987  -0.741  1.00  0.00     0.007 A 
HETATM   22  C12 UNL     1      -5.195 -25.813  -1.144  1.00  0.00     0.001 A 
HETATM   23  C13 UNL     1      -4.854 -25.625  -2.465  1.00  0.00     0.000 A 
HETATM   24  C14 UNL     1      -5.899 -25.616  -3.387  1.00  0.00     0.001 A 
HETATM   25  C15 UNL     1      -7.205 -25.791  -2.973  1.00  0.00     0.007 A 
ENDBRANCH  19  20
ENDBRANCH  14  19
ENDBRANCH   1  14
TORSDOF 7
ENDMDL
MODEL 2
REMARK VINA RESULT: -7.547458355      0.045      1.080
REMARK  7 active torsions:
REMARK  status: ('A' for Active; 'I' for Inactive)
REMARK    1  A    between atoms: N1_2  and  C2_5 
REMARK    2  A    between atoms: C2_5  and  C3_6 
REMARK    3  A    between atoms: C7_12  and  N3_13 
REMARK    4  A    between atoms: N3_13  and  C8_14 
REMARK    5  A    between atoms: C8_14  and  N4_15 
REMARK    6  A    between atoms: C8_14  and  C9_19 
REMARK    7  A    between atoms: C9_19  and  C10_20 
ROOT
HETATM    1  N3  UNL     1      -9.507 -26.462   1.122  1.00  0.00    -0.396 NA
ENDROOT
BRANCH   1   2
HETATM    2  C7  UNL     1      -9.774 -27.260   2.009  1.00  0.00     0.183 A 
HETATM    3  C3  UNL     1      -9.942 -26.850   3.339  1.00  0.00     0.025 A 
HETATM    4  C4  UNL     1     -10.250 -27.766   4.299  1.00  0.00     0.015 A 
HETATM    5  C5  UNL     1     -10.408 -29.109   4.023  1.00  0.00     0.018 A 
HETATM    6  C6  UNL     1     -10.234 -29.472   2.706  1.00  0.00     0.090 A 
HETATM    7  N2  UNL     1      -9.936 -28.593   1.768  1.00  0.00    -0.341 N 
ATOM      8  H2  UNL     1      -9.820 -28.928   0.812  1.00  0.00     0.167 HD
BRANCH   3   9
HETATM    9  C2  UNL     1      -9.766 -25.407   3.692  1.00  0.00     0.275 C 
BRANCH   9  10
HETATM   10  N1  UNL     1      -8.601 -25.255   4.575  1.00  0.00    -0.075 N 
HETATM   11  C1  UNL     1      -7.393 -25.205   3.796  1.00  0.00     0.267 C 
ATOM     12  H12 UNL     1      -8.565 -25.984   5.288  1.00  0.00     0.277 HD
ATOM     13  H11 UNL     1      -8.692 -24.447   5.191  1.00  0.00     0.277 HD
ENDBRANCH   9  10
ENDBRANCH   3   9
ENDBRANCH   1   2
BRANCH   1  14
HETATM   14  C8  UNL     1      -9.184 -25.566   0.212  1.00  0.00     0.364 C 
BRANCH  14  15
HETATM   15  N4  UNL     1     -10.321 -24.631  -0.017  1.00  0.00    -0.046 N 
ATOM     16  H43 UNL     1     -10.829 -24.429   0.845  1.00  0.00     0.278 HD
ATOM     17  H42 UNL     1     -10.001 -23.686  -0.226  1.00  0.00     0.278 HD
ATOM     18  H41 UNL     1     -10.936 -24.994  -0.744  1.00  0.00     0.278 HD
ENDBRANCH  14  15
BRANCH  14  19
HETATM   19  C9  UNL     1      -8.915 -26.086  -1.218  1.00  0.00     0.107 C 
BRANCH  19  20
HETATM   20  C10 UNL     1      -7.524 -25.931  -1.625  1.00  0.00    -0.053 A 
HETATM   21  C11 UNL     1      -7.204 -25.740  -2.960  1.00  0.00     0.007 A 
HETATM   22  C12 UNL     1      -5.886 -25.593  -3.367  1.00  0.00     0.001 A 
HETATM   23  C13 UNL     1      -4.838 -25.627  -2.474  1.00  0.00     0.000 A 
HETATM   24  C14 UNL     1      -5.164 -25.820  -1.133  1.00  0.00     0.001 A 
HETATM   25  C15 UNL     1      -6.480 -25.965  -0.742  1.00  0.00     0.007 A 
ENDBRANCH  19  20
ENDBRANCH  14  19
ENDBRANCH   1  14
TORSDOF 7
ENDMDL
MODEL 3
REMARK VINA RESULT: -7.192074145      2.532      6.442
REMARK  7 active torsions:
REMARK  status: ('A' for Active; 'I' for Inactive)
REMARK    1  A    between atoms: N1_2  and  C2_5 
REMARK    2  A    between atoms: C2_5  and  C3_6 
REMARK    3  A    between atoms: C7_12  and  N3_13 
REMARK    4  A    between atoms: N3_13  and  C8_14 
REMARK    5  A    between atoms: C8_14  and  N4_15 
REMARK    6  A    between atoms: C8_14  and  C9_19 
REMARK    7  A    between atoms: C9_19  and  C10_20 
ROOT
HETATM    1  N3  UNL     1      -8.953 -27.371  -2.399  1.00  0.00    -0.396 NA
ENDROOT
BRANCH   1   2
HETATM    2  C7  UNL     1      -8.263 -27.493  -3.401  1.00  0.00     0.183 A 
HETATM    3  C3  UNL     1      -7.240 -26.583  -3.703  1.00  0.00     0.025 A 
HETATM    4  C4  UNL     1      -6.485 -26.757  -4.823  1.00  0.00     0.015 A 
HETATM    5  C5  UNL     1      -6.680 -27.807  -5.697  1.00  0.00     0.018 A 
HETATM    6  C6  UNL     1      -7.694 -28.678  -5.366  1.00  0.00     0.090 A 
HETATM    7  N2  UNL     1      -8.432 -28.519  -4.284  1.00  0.00    -0.341 N 
ATOM      8  H2  UNL     1      -9.168 -29.199  -4.098  1.00  0.00     0.167 HD
BRANCH   3   9
HETATM    9  C2  UNL     1      -6.998 -25.419  -2.795  1.00  0.00     0.275 C 
BRANCH   9  10
HETATM   10  N1  UNL     1      -6.357 -25.886  -1.558  1.00  0.00    -0.075 N 
HETATM   11  C1  UNL     1      -4.927 -25.771  -1.668  1.00  0.00     0.267 C 
ATOM     12  H12 UNL     1      -6.646 -26.833  -1.312  1.00  0.00     0.277 HD
ATOM     13  H11 UNL     1      -6.716 -25.401  -0.736  1.00  0.00     0.277 HD
ENDBRANCH   9  10
ENDBRANCH   3   9
ENDBRANCH   1   2
BRANCH   1  14
HETATM   14  C8  UNL     1      -9.730 -27.297  -1.338  1.00  0.00     0.364 C 
BRANCH  14  15
HETATM   15  N4  UNL     1     -11.131 -27.652  -1.699  1.00  0.00    -0.046 N 
ATOM     16  H43 UNL     1     -11.449 -27.152  -2.530  1.00  0.00     0.278 HD
ATOM     17  H42 UNL     1     -11.201 -28.603  -2.060  1.00  0.00     0.278 HD
ATOM     18  H41 UNL     1     -11.750 -27.500  -0.903  1.00  0.00     0.278 HD
ENDBRANCH  14  15
BRANCH  14  19
HETATM   19  C9  UNL     1      -9.916 -25.900  -0.703  1.00  0.00     0.107 C 
BRANCH  19  20
HETATM   20  C10 UNL     1      -9.888 -25.933   0.754  1.00  0.00    -0.053 A 
HETATM   21  C11 UNL     1     -10.049 -24.763   1.482  1.00  0.00     0.007 A 
HETATM   22  C12 UNL     1     -10.023 -24.773   2.869  1.00  0.00     0.001 A 
HETATM   23  C13 UNL     1      -9.839 -25.933   3.587  1.00  0.00     0.000 A 
HETATM   24  C14 UNL     1      -9.677 -27.106   2.853  1.00  0.00     0.001 A 
HETATM   25  C15 UNL     1      -9.705 -27.082   1.473  1.00  0.00     0.007 A 
ENDBRANCH  19  20
ENDBRANCH  14  19
ENDBRANCH   1  14
TORSDOF 7
ENDMDL
MODEL 4
REMARK VINA RESULT: -7.173787857      2.670      6.479
REMARK  7 active torsions:
REMARK  status: ('A' for Active; 'I' for Inactive)
REMARK    1  A    between atoms: N1_2  and  C2_5 
REMARK    2  A    between atoms: C2_5  and  C3_6 
REMARK    3  A    between atoms: C7_12  and  N3_13 
REMARK    4  A    between atoms: N3_13  and  C8_14 
REMARK    5  A    between atoms: C8_14  and  N4_15 
REMARK    6  A    between atoms: C8_14  and  C9_19 
REMARK    7  A    between atoms: C9_19  and  C10_20 
ROOT
HETATM    1  N3  UNL     1      -8.437 -27.034  -2.375  1.00  0.00    -0.396 NA
ENDROOT
BRANCH   1   2
HETATM    2  C7  UNL     1      -8.169 -27.212  -3.554  1.00  0.00     0.183 A 
HETATM    3  C3  UNL     1      -7.068 -26.588  -4.159  1.00  0.00     0.025 A 
HETATM    4  C4  UNL     1      -6.793 -26.819  -5.473  1.00  0.00     0.015 A 
HETATM    5  C5  UNL     1      -7.561 -27.655  -6.258  1.00  0.00     0.018 A 
HETATM    6  C6  UNL     1      -8.632 -28.248  -5.628  1.00  0.00     0.090 A 
HETATM    7  N2  UNL     1      -8.908 -28.031  -4.356  1.00  0.00    -0.341 N 
ATOM      8  H2  UNL     1      -9.718 -28.500  -3.951  1.00  0.00     0.167 HD
BRANCH   3   9
HETATM    9  C2  UNL     1      -6.214 -25.661  -3.353  1.00  0.00     0.275 C 
BRANCH   9  10
HETATM   10  N1  UNL     1      -5.289 -26.444  -2.521  1.00  0.00    -0.075 N 
HETATM   11  C1  UNL     1      -5.148 -25.830  -1.227  1.00  0.00     0.267 C 
ATOM     12  H12 UNL     1      -4.388 -26.582  -2.978  1.00  0.00     0.277 HD
ATOM     13  H11 UNL     1      -5.573 -27.421  -2.451  1.00  0.00     0.277 HD
ENDBRANCH   9  10
ENDBRANCH   3   9
ENDBRANCH   1   2
BRANCH   1  14
HETATM   14  C8  UNL     1      -8.791 -26.862  -1.118  1.00  0.00     0.364 C 
BRANCH  14  15
HETATM   15  N4  UNL     1     -10.122 -27.484  -0.867  1.00  0.00    -0.046 N 
ATOM     16  H43 UNL     1     -10.426 -28.062  -1.651  1.00  0.00     0.278 HD
ATOM     17  H42 UNL     1     -10.073 -28.212  -0.155  1.00  0.00     0.278 HD
ATOM     18  H41 UNL     1     -10.808 -26.767  -0.633  1.00  0.00     0.278 HD
ENDBRANCH  14  15
BRANCH  14  19
HETATM   19  C9  UNL     1      -9.033 -25.410  -0.650  1.00  0.00     0.107 C 
BRANCH  19  20
HETATM   20  C10 UNL     1      -8.962 -25.262   0.798  1.00  0.00    -0.053 A 
HETATM   21  C11 UNL     1      -7.759 -25.450   1.462  1.00  0.00     0.007 A 
HETATM   22  C12 UNL     1      -7.673 -25.315   2.840  1.00  0.00     0.001 A 
HETATM   23  C13 UNL     1      -8.766 -24.991   3.612  1.00  0.00     0.000 A 
HETATM   24  C14 UNL     1      -9.973 -24.804   2.942  1.00  0.00     0.001 A 
HETATM   25  C15 UNL     1     -10.045 -24.940   1.570  1.00  0.00     0.007 A 
ENDBRANCH  19  20
ENDBRANCH  14  19
ENDBRANCH   1  14
TORSDOF 7
ENDMDL
MODEL 5
REMARK VINA RESULT: -7.173653349      2.365      6.433
REMARK  7 active torsions:
REMARK  status: ('A' for Active; 'I' for Inactive)
REMARK    1  A    between atoms: N1_2  and  C2_5 
REMARK    2  A    between atoms: C2_5  and  C3_6 
REMARK    3  A    between atoms: C7_12  and  N3_13 
REMARK    4  A    between atoms: N3_13  and  C8_14 
REMARK    5  A    between atoms: C8_14  and  N4_15 
REMARK    6  A    between atoms: C8_14  and  C9_19 
REMARK    7  A    between atoms: C9_19  and  C10_20 
ROOT
HETATM    1  N3  UNL     1      -7.492 -27.959  -0.550  1.00  0.00    -0.396 NA
ENDROOT
BRANCH   1   2
HETATM    2  C7  UNL     1      -6.921 -27.206  -1.326  1.00  0.00     0.183 A 
HETATM    3  C3  UNL     1      -7.517 -26.800  -2.528  1.00  0.00     0.025 A 
HETATM    4  C4  UNL     1      -6.855 -25.950  -3.362  1.00  0.00     0.015 A 
HETATM    5  C5  UNL     1      -5.598 -25.458  -3.078  1.00  0.00     0.018 A 
HETATM    6  C6  UNL     1      -5.046 -25.881  -1.889  1.00  0.00     0.090 A 
HETATM    7  N2  UNL     1      -5.678 -26.703  -1.074  1.00  0.00    -0.341 N 
ATOM      8  H2  UNL     1      -5.212 -26.978  -0.210  1.00  0.00     0.167 HD
BRANCH   3   9
HETATM    9  C2  UNL     1      -8.873 -27.318  -2.888  1.00  0.00     0.275 C 
BRANCH   9  10
HETATM   10  N1  UNL     1      -8.747 -28.657  -3.480  1.00  0.00    -0.075 N 
HETATM   11  C1  UNL     1      -9.305 -28.666  -4.807  1.00  0.00     0.267 C 
ATOM     12  H12 UNL     1      -9.161 -29.377  -2.888  1.00  0.00     0.277 HD
ATOM     13  H11 UNL     1      -7.783 -28.989  -3.469  1.00  0.00     0.277 HD
ENDBRANCH   9  10
ENDBRANCH   3   9
ENDBRANCH   1   2
BRANCH   1  14
HETATM   14  C8  UNL     1      -8.157 -28.724   0.290  1.00  0.00     0.364 C 
BRANCH  14  15
HETATM   15  N4  UNL     1      -8.303 -30.098  -0.267  1.00  0.00    -0.046 N 
ATOM     16  H43 UNL     1      -9.033 -30.627   0.209  1.00  0.00     0.278 HD
ATOM     17  H42 UNL     1      -8.710 -30.088  -1.201  1.00  0.00     0.278 HD
ATOM     18  H41 UNL     1      -7.407 -30.584  -0.248  1.00  0.00     0.278 HD
ENDBRANCH  14  15
BRANCH  14  19
HETATM   19  C9  UNL     1      -9.629 -28.343   0.569  1.00  0.00     0.107 C 
BRANCH  19  20
HETATM   20  C10 UNL     1      -9.760 -27.096   1.311  1.00  0.00    -0.053 A 
HETATM   21  C11 UNL     1      -9.709 -27.099   2.697  1.00  0.00     0.007 A 
HETATM   22  C12 UNL     1      -9.834 -25.922   3.422  1.00  0.00     0.001 A 
HETATM   23  C13 UNL     1     -10.012 -24.703   2.808  1.00  0.00     0.000 A 
HETATM   24  C14 UNL     1     -10.063 -24.703   1.416  1.00  0.00     0.001 A 
HETATM   25  C15 UNL     1      -9.937 -25.881   0.707  1.00  0.00     0.007 A 
ENDBRANCH  19  20
ENDBRANCH  14  19
ENDBRANCH   1  14
TORSDOF 7
ENDMDL
