MODEL 1
REMARK VINA RESULT: -8.356075121      0.000      0.000
REMARK  13 active torsions:
REMARK  status: ('A' for Active; 'I' for Inactive)
REMARK    1  A    between atoms: O1_2  and  C2_3 
REMARK    2  A    between atoms: C5_8  and  N2_9 
REMARK    3  A    between atoms: N2_9  and  C6_11 
REMARK    4  A    between atoms: C6_11  and  C7_12 
REMARK    5  A    between atoms: C12_20  and  N4_21 
REMARK    6  A    between atoms: N4_21  and  C13_22 
REMARK    7  A    between atoms: C17_29  and  C18_30 
REMARK    8  A    between atoms: C18_30  and  C19_31 
REMARK    9  A    between atoms: C19_31  and  N6_32 
REMARK   10  A    between atoms: N6_32  and  C20_33 
REMARK   11  A    between atoms: N6_32  and  C24_37 
REMARK   12  A    between atoms: C20_33  and  C21_34 
REMARK   13  A    between atoms: C29_42  and  O3_43 
ROOT
HETATM    1  C2  UNL     1       1.971  -4.244 -15.964  1.00  0.00     0.103 A 
HETATM    2  C3  UNL     1       2.204  -3.200 -16.813  1.00  0.00     0.070 A 
HETATM    3  C4  UNL     1       1.471  -3.065 -17.998  1.00  0.00     0.067 A 
HETATM    4  N1  UNL     1       1.738  -2.014 -18.810  1.00  0.00    -0.191 N 
ATOM      5  H1  UNL     1       2.461  -1.347 -18.542  1.00  0.00     0.184 HD
HETATM    6  C5  UNL     1       1.061  -1.831 -19.977  1.00  0.00     0.684 A 
HETATM    7  N3  UNL     1       0.137  -2.726 -20.272  1.00  0.00    -0.164 N 
ATOM      8  H3  UNL     1      -0.372  -2.591 -21.147  1.00  0.00     0.187 HD
HETATM    9  C12 UNL     1      -0.206  -3.819 -19.518  1.00  0.00     0.200 A 
HETATM   10  C27 UNL     1       0.506  -3.982 -18.326  1.00  0.00     0.052 A 
HETATM   11  C28 UNL     1       0.266  -5.047 -17.466  1.00  0.00     0.058 A 
HETATM   12  C29 UNL     1       0.980  -5.170 -16.321  1.00  0.00     0.102 A 
ENDROOT
BRANCH   9  13
HETATM   13  N4  UNL     1      -1.069  -4.595 -19.841  1.00  0.00    -0.422 NA
BRANCH  13  14
HETATM   14  C13 UNL     1      -1.879  -5.630 -20.073  1.00  0.00     0.196 C 
HETATM   15  C14 UNL     1      -3.045  -5.778 -19.061  1.00  0.00     0.043 C 
HETATM   16  C15 UNL     1      -3.622  -7.157 -19.273  1.00  0.00     0.030 C 
HETATM   17  C16 UNL     1      -4.136  -7.252 -20.706  1.00  0.00     0.233 C 
HETATM   18  N5  UNL     1      -3.051  -7.017 -21.637  1.00  0.00    -0.068 N 
HETATM   19  C17 UNL     1      -2.594  -5.657 -21.443  1.00  0.00     0.226 C 
ATOM     20  H52 UNL     1      -2.301  -7.704 -21.554  1.00  0.00     0.277 HD
ATOM     21  H51 UNL     1      -3.307  -7.216 -22.604  1.00  0.00     0.277 HD
BRANCH  19  22
HETATM   22  C18 UNL     1      -1.588  -5.257 -22.498  1.00  0.00     0.080 C 
BRANCH  22  23
HETATM   23  C19 UNL     1      -1.864  -3.974 -23.157  1.00  0.00     0.060 C 
BRANCH  23  24
HETATM   24  N6  UNL     1      -3.134  -3.426 -23.270  1.00  0.00    -0.388 N 
BRANCH  24  25
HETATM   25  C20 UNL     1      -3.534  -3.207 -24.662  1.00  0.00     0.127 C 
BRANCH  25  26
HETATM   26  C21 UNL     1      -4.831  -2.585 -24.903  1.00  0.00     0.003 A 
HETATM   27  C22 UNL     1      -6.157  -3.154 -24.948  1.00  0.00     0.007 A 
HETATM   28  C23 UNL     1      -5.453  -2.877 -26.276  1.00  0.00     0.007 A 
ENDBRANCH  25  26
ENDBRANCH  24  25
BRANCH  24  29
HETATM   29  C24 UNL     1      -3.574  -2.354 -22.470  1.00  0.00     0.083 A 
HETATM   30  C25 UNL     1      -4.362  -2.467 -21.214  1.00  0.00     0.027 A 
HETATM   31  C26 UNL     1      -3.008  -1.897 -21.198  1.00  0.00     0.027 A 
ENDBRANCH  24  29
ENDBRANCH  23  24
ENDBRANCH  22  23
ENDBRANCH  19  22
ENDBRANCH  13  14
ENDBRANCH   9  13
BRANCH   6  32
HETATM   32  N2  UNL     1       1.381  -0.814 -20.665  1.00  0.00    -0.205 N 
ATOM     33  H2  UNL     1       1.607   0.006 -20.102  1.00  0.00     0.183 HD
BRANCH  32  34
HETATM   34  C6  UNL     1       1.485  -0.595 -22.050  1.00  0.00     0.083 C 
BRANCH  34  35
HETATM   35  C7  UNL     1       0.127  -0.645 -22.748  1.00  0.00     0.028 C 
HETATM   36  C8  UNL     1       0.373  -0.804 -24.212  1.00  0.00     0.036 C 
HETATM   37  C9  UNL     1      -0.507   0.115 -25.033  1.00  0.00     0.168 C 
HETATM   38  O2  UNL     1      -1.806  -0.039 -24.501  1.00  0.00    -0.391 OA
HETATM   39  C10 UNL     1      -1.835   0.779 -23.374  1.00  0.00     0.168 C 
HETATM   40  C11 UNL     1      -0.786   0.464 -22.364  1.00  0.00     0.036 C 
ENDBRANCH  34  35
ENDBRANCH  32  34
ENDBRANCH   6  32
BRANCH  12  41
HETATM   41  O3  UNL     1       0.772  -6.202 -15.456  1.00  0.00    -0.353 OA
HETATM   42  C30 UNL     1       1.167  -7.523 -15.577  1.00  0.00     0.210 C 
ENDBRANCH  12  41
BRANCH   1  43
HETATM   43  O1  UNL     1       2.684  -4.410 -14.771  1.00  0.00    -0.353 OA
HETATM   44  C1  UNL     1       4.000  -4.916 -14.773  1.00  0.00     0.210 C 
ENDBRANCH   1  43
TORSDOF 13
ENDMDL
MODEL 2
REMARK VINA RESULT: -7.988103071      2.185      9.397
REMARK  13 active torsions:
REMARK  status: ('A' for Active; 'I' for Inactive)
REMARK    1  A    between atoms: O1_2  and  C2_3 
REMARK    2  A    between atoms: C5_8  and  N2_9 
REMARK    3  A    between atoms: N2_9  and  C6_11 
REMARK    4  A    between atoms: C6_11  and  C7_12 
REMARK    5  A    between atoms: C12_20  and  N4_21 
REMARK    6  A    between atoms: N4_21  and  C13_22 
REMARK    7  A    between atoms: C17_29  and  C18_30 
REMARK    8  A    between atoms: C18_30  and  C19_31 
REMARK    9  A    between atoms: C19_31  and  N6_32 
REMARK   10  A    between atoms: N6_32  and  C20_33 
REMARK   11  A    between atoms: N6_32  and  C24_37 
REMARK   12  A    between atoms: C20_33  and  C21_34 
REMARK   13  A    between atoms: C29_42  and  O3_43 
ROOT
HETATM    1  C2  UNL     1      -4.242  -2.673 -23.185  1.00  0.00     0.103 A 
HETATM    2  C3  UNL     1      -4.559  -3.818 -22.514  1.00  0.00     0.070 A 
HETATM    3  C4  UNL     1      -3.737  -4.294 -21.483  1.00  0.00     0.067 A 
HETATM    4  N1  UNL     1      -4.091  -5.436 -20.847  1.00  0.00    -0.191 N 
ATOM      5  H1  UNL     1      -4.943  -5.921 -21.127  1.00  0.00     0.184 HD
HETATM    6  C5  UNL     1      -3.332  -5.949 -19.840  1.00  0.00     0.684 A 
HETATM    7  N3  UNL     1      -2.241  -5.279 -19.520  1.00  0.00    -0.164 N 
ATOM      8  H3  UNL     1      -1.669  -5.661 -18.766  1.00  0.00     0.187 HD
HETATM    9  C12 UNL     1      -1.800  -4.117 -20.103  1.00  0.00     0.200 A 
HETATM   10  C27 UNL     1      -2.599  -3.615 -21.134  1.00  0.00     0.052 A 
HETATM   11  C28 UNL     1      -2.271  -2.448 -21.815  1.00  0.00     0.058 A 
HETATM   12  C29 UNL     1      -3.072  -1.995 -22.811  1.00  0.00     0.102 A 
ENDROOT
BRANCH   9  13
HETATM   13  N4  UNL     1      -0.796  -3.548 -19.756  1.00  0.00    -0.422 NA
BRANCH  13  14
HETATM   14  C13 UNL     1       0.438  -3.100 -19.515  1.00  0.00     0.196 C 
HETATM   15  C14 UNL     1       0.595  -1.560 -19.611  1.00  0.00     0.043 C 
HETATM   16  C15 UNL     1       2.080  -1.284 -19.654  1.00  0.00     0.030 C 
HETATM   17  C16 UNL     1       2.707  -1.812 -18.367  1.00  0.00     0.233 C 
HETATM   18  N5  UNL     1       2.467  -3.237 -18.248  1.00  0.00    -0.068 N 
HETATM   19  C17 UNL     1       1.037  -3.431 -18.129  1.00  0.00     0.226 C 
ATOM     20  H52 UNL     1       2.879  -3.774 -19.011  1.00  0.00     0.277 HD
ATOM     21  H51 UNL     1       2.991  -3.664 -17.484  1.00  0.00     0.277 HD
BRANCH  19  22
HETATM   22  C18 UNL     1       0.700  -4.870 -17.811  1.00  0.00     0.080 C 
BRANCH  22  23
HETATM   23  C19 UNL     1       1.862  -5.740 -17.590  1.00  0.00     0.060 C 
BRANCH  23  24
HETATM   24  N6  UNL     1       2.091  -6.431 -16.408  1.00  0.00    -0.388 N 
BRANCH  24  25
HETATM   25  C20 UNL     1       1.162  -7.545 -16.215  1.00  0.00     0.127 C 
BRANCH  25  26
HETATM   26  C21 UNL     1       1.690  -8.772 -15.627  1.00  0.00     0.003 A 
HETATM   27  C22 UNL     1       2.905  -9.502 -15.901  1.00  0.00     0.007 A 
HETATM   28  C23 UNL     1       1.607 -10.016 -16.522  1.00  0.00     0.007 A 
ENDBRANCH  25  26
ENDBRANCH  24  25
BRANCH  24  29
HETATM   29  C24 UNL     1       2.323  -5.781 -15.181  1.00  0.00     0.083 A 
HETATM   30  C25 UNL     1       3.540  -5.915 -14.337  1.00  0.00     0.027 A 
HETATM   31  C26 UNL     1       3.183  -4.620 -14.932  1.00  0.00     0.027 A 
ENDBRANCH  24  29
ENDBRANCH  23  24
ENDBRANCH  22  23
ENDBRANCH  19  22
ENDBRANCH  13  14
ENDBRANCH   9  13
BRANCH   6  32
HETATM   32  N2  UNL     1      -3.750  -7.019 -19.303  1.00  0.00    -0.205 N 
ATOM     33  H2  UNL     1      -4.690  -6.942 -18.913  1.00  0.00     0.183 HD
BRANCH  32  34
HETATM   34  C6  UNL     1      -3.174  -8.291 -19.138  1.00  0.00     0.083 C 
BRANCH  34  35
HETATM   35  C7  UNL     1      -2.435  -8.426 -17.809  1.00  0.00     0.028 C 
HETATM   36  C8  UNL     1      -1.952  -9.834 -17.696  1.00  0.00     0.036 C 
HETATM   37  C9  UNL     1      -2.207 -10.407 -16.317  1.00  0.00     0.168 C 
HETATM   38  O2  UNL     1      -1.759  -9.418 -15.414  1.00  0.00    -0.391 OA
HETATM   39  C10 UNL     1      -2.804  -8.501 -15.333  1.00  0.00     0.168 C 
HETATM   40  C11 UNL     1      -3.201  -7.911 -16.642  1.00  0.00     0.036 C 
ENDBRANCH  34  35
ENDBRANCH  32  34
ENDBRANCH   6  32
BRANCH  12  41
HETATM   41  O3  UNL     1      -2.780  -0.857 -23.501  1.00  0.00    -0.353 OA
HETATM   42  C30 UNL     1      -1.701  -0.005 -23.344  1.00  0.00     0.210 C 
ENDBRANCH  12  41
BRANCH   1  43
HETATM   43  O1  UNL     1      -5.039  -2.167 -24.219  1.00  0.00    -0.353 OA
HETATM   44  C1  UNL     1      -5.891  -3.012 -24.960  1.00  0.00     0.210 C 
ENDBRANCH   1  43
TORSDOF 13
ENDMDL
MODEL 3
REMARK VINA RESULT: -7.927206099      2.261      6.167
REMARK  13 active torsions:
REMARK  status: ('A' for Active; 'I' for Inactive)
REMARK    1  A    between atoms: O1_2  and  C2_3 
REMARK    2  A    between atoms: C5_8  and  N2_9 
REMARK    3  A    between atoms: N2_9  and  C6_11 
REMARK    4  A    between atoms: C6_11  and  C7_12 
REMARK    5  A    between atoms: C12_20  and  N4_21 
REMARK    6  A    between atoms: N4_21  and  C13_22 
REMARK    7  A    between atoms: C17_29  and  C18_30 
REMARK    8  A    between atoms: C18_30  and  C19_31 
REMARK    9  A    between atoms: C19_31  and  N6_32 
REMARK   10  A    between atoms: N6_32  and  C20_33 
REMARK   11  A    between atoms: N6_32  and  C24_37 
REMARK   12  A    between atoms: C20_33  and  C21_34 
REMARK   13  A    between atoms: C29_42  and  O3_43 
ROOT
HETATM    1  C2  UNL     1       1.622  -3.437 -17.630  1.00  0.00     0.103 A 
HETATM    2  C3  UNL     1       0.465  -4.162 -17.638  1.00  0.00     0.070 A 
HETATM    3  C4  UNL     1      -0.510  -3.942 -18.619  1.00  0.00     0.067 A 
HETATM    4  N1  UNL     1      -1.643  -4.685 -18.586  1.00  0.00    -0.191 N 
ATOM      5  H1  UNL     1      -1.760  -5.385 -17.854  1.00  0.00     0.184 HD
HETATM    6  C5  UNL     1      -2.628  -4.515 -19.510  1.00  0.00     0.684 A 
HETATM    7  N3  UNL     1      -2.421  -3.595 -20.434  1.00  0.00    -0.164 N 
ATOM      8  H3  UNL     1      -3.158  -3.465 -21.127  1.00  0.00     0.187 HD
HETATM    9  C12 UNL     1      -1.312  -2.796 -20.551  1.00  0.00     0.200 A 
HETATM   10  C27 UNL     1      -0.318  -2.992 -19.588  1.00  0.00     0.052 A 
HETATM   11  C28 UNL     1       0.857  -2.250 -19.583  1.00  0.00     0.058 A 
HETATM   12  C29 UNL     1       1.796  -2.469 -18.631  1.00  0.00     0.102 A 
ENDROOT
BRANCH   9  13
HETATM   13  N4  UNL     1      -1.182  -1.979 -21.427  1.00  0.00    -0.422 NA
BRANCH  13  14
HETATM   14  C13 UNL     1      -0.901  -1.261 -22.516  1.00  0.00     0.196 C 
HETATM   15  C14 UNL     1       0.592  -1.281 -22.936  1.00  0.00     0.043 C 
HETATM   16  C15 UNL     1       0.768  -0.169 -23.943  1.00  0.00     0.030 C 
HETATM   17  C16 UNL     1      -0.133  -0.454 -25.140  1.00  0.00     0.233 C 
HETATM   18  N5  UNL     1      -1.517  -0.526 -24.712  1.00  0.00    -0.068 N 
HETATM   19  C17 UNL     1      -1.639  -1.656 -23.815  1.00  0.00     0.226 C 
ATOM     20  H52 UNL     1      -1.851   0.346 -24.301  1.00  0.00     0.277 HD
ATOM     21  H51 UNL     1      -2.172  -0.565 -25.493  1.00  0.00     0.277 HD
BRANCH  19  22
HETATM   22  C18 UNL     1      -3.084  -1.926 -23.463  1.00  0.00     0.080 C 
BRANCH  22  23
HETATM   23  C19 UNL     1      -3.914  -2.391 -24.581  1.00  0.00     0.060 C 
BRANCH  23  24
HETATM   24  N6  UNL     1      -4.934  -1.637 -25.145  1.00  0.00    -0.388 N 
BRANCH  24  25
HETATM   25  C20 UNL     1      -4.869  -0.224 -24.768  1.00  0.00     0.127 C 
BRANCH  25  26
HETATM   26  C21 UNL     1      -5.095   0.767 -25.815  1.00  0.00     0.003 A 
HETATM   27  C22 UNL     1      -4.556   0.867 -27.151  1.00  0.00     0.007 A 
HETATM   28  C23 UNL     1      -3.931   1.737 -26.061  1.00  0.00     0.007 A 
ENDBRANCH  25  26
ENDBRANCH  24  25
BRANCH  24  29
HETATM   29  C24 UNL     1      -6.274  -2.067 -25.166  1.00  0.00     0.083 A 
HETATM   30  C25 UNL     1      -6.939  -2.804 -26.275  1.00  0.00     0.027 A 
HETATM   31  C26 UNL     1      -6.781  -3.426 -24.953  1.00  0.00     0.027 A 
ENDBRANCH  24  29
ENDBRANCH  23  24
ENDBRANCH  22  23
ENDBRANCH  19  22
ENDBRANCH  13  14
ENDBRANCH   9  13
BRANCH   6  32
HETATM   32  N2  UNL     1      -3.646  -5.263 -19.397  1.00  0.00    -0.205 N 
ATOM     33  H2  UNL     1      -4.344  -4.908 -18.743  1.00  0.00     0.183 HD
BRANCH  32  34
HETATM   34  C6  UNL     1      -4.003  -6.484 -19.997  1.00  0.00     0.083 C 
BRANCH  34  35
HETATM   35  C7  UNL     1      -3.551  -7.688 -19.173  1.00  0.00     0.028 C 
HETATM   36  C8  UNL     1      -3.986  -7.464 -17.763  1.00  0.00     0.036 C 
HETATM   37  C9  UNL     1      -2.889  -7.807 -16.776  1.00  0.00     0.168 C 
HETATM   38  O2  UNL     1      -2.398  -9.066 -17.186  1.00  0.00    -0.391 OA
HETATM   39  C10 UNL     1      -1.511  -8.788 -18.223  1.00  0.00     0.168 C 
HETATM   40  C11 UNL     1      -2.117  -8.036 -19.359  1.00  0.00     0.036 C 
ENDBRANCH  34  35
ENDBRANCH  32  34
ENDBRANCH   6  32
BRANCH  12  41
HETATM   41  O3  UNL     1       2.958  -1.759 -18.595  1.00  0.00    -0.353 OA
HETATM   42  C30 UNL     1       3.339  -0.686 -19.382  1.00  0.00     0.210 C 
ENDBRANCH  12  41
BRANCH   1  43
HETATM   43  O1  UNL     1       2.618  -3.630 -16.666  1.00  0.00    -0.353 OA
HETATM   44  C1  UNL     1       2.421  -4.510 -15.582  1.00  0.00     0.210 C 
ENDBRANCH   1  43
TORSDOF 13
ENDMDL
MODEL 4
REMARK VINA RESULT: -7.914223423      2.248      5.254
REMARK  13 active torsions:
REMARK  status: ('A' for Active; 'I' for Inactive)
REMARK    1  A    between atoms: O1_2  and  C2_3 
REMARK    2  A    between atoms: C5_8  and  N2_9 
REMARK    3  A    between atoms: N2_9  and  C6_11 
REMARK    4  A    between atoms: C6_11  and  C7_12 
REMARK    5  A    between atoms: C12_20  and  N4_21 
REMARK    6  A    between atoms: N4_21  and  C13_22 
REMARK    7  A    between atoms: C17_29  and  C18_30 
REMARK    8  A    between atoms: C18_30  and  C19_31 
REMARK    9  A    between atoms: C19_31  and  N6_32 
REMARK   10  A    between atoms: N6_32  and  C20_33 
REMARK   11  A    between atoms: N6_32  and  C24_37 
REMARK   12  A    between atoms: C20_33  and  C21_34 
REMARK   13  A    between atoms: C29_42  and  O3_43 
ROOT
HETATM    1  C2  UNL     1       1.867  -4.607 -15.968  1.00  0.00     0.103 A 
HETATM    2  C3  UNL     1       2.082  -3.603 -16.868  1.00  0.00     0.070 A 
HETATM    3  C4  UNL     1       1.285  -3.487 -18.015  1.00  0.00     0.067 A 
HETATM    4  N1  UNL     1       1.537  -2.476 -18.880  1.00  0.00    -0.191 N 
ATOM      5  H1  UNL     1       2.295  -1.823 -18.678  1.00  0.00     0.184 HD
HETATM    6  C5  UNL     1       0.800  -2.313 -20.012  1.00  0.00     0.684 A 
HETATM    7  N3  UNL     1      -0.167  -3.187 -20.221  1.00  0.00    -0.164 N 
ATOM      8  H3  UNL     1      -0.721  -3.068 -21.069  1.00  0.00     0.187 HD
HETATM    9  C12 UNL     1      -0.498  -4.241 -19.407  1.00  0.00     0.200 A 
HETATM   10  C27 UNL     1       0.276  -4.383 -18.252  1.00  0.00     0.052 A 
HETATM   11  C28 UNL     1       0.054  -5.409 -17.340  1.00  0.00     0.058 A 
HETATM   12  C29 UNL     1       0.829  -5.513 -16.233  1.00  0.00     0.102 A 
ENDROOT
BRANCH   9  13
HETATM   13  N4  UNL     1      -1.402  -5.000 -19.652  1.00  0.00    -0.422 NA
BRANCH  13  14
HETATM   14  C13 UNL     1      -2.543  -5.622 -19.955  1.00  0.00     0.196 C 
HETATM   15  C14 UNL     1      -3.160  -5.212 -21.317  1.00  0.00     0.043 C 
HETATM   16  C15 UNL     1      -4.575  -5.739 -21.322  1.00  0.00     0.030 C 
HETATM   17  C16 UNL     1      -4.525  -7.258 -21.187  1.00  0.00     0.233 C 
HETATM   18  N5  UNL     1      -3.860  -7.624 -19.952  1.00  0.00    -0.068 N 
HETATM   19  C17 UNL     1      -2.490  -7.164 -20.040  1.00  0.00     0.226 C 
ATOM     20  H52 UNL     1      -4.343  -7.277 -19.124  1.00  0.00     0.277 HD
ATOM     21  H51 UNL     1      -3.933  -8.620 -19.742  1.00  0.00     0.277 HD
BRANCH  19  22
HETATM   22  C18 UNL     1      -1.664  -7.664 -18.877  1.00  0.00     0.080 C 
BRANCH  22  23
HETATM   23  C19 UNL     1      -2.425  -7.925 -17.649  1.00  0.00     0.060 C 
BRANCH  23  24
HETATM   24  N6  UNL     1      -2.107  -8.932 -16.748  1.00  0.00    -0.388 N 
BRANCH  24  25
HETATM   25  C20 UNL     1      -1.792 -10.202 -17.406  1.00  0.00     0.127 C 
BRANCH  25  26
HETATM   26  C21 UNL     1      -0.588 -10.905 -16.978  1.00  0.00     0.003 A 
HETATM   27  C22 UNL     1       0.354 -11.704 -17.726  1.00  0.00     0.007 A 
HETATM   28  C23 UNL     1      -0.711 -12.433 -16.908  1.00  0.00     0.007 A 
ENDBRANCH  25  26
ENDBRANCH  24  25
BRANCH  24  29
HETATM   29  C24 UNL     1      -2.854  -9.170 -15.579  1.00  0.00     0.083 A 
HETATM   30  C25 UNL     1      -2.300  -9.483 -14.235  1.00  0.00     0.027 A 
HETATM   31  C26 UNL     1      -3.073  -8.254 -14.456  1.00  0.00     0.027 A 
ENDBRANCH  24  29
ENDBRANCH  23  24
ENDBRANCH  22  23
ENDBRANCH  19  22
ENDBRANCH  13  14
ENDBRANCH   9  13
BRANCH   6  32
HETATM   32  N2  UNL     1       1.110  -1.332 -20.755  1.00  0.00    -0.205 N 
ATOM     33  H2  UNL     1       2.093  -1.320 -21.028  1.00  0.00     0.183 HD
BRANCH  32  34
HETATM   34  C6  UNL     1       0.365  -0.259 -21.277  1.00  0.00     0.083 C 
BRANCH  34  35
HETATM   35  C7  UNL     1      -0.466  -0.667 -22.492  1.00  0.00     0.028 C 
HETATM   36  C8  UNL     1       0.478  -0.966 -23.609  1.00  0.00     0.036 C 
HETATM   37  C9  UNL     1       0.014  -0.355 -24.915  1.00  0.00     0.168 C 
HETATM   38  O2  UNL     1      -1.354  -0.689 -25.019  1.00  0.00    -0.391 OA
HETATM   39  C10 UNL     1      -2.017   0.249 -24.231  1.00  0.00     0.168 C 
HETATM   40  C11 UNL     1      -1.565   0.283 -22.811  1.00  0.00     0.036 C 
ENDBRANCH  34  35
ENDBRANCH  32  34
ENDBRANCH   6  32
BRANCH  12  41
HETATM   41  O3  UNL     1       0.640  -6.506 -15.319  1.00  0.00    -0.353 OA
HETATM   42  C30 UNL     1       0.949  -7.851 -15.430  1.00  0.00     0.210 C 
ENDBRANCH  12  41
BRANCH   1  43
HETATM   43  O1  UNL     1       2.641  -4.754 -14.812  1.00  0.00    -0.353 OA
HETATM   44  C1  UNL     1       4.046  -4.630 -14.856  1.00  0.00     0.210 C 
ENDBRANCH   1  43
TORSDOF 13
ENDMDL
MODEL 5
REMARK VINA RESULT: -7.891106879      2.493      7.038
REMARK  13 active torsions:
REMARK  status: ('A' for Active; 'I' for Inactive)
REMARK    1  A    between atoms: O1_2  and  C2_3 
REMARK    2  A    between atoms: C5_8  and  N2_9 
REMARK    3  A    between atoms: N2_9  and  C6_11 
REMARK    4  A    between atoms: C6_11  and  C7_12 
REMARK    5  A    between atoms: C12_20  and  N4_21 
REMARK    6  A    between atoms: N4_21  and  C13_22 
REMARK    7  A    between atoms: C17_29  and  C18_30 
REMARK    8  A    between atoms: C18_30  and  C19_31 
REMARK    9  A    between atoms: C19_31  and  N6_32 
REMARK   10  A    between atoms: N6_32  and  C20_33 
REMARK   11  A    between atoms: N6_32  and  C24_37 
REMARK   12  A    between atoms: C20_33  and  C21_34 
REMARK   13  A    between atoms: C29_42  and  O3_43 
ROOT
HETATM    1  C2  UNL     1       0.767  -2.375 -19.437  1.00  0.00     0.103 A 
HETATM    2  C3  UNL     1      -0.040  -3.250 -18.766  1.00  0.00     0.070 A 
HETATM    3  C4  UNL     1      -1.247  -3.684 -19.330  1.00  0.00     0.067 A 
HETATM    4  N1  UNL     1      -2.016  -4.550 -18.626  1.00  0.00    -0.191 N 
ATOM      5  H1  UNL     1      -1.701  -4.868 -17.710  1.00  0.00     0.184 HD
HETATM    6  C5  UNL     1      -3.200  -5.006 -19.119  1.00  0.00     0.684 A 
HETATM    7  N3  UNL     1      -3.557  -4.561 -20.310  1.00  0.00    -0.164 N 
ATOM      8  H3  UNL     1      -4.445  -4.900 -20.681  1.00  0.00     0.187 HD
HETATM    9  C12 UNL     1      -2.850  -3.687 -21.096  1.00  0.00     0.200 A 
HETATM   10  C27 UNL     1      -1.639  -3.236 -20.564  1.00  0.00     0.052 A 
HETATM   11  C28 UNL     1      -0.822  -2.344 -21.250  1.00  0.00     0.058 A 
HETATM   12  C29 UNL     1       0.345  -1.930 -20.698  1.00  0.00     0.102 A 
ENDROOT
BRANCH   9  13
HETATM   13  N4  UNL     1      -3.229  -3.327 -22.182  1.00  0.00    -0.422 NA
BRANCH  13  14
HETATM   14  C13 UNL     1      -3.873  -3.043 -23.316  1.00  0.00     0.196 C 
HETATM   15  C14 UNL     1      -5.388  -3.372 -23.297  1.00  0.00     0.043 C 
HETATM   16  C15 UNL     1      -5.856  -3.315 -24.732  1.00  0.00     0.030 C 
HETATM   17  C16 UNL     1      -5.615  -1.904 -25.263  1.00  0.00     0.233 C 
HETATM   18  N5  UNL     1      -4.205  -1.580 -25.184  1.00  0.00    -0.068 N 
HETATM   19  C17 UNL     1      -3.835  -1.571 -23.784  1.00  0.00     0.226 C 
ATOM     20  H52 UNL     1      -3.622  -2.203 -25.745  1.00  0.00     0.277 HD
ATOM     21  H51 UNL     1      -3.970  -0.710 -25.663  1.00  0.00     0.277 HD
BRANCH  19  22
HETATM   22  C18 UNL     1      -2.427  -1.059 -23.588  1.00  0.00     0.080 C 
BRANCH  22  23
HETATM   23  C19 UNL     1      -1.806  -0.487 -24.789  1.00  0.00     0.060 C 
BRANCH  23  24
HETATM   24  N6  UNL     1      -1.309   0.807 -24.856  1.00  0.00    -0.388 N 
BRANCH  24  25
HETATM   25  C20 UNL     1      -1.947   1.708 -23.895  1.00  0.00     0.127 C 
BRANCH  25  26
HETATM   26  C21 UNL     1      -2.455   2.981 -24.395  1.00  0.00     0.003 A 
HETATM   27  C22 UNL     1      -2.215   4.333 -23.950  1.00  0.00     0.007 A 
HETATM   28  C23 UNL     1      -3.513   3.657 -23.512  1.00  0.00     0.007 A 
ENDBRANCH  25  26
ENDBRANCH  24  25
BRANCH  24  29
HETATM   29  C24 UNL     1      -1.097   1.478 -26.076  1.00  0.00     0.083 A 
HETATM   30  C25 UNL     1       0.215   1.941 -26.602  1.00  0.00     0.027 A 
HETATM   31  C26 UNL     1      -0.561   0.921 -27.321  1.00  0.00     0.027 A 
ENDBRANCH  24  29
ENDBRANCH  23  24
ENDBRANCH  22  23
ENDBRANCH  19  22
ENDBRANCH  13  14
ENDBRANCH   9  13
BRANCH   6  32
HETATM   32  N2  UNL     1      -3.844  -5.818 -18.388  1.00  0.00    -0.205 N 
ATOM     33  H2  UNL     1      -4.523  -5.368 -17.775  1.00  0.00     0.183 HD
BRANCH  32  34
HETATM   34  C6  UNL     1      -3.805  -7.218 -18.256  1.00  0.00     0.083 C 
BRANCH  34  35
HETATM   35  C7  UNL     1      -2.650  -7.686 -17.373  1.00  0.00     0.028 C 
HETATM   36  C8  UNL     1      -1.729  -8.499 -18.222  1.00  0.00     0.036 C 
HETATM   37  C9  UNL     1      -1.289  -9.765 -17.518  1.00  0.00     0.168 C 
HETATM   38  O2  UNL     1      -0.902  -9.358 -16.223  1.00  0.00    -0.391 OA
HETATM   39  C10 UNL     1      -2.092  -9.258 -15.505  1.00  0.00     0.168 C 
HETATM   40  C11 UNL     1      -3.087  -8.322 -16.102  1.00  0.00     0.036 C 
ENDBRANCH  34  35
ENDBRANCH  32  34
ENDBRANCH   6  32
BRANCH  12  41
HETATM   41  O3  UNL     1       1.169  -1.056 -21.341  1.00  0.00    -0.353 OA
HETATM   42  C30 UNL     1       1.185  -0.711 -22.682  1.00  0.00     0.210 C 
ENDBRANCH  12  41
BRANCH   1  43
HETATM   43  O1  UNL     1       1.979  -1.921 -18.906  1.00  0.00    -0.353 OA
HETATM   44  C1  UNL     1       2.639  -2.633 -17.883  1.00  0.00     0.210 C 
ENDBRANCH   1  43
TORSDOF 13
ENDMDL
