MODEL 1
REMARK VINA RESULT: -8.488432813      0.000      0.000
REMARK  12 active torsions:
REMARK  status: ('A' for Active; 'I' for Inactive)
REMARK    1  A    between atoms: C2_2  and  C3_3 
REMARK    2  A    between atoms: C3_3  and  N1_4 
REMARK       I    between atoms: N1_4  and  C4_6 
REMARK    3  A    between atoms: C4_6  and  C5_8 
REMARK    4  A    between atoms: C8_16  and  C9_17 
REMARK    5  A    between atoms: C9_17  and  C10_18 
REMARK    6  A    between atoms: C10_18  and  C11_19 
REMARK    7  A    between atoms: C13_22  and  N3_23 
REMARK       I    between atoms: N3_23  and  C14_25 
REMARK    8  A    between atoms: C14_25  and  C15_27 
REMARK    9  A    between atoms: C15_27  and  C16_28 
REMARK   10  A    between atoms: C18_30  and  O5_31 
REMARK   11  A    between atoms: C20_33  and  O6_34 
REMARK   12  A    between atoms: C22_36  and  O7_37 
ROOT
HETATM    1  C11 UNL     1      -2.488  -5.765 -19.665  1.00  0.00     0.018 A 
HETATM    2  C12 UNL     1      -3.667  -6.454 -19.646  1.00  0.00     0.078 A 
HETATM    3  S2  UNL     1      -4.303  -6.139 -21.197  1.00  0.00    -0.064 SA
HETATM    4  C13 UNL     1      -3.044  -5.155 -21.785  1.00  0.00     0.151 A 
HETATM    5  N4  UNL     1      -2.186  -5.108 -20.767  1.00  0.00    -0.340 N 
ATOM      6  H4  UNL     1      -1.318  -4.577 -20.839  1.00  0.00     0.168 HD
ENDROOT
BRANCH   1   7
HETATM    7  C10 UNL     1      -1.572  -5.769 -18.445  1.00  0.00     0.059 C 
BRANCH   7   8
HETATM    8  C9  UNL     1      -0.971  -4.418 -18.246  1.00  0.00     0.033 C 
BRANCH   8   9
HETATM    9  C8  UNL     1       0.292  -4.344 -17.475  1.00  0.00     0.111 C 
HETATM   10  C5  UNL     1       1.542  -4.265 -18.238  1.00  0.00     0.072 C 
HETATM   11  C6  UNL     1       1.598  -5.187 -19.439  1.00  0.00     0.029 C 
HETATM   12  C7  UNL     1       2.708  -4.684 -17.356  1.00  0.00     0.184 C 
HETATM   13  S1  UNL     1       1.911  -5.539 -16.034  1.00  0.00     0.228 S 
HETATM   14  O2  UNL     1       2.419  -6.945 -15.884  1.00  0.00    -0.206 OA
HETATM   15  O3  UNL     1       2.093  -4.779 -14.771  1.00  0.00    -0.206 OA
HETATM   16  N2  UNL     1       0.308  -5.521 -16.610  1.00  0.00    -0.313 N 
ATOM     17  H2  UNL     1      -0.450  -6.171 -16.404  1.00  0.00     0.172 HD
BRANCH  10  18
HETATM   18  C4  UNL     1       1.872  -2.882 -18.671  1.00  0.00     0.229 C 
HETATM   19  N1  UNL     1       1.215  -2.192 -19.720  1.00  0.00    -0.360 N 
ATOM     20  H1  UNL     1       0.470  -2.697 -20.200  1.00  0.00     0.162 HD
HETATM   21  O1  UNL     1       2.794  -2.277 -18.070  1.00  0.00    -0.273 OA
BRANCH  19  22
HETATM   22  C3  UNL     1       1.483  -0.870 -20.177  1.00  0.00     0.122 C 
BRANCH  22  23
HETATM   23  C2  UNL     1       0.534  -0.453 -21.248  1.00  0.00     0.015 C 
HETATM   24  C1  UNL     1       1.092  -0.745 -22.635  1.00  0.00     0.006 C 
ENDBRANCH  22  23
ENDBRANCH  19  22
ENDBRANCH  10  18
ENDBRANCH   8   9
ENDBRANCH   7   8
ENDBRANCH   1   7
BRANCH   4  25
HETATM   25  N3  UNL     1      -2.917  -4.566 -22.960  1.00  0.00    -0.307 N 
HETATM   26  C14 UNL     1      -2.177  -3.367 -22.987  1.00  0.00     0.227 C 
HETATM   27  O4  UNL     1      -1.030  -3.344 -23.499  1.00  0.00    -0.273 OA
ATOM     28  H3  UNL     1      -3.332  -4.959 -23.804  1.00  0.00     0.171 HD
BRANCH  26  29
HETATM   29  C15 UNL     1      -2.757  -2.139 -22.408  1.00  0.00     0.141 C 
BRANCH  29  30
HETATM   30  C16 UNL     1      -3.311  -1.264 -23.467  1.00  0.00    -0.044 A 
HETATM   31  C17 UNL     1      -4.579  -1.505 -23.951  1.00  0.00     0.047 A 
HETATM   32  C18 UNL     1      -5.094  -0.689 -24.939  1.00  0.00     0.104 A 
HETATM   33  C20 UNL     1      -4.369   0.355 -25.447  1.00  0.00     0.135 A 
HETATM   34  C22 UNL     1      -3.093   0.571 -24.937  1.00  0.00     0.104 A 
HETATM   35  C24 UNL     1      -2.564  -0.227 -23.956  1.00  0.00     0.047 A 
BRANCH  32  36
HETATM   36  O5  UNL     1      -6.391  -0.961 -25.413  1.00  0.00    -0.353 OA
HETATM   37  C19 UNL     1      -6.894  -2.282 -25.450  1.00  0.00     0.210 C 
ENDBRANCH  32  36
BRANCH  33  38
HETATM   38  O6  UNL     1      -4.922   1.149 -26.437  1.00  0.00    -0.351 OA
HETATM   39  C21 UNL     1      -4.756   0.883 -27.827  1.00  0.00     0.210 C 
ENDBRANCH  33  38
BRANCH  34  40
HETATM   40  O7  UNL     1      -2.358   1.625 -25.447  1.00  0.00    -0.353 OA
HETATM   41  C23 UNL     1      -2.278   2.889 -24.849  1.00  0.00     0.210 C 
ENDBRANCH  34  40
ENDBRANCH  29  30
ENDBRANCH  26  29
ENDBRANCH   4  25
TORSDOF 12
ENDMDL
MODEL 2
REMARK VINA RESULT: -8.483175076      0.096      2.120
REMARK  12 active torsions:
REMARK  status: ('A' for Active; 'I' for Inactive)
REMARK    1  A    between atoms: C2_2  and  C3_3 
REMARK    2  A    between atoms: C3_3  and  N1_4 
REMARK       I    between atoms: N1_4  and  C4_6 
REMARK    3  A    between atoms: C4_6  and  C5_8 
REMARK    4  A    between atoms: C8_16  and  C9_17 
REMARK    5  A    between atoms: C9_17  and  C10_18 
REMARK    6  A    between atoms: C10_18  and  C11_19 
REMARK    7  A    between atoms: C13_22  and  N3_23 
REMARK       I    between atoms: N3_23  and  C14_25 
REMARK    8  A    between atoms: C14_25  and  C15_27 
REMARK    9  A    between atoms: C15_27  and  C16_28 
REMARK   10  A    between atoms: C18_30  and  O5_31 
REMARK   11  A    between atoms: C20_33  and  O6_34 
REMARK   12  A    between atoms: C22_36  and  O7_37 
ROOT
HETATM    1  C11 UNL     1      -2.460  -5.761 -19.650  1.00  0.00     0.018 A 
HETATM    2  C12 UNL     1      -3.634  -6.460 -19.638  1.00  0.00     0.078 A 
HETATM    3  S2  UNL     1      -4.256  -6.162 -21.198  1.00  0.00    -0.064 SA
HETATM    4  C13 UNL     1      -3.000  -5.173 -21.781  1.00  0.00     0.151 A 
HETATM    5  N4  UNL     1      -2.152  -5.110 -20.754  1.00  0.00    -0.340 N 
ATOM      6  H4  UNL     1      -1.288  -4.572 -20.821  1.00  0.00     0.168 HD
ENDROOT
BRANCH   1   7
HETATM    7  C10 UNL     1      -1.557  -5.748 -18.421  1.00  0.00     0.059 C 
BRANCH   7   8
HETATM    8  C9  UNL     1      -0.953  -4.396 -18.238  1.00  0.00     0.033 C 
BRANCH   8   9
HETATM    9  C8  UNL     1       0.311  -4.315 -17.471  1.00  0.00     0.111 C 
HETATM   10  C5  UNL     1       1.560  -4.241 -18.237  1.00  0.00     0.072 C 
HETATM   11  C6  UNL     1       1.615  -5.172 -19.430  1.00  0.00     0.029 C 
HETATM   12  C7  UNL     1       2.729  -4.653 -17.354  1.00  0.00     0.184 C 
HETATM   13  S1  UNL     1       1.935  -5.498 -16.024  1.00  0.00     0.228 S 
HETATM   14  O2  UNL     1       2.444  -6.903 -15.864  1.00  0.00    -0.206 OA
HETATM   15  O3  UNL     1       2.119  -4.729 -14.766  1.00  0.00    -0.206 OA
HETATM   16  N2  UNL     1       0.330  -5.486 -16.597  1.00  0.00    -0.313 N 
ATOM     17  H2  UNL     1      -0.427  -6.135 -16.384  1.00  0.00     0.172 HD
BRANCH  10  18
HETATM   18  C4  UNL     1       1.888  -2.861 -18.680  1.00  0.00     0.229 C 
HETATM   19  N1  UNL     1       1.237  -2.184 -19.741  1.00  0.00    -0.360 N 
ATOM     20  H1  UNL     1       0.498  -2.697 -20.222  1.00  0.00     0.162 HD
HETATM   21  O1  UNL     1       2.803  -2.247 -18.078  1.00  0.00    -0.273 OA
BRANCH  19  22
HETATM   22  C3  UNL     1       1.504  -0.865 -20.209  1.00  0.00     0.122 C 
BRANCH  22  23
HETATM   23  C2  UNL     1       0.537  -0.447 -21.264  1.00  0.00     0.015 C 
HETATM   24  C1  UNL     1       1.082  -0.715 -22.661  1.00  0.00     0.006 C 
ENDBRANCH  22  23
ENDBRANCH  19  22
ENDBRANCH  10  18
ENDBRANCH   8   9
ENDBRANCH   7   8
ENDBRANCH   1   7
BRANCH   4  25
HETATM   25  N3  UNL     1      -2.865  -4.591 -22.958  1.00  0.00    -0.307 N 
HETATM   26  C14 UNL     1      -2.133  -3.388 -22.988  1.00  0.00     0.227 C 
HETATM   27  O4  UNL     1      -0.981  -3.360 -23.490  1.00  0.00    -0.273 OA
ATOM     28  H3  UNL     1      -3.271  -4.993 -23.804  1.00  0.00     0.171 HD
BRANCH  26  29
HETATM   29  C15 UNL     1      -2.727  -2.159 -22.424  1.00  0.00     0.141 C 
BRANCH  29  30
HETATM   30  C16 UNL     1      -3.335  -1.327 -23.488  1.00  0.00    -0.044 A 
HETATM   31  C17 UNL     1      -2.609  -0.292 -24.037  1.00  0.00     0.047 A 
HETATM   32  C18 UNL     1      -3.177   0.484 -25.028  1.00  0.00     0.104 A 
HETATM   33  C20 UNL     1      -4.448   0.242 -25.477  1.00  0.00     0.135 A 
HETATM   34  C22 UNL     1      -5.153  -0.810 -24.903  1.00  0.00     0.104 A 
HETATM   35  C24 UNL     1      -4.607  -1.591 -23.918  1.00  0.00     0.047 A 
BRANCH  32  36
HETATM   36  O5  UNL     1      -2.411   1.533 -25.568  1.00  0.00    -0.353 OA
HETATM   37  C19 UNL     1      -2.152   2.708 -24.824  1.00  0.00     0.210 C 
ENDBRANCH  32  36
BRANCH  33  38
HETATM   38  O6  UNL     1      -4.979   1.043 -26.473  1.00  0.00    -0.351 OA
HETATM   39  C21 UNL     1      -4.970   0.677 -27.850  1.00  0.00     0.210 C 
ENDBRANCH  33  38
BRANCH  34  40
HETATM   40  O7  UNL     1      -6.436  -1.057 -25.355  1.00  0.00    -0.353 OA
HETATM   41  C23 UNL     1      -6.966  -2.338 -25.555  1.00  0.00     0.210 C 
ENDBRANCH  34  40
ENDBRANCH  29  30
ENDBRANCH  26  29
ENDBRANCH   4  25
TORSDOF 12
ENDMDL
MODEL 3
REMARK VINA RESULT: -8.467276818      2.785      9.348
REMARK  12 active torsions:
REMARK  status: ('A' for Active; 'I' for Inactive)
REMARK    1  A    between atoms: C2_2  and  C3_3 
REMARK    2  A    between atoms: C3_3  and  N1_4 
REMARK       I    between atoms: N1_4  and  C4_6 
REMARK    3  A    between atoms: C4_6  and  C5_8 
REMARK    4  A    between atoms: C8_16  and  C9_17 
REMARK    5  A    between atoms: C9_17  and  C10_18 
REMARK    6  A    between atoms: C10_18  and  C11_19 
REMARK    7  A    between atoms: C13_22  and  N3_23 
REMARK       I    between atoms: N3_23  and  C14_25 
REMARK    8  A    between atoms: C14_25  and  C15_27 
REMARK    9  A    between atoms: C15_27  and  C16_28 
REMARK   10  A    between atoms: C18_30  and  O5_31 
REMARK   11  A    between atoms: C20_33  and  O6_34 
REMARK   12  A    between atoms: C22_36  and  O7_37 
ROOT
HETATM    1  C11 UNL     1      -2.154  -2.454 -21.730  1.00  0.00     0.018 A 
HETATM    2  C12 UNL     1      -1.408  -3.037 -22.715  1.00  0.00     0.078 A 
HETATM    3  S2  UNL     1      -1.908  -4.666 -22.641  1.00  0.00    -0.064 SA
HETATM    4  C13 UNL     1      -3.032  -4.522 -21.370  1.00  0.00     0.151 A 
HETATM    5  N4  UNL     1      -2.978  -3.229 -21.054  1.00  0.00    -0.340 N 
ATOM      6  H4  UNL     1      -3.561  -2.848 -20.307  1.00  0.00     0.168 HD
ENDROOT
BRANCH   1   7
HETATM    7  C10 UNL     1      -2.018  -0.962 -21.439  1.00  0.00     0.059 C 
BRANCH   7   8
HETATM    8  C9  UNL     1      -1.487  -0.248 -22.636  1.00  0.00     0.033 C 
BRANCH   8   9
HETATM    9  C8  UNL     1      -2.459   0.497 -23.469  1.00  0.00     0.111 C 
HETATM   10  C5  UNL     1      -2.699   0.001 -24.828  1.00  0.00     0.072 C 
HETATM   11  C6  UNL     1      -1.447  -0.427 -25.565  1.00  0.00     0.029 C 
HETATM   12  C7  UNL     1      -3.305   1.109 -25.678  1.00  0.00     0.184 C 
HETATM   13  S1  UNL     1      -2.934   2.562 -24.748  1.00  0.00     0.228 S 
HETATM   14  O2  UNL     1      -2.151   3.561 -25.552  1.00  0.00    -0.206 OA
HETATM   15  O3  UNL     1      -4.196   3.167 -24.248  1.00  0.00    -0.206 OA
HETATM   16  N2  UNL     1      -1.977   1.875 -23.517  1.00  0.00    -0.313 N 
ATOM     17  H2  UNL     1      -1.249   2.316 -22.955  1.00  0.00     0.172 HD
BRANCH  10  18
HETATM   18  C4  UNL     1      -3.694  -1.101 -24.877  1.00  0.00     0.229 C 
HETATM   19  N1  UNL     1      -3.823  -2.017 -25.950  1.00  0.00    -0.360 N 
ATOM     20  H1  UNL     1      -3.182  -1.893 -26.734  1.00  0.00     0.162 HD
HETATM   21  O1  UNL     1      -4.477  -1.237 -23.904  1.00  0.00    -0.273 OA
BRANCH  19  22
HETATM   22  C3  UNL     1      -4.751  -3.093 -26.053  1.00  0.00     0.122 C 
BRANCH  22  23
HETATM   23  C2  UNL     1      -6.062  -2.641 -26.602  1.00  0.00     0.015 C 
HETATM   24  C1  UNL     1      -7.157  -2.684 -25.544  1.00  0.00     0.006 C 
ENDBRANCH  22  23
ENDBRANCH  19  22
ENDBRANCH  10  18
ENDBRANCH   8   9
ENDBRANCH   7   8
ENDBRANCH   1   7
BRANCH   4  25
HETATM   25  N3  UNL     1      -3.789  -5.447 -20.810  1.00  0.00    -0.307 N 
HETATM   26  C14 UNL     1      -3.379  -5.918 -19.547  1.00  0.00     0.227 C 
HETATM   27  O4  UNL     1      -4.016  -5.594 -18.514  1.00  0.00    -0.273 OA
ATOM     28  H3  UNL     1      -4.628  -5.802 -21.268  1.00  0.00     0.171 HD
BRANCH  26  29
HETATM   29  C15 UNL     1      -2.195  -6.794 -19.446  1.00  0.00     0.141 C 
BRANCH  29  30
HETATM   30  C16 UNL     1      -1.193  -6.226 -18.515  1.00  0.00    -0.044 A 
HETATM   31  C17 UNL     1      -0.759  -6.978 -17.444  1.00  0.00     0.047 A 
HETATM   32  C18 UNL     1       0.175  -6.447 -16.576  1.00  0.00     0.104 A 
HETATM   33  C20 UNL     1       0.679  -5.187 -16.761  1.00  0.00     0.135 A 
HETATM   34  C22 UNL     1       0.221  -4.455 -17.851  1.00  0.00     0.104 A 
HETATM   35  C24 UNL     1      -0.705  -4.964 -18.723  1.00  0.00     0.047 A 
BRANCH  32  36
HETATM   36  O5  UNL     1       0.597  -7.238 -15.493  1.00  0.00    -0.353 OA
HETATM   37  C19 UNL     1       1.576  -8.245 -15.660  1.00  0.00     0.210 C 
ENDBRANCH  32  36
BRANCH  33  38
HETATM   38  O6  UNL     1       1.614  -4.693 -15.868  1.00  0.00    -0.351 OA
HETATM   39  C21 UNL     1       3.017  -4.736 -16.112  1.00  0.00     0.210 C 
ENDBRANCH  33  38
BRANCH  34  40
HETATM   40  O7  UNL     1       0.729  -3.183 -18.040  1.00  0.00    -0.353 OA
HETATM   41  C23 UNL     1       0.730  -2.513 -19.271  1.00  0.00     0.210 C 
ENDBRANCH  34  40
ENDBRANCH  29  30
ENDBRANCH  26  29
ENDBRANCH   4  25
TORSDOF 12
ENDMDL
MODEL 4
REMARK VINA RESULT: -8.461992945      2.976      8.792
REMARK  12 active torsions:
REMARK  status: ('A' for Active; 'I' for Inactive)
REMARK    1  A    between atoms: C2_2  and  C3_3 
REMARK    2  A    between atoms: C3_3  and  N1_4 
REMARK       I    between atoms: N1_4  and  C4_6 
REMARK    3  A    between atoms: C4_6  and  C5_8 
REMARK    4  A    between atoms: C8_16  and  C9_17 
REMARK    5  A    between atoms: C9_17  and  C10_18 
REMARK    6  A    between atoms: C10_18  and  C11_19 
REMARK    7  A    between atoms: C13_22  and  N3_23 
REMARK       I    between atoms: N3_23  and  C14_25 
REMARK    8  A    between atoms: C14_25  and  C15_27 
REMARK    9  A    between atoms: C15_27  and  C16_28 
REMARK   10  A    between atoms: C18_30  and  O5_31 
REMARK   11  A    between atoms: C20_33  and  O6_34 
REMARK   12  A    between atoms: C22_36  and  O7_37 
ROOT
HETATM    1  C11 UNL     1      -0.088  -0.466 -20.646  1.00  0.00     0.018 A 
HETATM    2  C12 UNL     1       1.220  -0.180 -20.913  1.00  0.00     0.078 A 
HETATM    3  S2  UNL     1       2.051  -1.264 -19.892  1.00  0.00    -0.064 SA
HETATM    4  C13 UNL     1       0.701  -2.022 -19.185  1.00  0.00     0.151 A 
HETATM    5  N4  UNL     1      -0.334  -1.411 -19.761  1.00  0.00    -0.340 N 
ATOM      6  H4  UNL     1      -1.293  -1.669 -19.522  1.00  0.00     0.168 HD
ENDROOT
BRANCH   1   7
HETATM    7  C10 UNL     1      -1.205   0.293 -21.356  1.00  0.00     0.059 C 
BRANCH   7   8
HETATM    8  C9  UNL     1      -1.310  -0.150 -22.776  1.00  0.00     0.033 C 
BRANCH   8   9
HETATM    9  C8  UNL     1      -2.333   0.510 -23.620  1.00  0.00     0.111 C 
HETATM   10  C5  UNL     1      -2.592  -0.071 -24.941  1.00  0.00     0.072 C 
HETATM   11  C6  UNL     1      -1.345  -0.494 -25.691  1.00  0.00     0.029 C 
HETATM   12  C7  UNL     1      -3.263   0.964 -25.833  1.00  0.00     0.184 C 
HETATM   13  S1  UNL     1      -2.923   2.480 -24.997  1.00  0.00     0.228 S 
HETATM   14  O2  UNL     1      -2.201   3.460 -25.879  1.00  0.00    -0.206 OA
HETATM   15  O3  UNL     1      -4.192   3.065 -24.494  1.00  0.00    -0.206 OA
HETATM   16  N2  UNL     1      -1.906   1.900 -23.760  1.00  0.00    -0.313 N 
ATOM     17  H2  UNL     1      -1.180   2.399 -23.245  1.00  0.00     0.172 HD
BRANCH  10  18
HETATM   18  C4  UNL     1      -3.544  -1.210 -24.899  1.00  0.00     0.229 C 
HETATM   19  N1  UNL     1      -3.853  -2.039 -26.005  1.00  0.00    -0.360 N 
ATOM     20  H1  UNL     1      -3.380  -1.821 -26.883  1.00  0.00     0.162 HD
HETATM   21  O1  UNL     1      -4.119  -1.462 -23.810  1.00  0.00    -0.273 OA
BRANCH  19  22
HETATM   22  C3  UNL     1      -4.751  -3.144 -26.026  1.00  0.00     0.122 C 
BRANCH  22  23
HETATM   23  C2  UNL     1      -6.111  -2.742 -26.484  1.00  0.00     0.015 C 
HETATM   24  C1  UNL     1      -7.102  -2.701 -25.328  1.00  0.00     0.006 C 
ENDBRANCH  22  23
ENDBRANCH  19  22
ENDBRANCH  10  18
ENDBRANCH   8   9
ENDBRANCH   7   8
ENDBRANCH   1   7
BRANCH   4  25
HETATM   25  N3  UNL     1       0.654  -2.984 -18.282  1.00  0.00    -0.307 N 
HETATM   26  C14 UNL     1       1.599  -4.021 -18.416  1.00  0.00     0.227 C 
HETATM   27  O4  UNL     1       2.562  -4.107 -17.613  1.00  0.00    -0.273 OA
ATOM     28  H3  UNL     1      -0.031  -2.977 -17.527  1.00  0.00     0.171 HD
BRANCH  26  29
HETATM   29  C15 UNL     1       1.451  -5.006 -19.506  1.00  0.00     0.141 C 
BRANCH  29  30
HETATM   30  C16 UNL     1       0.027  -5.357 -19.713  1.00  0.00    -0.044 A 
HETATM   31  C17 UNL     1      -0.652  -6.044 -18.730  1.00  0.00     0.047 A 
HETATM   32  C18 UNL     1      -1.979  -6.372 -18.924  1.00  0.00     0.104 A 
HETATM   33  C20 UNL     1      -2.634  -6.027 -20.076  1.00  0.00     0.135 A 
HETATM   34  C22 UNL     1      -1.920  -5.334 -21.048  1.00  0.00     0.104 A 
HETATM   35  C24 UNL     1      -0.602  -4.999 -20.874  1.00  0.00     0.047 A 
BRANCH  32  36
HETATM   36  O5  UNL     1      -2.644  -7.074 -17.902  1.00  0.00    -0.353 OA
HETATM   37  C19 UNL     1      -2.457  -8.465 -17.728  1.00  0.00     0.210 C 
ENDBRANCH  32  36
BRANCH  33  38
HETATM   38  O6  UNL     1      -3.964  -6.375 -20.231  1.00  0.00    -0.351 OA
HETATM   39  C21 UNL     1      -4.381  -7.598 -20.830  1.00  0.00     0.210 C 
ENDBRANCH  33  38
BRANCH  34  40
HETATM   40  O7  UNL     1      -2.579  -4.984 -22.213  1.00  0.00    -0.353 OA
HETATM   41  C23 UNL     1      -1.971  -4.329 -23.292  1.00  0.00     0.210 C 
ENDBRANCH  34  40
ENDBRANCH  29  30
ENDBRANCH  26  29
ENDBRANCH   4  25
TORSDOF 12
ENDMDL
MODEL 5
REMARK VINA RESULT: -8.455759171      2.981      8.901
REMARK  12 active torsions:
REMARK  status: ('A' for Active; 'I' for Inactive)
REMARK    1  A    between atoms: C2_2  and  C3_3 
REMARK    2  A    between atoms: C3_3  and  N1_4 
REMARK       I    between atoms: N1_4  and  C4_6 
REMARK    3  A    between atoms: C4_6  and  C5_8 
REMARK    4  A    between atoms: C8_16  and  C9_17 
REMARK    5  A    between atoms: C9_17  and  C10_18 
REMARK    6  A    between atoms: C10_18  and  C11_19 
REMARK    7  A    between atoms: C13_22  and  N3_23 
REMARK       I    between atoms: N3_23  and  C14_25 
REMARK    8  A    between atoms: C14_25  and  C15_27 
REMARK    9  A    between atoms: C15_27  and  C16_28 
REMARK   10  A    between atoms: C18_30  and  O5_31 
REMARK   11  A    between atoms: C20_33  and  O6_34 
REMARK   12  A    between atoms: C22_36  and  O7_37 
ROOT
HETATM    1  C11 UNL     1      -0.084  -0.474 -20.662  1.00  0.00     0.018 A 
HETATM    2  C12 UNL     1       1.224  -0.195 -20.938  1.00  0.00     0.078 A 
HETATM    3  S2  UNL     1       2.056  -1.271 -19.909  1.00  0.00    -0.064 SA
HETATM    4  C13 UNL     1       0.707  -2.016 -19.187  1.00  0.00     0.151 A 
HETATM    5  N4  UNL     1      -0.329  -1.409 -19.764  1.00  0.00    -0.340 N 
ATOM      6  H4  UNL     1      -1.287  -1.660 -19.518  1.00  0.00     0.168 HD
ENDROOT
BRANCH   1   7
HETATM    7  C10 UNL     1      -1.202   0.280 -21.374  1.00  0.00     0.059 C 
BRANCH   7   8
HETATM    8  C9  UNL     1      -1.293  -0.154 -22.798  1.00  0.00     0.033 C 
BRANCH   8   9
HETATM    9  C8  UNL     1      -2.321   0.498 -23.643  1.00  0.00     0.111 C 
HETATM   10  C5  UNL     1      -2.574  -0.085 -24.965  1.00  0.00     0.072 C 
HETATM   11  C6  UNL     1      -1.323  -0.497 -25.714  1.00  0.00     0.029 C 
HETATM   12  C7  UNL     1      -3.253   0.944 -25.857  1.00  0.00     0.184 C 
HETATM   13  S1  UNL     1      -2.927   2.463 -25.020  1.00  0.00     0.228 S 
HETATM   14  O2  UNL     1      -2.214   3.449 -25.901  1.00  0.00    -0.206 OA
HETATM   15  O3  UNL     1      -4.202   3.036 -24.518  1.00  0.00    -0.206 OA
HETATM   16  N2  UNL     1      -1.907   1.891 -23.782  1.00  0.00    -0.313 N 
ATOM     17  H2  UNL     1      -1.186   2.397 -23.267  1.00  0.00     0.172 HD
BRANCH  10  18
HETATM   18  C4  UNL     1      -3.516  -1.233 -24.923  1.00  0.00     0.229 C 
HETATM   19  N1  UNL     1      -3.871  -2.020 -26.047  1.00  0.00    -0.360 N 
ATOM     20  H1  UNL     1      -3.442  -1.763 -26.936  1.00  0.00     0.162 HD
HETATM   21  O1  UNL     1      -4.037  -1.533 -23.820  1.00  0.00    -0.273 OA
BRANCH  19  22
HETATM   22  C3  UNL     1      -4.762  -3.130 -26.069  1.00  0.00     0.122 C 
BRANCH  22  23
HETATM   23  C2  UNL     1      -6.129  -2.733 -26.516  1.00  0.00     0.015 C 
HETATM   24  C1  UNL     1      -7.099  -2.652 -25.345  1.00  0.00     0.006 C 
ENDBRANCH  22  23
ENDBRANCH  19  22
ENDBRANCH  10  18
ENDBRANCH   8   9
ENDBRANCH   7   8
ENDBRANCH   1   7
BRANCH   4  25
HETATM   25  N3  UNL     1       0.661  -2.968 -18.273  1.00  0.00    -0.307 N 
HETATM   26  C14 UNL     1       1.602  -4.010 -18.400  1.00  0.00     0.227 C 
HETATM   27  O4  UNL     1       2.568  -4.090 -17.602  1.00  0.00    -0.273 OA
ATOM     28  H3  UNL     1      -0.019  -2.950 -17.514  1.00  0.00     0.171 HD
BRANCH  26  29
HETATM   29  C15 UNL     1       1.444  -5.006 -19.478  1.00  0.00     0.141 C 
BRANCH  29  30
HETATM   30  C16 UNL     1       0.021  -5.379 -19.652  1.00  0.00    -0.044 A 
HETATM   31  C17 UNL     1      -0.636  -5.025 -20.811  1.00  0.00     0.047 A 
HETATM   32  C18 UNL     1      -1.963  -5.372 -20.972  1.00  0.00     0.104 A 
HETATM   33  C20 UNL     1      -2.639  -6.062 -20.001  1.00  0.00     0.135 A 
HETATM   34  C22 UNL     1      -1.947  -6.404 -18.844  1.00  0.00     0.104 A 
HETATM   35  C24 UNL     1      -0.630  -6.069 -18.666  1.00  0.00     0.047 A 
BRANCH  32  36
HETATM   36  O5  UNL     1      -2.605  -4.996 -22.166  1.00  0.00    -0.353 OA
HETATM   37  C19 UNL     1      -1.889  -4.385 -23.221  1.00  0.00     0.210 C 
ENDBRANCH  32  36
BRANCH  33  38
HETATM   38  O6  UNL     1      -3.968  -6.390 -20.202  1.00  0.00    -0.351 OA
HETATM   39  C21 UNL     1      -4.381  -7.612 -20.807  1.00  0.00     0.210 C 
ENDBRANCH  33  38
BRANCH  34  40
HETATM   40  O7  UNL     1      -2.626  -7.101 -17.862  1.00  0.00    -0.353 OA
HETATM   41  C23 UNL     1      -2.494  -8.478 -17.642  1.00  0.00     0.210 C 
ENDBRANCH  34  40
ENDBRANCH  29  30
ENDBRANCH  26  29
ENDBRANCH   4  25
TORSDOF 12
ENDMDL
