MODEL 1
REMARK VINA RESULT: -7.369028827      0.000      0.000
REMARK  5 active torsions:
REMARK  status: ('A' for Active; 'I' for Inactive)
REMARK    1  A    between atoms: C2_2  and  O1_3 
REMARK    2  A    between atoms: O1_3  and  C3_4 
REMARK    3  A    between atoms: C3_4  and  C4_6 
REMARK    4  A    between atoms: C4_6  and  O3_7 
REMARK    5  A    between atoms: O3_7  and  C5_8 
REMARK       I    between atoms: C5_8  and  N1_10 
ROOT
HETATM    1  C5  UNL     1      22.821  24.859  13.339  1.00  0.00     0.363 C 
HETATM    2  O4  UNL     1      22.264  23.796  13.708  1.00  0.00    -0.238 OA
HETATM    3  N1  UNL     1      22.671  26.033  14.099  1.00  0.00    -0.328 N 
HETATM    4  C6  UNL     1      21.877  26.010  15.300  1.00  0.00     0.128 C 
HETATM    5  C7  UNL     1      22.510  26.723  16.454  1.00  0.00     0.020 C 
HETATM    6  C8  UNL     1      23.062  28.073  16.054  1.00  0.00     0.003 C 
HETATM    7  C9  UNL     1      24.074  27.802  14.935  1.00  0.00     0.020 C 
HETATM    8  C10 UNL     1      23.281  27.300  13.740  1.00  0.00     0.128 C 
ENDROOT
BRANCH   1   9
HETATM    9  O3  UNL     1      23.569  24.797  12.172  1.00  0.00    -0.294 OA
BRANCH   9  10
HETATM   10  C4  UNL     1      24.423  23.767  11.793  1.00  0.00     0.291 C 
BRANCH  10  11
HETATM   11  C3  UNL     1      25.871  24.099  11.888  1.00  0.00     0.287 C 
HETATM   12  O2  UNL     1      26.427  24.533  10.853  1.00  0.00    -0.262 OA
BRANCH  11  13
HETATM   13  O1  UNL     1      26.621  23.967  13.007  1.00  0.00    -0.290 OA
BRANCH  13  14
HETATM   14  C2  UNL     1      26.444  24.463  14.269  1.00  0.00     0.135 C 
HETATM   15  C1  UNL     1      25.754  23.980  15.257  1.00  0.00     0.038 C 
ENDBRANCH  13  14
ENDBRANCH  11  13
ENDBRANCH  10  11
ENDBRANCH   9  10
ENDBRANCH   1   9
TORSDOF 5
ENDMDL
MODEL 2
REMARK VINA RESULT: -7.314881974      1.061      1.916
REMARK  5 active torsions:
REMARK  status: ('A' for Active; 'I' for Inactive)
REMARK    1  A    between atoms: C2_2  and  O1_3 
REMARK    2  A    between atoms: O1_3  and  C3_4 
REMARK    3  A    between atoms: C3_4  and  C4_6 
REMARK    4  A    between atoms: C4_6  and  O3_7 
REMARK    5  A    between atoms: O3_7  and  C5_8 
REMARK       I    between atoms: C5_8  and  N1_10 
ROOT
HETATM    1  C5  UNL     1      23.960  26.017  12.929  1.00  0.00     0.363 C 
HETATM    2  O4  UNL     1      24.522  27.086  12.585  1.00  0.00    -0.238 OA
HETATM    3  N1  UNL     1      23.524  25.846  14.254  1.00  0.00    -0.328 N 
HETATM    4  C6  UNL     1      23.725  26.900  15.215  1.00  0.00     0.128 C 
HETATM    5  C7  UNL     1      22.531  27.165  16.078  1.00  0.00     0.020 C 
HETATM    6  C8  UNL     1      21.925  25.889  16.616  1.00  0.00     0.003 C 
HETATM    7  C9  UNL     1      21.559  25.042  15.392  1.00  0.00     0.020 C 
HETATM    8  C10 UNL     1      22.867  24.642  14.730  1.00  0.00     0.128 C 
ENDROOT
BRANCH   1   9
HETATM    9  O3  UNL     1      23.803  25.051  11.945  1.00  0.00    -0.294 OA
BRANCH   9  10
HETATM   10  C4  UNL     1      24.532  23.873  11.823  1.00  0.00     0.291 C 
BRANCH  10  11
HETATM   11  C3  UNL     1      26.010  24.056  11.856  1.00  0.00     0.287 C 
HETATM   12  O2  UNL     1      26.551  24.525  10.829  1.00  0.00    -0.262 OA
BRANCH  11  13
HETATM   13  O1  UNL     1      26.801  23.752  12.911  1.00  0.00    -0.290 OA
BRANCH  13  14
HETATM   14  C2  UNL     1      26.831  24.255  14.183  1.00  0.00     0.135 C 
HETATM   15  C1  UNL     1      26.404  23.727  15.290  1.00  0.00     0.038 C 
ENDBRANCH  13  14
ENDBRANCH  11  13
ENDBRANCH  10  11
ENDBRANCH   9  10
ENDBRANCH   1   9
TORSDOF 5
ENDMDL
MODEL 3
REMARK VINA RESULT: -6.936061864      1.460      2.439
REMARK  5 active torsions:
REMARK  status: ('A' for Active; 'I' for Inactive)
REMARK    1  A    between atoms: C2_2  and  O1_3 
REMARK    2  A    between atoms: O1_3  and  C3_4 
REMARK    3  A    between atoms: C3_4  and  C4_6 
REMARK    4  A    between atoms: C4_6  and  O3_7 
REMARK    5  A    between atoms: O3_7  and  C5_8 
REMARK       I    between atoms: C5_8  and  N1_10 
ROOT
HETATM    1  C5  UNL     1      25.221  24.817  14.819  1.00  0.00     0.363 C 
HETATM    2  O4  UNL     1      25.285  23.818  15.576  1.00  0.00    -0.238 OA
HETATM    3  N1  UNL     1      24.098  25.662  14.861  1.00  0.00    -0.328 N 
HETATM    4  C6  UNL     1      23.022  25.376  15.776  1.00  0.00     0.128 C 
HETATM    5  C7  UNL     1      22.515  26.580  16.505  1.00  0.00     0.020 C 
HETATM    6  C8  UNL     1      22.297  27.755  15.579  1.00  0.00     0.003 C 
HETATM    7  C9  UNL     1      23.651  28.028  14.913  1.00  0.00     0.020 C 
HETATM    8  C10 UNL     1      23.948  26.835  14.020  1.00  0.00     0.128 C 
ENDROOT
BRANCH   1   9
HETATM    9  O3  UNL     1      26.297  25.024  13.968  1.00  0.00    -0.294 OA
BRANCH   9  10
HETATM   10  C4  UNL     1      26.783  24.128  13.022  1.00  0.00     0.291 C 
BRANCH  10  11
HETATM   11  C3  UNL     1      26.028  24.116  11.738  1.00  0.00     0.287 C 
HETATM   12  O2  UNL     1      26.509  24.776  10.787  1.00  0.00    -0.262 OA
BRANCH  11  13
HETATM   13  O1  UNL     1      24.871  23.448  11.530  1.00  0.00    -0.290 OA
BRANCH  13  14
HETATM   14  C2  UNL     1      23.589  23.734  11.912  1.00  0.00     0.135 C 
HETATM   15  C1  UNL     1      22.743  24.576  11.400  1.00  0.00     0.038 C 
ENDBRANCH  13  14
ENDBRANCH  11  13
ENDBRANCH  10  11
ENDBRANCH   9  10
ENDBRANCH   1   9
TORSDOF 5
ENDMDL
MODEL 4
REMARK VINA RESULT: -6.892435496      1.548      2.383
REMARK  5 active torsions:
REMARK  status: ('A' for Active; 'I' for Inactive)
REMARK    1  A    between atoms: C2_2  and  O1_3 
REMARK    2  A    between atoms: O1_3  and  C3_4 
REMARK    3  A    between atoms: C3_4  and  C4_6 
REMARK    4  A    between atoms: C4_6  and  O3_7 
REMARK    5  A    between atoms: O3_7  and  C5_8 
REMARK       I    between atoms: C5_8  and  N1_10 
ROOT
HETATM    1  C5  UNL     1      24.219  27.008  13.613  1.00  0.00     0.363 C 
HETATM    2  O4  UNL     1      24.651  28.110  14.032  1.00  0.00    -0.238 OA
HETATM    3  N1  UNL     1      23.510  26.155  14.476  1.00  0.00    -0.328 N 
HETATM    4  C6  UNL     1      23.283  26.549  15.843  1.00  0.00     0.128 C 
HETATM    5  C7  UNL     1      21.887  26.294  16.319  1.00  0.00     0.020 C 
HETATM    6  C8  UNL     1      21.402  24.912  15.942  1.00  0.00     0.003 C 
HETATM    7  C9  UNL     1      21.500  24.830  14.414  1.00  0.00     0.020 C 
HETATM    8  C10 UNL     1      22.979  24.867  14.069  1.00  0.00     0.128 C 
ENDROOT
BRANCH   1   9
HETATM    9  O3  UNL     1      24.479  26.703  12.284  1.00  0.00    -0.294 OA
BRANCH   9  10
HETATM   10  C4  UNL     1      25.725  26.427  11.731  1.00  0.00     0.291 C 
BRANCH  10  11
HETATM   11  C3  UNL     1      26.119  24.992  11.781  1.00  0.00     0.287 C 
HETATM   12  O2  UNL     1      26.409  24.441  10.693  1.00  0.00    -0.262 OA
BRANCH  11  13
HETATM   13  O1  UNL     1      26.185  24.249  12.909  1.00  0.00    -0.290 OA
BRANCH  13  14
HETATM   14  C2  UNL     1      26.720  24.529  14.137  1.00  0.00     0.135 C 
HETATM   15  C1  UNL     1      26.731  23.807  15.216  1.00  0.00     0.038 C 
ENDBRANCH  13  14
ENDBRANCH  11  13
ENDBRANCH  10  11
ENDBRANCH   9  10
ENDBRANCH   1   9
TORSDOF 5
ENDMDL
MODEL 5
REMARK VINA RESULT: -6.889121337      1.610      2.929
REMARK  5 active torsions:
REMARK  status: ('A' for Active; 'I' for Inactive)
REMARK    1  A    between atoms: C2_2  and  O1_3 
REMARK    2  A    between atoms: O1_3  and  C3_4 
REMARK    3  A    between atoms: C3_4  and  C4_6 
REMARK    4  A    between atoms: C4_6  and  O3_7 
REMARK    5  A    between atoms: O3_7  and  C5_8 
REMARK       I    between atoms: C5_8  and  N1_10 
ROOT
HETATM    1  C5  UNL     1      25.411  26.035  14.103  1.00  0.00     0.363 C 
HETATM    2  O4  UNL     1      26.111  26.881  13.494  1.00  0.00    -0.238 OA
HETATM    3  N1  UNL     1      24.218  26.430  14.733  1.00  0.00    -0.328 N 
HETATM    4  C6  UNL     1      23.802  27.808  14.677  1.00  0.00     0.128 C 
HETATM    5  C7  UNL     1      22.346  27.986  14.376  1.00  0.00     0.020 C 
HETATM    6  C8  UNL     1      21.478  27.069  15.208  1.00  0.00     0.003 C 
HETATM    7  C9  UNL     1      21.948  25.643  14.897  1.00  0.00     0.020 C 
HETATM    8  C10 UNL     1      23.354  25.514  15.456  1.00  0.00     0.128 C 
ENDROOT
BRANCH   1   9
HETATM    9  O3  UNL     1      25.880  24.729  14.111  1.00  0.00    -0.294 OA
BRANCH   9  10
HETATM   10  C4  UNL     1      26.649  24.124  13.122  1.00  0.00     0.291 C 
BRANCH  10  11
HETATM   11  C3  UNL     1      25.981  24.023  11.795  1.00  0.00     0.287 C 
HETATM   12  O2  UNL     1      26.539  24.593  10.830  1.00  0.00    -0.262 OA
BRANCH  11  13
HETATM   13  O1  UNL     1      24.823  23.363  11.563  1.00  0.00    -0.290 OA
BRANCH  13  14
HETATM   14  C2  UNL     1      23.528  23.694  11.853  1.00  0.00     0.135 C 
HETATM   15  C1  UNL     1      22.842  24.735  11.492  1.00  0.00     0.038 C 
ENDBRANCH  13  14
ENDBRANCH  11  13
ENDBRANCH  10  11
ENDBRANCH   9  10
ENDBRANCH   1   9
TORSDOF 5
ENDMDL
