MODEL 1
REMARK VINA RESULT: -4.939961136      0.000      0.000
REMARK  3 active torsions:
REMARK  status: ('A' for Active; 'I' for Inactive)
REMARK    1  A    between atoms: N1_1  and  C1_5 
REMARK    2  A    between atoms: C1_5  and  C2_6 
REMARK    3  A    between atoms: C9_14  and  N2_15 
ROOT
HETATM    1  C2  UNL     1      -3.121   4.173  12.307  1.00  0.00     0.044 C 
HETATM    2  C3  UNL     1      -3.893   3.578  13.448  1.00  0.00     0.011 C 
HETATM    3  C4  UNL     1      -4.613   2.374  12.901  1.00  0.00     0.041 C 
HETATM    4  C5  UNL     1      -3.718   1.939  11.761  1.00  0.00     0.089 C 
HETATM    5  C6  UNL     1      -4.411   1.007  10.812  1.00  0.00     0.042 C 
HETATM    6  C7  UNL     1      -3.307   0.005  10.497  1.00  0.00     0.029 C 
HETATM    7  C8  UNL     1      -2.070   0.595  11.155  1.00  0.00     0.169 C 
HETATM    8  O1  UNL     1      -2.611   1.271  12.229  1.00  0.00    -0.378 OA
HETATM    9  C9  UNL     1      -3.315   3.240  11.123  1.00  0.00     0.223 C 
ENDROOT
BRANCH   1  10
HETATM   10  C1  UNL     1      -1.635   4.230  12.576  1.00  0.00     0.236 C 
BRANCH  10  11
HETATM   11  N1  UNL     1      -1.277   3.708  13.867  1.00  0.00    -0.079 N 
ATOM     12  H13 UNL     1      -0.959   4.454  14.486  1.00  0.00     0.274 HD
ATOM     13  H12 UNL     1      -2.106   3.408  14.381  1.00  0.00     0.274 HD
ATOM     14  H11 UNL     1      -0.588   2.958  13.817  1.00  0.00     0.274 HD
ENDBRANCH  10  11
ENDBRANCH   1  10
BRANCH   9  15
HETATM   15  N2  UNL     1      -4.361   3.664  10.242  1.00  0.00    -0.072 N 
ATOM     16  H23 UNL     1      -4.579   4.651  10.383  1.00  0.00     0.274 HD
ATOM     17  H22 UNL     1      -4.032   3.702   9.278  1.00  0.00     0.274 HD
ATOM     18  H21 UNL     1      -5.202   3.092  10.318  1.00  0.00     0.274 HD
ENDBRANCH   9  15
TORSDOF 3
ENDMDL
MODEL 2
REMARK VINA RESULT: -4.830180916      0.930      1.021
REMARK  3 active torsions:
REMARK  status: ('A' for Active; 'I' for Inactive)
REMARK    1  A    between atoms: N1_1  and  C1_5 
REMARK    2  A    between atoms: C1_5  and  C2_6 
REMARK    3  A    between atoms: C9_14  and  N2_15 
ROOT
HETATM    1  C2  UNL     1      -2.333   4.069  11.576  1.00  0.00     0.044 C 
HETATM    2  C3  UNL     1      -2.819   3.954  12.990  1.00  0.00     0.011 C 
HETATM    3  C4  UNL     1      -4.024   3.052  12.961  1.00  0.00     0.041 C 
HETATM    4  C5  UNL     1      -3.757   2.175  11.757  1.00  0.00     0.089 C 
HETATM    5  C6  UNL     1      -4.988   1.463  11.282  1.00  0.00     0.042 C 
HETATM    6  C7  UNL     1      -4.435   0.088  10.926  1.00  0.00     0.029 C 
HETATM    7  C8  UNL     1      -2.929   0.245  11.064  1.00  0.00     0.169 C 
HETATM    8  O1  UNL     1      -2.830   1.203  12.052  1.00  0.00    -0.378 OA
HETATM    9  C9  UNL     1      -3.202   3.139  10.745  1.00  0.00     0.223 C 
ENDROOT
BRANCH   1  10
HETATM   10  C1  UNL     1      -0.908   3.594  11.409  1.00  0.00     0.236 C 
BRANCH  10  11
HETATM   11  N1  UNL     1      -0.437   2.825  12.529  1.00  0.00    -0.079 N 
ATOM     12  H13 UNL     1      -0.559   3.339  13.401  1.00  0.00     0.274 HD
ATOM     13  H12 UNL     1      -1.056   2.035  12.714  1.00  0.00     0.274 HD
ATOM     14  H11 UNL     1       0.528   2.514  12.422  1.00  0.00     0.274 HD
ENDBRANCH  10  11
ENDBRANCH   1  10
BRANCH   9  15
HETATM   15  N2  UNL     1      -4.292   3.814  10.107  1.00  0.00    -0.072 N 
ATOM     16  H23 UNL     1      -5.186   3.428  10.410  1.00  0.00     0.274 HD
ATOM     17  H22 UNL     1      -4.391   4.764  10.464  1.00  0.00     0.274 HD
ATOM     18  H21 UNL     1      -4.221   3.812   9.089  1.00  0.00     0.274 HD
ENDBRANCH   9  15
TORSDOF 3
ENDMDL
MODEL 3
REMARK VINA RESULT: -4.772247632      1.734      3.720
REMARK  3 active torsions:
REMARK  status: ('A' for Active; 'I' for Inactive)
REMARK    1  A    between atoms: N1_1  and  C1_5 
REMARK    2  A    between atoms: C1_5  and  C2_6 
REMARK    3  A    between atoms: C9_14  and  N2_15 
ROOT
HETATM    1  C2  UNL     1      -3.719   1.093  10.487  1.00  0.00     0.044 C 
HETATM    2  C3  UNL     1      -2.317   0.984  11.010  1.00  0.00     0.011 C 
HETATM    3  C4  UNL     1      -2.064   2.223  11.829  1.00  0.00     0.041 C 
HETATM    4  C5  UNL     1      -3.450   2.595  12.308  1.00  0.00     0.089 C 
HETATM    5  C6  UNL     1      -3.523   4.007  12.809  1.00  0.00     0.042 C 
HETATM    6  C7  UNL     1      -4.428   3.859  14.027  1.00  0.00     0.029 C 
HETATM    7  C8  UNL     1      -4.910   2.418  13.960  1.00  0.00     0.169 C 
HETATM    8  O1  UNL     1      -3.846   1.788  13.349  1.00  0.00    -0.378 OA
HETATM    9  C9  UNL     1      -4.311   2.352  11.099  1.00  0.00     0.223 C 
ENDROOT
BRANCH   1  10
HETATM   10  C1  UNL     1      -4.596  -0.057  10.927  1.00  0.00     0.236 C 
BRANCH  10  11
HETATM   11  N1  UNL     1      -3.931  -0.956  11.831  1.00  0.00    -0.079 N 
ATOM     12  H13 UNL     1      -4.493  -1.791  11.993  1.00  0.00     0.274 HD
ATOM     13  H12 UNL     1      -3.120  -1.386  11.386  1.00  0.00     0.274 HD
ATOM     14  H11 UNL     1      -3.671  -0.515  12.713  1.00  0.00     0.274 HD
ENDBRANCH  10  11
ENDBRANCH   1  10
BRANCH   9  15
HETATM   15  N2  UNL     1      -4.221   3.490  10.233  1.00  0.00    -0.072 N 
ATOM     16  H23 UNL     1      -4.127   3.200   9.260  1.00  0.00     0.274 HD
ATOM     17  H22 UNL     1      -5.115   3.976  10.178  1.00  0.00     0.274 HD
ATOM     18  H21 UNL     1      -3.472   4.131  10.496  1.00  0.00     0.274 HD
ENDBRANCH   9  15
TORSDOF 3
ENDMDL
MODEL 4
REMARK VINA RESULT: -4.766468578      1.547      3.077
REMARK  3 active torsions:
REMARK  status: ('A' for Active; 'I' for Inactive)
REMARK    1  A    between atoms: N1_1  and  C1_5 
REMARK    2  A    between atoms: C1_5  and  C2_6 
REMARK    3  A    between atoms: C9_14  and  N2_15 
ROOT
HETATM    1  C2  UNL     1      -2.390   4.505  11.158  1.00  0.00     0.044 C 
HETATM    2  C3  UNL     1      -1.916   4.282   9.753  1.00  0.00     0.011 C 
HETATM    3  C4  UNL     1      -1.484   2.842   9.666  1.00  0.00     0.041 C 
HETATM    4  C5  UNL     1      -2.343   2.171  10.715  1.00  0.00     0.089 C 
HETATM    5  C6  UNL     1      -1.826   0.817  11.099  1.00  0.00     0.042 C 
HETATM    6  C7  UNL     1      -3.117   0.016  11.228  1.00  0.00     0.029 C 
HETATM    7  C8  UNL     1      -4.217   1.057  11.087  1.00  0.00     0.169 C 
HETATM    8  O1  UNL     1      -3.627   1.986  10.256  1.00  0.00    -0.378 OA
HETATM    9  C9  UNL     1      -2.330   3.155  11.853  1.00  0.00     0.223 C 
ENDROOT
BRANCH   1  10
HETATM   10  C1  UNL     1      -3.829   4.962  11.223  1.00  0.00     0.236 C 
BRANCH  10  11
HETATM   11  N1  UNL     1      -4.480   4.950   9.940  1.00  0.00    -0.079 N 
ATOM     12  H13 UNL     1      -4.206   5.760   9.385  1.00  0.00     0.274 HD
ATOM     13  H12 UNL     1      -4.105   4.209   9.348  1.00  0.00     0.274 HD
ATOM     14  H11 UNL     1      -5.495   4.883  10.009  1.00  0.00     0.274 HD
ENDBRANCH  10  11
ENDBRANCH   1  10
BRANCH   9  15
HETATM   15  N2  UNL     1      -1.127   2.967  12.608  1.00  0.00    -0.072 N 
ATOM     16  H23 UNL     1      -0.752   2.029  12.468  1.00  0.00     0.274 HD
ATOM     17  H22 UNL     1      -0.362   3.514  12.214  1.00  0.00     0.274 HD
ATOM     18  H21 UNL     1      -1.246   3.167  13.601  1.00  0.00     0.274 HD
ENDBRANCH   9  15
TORSDOF 3
ENDMDL
MODEL 5
REMARK VINA RESULT: -4.730729228      4.860      6.536
REMARK  3 active torsions:
REMARK  status: ('A' for Active; 'I' for Inactive)
REMARK    1  A    between atoms: N1_1  and  C1_5 
REMARK    2  A    between atoms: C1_5  and  C2_6 
REMARK    3  A    between atoms: C9_14  and  N2_15 
ROOT
HETATM    1  C2  UNL     1      -6.179   0.863  17.355  1.00  0.00     0.044 C 
HETATM    2  C3  UNL     1      -7.565   0.983  16.797  1.00  0.00     0.011 C 
HETATM    3  C4  UNL     1      -7.913   2.449  16.814  1.00  0.00     0.041 C 
HETATM    4  C5  UNL     1      -6.559   3.114  16.697  1.00  0.00     0.089 C 
HETATM    5  C6  UNL     1      -6.596   4.561  17.089  1.00  0.00     0.042 C 
HETATM    6  C7  UNL     1      -5.678   5.189  16.046  1.00  0.00     0.029 C 
HETATM    7  C8  UNL     1      -5.084   4.001  15.307  1.00  0.00     0.169 C 
HETATM    8  O1  UNL     1      -6.097   3.069  15.402  1.00  0.00    -0.378 OA
HETATM    9  C9  UNL     1      -5.685   2.280  17.593  1.00  0.00     0.223 C 
ENDROOT
BRANCH   1  10
HETATM   10  C1  UNL     1      -5.213   0.226  16.382  1.00  0.00     0.236 C 
BRANCH  10  11
HETATM   11  N1  UNL     1      -3.927   0.870  16.365  1.00  0.00    -0.079 N 
ATOM     12  H13 UNL     1      -3.178   0.186  16.261  1.00  0.00     0.274 HD
ATOM     13  H12 UNL     1      -3.794   1.395  15.500  1.00  0.00     0.274 HD
ATOM     14  H11 UNL     1      -3.767   1.463  17.179  1.00  0.00     0.274 HD
ENDBRANCH  10  11
ENDBRANCH   1  10
BRANCH   9  15
HETATM   15  N2  UNL     1      -5.867   2.715  18.946  1.00  0.00    -0.072 N 
ATOM     16  H23 UNL     1      -5.884   1.920  19.585  1.00  0.00     0.274 HD
ATOM     17  H22 UNL     1      -5.033   3.189  19.291  1.00  0.00     0.274 HD
ATOM     18  H21 UNL     1      -6.695   3.298  19.069  1.00  0.00     0.274 HD
ENDBRANCH   9  15
TORSDOF 3
ENDMDL
