MODEL 1
REMARK VINA RESULT: -7.361606069      0.000      0.000
REMARK  10 active torsions:
REMARK  status: ('A' for Active; 'I' for Inactive)
REMARK    1  A    between atoms: O1_2  and  C2_3 
REMARK    2  A    between atoms: C2_3  and  C3_4 
REMARK    3  A    between atoms: C3_4  and  O2_5 
REMARK    4  A    between atoms: O2_5  and  C4_6 
REMARK    5  A    between atoms: C4_6  and  N1_7 
REMARK    6  A    between atoms: C4_6  and  C16_30 
REMARK    7  A    between atoms: N1_7  and  C5_9 
REMARK    8  A    between atoms: C6_12  and  N3_13 
REMARK    9  A    between atoms: C11_21  and  N5_22 
REMARK   10  A    between atoms: C16_30  and  O5_32 
ROOT
HETATM    1  O5  UNL     1      17.256   0.721  12.551  1.00  0.00    -0.274 OA
HETATM    2  C18 UNL     1      17.047   0.225  13.804  1.00  0.00     0.229 C 
HETATM    3  N7  UNL     1      16.884  -0.188  14.877  1.00  0.00    -0.164 NA
ENDROOT
BRANCH   1   4
HETATM    4  C16 UNL     1      17.293  -0.101  11.399  1.00  0.00     0.187 C 
HETATM    5  C17 UNL     1      18.114  -1.326  11.728  1.00  0.00     0.046 C 
BRANCH   4   6
HETATM    6  C4  UNL     1      17.957   0.653  10.237  1.00  0.00     0.267 C 
BRANCH   6   7
HETATM    7  O2  UNL     1      17.308   1.821   9.955  1.00  0.00    -0.361 OA
BRANCH   7   8
HETATM    8  C3  UNL     1      16.078   1.680   9.350  1.00  0.00     0.196 C 
BRANCH   8   9
HETATM    9  C2  UNL     1      16.085   0.802   8.124  1.00  0.00     0.193 C 
BRANCH   9  10
HETATM   10  O1  UNL     1      15.655   1.396   6.970  1.00  0.00    -0.394 OA
HETATM   11  C1  UNL     1      15.961   2.740   6.913  1.00  0.00     0.201 C 
ENDBRANCH   9  10
ENDBRANCH   8   9
ENDBRANCH   7   8
ENDBRANCH   6   7
BRANCH   6  12
HETATM   12  N1  UNL     1      19.314   0.911  10.653  1.00  0.00    -0.196 N 
ATOM     13  H1  UNL     1      19.985   0.147  10.574  1.00  0.00     0.180 HD
BRANCH  12  14
HETATM   14  C5  UNL     1      19.736   2.027  11.111  1.00  0.00     0.709 A 
HETATM   15  N2  UNL     1      19.101   2.766  12.036  1.00  0.00    -0.021 N 
HETATM   16  C6  UNL     1      19.582   3.937  12.491  1.00  0.00     0.709 A 
ATOM     17  H2  UNL     1      18.215   2.425  12.410  1.00  0.00     0.203 HD
HETATM   18  N4  UNL     1      20.748   4.403  12.011  1.00  0.00    -0.021 N 
HETATM   19  C11 UNL     1      21.415   3.688  11.081  1.00  0.00     0.709 A 
ATOM     20  H4  UNL     1      21.126   5.289  12.346  1.00  0.00     0.203 HD
HETATM   21  N6  UNL     1      20.902   2.503  10.637  1.00  0.00    -0.021 N 
ATOM     22  H6  UNL     1      21.412   1.969   9.934  1.00  0.00     0.203 HD
BRANCH  16  23
HETATM   23  N3  UNL     1      18.925   4.733  13.469  1.00  0.00    -0.213 N 
HETATM   24  C7  UNL     1      18.098   4.108  14.495  1.00  0.00     0.167 C 
HETATM   25  C8  UNL     1      16.749   4.795  14.437  1.00  0.00     0.188 C 
HETATM   26  O3  UNL     1      16.857   6.154  14.560  1.00  0.00    -0.388 OA
HETATM   27  C9  UNL     1      18.149   6.623  14.689  1.00  0.00     0.188 C 
HETATM   28  C10 UNL     1      19.027   6.177  13.515  1.00  0.00     0.167 C 
ENDBRANCH  16  23
BRANCH  19  29
HETATM   29  N5  UNL     1      22.654   4.177  10.566  1.00  0.00    -0.213 N 
HETATM   30  C12 UNL     1      22.880   4.027   9.148  1.00  0.00     0.167 C 
HETATM   31  C13 UNL     1      24.306   4.123   8.734  1.00  0.00     0.188 C 
HETATM   32  O4  UNL     1      25.192   4.431   9.737  1.00  0.00    -0.388 OA
HETATM   33  C14 UNL     1      24.707   5.443  10.565  1.00  0.00     0.188 C 
HETATM   34  C15 UNL     1      23.635   4.796  11.436  1.00  0.00     0.167 C 
ENDBRANCH  19  29
ENDBRANCH  12  14
ENDBRANCH   6  12
ENDBRANCH   4   6
ENDBRANCH   1   4
TORSDOF 10
ENDMDL
MODEL 2
REMARK VINA RESULT: -7.303703480      2.657      6.181
REMARK  10 active torsions:
REMARK  status: ('A' for Active; 'I' for Inactive)
REMARK    1  A    between atoms: O1_2  and  C2_3 
REMARK    2  A    between atoms: C2_3  and  C3_4 
REMARK    3  A    between atoms: C3_4  and  O2_5 
REMARK    4  A    between atoms: O2_5  and  C4_6 
REMARK    5  A    between atoms: C4_6  and  N1_7 
REMARK    6  A    between atoms: C4_6  and  C16_30 
REMARK    7  A    between atoms: N1_7  and  C5_9 
REMARK    8  A    between atoms: C6_12  and  N3_13 
REMARK    9  A    between atoms: C11_21  and  N5_22 
REMARK   10  A    between atoms: C16_30  and  O5_32 
ROOT
HETATM    1  O5  UNL     1      16.417   0.487  10.622  1.00  0.00    -0.274 OA
HETATM    2  C18 UNL     1      15.604   1.578  10.515  1.00  0.00     0.229 C 
HETATM    3  N7  UNL     1      14.915   2.506  10.404  1.00  0.00    -0.164 NA
ENDROOT
BRANCH   1   4
HETATM    4  C16 UNL     1      17.453   0.398  11.582  1.00  0.00     0.187 C 
HETATM    5  C17 UNL     1      17.634  -1.060  11.937  1.00  0.00     0.046 C 
BRANCH   4   6
HETATM    6  C4  UNL     1      17.066   1.180  12.846  1.00  0.00     0.267 C 
BRANCH   6   7
HETATM    7  O2  UNL     1      16.801   0.346  13.895  1.00  0.00    -0.361 OA
BRANCH   7   8
HETATM    8  C3  UNL     1      17.253   0.782  15.122  1.00  0.00     0.196 C 
BRANCH   8   9
HETATM    9  C2  UNL     1      16.191   1.412  15.987  1.00  0.00     0.193 C 
BRANCH   9  10
HETATM   10  O1  UNL     1      15.306   0.543  16.564  1.00  0.00    -0.394 OA
HETATM   11  C1  UNL     1      14.227   1.181  17.139  1.00  0.00     0.201 C 
ENDBRANCH   9  10
ENDBRANCH   8   9
ENDBRANCH   7   8
ENDBRANCH   6   7
BRANCH   6  12
HETATM   12  N1  UNL     1      18.187   2.036  13.145  1.00  0.00    -0.196 N 
ATOM     13  H1  UNL     1      18.747   1.811  13.968  1.00  0.00     0.180 HD
BRANCH  12  14
HETATM   14  C5  UNL     1      18.531   3.054  12.455  1.00  0.00     0.709 A 
HETATM   15  N2  UNL     1      19.795   3.363  12.118  1.00  0.00    -0.021 N 
HETATM   16  C6  UNL     1      20.112   4.447  11.389  1.00  0.00     0.709 A 
ATOM     17  H2  UNL     1      20.546   2.746  12.428  1.00  0.00     0.203 HD
HETATM   18  N4  UNL     1      19.135   5.270  10.970  1.00  0.00    -0.021 N 
HETATM   19  C11 UNL     1      17.853   4.994  11.289  1.00  0.00     0.709 A 
ATOM     20  H4  UNL     1      19.360   6.097  10.416  1.00  0.00     0.203 HD
HETATM   21  N6  UNL     1      17.561   3.886  12.031  1.00  0.00    -0.021 N 
ATOM     22  H6  UNL     1      16.590   3.684  12.268  1.00  0.00     0.203 HD
BRANCH  16  23
HETATM   23  N3  UNL     1      21.443   4.790  11.021  1.00  0.00    -0.213 N 
HETATM   24  C7  UNL     1      21.883   4.654   9.638  1.00  0.00     0.167 C 
HETATM   25  C8  UNL     1      23.143   3.813   9.669  1.00  0.00     0.188 C 
HETATM   26  O3  UNL     1      24.091   4.336  10.506  1.00  0.00    -0.388 OA
HETATM   27  C9  UNL     1      23.712   5.491  11.161  1.00  0.00     0.188 C 
HETATM   28  C10 UNL     1      22.424   5.283  11.965  1.00  0.00     0.167 C 
ENDBRANCH  16  23
BRANCH  19  29
HETATM   29  N5  UNL     1      16.811   5.864  10.848  1.00  0.00    -0.213 N 
HETATM   30  C12 UNL     1      16.496   6.992  11.693  1.00  0.00     0.167 C 
HETATM   31  C13 UNL     1      15.157   7.594  11.451  1.00  0.00     0.188 C 
HETATM   32  O4  UNL     1      14.449   7.056  10.405  1.00  0.00    -0.388 OA
HETATM   33  C14 UNL     1      15.256   6.846   9.286  1.00  0.00     0.188 C 
HETATM   34  C15 UNL     1      16.104   5.619   9.606  1.00  0.00     0.167 C 
ENDBRANCH  19  29
ENDBRANCH  12  14
ENDBRANCH   6  12
ENDBRANCH   4   6
ENDBRANCH   1   4
TORSDOF 10
ENDMDL
MODEL 3
REMARK VINA RESULT: -7.218433958      2.733      4.352
REMARK  10 active torsions:
REMARK  status: ('A' for Active; 'I' for Inactive)
REMARK    1  A    between atoms: O1_2  and  C2_3 
REMARK    2  A    between atoms: C2_3  and  C3_4 
REMARK    3  A    between atoms: C3_4  and  O2_5 
REMARK    4  A    between atoms: O2_5  and  C4_6 
REMARK    5  A    between atoms: C4_6  and  N1_7 
REMARK    6  A    between atoms: C4_6  and  C16_30 
REMARK    7  A    between atoms: N1_7  and  C5_9 
REMARK    8  A    between atoms: C6_12  and  N3_13 
REMARK    9  A    between atoms: C11_21  and  N5_22 
REMARK   10  A    between atoms: C16_30  and  O5_32 
ROOT
HETATM    1  O5  UNL     1      16.328   0.342  10.710  1.00  0.00    -0.274 OA
HETATM    2  C18 UNL     1      15.591   1.476  10.532  1.00  0.00     0.229 C 
HETATM    3  N7  UNL     1      14.966   2.440  10.361  1.00  0.00    -0.164 NA
ENDROOT
BRANCH   1   4
HETATM    4  C16 UNL     1      17.393   0.260  11.640  1.00  0.00     0.187 C 
HETATM    5  C17 UNL     1      17.640  -1.201  11.937  1.00  0.00     0.046 C 
BRANCH   4   6
HETATM    6  C4  UNL     1      17.010   0.981  12.941  1.00  0.00     0.267 C 
BRANCH   6   7
HETATM    7  O2  UNL     1      16.844   0.104  13.975  1.00  0.00    -0.361 OA
BRANCH   7   8
HETATM    8  C3  UNL     1      17.254   0.563  15.208  1.00  0.00     0.196 C 
BRANCH   8   9
HETATM    9  C2  UNL     1      16.173   1.241  16.010  1.00  0.00     0.193 C 
BRANCH   9  10
HETATM   10  O1  UNL     1      15.242   0.408  16.569  1.00  0.00    -0.394 OA
HETATM   11  C1  UNL     1      14.212   1.091  17.182  1.00  0.00     0.201 C 
ENDBRANCH   9  10
ENDBRANCH   8   9
ENDBRANCH   7   8
ENDBRANCH   6   7
BRANCH   6  12
HETATM   12  N1  UNL     1      18.085   1.900  13.219  1.00  0.00    -0.196 N 
ATOM     13  H1  UNL     1      18.701   1.683  14.004  1.00  0.00     0.180 HD
BRANCH  12  14
HETATM   14  C5  UNL     1      18.324   2.965  12.555  1.00  0.00     0.709 A 
HETATM   15  N2  UNL     1      17.395   3.862  12.182  1.00  0.00    -0.021 N 
HETATM   16  C6  UNL     1      17.690   4.971  11.482  1.00  0.00     0.709 A 
ATOM     17  H2  UNL     1      16.423   3.693  12.441  1.00  0.00     0.203 HD
HETATM   18  N4  UNL     1      18.967   5.211  11.133  1.00  0.00    -0.021 N 
HETATM   19  C11 UNL     1      19.928   4.333  11.489  1.00  0.00     0.709 A 
ATOM     20  H4  UNL     1      19.207   6.048  10.602  1.00  0.00     0.203 HD
HETATM   21  N6  UNL     1      19.598   3.215  12.200  1.00  0.00    -0.021 N 
ATOM     22  H6  UNL     1      20.330   2.557  12.465  1.00  0.00     0.203 HD
BRANCH  16  23
HETATM   23  N3  UNL     1      16.723   5.931  11.078  1.00  0.00    -0.213 N 
HETATM   24  C7  UNL     1      16.020   5.780   9.809  1.00  0.00     0.167 C 
HETATM   25  C8  UNL     1      16.204   7.082   9.058  1.00  0.00     0.188 C 
HETATM   26  O3  UNL     1      15.798   8.162   9.793  1.00  0.00    -0.388 OA
HETATM   27  C9  UNL     1      15.331   7.861  11.057  1.00  0.00     0.188 C 
HETATM   28  C10 UNL     1      16.376   7.092  11.872  1.00  0.00     0.167 C 
ENDBRANCH  16  23
BRANCH  19  29
HETATM   29  N5  UNL     1      21.285   4.581  11.121  1.00  0.00    -0.213 N 
HETATM   30  C12 UNL     1      21.750   3.987   9.890  1.00  0.00     0.167 C 
HETATM   31  C13 UNL     1      23.229   3.885   9.771  1.00  0.00     0.188 C 
HETATM   32  O4  UNL     1      23.944   4.448  10.798  1.00  0.00    -0.388 OA
HETATM   33  C14 UNL     1      23.428   5.689  11.171  1.00  0.00     0.188 C 
HETATM   34  C15 UNL     1      22.151   5.394  11.952  1.00  0.00     0.167 C 
ENDBRANCH  19  29
ENDBRANCH  12  14
ENDBRANCH   6  12
ENDBRANCH   4   6
ENDBRANCH   1   4
TORSDOF 10
ENDMDL
MODEL 4
REMARK VINA RESULT: -7.190837516      2.544      4.704
REMARK  10 active torsions:
REMARK  status: ('A' for Active; 'I' for Inactive)
REMARK    1  A    between atoms: O1_2  and  C2_3 
REMARK    2  A    between atoms: C2_3  and  C3_4 
REMARK    3  A    between atoms: C3_4  and  O2_5 
REMARK    4  A    between atoms: O2_5  and  C4_6 
REMARK    5  A    between atoms: C4_6  and  N1_7 
REMARK    6  A    between atoms: C4_6  and  C16_30 
REMARK    7  A    between atoms: N1_7  and  C5_9 
REMARK    8  A    between atoms: C6_12  and  N3_13 
REMARK    9  A    between atoms: C11_21  and  N5_22 
REMARK   10  A    between atoms: C16_30  and  O5_32 
ROOT
HETATM    1  O5  UNL     1      17.937   5.069   7.342  1.00  0.00    -0.274 OA
HETATM    2  C18 UNL     1      18.573   5.605   6.260  1.00  0.00     0.229 C 
HETATM    3  N7  UNL     1      19.126   6.070   5.351  1.00  0.00    -0.164 NA
ENDROOT
BRANCH   1   4
HETATM    4  C16 UNL     1      16.535   5.151   7.523  1.00  0.00     0.187 C 
HETATM    5  C17 UNL     1      16.208   6.548   7.997  1.00  0.00     0.046 C 
BRANCH   4   6
HETATM    6  C4  UNL     1      16.084   4.139   8.587  1.00  0.00     0.267 C 
BRANCH   6   7
HETATM    7  O2  UNL     1      16.715   2.936   8.441  1.00  0.00    -0.361 OA
BRANCH   7   8
HETATM    8  C3  UNL     1      15.902   1.886   8.072  1.00  0.00     0.196 C 
BRANCH   8   9
HETATM    9  C2  UNL     1      16.044   0.658   8.934  1.00  0.00     0.193 C 
BRANCH   9  10
HETATM   10  O1  UNL     1      16.783   0.818  10.074  1.00  0.00    -0.394 OA
HETATM   11  C1  UNL     1      18.033   0.241   9.986  1.00  0.00     0.201 C 
ENDBRANCH   9  10
ENDBRANCH   8   9
ENDBRANCH   7   8
ENDBRANCH   6   7
BRANCH   6  12
HETATM   12  N1  UNL     1      16.405   4.731   9.862  1.00  0.00    -0.196 N 
ATOM     13  H1  UNL     1      15.936   5.603  10.109  1.00  0.00     0.180 HD
BRANCH  12  14
HETATM   14  C5  UNL     1      17.232   4.243  10.704  1.00  0.00     0.709 A 
HETATM   15  N2  UNL     1      16.896   3.474  11.754  1.00  0.00    -0.021 N 
HETATM   16  C6  UNL     1      17.802   2.981  12.617  1.00  0.00     0.709 A 
ATOM     17  H2  UNL     1      15.912   3.253  11.901  1.00  0.00     0.203 HD
HETATM   18  N4  UNL     1      19.105   3.261  12.439  1.00  0.00    -0.021 N 
HETATM   19  C11 UNL     1      19.481   4.031  11.396  1.00  0.00     0.709 A 
ATOM     20  H4  UNL     1      19.803   2.895  13.086  1.00  0.00     0.203 HD
HETATM   21  N6  UNL     1      18.540   4.517  10.536  1.00  0.00    -0.021 N 
ATOM     22  H6  UNL     1      18.832   5.098   9.751  1.00  0.00     0.203 HD
BRANCH  16  23
HETATM   23  N3  UNL     1      17.466   2.165  13.733  1.00  0.00    -0.213 N 
HETATM   24  C7  UNL     1      17.108   2.773  15.009  1.00  0.00     0.167 C 
HETATM   25  C8  UNL     1      18.007   2.144  16.053  1.00  0.00     0.188 C 
HETATM   26  O3  UNL     1      17.928   0.778  16.045  1.00  0.00    -0.388 OA
HETATM   27  C9  UNL     1      17.077   0.252  15.093  1.00  0.00     0.188 C 
HETATM   28  C10 UNL     1      17.457   0.718  13.683  1.00  0.00     0.167 C 
ENDBRANCH  16  23
BRANCH  19  29
HETATM   29  N5  UNL     1      20.863   4.332  11.201  1.00  0.00    -0.213 N 
HETATM   30  C12 UNL     1      21.488   3.803  10.012  1.00  0.00     0.167 C 
HETATM   31  C13 UNL     1      22.974   3.747  10.065  1.00  0.00     0.188 C 
HETATM   32  O4  UNL     1      23.545   4.288  11.190  1.00  0.00    -0.388 OA
HETATM   33  C14 UNL     1      22.947   5.498  11.545  1.00  0.00     0.188 C 
HETATM   34  C15 UNL     1      21.598   5.135  12.159  1.00  0.00     0.167 C 
ENDBRANCH  19  29
ENDBRANCH  12  14
ENDBRANCH   6  12
ENDBRANCH   4   6
ENDBRANCH   1   4
TORSDOF 10
ENDMDL
MODEL 5
REMARK VINA RESULT: -7.140183409      1.971      4.212
REMARK  10 active torsions:
REMARK  status: ('A' for Active; 'I' for Inactive)
REMARK    1  A    between atoms: O1_2  and  C2_3 
REMARK    2  A    between atoms: C2_3  and  C3_4 
REMARK    3  A    between atoms: C3_4  and  O2_5 
REMARK    4  A    between atoms: O2_5  and  C4_6 
REMARK    5  A    between atoms: C4_6  and  N1_7 
REMARK    6  A    between atoms: C4_6  and  C16_30 
REMARK    7  A    between atoms: N1_7  and  C5_9 
REMARK    8  A    between atoms: C6_12  and  N3_13 
REMARK    9  A    between atoms: C11_21  and  N5_22 
REMARK   10  A    between atoms: C16_30  and  O5_32 
ROOT
HETATM    1  O5  UNL     1      15.646   1.625  15.711  1.00  0.00    -0.274 OA
HETATM    2  C18 UNL     1      15.830   0.917  16.863  1.00  0.00     0.229 C 
HETATM    3  N7  UNL     1      15.968   0.317  17.847  1.00  0.00    -0.164 NA
ENDROOT
BRANCH   1   4
HETATM    4  C16 UNL     1      16.479   2.707  15.337  1.00  0.00     0.187 C 
HETATM    5  C17 UNL     1      15.597   3.808  14.794  1.00  0.00     0.046 C 
BRANCH   4   6
HETATM    6  C4  UNL     1      17.459   2.261  14.241  1.00  0.00     0.267 C 
BRANCH   6   7
HETATM    7  O2  UNL     1      16.806   1.745  13.159  1.00  0.00    -0.361 OA
BRANCH   7   8
HETATM    8  C3  UNL     1      17.128   0.443  12.842  1.00  0.00     0.196 C 
BRANCH   8   9
HETATM    9  C2  UNL     1      17.150   0.150  11.363  1.00  0.00     0.193 C 
BRANCH   9  10
HETATM   10  O1  UNL     1      18.123   0.793  10.648  1.00  0.00    -0.394 OA
HETATM   11  C1  UNL     1      19.393   0.537  11.121  1.00  0.00     0.201 C 
ENDBRANCH   9  10
ENDBRANCH   8   9
ENDBRANCH   7   8
ENDBRANCH   6   7
BRANCH   6  12
HETATM   12  N1  UNL     1      18.207   3.436  13.873  1.00  0.00    -0.196 N 
ATOM     13  H1  UNL     1      18.474   4.080  14.618  1.00  0.00     0.180 HD
BRANCH  12  14
HETATM   14  C5  UNL     1      18.562   3.731  12.681  1.00  0.00     0.709 A 
HETATM   15  N2  UNL     1      17.733   3.791  11.625  1.00  0.00    -0.021 N 
HETATM   16  C6  UNL     1      18.149   4.105  10.386  1.00  0.00     0.709 A 
ATOM     17  H2  UNL     1      16.743   3.590  11.770  1.00  0.00     0.203 HD
HETATM   18  N4  UNL     1      19.450   4.373  10.175  1.00  0.00    -0.021 N 
HETATM   19  C11 UNL     1      20.314   4.323  11.210  1.00  0.00     0.709 A 
ATOM     20  H4  UNL     1      19.782   4.613   9.241  1.00  0.00     0.203 HD
HETATM   21  N6  UNL     1      19.862   4.001  12.458  1.00  0.00    -0.021 N 
ATOM     22  H6  UNL     1      20.521   3.965  13.235  1.00  0.00     0.203 HD
BRANCH  16  23
HETATM   23  N3  UNL     1      17.288   4.173   9.257  1.00  0.00    -0.213 N 
HETATM   24  C7  UNL     1      16.037   3.425   9.238  1.00  0.00     0.167 C 
HETATM   25  C8  UNL     1      16.044   2.606   7.964  1.00  0.00     0.188 C 
HETATM   26  O3  UNL     1      16.245   3.382   6.855  1.00  0.00    -0.388 OA
HETATM   27  C9  UNL     1      16.420   4.727   7.112  1.00  0.00     0.188 C 
HETATM   28  C10 UNL     1      17.582   4.966   8.081  1.00  0.00     0.167 C 
ENDBRANCH  16  23
BRANCH  19  29
HETATM   29  N5  UNL     1      21.696   4.607  10.994  1.00  0.00    -0.213 N 
HETATM   30  C12 UNL     1      22.253   4.223   9.719  1.00  0.00     0.167 C 
HETATM   31  C13 UNL     1      23.737   4.118   9.696  1.00  0.00     0.188 C 
HETATM   32  O4  UNL     1      24.372   4.487  10.856  1.00  0.00    -0.388 OA
HETATM   33  C14 UNL     1      23.832   5.655  11.394  1.00  0.00     0.188 C 
HETATM   34  C15 UNL     1      22.498   5.253  12.015  1.00  0.00     0.167 C 
ENDBRANCH  19  29
ENDBRANCH  12  14
ENDBRANCH   6  12
ENDBRANCH   4   6
ENDBRANCH   1   4
TORSDOF 10
ENDMDL
