MODEL 1
REMARK VINA RESULT: -7.728846802      0.000      0.000
REMARK  10 active torsions:
REMARK  status: ('A' for Active; 'I' for Inactive)
REMARK    1  A    between atoms: C3_10  and  S1_11 
REMARK    2  A    between atoms: S1_11  and  C4_12 
REMARK    3  A    between atoms: C4_12  and  C5_13 
REMARK    4  A    between atoms: C5_13  and  N5_14 
REMARK    5  A    between atoms: N6_17  and  C9_19 
REMARK    6  A    between atoms: C9_19  and  C10_20 
REMARK    7  A    between atoms: C10_20  and  O1_21 
REMARK    8  A    between atoms: C10_20  and  C11_23 
REMARK    9  A    between atoms: C11_23  and  N7_24 
REMARK   10  A    between atoms: C14_29  and  N9_30 
ROOT
HETATM    1  C1  UNL     1      16.723   0.543  11.395  1.00  0.00     0.039 C 
HETATM    2  C2  UNL     1      16.518   0.952  10.283  1.00  0.00     0.027 C 
HETATM    3  N1  UNL     1      16.264   1.418   8.998  1.00  0.00    -0.173 N 
HETATM    4  N2  UNL     1      16.124   0.644   7.923  1.00  0.00    -0.212 N 
ATOM      5  H2  UNL     1      16.182  -0.374   7.896  1.00  0.00     0.211 HD
HETATM    6  N3  UNL     1      15.899   1.440   6.909  1.00  0.00    -0.225 N 
ATOM      7  H3  UNL     1      15.749   1.141   5.945  1.00  0.00     0.210 HD
HETATM    8  N4  UNL     1      15.897   2.694   7.330  1.00  0.00    -0.262 N 
ATOM      9  H4  UNL     1      15.745   3.518   6.748  1.00  0.00     0.190 HD
HETATM   10  C3  UNL     1      16.128   2.700   8.659  1.00  0.00     0.191 A 
ENDROOT
BRANCH  10  11
HETATM   11  S1  UNL     1      16.215   4.188   9.648  1.00  0.00    -0.088 SA
BRANCH  11  12
HETATM   12  C4  UNL     1      17.938   4.800   9.459  1.00  0.00     0.102 C 
BRANCH  12  13
HETATM   13  C5  UNL     1      17.912   6.303   9.380  1.00  0.00     0.127 C 
BRANCH  13  14
HETATM   14  N5  UNL     1      18.476   6.939  10.518  1.00  0.00    -0.408 N 
HETATM   15  C6  UNL     1      19.448   6.138  11.202  1.00  0.00     0.144 C 
HETATM   16  C7  UNL     1      19.060   5.562  12.504  1.00  0.00     0.256 C 
HETATM   17  N6  UNL     1      18.246   6.416  13.322  1.00  0.00    -0.065 N 
HETATM   18  C8  UNL     1      18.889   7.587  13.829  1.00  0.00     0.272 C 
HETATM   19  C15 UNL     1      17.121   6.878  12.490  1.00  0.00     0.256 C 
HETATM   20  C16 UNL     1      17.622   7.705  11.345  1.00  0.00     0.144 C 
BRANCH  17  21
HETATM   21  C9  UNL     1      17.649   5.608  14.378  1.00  0.00     0.270 C 
BRANCH  21  22
HETATM   22  C10 UNL     1      17.997   4.144  14.245  1.00  0.00     0.162 C 
BRANCH  22  23
HETATM   23  O1  UNL     1      18.724   3.680  15.312  1.00  0.00    -0.392 OA
ATOM     24  H1  UNL     1      18.231   3.070  15.849  1.00  0.00     0.210 HD
ENDBRANCH  22  23
BRANCH  22  25
HETATM   25  C11 UNL     1      16.735   3.365  13.959  1.00  0.00     0.165 C 
BRANCH  25  26
HETATM   26  N7  UNL     1      15.972   2.994  15.092  1.00  0.00    -0.320 N 
HETATM   27  C12 UNL     1      14.939   3.719  15.591  1.00  0.00     0.111 A 
HETATM   28  C13 UNL     1      14.448   3.108  16.698  1.00  0.00     0.108 A 
HETATM   29  N8  UNL     1      15.164   2.011  16.890  1.00  0.00    -0.332 N 
HETATM   30  C14 UNL     1      16.104   1.941  15.898  1.00  0.00     0.252 A 
ATOM     31  H8  UNL     1      15.037   1.337  17.644  1.00  0.00     0.168 HD
BRANCH  30  32
HETATM   32  N9  UNL     1      16.996   0.842  15.805  1.00  0.00    -0.079 N 
HETATM   33  O2  UNL     1      18.166   0.950  16.299  1.00  0.00    -0.529 OA
HETATM   34  O3  UNL     1      16.699  -0.357  15.206  1.00  0.00    -0.529 OA
ENDBRANCH  30  32
ENDBRANCH  25  26
ENDBRANCH  22  25
ENDBRANCH  21  22
ENDBRANCH  17  21
ENDBRANCH  13  14
ENDBRANCH  12  13
ENDBRANCH  11  12
ENDBRANCH  10  11
TORSDOF 10
ENDMDL
MODEL 2
REMARK VINA RESULT: -7.478140893      2.577      4.600
REMARK  10 active torsions:
REMARK  status: ('A' for Active; 'I' for Inactive)
REMARK    1  A    between atoms: C3_10  and  S1_11 
REMARK    2  A    between atoms: S1_11  and  C4_12 
REMARK    3  A    between atoms: C4_12  and  C5_13 
REMARK    4  A    between atoms: C5_13  and  N5_14 
REMARK    5  A    between atoms: N6_17  and  C9_19 
REMARK    6  A    between atoms: C9_19  and  C10_20 
REMARK    7  A    between atoms: C10_20  and  O1_21 
REMARK    8  A    between atoms: C10_20  and  C11_23 
REMARK    9  A    between atoms: C11_23  and  N7_24 
REMARK   10  A    between atoms: C14_29  and  N9_30 
ROOT
HETATM    1  C1  UNL     1      14.206   8.256  11.447  1.00  0.00     0.039 C 
HETATM    2  C2  UNL     1      14.336   7.882  10.312  1.00  0.00     0.027 C 
HETATM    3  N1  UNL     1      14.486   7.469   8.993  1.00  0.00    -0.173 N 
HETATM    4  N2  UNL     1      13.526   7.510   8.070  1.00  0.00    -0.212 N 
ATOM      5  H2  UNL     1      12.572   7.844   8.201  1.00  0.00     0.211 HD
HETATM    6  N3  UNL     1      14.044   7.040   6.963  1.00  0.00    -0.225 N 
ATOM      7  H3  UNL     1      13.551   6.946   6.075  1.00  0.00     0.210 HD
HETATM    8  N4  UNL     1      15.305   6.706   7.178  1.00  0.00    -0.262 N 
ATOM      9  H4  UNL     1      15.943   6.313   6.486  1.00  0.00     0.190 HD
HETATM   10  C3  UNL     1      15.605   6.972   8.466  1.00  0.00     0.191 A 
ENDROOT
BRANCH  10  11
HETATM   11  S1  UNL     1      17.209   6.670   9.198  1.00  0.00    -0.088 SA
BRANCH  11  12
HETATM   12  C4  UNL     1      16.882   5.643  10.687  1.00  0.00     0.102 C 
BRANCH  12  13
HETATM   13  C5  UNL     1      15.906   4.558  10.321  1.00  0.00     0.127 C 
BRANCH  13  14
HETATM   14  N5  UNL     1      16.529   3.364   9.869  1.00  0.00    -0.408 N 
HETATM   15  C6  UNL     1      15.771   2.179  10.146  1.00  0.00     0.144 C 
HETATM   16  C7  UNL     1      16.271   1.286  11.211  1.00  0.00     0.256 C 
HETATM   17  N6  UNL     1      17.700   1.160  11.270  1.00  0.00    -0.065 N 
HETATM   18  C8  UNL     1      18.309   0.483  10.168  1.00  0.00     0.272 C 
HETATM   19  C15 UNL     1      18.260   2.522  11.292  1.00  0.00     0.256 C 
HETATM   20  C16 UNL     1      17.930   3.245  10.021  1.00  0.00     0.144 C 
BRANCH  17  21
HETATM   21  C9  UNL     1      18.055   0.567  12.552  1.00  0.00     0.270 C 
BRANCH  21  22
HETATM   22  C10 UNL     1      16.978   0.761  13.592  1.00  0.00     0.162 C 
BRANCH  22  23
HETATM   23  O1  UNL     1      16.632  -0.412  14.214  1.00  0.00    -0.392 OA
ATOM     24  H1  UNL     1      17.343  -0.771  14.732  1.00  0.00     0.210 HD
ENDBRANCH  22  23
BRANCH  22  25
HETATM   25  C11 UNL     1      17.397   1.869  14.530  1.00  0.00     0.165 C 
BRANCH  25  26
HETATM   26  N7  UNL     1      16.357   2.713  14.987  1.00  0.00    -0.320 N 
HETATM   27  C12 UNL     1      15.998   3.878  14.389  1.00  0.00     0.111 A 
HETATM   28  C13 UNL     1      14.997   4.461  15.094  1.00  0.00     0.108 A 
HETATM   29  N8  UNL     1      14.729   3.670  16.121  1.00  0.00    -0.332 N 
HETATM   30  C14 UNL     1      15.568   2.591  16.053  1.00  0.00     0.252 A 
ATOM     31  H8  UNL     1      14.022   3.835  16.837  1.00  0.00     0.168 HD
BRANCH  30  32
HETATM   32  N9  UNL     1      15.487   1.535  16.997  1.00  0.00    -0.079 N 
HETATM   33  O2  UNL     1      15.964   1.710  18.166  1.00  0.00    -0.529 OA
HETATM   34  O3  UNL     1      14.930   0.306  16.748  1.00  0.00    -0.529 OA
ENDBRANCH  30  32
ENDBRANCH  25  26
ENDBRANCH  22  25
ENDBRANCH  21  22
ENDBRANCH  17  21
ENDBRANCH  13  14
ENDBRANCH  12  13
ENDBRANCH  11  12
ENDBRANCH  10  11
TORSDOF 10
ENDMDL
MODEL 3
REMARK VINA RESULT: -7.442948155      2.345      4.914
REMARK  10 active torsions:
REMARK  status: ('A' for Active; 'I' for Inactive)
REMARK    1  A    between atoms: C3_10  and  S1_11 
REMARK    2  A    between atoms: S1_11  and  C4_12 
REMARK    3  A    between atoms: C4_12  and  C5_13 
REMARK    4  A    between atoms: C5_13  and  N5_14 
REMARK    5  A    between atoms: N6_17  and  C9_19 
REMARK    6  A    between atoms: C9_19  and  C10_20 
REMARK    7  A    between atoms: C10_20  and  O1_21 
REMARK    8  A    between atoms: C10_20  and  C11_23 
REMARK    9  A    between atoms: C11_23  and  N7_24 
REMARK   10  A    between atoms: C14_29  and  N9_30 
ROOT
HETATM    1  C1  UNL     1      21.607   5.739  10.685  1.00  0.00     0.039 C 
HETATM    2  C2  UNL     1      20.911   5.553  11.648  1.00  0.00     0.027 C 
HETATM    3  N1  UNL     1      20.119   5.347  12.771  1.00  0.00    -0.173 N 
HETATM    4  N2  UNL     1      20.423   4.526  13.776  1.00  0.00    -0.212 N 
ATOM      5  H2  UNL     1      21.260   3.949  13.856  1.00  0.00     0.211 HD
HETATM    6  N3  UNL     1      19.441   4.601  14.638  1.00  0.00    -0.225 N 
ATOM      7  H3  UNL     1      19.387   4.086  15.517  1.00  0.00     0.210 HD
HETATM    8  N4  UNL     1      18.532   5.451  14.192  1.00  0.00    -0.262 N 
ATOM      9  H4  UNL     1      17.663   5.698  14.666  1.00  0.00     0.190 HD
HETATM   10  C3  UNL     1      18.947   5.937  13.003  1.00  0.00     0.191 A 
ENDROOT
BRANCH  10  11
HETATM   11  S1  UNL     1      18.020   7.120  12.033  1.00  0.00    -0.088 SA
BRANCH  11  12
HETATM   12  C4  UNL     1      17.499   6.212  10.522  1.00  0.00     0.102 C 
BRANCH  12  13
HETATM   13  C5  UNL     1      16.561   5.106  10.920  1.00  0.00     0.127 C 
BRANCH  13  14
HETATM   14  N5  UNL     1      16.864   3.859  10.313  1.00  0.00    -0.408 N 
HETATM   15  C6  UNL     1      15.913   2.828  10.609  1.00  0.00     0.144 C 
HETATM   16  C7  UNL     1      16.335   1.760  11.538  1.00  0.00     0.256 C 
HETATM   17  N6  UNL     1      17.703   1.346  11.398  1.00  0.00    -0.065 N 
HETATM   18  C8  UNL     1      18.026   0.666  10.184  1.00  0.00     0.272 C 
HETATM   19  C15 UNL     1      18.534   2.563  11.435  1.00  0.00     0.256 C 
HETATM   20  C16 UNL     1      18.217   3.450  10.269  1.00  0.00     0.144 C 
BRANCH  17  21
HETATM   21  C9  UNL     1      18.074   0.580  12.581  1.00  0.00     0.270 C 
BRANCH  21  22
HETATM   22  C10 UNL     1      17.001   0.612  13.644  1.00  0.00     0.162 C 
BRANCH  22  23
HETATM   23  O1  UNL     1      16.721  -0.635  14.141  1.00  0.00    -0.392 OA
ATOM     24  H1  UNL     1      16.012  -1.062  13.674  1.00  0.00     0.210 HD
ENDBRANCH  22  23
BRANCH  22  25
HETATM   25  C11 UNL     1      17.378   1.635  14.689  1.00  0.00     0.165 C 
BRANCH  25  26
HETATM   26  N7  UNL     1      16.302   2.358  15.257  1.00  0.00    -0.320 N 
HETATM   27  C12 UNL     1      15.773   3.488  14.723  1.00  0.00     0.111 A 
HETATM   28  C13 UNL     1      14.784   3.951  15.529  1.00  0.00     0.108 A 
HETATM   29  N8  UNL     1      14.694   3.119  16.554  1.00  0.00    -0.332 N 
HETATM   30  C14 UNL     1      15.630   2.136  16.385  1.00  0.00     0.252 A 
ATOM     31  H8  UNL     1      14.040   3.198  17.334  1.00  0.00     0.168 HD
BRANCH  30  32
HETATM   32  N9  UNL     1      15.744   1.062  17.306  1.00  0.00    -0.079 N 
HETATM   33  O2  UNL     1      15.986   1.318  18.530  1.00  0.00    -0.529 OA
HETATM   34  O3  UNL     1      15.619  -0.264  16.977  1.00  0.00    -0.529 OA
ENDBRANCH  30  32
ENDBRANCH  25  26
ENDBRANCH  22  25
ENDBRANCH  21  22
ENDBRANCH  17  21
ENDBRANCH  13  14
ENDBRANCH  12  13
ENDBRANCH  11  12
ENDBRANCH  10  11
TORSDOF 10
ENDMDL
MODEL 4
REMARK VINA RESULT: -7.425235323      2.167      3.493
REMARK  10 active torsions:
REMARK  status: ('A' for Active; 'I' for Inactive)
REMARK    1  A    between atoms: C3_10  and  S1_11 
REMARK    2  A    between atoms: S1_11  and  C4_12 
REMARK    3  A    between atoms: C4_12  and  C5_13 
REMARK    4  A    between atoms: C5_13  and  N5_14 
REMARK    5  A    between atoms: N6_17  and  C9_19 
REMARK    6  A    between atoms: C9_19  and  C10_20 
REMARK    7  A    between atoms: C10_20  and  O1_21 
REMARK    8  A    between atoms: C10_20  and  C11_23 
REMARK    9  A    between atoms: C11_23  and  N7_24 
REMARK   10  A    between atoms: C14_29  and  N9_30 
ROOT
HETATM    1  C1  UNL     1      14.439   8.185  11.100  1.00  0.00     0.039 C 
HETATM    2  C2  UNL     1      14.652   7.672  10.033  1.00  0.00     0.027 C 
HETATM    3  N1  UNL     1      14.909   7.095   8.795  1.00  0.00    -0.173 N 
HETATM    4  N2  UNL     1      14.406   7.524   7.638  1.00  0.00    -0.212 N 
ATOM      5  H2  UNL     1      13.779   8.317   7.505  1.00  0.00     0.211 HD
HETATM    6  N3  UNL     1      14.871   6.732   6.705  1.00  0.00    -0.225 N 
ATOM      7  H3  UNL     1      14.664   6.807   5.709  1.00  0.00     0.210 HD
HETATM    8  N4  UNL     1      15.652   5.818   7.257  1.00  0.00    -0.262 N 
ATOM      9  H4  UNL     1      16.144   5.076   6.760  1.00  0.00     0.190 HD
HETATM   10  C3  UNL     1      15.688   6.034   8.589  1.00  0.00     0.191 A 
ENDROOT
BRANCH  10  11
HETATM   11  S1  UNL     1      16.624   5.029   9.735  1.00  0.00    -0.088 SA
BRANCH  11  12
HETATM   12  C4  UNL     1      18.389   5.414   9.396  1.00  0.00     0.102 C 
BRANCH  12  13
HETATM   13  C5  UNL     1      18.603   6.894   9.566  1.00  0.00     0.127 C 
BRANCH  13  14
HETATM   14  N5  UNL     1      19.211   7.240  10.801  1.00  0.00    -0.408 N 
HETATM   15  C6  UNL     1      19.947   6.166  11.401  1.00  0.00     0.144 C 
HETATM   16  C7  UNL     1      19.362   5.523  12.594  1.00  0.00     0.256 C 
HETATM   17  N6  UNL     1      18.693   6.420  13.494  1.00  0.00    -0.065 N 
HETATM   18  C8  UNL     1      19.532   7.348  14.184  1.00  0.00     0.272 C 
HETATM   19  C15 UNL     1      17.747   7.217  12.694  1.00  0.00     0.256 C 
HETATM   20  C16 UNL     1      18.484   8.059  11.696  1.00  0.00     0.144 C 
BRANCH  17  21
HETATM   21  C9  UNL     1      17.872   5.630  14.402  1.00  0.00     0.270 C 
BRANCH  21  22
HETATM   22  C10 UNL     1      18.179   4.153  14.315  1.00  0.00     0.162 C 
BRANCH  22  23
HETATM   23  O1  UNL     1      18.884   3.700  15.400  1.00  0.00    -0.392 OA
ATOM     24  H1  UNL     1      19.626   3.161  15.152  1.00  0.00     0.210 HD
ENDBRANCH  22  23
BRANCH  22  25
HETATM   25  C11 UNL     1      16.896   3.403  14.042  1.00  0.00     0.165 C 
BRANCH  25  26
HETATM   26  N7  UNL     1      17.047   2.124  13.455  1.00  0.00    -0.320 N 
HETATM   27  C12 UNL     1      17.083   1.894  12.118  1.00  0.00     0.111 A 
HETATM   28  C13 UNL     1      17.199   0.562  11.888  1.00  0.00     0.108 A 
HETATM   29  N8  UNL     1      17.236  -0.036  13.068  1.00  0.00    -0.332 N 
HETATM   30  C14 UNL     1      17.144   0.928  14.034  1.00  0.00     0.252 A 
ATOM     31  H8  UNL     1      17.320  -1.040  13.229  1.00  0.00     0.168 HD
BRANCH  30  32
HETATM   32  N9  UNL     1      17.207   0.597  15.413  1.00  0.00    -0.079 N 
HETATM   33  O2  UNL     1      16.300  -0.145  15.914  1.00  0.00    -0.529 OA
HETATM   34  O3  UNL     1      18.183   1.028  16.275  1.00  0.00    -0.529 OA
ENDBRANCH  30  32
ENDBRANCH  25  26
ENDBRANCH  22  25
ENDBRANCH  21  22
ENDBRANCH  17  21
ENDBRANCH  13  14
ENDBRANCH  12  13
ENDBRANCH  11  12
ENDBRANCH  10  11
TORSDOF 10
ENDMDL
MODEL 5
REMARK VINA RESULT: -7.421151769      1.584      2.087
REMARK  10 active torsions:
REMARK  status: ('A' for Active; 'I' for Inactive)
REMARK    1  A    between atoms: C3_10  and  S1_11 
REMARK    2  A    between atoms: S1_11  and  C4_12 
REMARK    3  A    between atoms: C4_12  and  C5_13 
REMARK    4  A    between atoms: C5_13  and  N5_14 
REMARK    5  A    between atoms: N6_17  and  C9_19 
REMARK    6  A    between atoms: C9_19  and  C10_20 
REMARK    7  A    between atoms: C10_20  and  O1_21 
REMARK    8  A    between atoms: C10_20  and  C11_23 
REMARK    9  A    between atoms: C11_23  and  N7_24 
REMARK   10  A    between atoms: C14_29  and  N9_30 
ROOT
HETATM    1  C1  UNL     1      15.606   0.864   8.710  1.00  0.00     0.039 C 
HETATM    2  C2  UNL     1      16.386   0.965   9.620  1.00  0.00     0.027 C 
HETATM    3  N1  UNL     1      17.300   1.071  10.662  1.00  0.00    -0.173 N 
HETATM    4  N2  UNL     1      17.652   0.071  11.468  1.00  0.00    -0.212 N 
ATOM      5  H2  UNL     1      17.308  -0.888  11.433  1.00  0.00     0.211 HD
HETATM    6  N3  UNL     1      18.524   0.556  12.316  1.00  0.00    -0.225 N 
ATOM      7  H3  UNL     1      18.980   0.029  13.061  1.00  0.00     0.210 HD
HETATM    8  N4  UNL     1      18.722   1.837  12.054  1.00  0.00    -0.262 N 
ATOM      9  H4  UNL     1      19.351   2.459  12.562  1.00  0.00     0.190 HD
HETATM   10  C3  UNL     1      17.950   2.183  11.003  1.00  0.00     0.191 A 
ENDROOT
BRANCH  10  11
HETATM   11  S1  UNL     1      17.895   3.831  10.307  1.00  0.00    -0.088 SA
BRANCH  11  12
HETATM   12  C4  UNL     1      19.639   4.413  10.294  1.00  0.00     0.102 C 
BRANCH  12  13
HETATM   13  C5  UNL     1      19.652   5.896  10.037  1.00  0.00     0.127 C 
BRANCH  13  14
HETATM   14  N5  UNL     1      19.782   6.674  11.218  1.00  0.00    -0.408 N 
HETATM   15  C6  UNL     1      20.493   6.008  12.270  1.00  0.00     0.144 C 
HETATM   16  C7  UNL     1      19.708   5.534  13.427  1.00  0.00     0.256 C 
HETATM   17  N6  UNL     1      18.641   6.407  13.830  1.00  0.00    -0.065 N 
HETATM   18  C8  UNL     1      19.041   7.661  14.386  1.00  0.00     0.272 C 
HETATM   19  C15 UNL     1      17.847   6.711  12.626  1.00  0.00     0.256 C 
HETATM   20  C16 UNL     1      18.677   7.457  11.626  1.00  0.00     0.144 C 
BRANCH  17  21
HETATM   21  C9  UNL     1      17.751   5.665  14.712  1.00  0.00     0.270 C 
BRANCH  21  22
HETATM   22  C10 UNL     1      17.865   4.171  14.519  1.00  0.00     0.162 C 
BRANCH  22  23
HETATM   23  O1  UNL     1      18.519   3.558  15.557  1.00  0.00    -0.392 OA
ATOM     24  H1  UNL     1      19.238   3.012  15.261  1.00  0.00     0.210 HD
ENDBRANCH  22  23
BRANCH  22  25
HETATM   25  C11 UNL     1      16.495   3.610  14.222  1.00  0.00     0.165 C 
BRANCH  25  26
HETATM   26  N7  UNL     1      15.839   2.982  15.308  1.00  0.00    -0.320 N 
HETATM   27  C12 UNL     1      14.834   3.546  16.026  1.00  0.00     0.111 A 
HETATM   28  C13 UNL     1      14.453   2.700  17.015  1.00  0.00     0.108 A 
HETATM   29  N8  UNL     1      15.209   1.618  16.918  1.00  0.00    -0.332 N 
HETATM   30  C14 UNL     1      16.063   1.792  15.863  1.00  0.00     0.252 A 
ATOM     31  H8  UNL     1      15.162   0.798  17.522  1.00  0.00     0.168 HD
BRANCH  30  32
HETATM   32  N9  UNL     1      16.970   0.773  15.475  1.00  0.00    -0.079 N 
HETATM   33  O2  UNL     1      18.136   0.751  15.991  1.00  0.00    -0.529 OA
HETATM   34  O3  UNL     1      16.693  -0.213  14.561  1.00  0.00    -0.529 OA
ENDBRANCH  30  32
ENDBRANCH  25  26
ENDBRANCH  22  25
ENDBRANCH  21  22
ENDBRANCH  17  21
ENDBRANCH  13  14
ENDBRANCH  12  13
ENDBRANCH  11  12
ENDBRANCH  10  11
TORSDOF 10
ENDMDL
