MODEL 1
REMARK VINA RESULT: -8.047245151      0.000      0.000
REMARK  10 active torsions:
REMARK  status: ('A' for Active; 'I' for Inactive)
REMARK    1  A    between atoms: N1_4  and  C3_5 
REMARK    2  A    between atoms: N3_8  and  C4_9 
REMARK    3  A    between atoms: C4_9  and  C5_10 
REMARK    4  A    between atoms: N5_19  and  C11_20 
REMARK    5  A    between atoms: C11_20  and  C12_21 
REMARK    6  A    between atoms: C12_21  and  C13_22 
REMARK    7  A    between atoms: C13_22  and  N6_23 
REMARK    8  A    between atoms: N8_31  and  C19_32 
REMARK    9  A    between atoms: C19_32  and  C20_33 
REMARK   10  A    between atoms: C20_33  and  O3_34 
ROOT
HETATM    1  C3  UNL     1      17.129   1.068  12.004  1.00  0.00     0.702 A 
HETATM    2  N2  UNL     1      16.026   1.162  11.210  1.00  0.00    -0.125 N 
ATOM      3  H2  UNL     1      15.110   1.477  11.533  1.00  0.00     0.206 HD
HETATM    4  N3  UNL     1      16.289   0.797   9.981  1.00  0.00    -0.222 N 
HETATM    5  C10 UNL     1      17.603   0.456   9.995  1.00  0.00     0.358 A 
HETATM    6  O2  UNL     1      18.204   0.044   8.969  1.00  0.00    -0.244 OA
HETATM    7  N5  UNL     1      18.112   0.628  11.242  1.00  0.00    -0.130 N 
ENDROOT
BRANCH   1   8
HETATM    8  N1  UNL     1      17.082   1.441  13.377  1.00  0.00    -0.206 N 
HETATM    9  C2  UNL     1      17.247   0.542  14.463  1.00  0.00     0.244 C 
HETATM   10  C1  UNL     1      16.820   1.156  15.757  1.00  0.00     0.238 C 
HETATM   11  O1  UNL     1      17.276   0.743  16.843  1.00  0.00    -0.272 OA
HETATM   12  N8  UNL     1      15.876   2.224  15.744  1.00  0.00    -0.347 N 
HETATM   13  C18 UNL     1      15.623   2.989  14.536  1.00  0.00     0.146 C 
HETATM   14  C17 UNL     1      16.858   2.865  13.635  1.00  0.00     0.161 C 
BRANCH  12  15
HETATM   15  C19 UNL     1      15.163   2.568  16.952  1.00  0.00     0.151 C 
BRANCH  15  16
HETATM   16  C20 UNL     1      13.941   1.713  17.187  1.00  0.00     0.183 C 
BRANCH  16  17
HETATM   17  O3  UNL     1      14.221   0.359  17.002  1.00  0.00    -0.399 OA
ATOM     18  H3  UNL     1      14.988   0.233  16.456  1.00  0.00     0.209 HD
ENDBRANCH  16  17
ENDBRANCH  15  16
ENDBRANCH  12  15
ENDBRANCH   1   8
BRANCH   7  19
HETATM   19  C11 UNL     1      19.479   0.387  11.580  1.00  0.00     0.154 C 
BRANCH  19  20
HETATM   20  C12 UNL     1      20.378   1.577  11.380  1.00  0.00     0.041 C 
BRANCH  20  21
HETATM   21  C13 UNL     1      19.705   2.818  10.891  1.00  0.00     0.131 C 
BRANCH  21  22
HETATM   22  N6  UNL     1      20.333   3.941  11.605  1.00  0.00    -0.352 N 
HETATM   23  C14 UNL     1      19.744   4.838  12.429  1.00  0.00     0.108 A 
HETATM   24  C15 UNL     1      20.697   5.724  12.885  1.00  0.00     0.106 A 
HETATM   25  N7  UNL     1      21.860   5.364  12.338  1.00  0.00    -0.361 N 
HETATM   26  C16 UNL     1      21.636   4.306  11.581  1.00  0.00     0.182 A 
ATOM     27  H7  UNL     1      22.759   5.824  12.480  1.00  0.00     0.166 HD
ENDBRANCH  21  22
ENDBRANCH  20  21
ENDBRANCH  19  20
ENDBRANCH   7  19
BRANCH   4  28
HETATM   28  C4  UNL     1      15.429   0.764   8.800  1.00  0.00     0.211 C 
BRANCH  28  29
HETATM   29  C5  UNL     1      15.750   1.904   7.895  1.00  0.00     0.029 A 
HETATM   30  C6  UNL     1      15.757   1.782   6.536  1.00  0.00     0.027 A 
HETATM   31  C7  UNL     1      16.035   2.913   5.777  1.00  0.00     0.003 A 
HETATM   32  C8  UNL     1      16.286   4.091   6.422  1.00  0.00     0.017 A 
HETATM   33  C9  UNL     1      16.271   4.185   7.816  1.00  0.00     0.088 A 
HETATM   34  N4  UNL     1      16.002   3.088   8.528  1.00  0.00    -0.368 N 
ATOM     35  H4  UNL     1      15.984   3.133   9.547  1.00  0.00     0.165 HD
ENDBRANCH  28  29
ENDBRANCH   4  28
TORSDOF 10
ENDMDL
MODEL 2
REMARK VINA RESULT: -7.876492582      2.059      4.431
REMARK  10 active torsions:
REMARK  status: ('A' for Active; 'I' for Inactive)
REMARK    1  A    between atoms: N1_4  and  C3_5 
REMARK    2  A    between atoms: N3_8  and  C4_9 
REMARK    3  A    between atoms: C4_9  and  C5_10 
REMARK    4  A    between atoms: N5_19  and  C11_20 
REMARK    5  A    between atoms: C11_20  and  C12_21 
REMARK    6  A    between atoms: C12_21  and  C13_22 
REMARK    7  A    between atoms: C13_22  and  N6_23 
REMARK    8  A    between atoms: N8_31  and  C19_32 
REMARK    9  A    between atoms: C19_32  and  C20_33 
REMARK   10  A    between atoms: C20_33  and  O3_34 
ROOT
HETATM    1  C3  UNL     1      18.610   2.415  12.447  1.00  0.00     0.702 A 
HETATM    2  N2  UNL     1      19.392   3.530  12.404  1.00  0.00    -0.125 N 
ATOM      3  H2  UNL     1      19.284   4.331  13.026  1.00  0.00     0.206 HD
HETATM    4  N3  UNL     1      20.298   3.442  11.464  1.00  0.00    -0.222 N 
HETATM    5  C10 UNL     1      20.084   2.232  10.886  1.00  0.00     0.358 A 
HETATM    6  O2  UNL     1      20.777   1.811   9.925  1.00  0.00    -0.244 OA
HETATM    7  N5  UNL     1      19.045   1.607  11.499  1.00  0.00    -0.130 N 
ENDROOT
BRANCH   1   8
HETATM    8  N1  UNL     1      17.574   2.278  13.413  1.00  0.00    -0.206 N 
HETATM    9  C2  UNL     1      16.784   3.349  13.905  1.00  0.00     0.244 C 
HETATM   10  C1  UNL     1      16.023   2.957  15.130  1.00  0.00     0.238 C 
HETATM   11  O1  UNL     1      14.974   3.554  15.451  1.00  0.00    -0.272 OA
HETATM   12  N8  UNL     1      16.509   1.890  15.940  1.00  0.00    -0.347 N 
HETATM   13  C18 UNL     1      17.466   0.928  15.422  1.00  0.00     0.146 C 
HETATM   14  C17 UNL     1      17.337   0.915  13.894  1.00  0.00     0.161 C 
BRANCH  12  15
HETATM   15  C19 UNL     1      16.037   1.745  17.297  1.00  0.00     0.151 C 
BRANCH  15  16
HETATM   16  C20 UNL     1      15.113   0.567  17.485  1.00  0.00     0.183 C 
BRANCH  16  17
HETATM   17  O3  UNL     1      13.927   0.727  16.767  1.00  0.00    -0.399 OA
ATOM     18  H3  UNL     1      13.651  -0.087  16.364  1.00  0.00     0.209 HD
ENDBRANCH  16  17
ENDBRANCH  15  16
ENDBRANCH  12  15
ENDBRANCH   1   8
BRANCH   7  19
HETATM   19  C11 UNL     1      18.589   0.300  11.147  1.00  0.00     0.154 C 
BRANCH  19  20
HETATM   20  C12 UNL     1      17.717   0.265   9.920  1.00  0.00     0.041 C 
BRANCH  20  21
HETATM   21  C13 UNL     1      16.362   0.873  10.076  1.00  0.00     0.131 C 
BRANCH  21  22
HETATM   22  N6  UNL     1      16.327   2.047   9.190  1.00  0.00    -0.352 N 
HETATM   23  C14 UNL     1      16.650   3.326   9.488  1.00  0.00     0.108 A 
HETATM   24  C15 UNL     1      16.474   4.108   8.366  1.00  0.00     0.106 A 
HETATM   25  N7  UNL     1      16.045   3.304   7.391  1.00  0.00    -0.361 N 
HETATM   26  C16 UNL     1      15.960   2.083   7.887  1.00  0.00     0.182 A 
ATOM     27  H7  UNL     1      15.823   3.583   6.436  1.00  0.00     0.166 HD
ENDBRANCH  21  22
ENDBRANCH  20  21
ENDBRANCH  19  20
ENDBRANCH   7  19
BRANCH   4  28
HETATM   28  C4  UNL     1      21.354   4.376  11.079  1.00  0.00     0.211 C 
BRANCH  28  29
HETATM   29  C5  UNL     1      21.143   4.849   9.681  1.00  0.00     0.029 A 
HETATM   30  C6  UNL     1      20.087   5.633   9.324  1.00  0.00     0.027 A 
HETATM   31  C7  UNL     1      19.997   6.052   8.001  1.00  0.00     0.003 A 
HETATM   32  C8  UNL     1      20.966   5.659   7.122  1.00  0.00     0.017 A 
HETATM   33  C9  UNL     1      22.038   4.855   7.518  1.00  0.00     0.088 A 
HETATM   34  N4  UNL     1      22.107   4.464   8.793  1.00  0.00    -0.368 N 
ATOM     35  H4  UNL     1      22.881   3.877   9.105  1.00  0.00     0.165 HD
ENDBRANCH  28  29
ENDBRANCH   4  28
TORSDOF 10
ENDMDL
MODEL 3
REMARK VINA RESULT: -7.845570980      2.202      6.911
REMARK  10 active torsions:
REMARK  status: ('A' for Active; 'I' for Inactive)
REMARK    1  A    between atoms: N1_4  and  C3_5 
REMARK    2  A    between atoms: N3_8  and  C4_9 
REMARK    3  A    between atoms: C4_9  and  C5_10 
REMARK    4  A    between atoms: N5_19  and  C11_20 
REMARK    5  A    between atoms: C11_20  and  C12_21 
REMARK    6  A    between atoms: C12_21  and  C13_22 
REMARK    7  A    between atoms: C13_22  and  N6_23 
REMARK    8  A    between atoms: N8_31  and  C19_32 
REMARK    9  A    between atoms: C19_32  and  C20_33 
REMARK   10  A    between atoms: C20_33  and  O3_34 
ROOT
HETATM    1  C3  UNL     1      18.543   1.752  11.913  1.00  0.00     0.702 A 
HETATM    2  N2  UNL     1      18.465   1.813  13.272  1.00  0.00    -0.125 N 
ATOM      3  H2  UNL     1      18.966   2.491  13.847  1.00  0.00     0.206 HD
HETATM    4  N3  UNL     1      17.665   0.893  13.746  1.00  0.00    -0.222 N 
HETATM    5  C10 UNL     1      17.222   0.220  12.652  1.00  0.00     0.358 A 
HETATM    6  O2  UNL     1      16.428  -0.752  12.733  1.00  0.00    -0.244 OA
HETATM    7  N5  UNL     1      17.766   0.758  11.530  1.00  0.00    -0.130 N 
ENDROOT
BRANCH   1   8
HETATM    8  N1  UNL     1      19.336   2.678  11.179  1.00  0.00    -0.206 N 
HETATM    9  C2  UNL     1      20.460   2.327  10.387  1.00  0.00     0.244 C 
HETATM   10  C1  UNL     1      21.273   3.526  10.018  1.00  0.00     0.238 C 
HETATM   11  O1  UNL     1      22.003   3.519   9.006  1.00  0.00    -0.272 OA
HETATM   12  N8  UNL     1      21.211   4.690  10.840  1.00  0.00    -0.347 N 
HETATM   13  C18 UNL     1      20.114   4.895  11.771  1.00  0.00     0.146 C 
HETATM   14  C17 UNL     1      18.917   4.078  11.271  1.00  0.00     0.161 C 
BRANCH  12  15
HETATM   15  C19 UNL     1      22.245   5.692  10.745  1.00  0.00     0.151 C 
BRANCH  15  16
HETATM   16  C20 UNL     1      23.204   5.673  11.911  1.00  0.00     0.183 C 
BRANCH  16  17
HETATM   17  O3  UNL     1      23.898   4.466  11.983  1.00  0.00    -0.399 OA
ATOM     18  H3  UNL     1      24.649   4.460  11.400  1.00  0.00     0.209 HD
ENDBRANCH  16  17
ENDBRANCH  15  16
ENDBRANCH  12  15
ENDBRANCH   1   8
BRANCH   7  19
HETATM   19  C11 UNL     1      17.475   0.296  10.210  1.00  0.00     0.154 C 
BRANCH  19  20
HETATM   20  C12 UNL     1      16.113   0.697   9.707  1.00  0.00     0.041 C 
BRANCH  20  21
HETATM   21  C13 UNL     1      16.089   1.350   8.364  1.00  0.00     0.131 C 
BRANCH  21  22
HETATM   22  N6  UNL     1      16.048   2.800   8.607  1.00  0.00    -0.352 N 
HETATM   23  C14 UNL     1      16.465   3.794   7.789  1.00  0.00     0.108 A 
HETATM   24  C15 UNL     1      16.244   5.007   8.406  1.00  0.00     0.106 A 
HETATM   25  N7  UNL     1      15.694   4.748   9.594  1.00  0.00    -0.361 N 
HETATM   26  C16 UNL     1      15.581   3.437   9.706  1.00  0.00     0.182 A 
ATOM     27  H7  UNL     1      15.413   5.438  10.290  1.00  0.00     0.166 HD
ENDBRANCH  21  22
ENDBRANCH  20  21
ENDBRANCH  19  20
ENDBRANCH   7  19
BRANCH   4  28
HETATM   28  C4  UNL     1      17.263   0.606  15.122  1.00  0.00     0.211 C 
BRANCH  28  29
HETATM   29  C5  UNL     1      16.245   1.595  15.580  1.00  0.00     0.029 A 
HETATM   30  C6  UNL     1      15.478   1.396  16.690  1.00  0.00     0.027 A 
HETATM   31  C7  UNL     1      14.581   2.394  17.056  1.00  0.00     0.003 A 
HETATM   32  C8  UNL     1      14.509   3.523  16.290  1.00  0.00     0.017 A 
HETATM   33  C9  UNL     1      15.308   3.698  15.158  1.00  0.00     0.088 A 
HETATM   34  N4  UNL     1      16.164   2.729  14.823  1.00  0.00    -0.368 N 
ATOM     35  H4  UNL     1      16.759   2.835  14.001  1.00  0.00     0.165 HD
ENDBRANCH  28  29
ENDBRANCH   4  28
TORSDOF 10
ENDMDL
MODEL 4
REMARK VINA RESULT: -7.836163556      2.451      4.458
REMARK  10 active torsions:
REMARK  status: ('A' for Active; 'I' for Inactive)
REMARK    1  A    between atoms: N1_4  and  C3_5 
REMARK    2  A    between atoms: N3_8  and  C4_9 
REMARK    3  A    between atoms: C4_9  and  C5_10 
REMARK    4  A    between atoms: N5_19  and  C11_20 
REMARK    5  A    between atoms: C11_20  and  C12_21 
REMARK    6  A    between atoms: C12_21  and  C13_22 
REMARK    7  A    between atoms: C13_22  and  N6_23 
REMARK    8  A    between atoms: N8_31  and  C19_32 
REMARK    9  A    between atoms: C19_32  and  C20_33 
REMARK   10  A    between atoms: C20_33  and  O3_34 
ROOT
HETATM    1  C3  UNL     1      18.286   3.405  12.482  1.00  0.00     0.702 A 
HETATM    2  N2  UNL     1      17.916   4.679  12.173  1.00  0.00    -0.125 N 
ATOM      3  H2  UNL     1      17.274   5.242  12.731  1.00  0.00     0.206 HD
HETATM    4  N3  UNL     1      18.487   5.088  11.068  1.00  0.00    -0.222 N 
HETATM    5  C10 UNL     1      19.243   4.037  10.659  1.00  0.00     0.358 A 
HETATM    6  O2  UNL     1      19.936   4.073   9.610  1.00  0.00    -0.244 OA
HETATM    7  N5  UNL     1      19.115   3.008  11.536  1.00  0.00    -0.130 N 
ENDROOT
BRANCH   1   8
HETATM    8  N1  UNL     1      17.808   2.763  13.658  1.00  0.00    -0.206 N 
HETATM    9  C2  UNL     1      17.464   1.389  13.746  1.00  0.00     0.244 C 
HETATM   10  C1  UNL     1      16.691   1.090  14.989  1.00  0.00     0.238 C 
HETATM   11  O1  UNL     1      16.680  -0.059  15.476  1.00  0.00    -0.272 OA
HETATM   12  N8  UNL     1      15.955   2.136  15.621  1.00  0.00    -0.347 N 
HETATM   13  C18 UNL     1      16.242   3.532  15.341  1.00  0.00     0.146 C 
HETATM   14  C17 UNL     1      17.689   3.621  14.840  1.00  0.00     0.161 C 
BRANCH  12  15
HETATM   15  C19 UNL     1      14.913   1.812  16.565  1.00  0.00     0.151 C 
BRANCH  15  16
HETATM   16  C20 UNL     1      15.383   1.825  18.000  1.00  0.00     0.183 C 
BRANCH  16  17
HETATM   17  O3  UNL     1      16.151   0.699  18.297  1.00  0.00    -0.399 OA
ATOM     18  H3  UNL     1      16.704   0.452  17.566  1.00  0.00     0.209 HD
ENDBRANCH  16  17
ENDBRANCH  15  16
ENDBRANCH  12  15
ENDBRANCH   1   8
BRANCH   7  19
HETATM   19  C11 UNL     1      19.811   1.766  11.406  1.00  0.00     0.154 C 
BRANCH  19  20
HETATM   20  C12 UNL     1      19.251   0.859  10.342  1.00  0.00     0.041 C 
BRANCH  20  21
HETATM   21  C13 UNL     1      18.043   0.075  10.735  1.00  0.00     0.131 C 
BRANCH  21  22
HETATM   22  N6  UNL     1      16.901   0.696  10.047  1.00  0.00    -0.352 N 
HETATM   23  C14 UNL     1      16.584   0.630   8.733  1.00  0.00     0.108 A 
HETATM   24  C15 UNL     1      15.434   1.358   8.511  1.00  0.00     0.106 A 
HETATM   25  N7  UNL     1      15.056   1.863   9.687  1.00  0.00    -0.361 N 
HETATM   26  C16 UNL     1      15.930   1.466  10.593  1.00  0.00     0.182 A 
ATOM     27  H7  UNL     1      14.239   2.449   9.854  1.00  0.00     0.166 HD
ENDBRANCH  21  22
ENDBRANCH  20  21
ENDBRANCH  19  20
ENDBRANCH   7  19
BRANCH   4  28
HETATM   28  C4  UNL     1      18.405   6.376  10.383  1.00  0.00     0.211 C 
BRANCH  28  29
HETATM   29  C5  UNL     1      17.010   6.900  10.432  1.00  0.00     0.029 A 
HETATM   30  C6  UNL     1      16.644   7.935  11.240  1.00  0.00     0.027 A 
HETATM   31  C7  UNL     1      15.325   8.375  11.188  1.00  0.00     0.003 A 
HETATM   32  C8  UNL     1      14.460   7.753  10.333  1.00  0.00     0.017 A 
HETATM   33  C9  UNL     1      14.865   6.694   9.516  1.00  0.00     0.088 A 
HETATM   34  N4  UNL     1      16.135   6.287   9.580  1.00  0.00    -0.368 N 
ATOM     35  H4  UNL     1      16.453   5.516   8.992  1.00  0.00     0.165 HD
ENDBRANCH  28  29
ENDBRANCH   4  28
TORSDOF 10
ENDMDL
MODEL 5
REMARK VINA RESULT: -7.809209104      1.616      4.864
REMARK  10 active torsions:
REMARK  status: ('A' for Active; 'I' for Inactive)
REMARK    1  A    between atoms: N1_4  and  C3_5 
REMARK    2  A    between atoms: N3_8  and  C4_9 
REMARK    3  A    between atoms: C4_9  and  C5_10 
REMARK    4  A    between atoms: N5_19  and  C11_20 
REMARK    5  A    between atoms: C11_20  and  C12_21 
REMARK    6  A    between atoms: C12_21  and  C13_22 
REMARK    7  A    between atoms: C13_22  and  N6_23 
REMARK    8  A    between atoms: N8_31  and  C19_32 
REMARK    9  A    between atoms: C19_32  and  C20_33 
REMARK   10  A    between atoms: C20_33  and  O3_34 
ROOT
HETATM    1  C3  UNL     1      18.575   2.382  12.462  1.00  0.00     0.702 A 
HETATM    2  N2  UNL     1      19.407   3.460  12.460  1.00  0.00    -0.125 N 
ATOM      3  H2  UNL     1      19.340   4.239  13.116  1.00  0.00     0.206 HD
HETATM    4  N3  UNL     1      20.302   3.371  11.510  1.00  0.00    -0.222 N 
HETATM    5  C10 UNL     1      20.028   2.198  10.883  1.00  0.00     0.358 A 
HETATM    6  O2  UNL     1      20.696   1.786   9.900  1.00  0.00    -0.244 OA
HETATM    7  N5  UNL     1      18.966   1.595  11.477  1.00  0.00    -0.130 N 
ENDROOT
BRANCH   1   8
HETATM    8  N1  UNL     1      17.539   2.253  13.429  1.00  0.00    -0.206 N 
HETATM    9  C2  UNL     1      16.755   3.329  13.920  1.00  0.00     0.244 C 
HETATM   10  C1  UNL     1      15.993   2.943  15.147  1.00  0.00     0.238 C 
HETATM   11  O1  UNL     1      14.948   3.546  15.469  1.00  0.00    -0.272 OA
HETATM   12  N8  UNL     1      16.475   1.874  15.959  1.00  0.00    -0.347 N 
HETATM   13  C18 UNL     1      17.427   0.907  15.441  1.00  0.00     0.146 C 
HETATM   14  C17 UNL     1      17.295   0.892  13.913  1.00  0.00     0.161 C 
BRANCH  12  15
HETATM   15  C19 UNL     1      16.004   1.735  17.317  1.00  0.00     0.151 C 
BRANCH  15  16
HETATM   16  C20 UNL     1      15.088   0.552  17.512  1.00  0.00     0.183 C 
BRANCH  16  17
HETATM   17  O3  UNL     1      13.893   0.709  16.809  1.00  0.00    -0.399 OA
ATOM     18  H3  UNL     1      13.675  -0.071  16.313  1.00  0.00     0.209 HD
ENDBRANCH  16  17
ENDBRANCH  15  16
ENDBRANCH  12  15
ENDBRANCH   1   8
BRANCH   7  19
HETATM   19  C11 UNL     1      18.447   0.327  11.074  1.00  0.00     0.154 C 
BRANCH  19  20
HETATM   20  C12 UNL     1      17.561   0.387   9.858  1.00  0.00     0.041 C 
BRANCH  20  21
HETATM   21  C13 UNL     1      16.257   1.089  10.045  1.00  0.00     0.131 C 
BRANCH  21  22
HETATM   22  N6  UNL     1      16.294   2.276   9.176  1.00  0.00    -0.352 N 
HETATM   23  C14 UNL     1      16.664   3.536   9.502  1.00  0.00     0.108 A 
HETATM   24  C15 UNL     1      16.550   4.341   8.388  1.00  0.00     0.106 A 
HETATM   25  N7  UNL     1      16.112   3.570   7.391  1.00  0.00    -0.361 N 
HETATM   26  C16 UNL     1      15.963   2.347   7.865  1.00  0.00     0.182 A 
ATOM     27  H7  UNL     1      15.927   3.871   6.434  1.00  0.00     0.166 HD
ENDBRANCH  21  22
ENDBRANCH  20  21
ENDBRANCH  19  20
ENDBRANCH   7  19
BRANCH   4  28
HETATM   28  C4  UNL     1      21.399   4.270  11.156  1.00  0.00     0.211 C 
BRANCH  28  29
HETATM   29  C5  UNL     1      20.968   5.691  11.296  1.00  0.00     0.029 A 
HETATM   30  C6  UNL     1      20.184   6.314  10.370  1.00  0.00     0.027 A 
HETATM   31  C7  UNL     1      19.807   7.631  10.608  1.00  0.00     0.003 A 
HETATM   32  C8  UNL     1      20.236   8.239  11.753  1.00  0.00     0.017 A 
HETATM   33  C9  UNL     1      21.039   7.574  12.684  1.00  0.00     0.088 A 
HETATM   34  N4  UNL     1      21.390   6.309  12.438  1.00  0.00    -0.368 N 
ATOM     35  H4  UNL     1      21.975   5.804  13.104  1.00  0.00     0.165 HD
ENDBRANCH  28  29
ENDBRANCH   4  28
TORSDOF 10
ENDMDL
