MODEL 1
REMARK VINA RESULT: -5.181196922      0.000      0.000
REMARK  12 active torsions:
REMARK  status: ('A' for Active; 'I' for Inactive)
REMARK    1  A    between atoms: N1_1  and  C1_5 
REMARK    2  A    between atoms: C1_5  and  C2_6 
REMARK       I    between atoms: C2_6  and  N2_8 
REMARK    3  A    between atoms: N2_8  and  C3_10 
REMARK    4  A    between atoms: C3_10  and  C4_11 
REMARK    5  A    between atoms: C4_11  and  N3_12 
REMARK    6  A    between atoms: N3_12  and  C5_14 
REMARK    7  A    between atoms: C8_21  and  N6_22 
REMARK    8  A    between atoms: N6_22  and  C9_24 
REMARK    9  A    between atoms: C9_24  and  O2_25 
REMARK   10  A    between atoms: C9_24  and  C10_27 
REMARK   11  A    between atoms: C10_27  and  N7_28 
REMARK   12  A    between atoms: C10_27  and  N8_32 
ROOT
HETATM    1  C5  UNL     1     -32.152  44.084  25.440  1.00  0.00     0.135 A 
HETATM    2  N4  UNL     1     -33.374  43.581  25.678  1.00  0.00    -0.337 N 
ATOM      3  H4  UNL     1     -34.043  44.122  26.226  1.00  0.00     0.168 HD
HETATM    4  C6  UNL     1     -33.729  42.362  25.198  1.00  0.00     0.182 A 
HETATM    5  N5  UNL     1     -32.880  41.619  24.475  1.00  0.00    -0.347 N 
ATOM      6  H5  UNL     1     -33.179  40.707  24.130  1.00  0.00     0.167 HD
HETATM    7  C7  UNL     1     -31.659  42.049  24.201  1.00  0.00     0.108 A 
HETATM    8  C8  UNL     1     -30.829  41.248  23.455  1.00  0.00     0.133 A 
HETATM    9  N9  UNL     1     -29.578  41.743  23.202  1.00  0.00    -0.337 N 
ATOM     10  H9  UNL     1     -28.920  41.189  22.653  1.00  0.00     0.168 HD
HETATM   11  C11 UNL     1     -29.202  42.947  23.666  1.00  0.00     0.182 A 
HETATM   12  N10 UNL     1     -30.022  43.724  24.394  1.00  0.00    -0.347 N 
ATOM     13  H10 UNL     1     -29.708  44.634  24.731  1.00  0.00     0.167 HD
HETATM   14  C12 UNL     1     -31.266  43.283  24.672  1.00  0.00     0.108 A 
ENDROOT
BRANCH   8  15
HETATM   15  N6  UNL     1     -31.161  40.140  23.024  1.00  0.00    -0.345 N 
ATOM     16  H6  UNL     1     -32.075  39.870  23.389  1.00  0.00     0.163 HD
BRANCH  15  17
HETATM   17  C9  UNL     1     -30.653  39.151  22.186  1.00  0.00     0.277 C 
BRANCH  17  18
HETATM   18  O2  UNL     1     -29.472  39.458  21.511  1.00  0.00    -0.373 OA
ATOM     19  H2  UNL     1     -29.304  38.973  20.711  1.00  0.00     0.212 HD
ENDBRANCH  17  18
BRANCH  17  20
HETATM   20  C10 UNL     1     -31.668  38.808  21.089  1.00  0.00     0.425 C 
BRANCH  20  21
HETATM   21  N7  UNL     1     -31.538  39.747  19.994  1.00  0.00    -0.046 N 
ATOM     22  H73 UNL     1     -31.080  39.332  19.183  1.00  0.00     0.277 HD
ATOM     23  H72 UNL     1     -32.437  39.961  19.561  1.00  0.00     0.277 HD
ATOM     24  H71 UNL     1     -31.058  40.587  20.318  1.00  0.00     0.277 HD
ENDBRANCH  20  21
BRANCH  20  25
HETATM   25  N8  UNL     1     -33.015  38.838  21.565  1.00  0.00    -0.046 N 
ATOM     26  H83 UNL     1     -33.325  37.909  21.851  1.00  0.00     0.277 HD
ATOM     27  H82 UNL     1     -33.076  39.314  22.465  1.00  0.00     0.277 HD
ATOM     28  H81 UNL     1     -33.657  39.248  20.887  1.00  0.00     0.277 HD
ENDBRANCH  20  25
ENDBRANCH  17  20
ENDBRANCH  15  17
ENDBRANCH   8  15
BRANCH   1  29
HETATM   29  N3  UNL     1     -31.697  45.164  25.807  1.00  0.00    -0.352 N 
ATOM     30  H3  UNL     1     -31.431  45.681  24.969  1.00  0.00     0.166 HD
BRANCH  29  31
HETATM   31  C4  UNL     1     -31.398  45.962  26.891  1.00  0.00     0.082 C 
BRANCH  31  32
HETATM   32  C3  UNL     1     -30.209  45.641  27.737  1.00  0.00     0.167 C 
BRANCH  32  33
HETATM   33  N2  UNL     1     -30.377  44.379  28.414  1.00  0.00    -0.355 N 
HETATM   34  C2  UNL     1     -29.591  43.261  28.063  1.00  0.00     0.243 C 
HETATM   35  O1  UNL     1     -28.715  43.234  27.171  1.00  0.00    -0.272 OA
ATOM     36  H2  UNL     1     -31.073  44.294  29.155  1.00  0.00     0.162 HD
BRANCH  34  37
HETATM   37  C1  UNL     1     -29.783  41.948  28.802  1.00  0.00     0.332 C 
BRANCH  37  38
HETATM   38  N1  UNL     1     -28.895  41.833  29.926  1.00  0.00    -0.071 N 
ATOM     39  H13 UNL     1     -28.780  42.728  30.402  1.00  0.00     0.274 HD
ATOM     40  H12 UNL     1     -29.324  41.302  30.684  1.00  0.00     0.274 HD
ATOM     41  H11 UNL     1     -27.995  41.437  29.658  1.00  0.00     0.274 HD
ENDBRANCH  37  38
ENDBRANCH  34  37
ENDBRANCH  32  33
ENDBRANCH  31  32
ENDBRANCH  29  31
ENDBRANCH   1  29
TORSDOF 12
ENDMDL
MODEL 2
REMARK VINA RESULT: -5.048050820      3.306      7.150
REMARK  12 active torsions:
REMARK  status: ('A' for Active; 'I' for Inactive)
REMARK    1  A    between atoms: N1_1  and  C1_5 
REMARK    2  A    between atoms: C1_5  and  C2_6 
REMARK       I    between atoms: C2_6  and  N2_8 
REMARK    3  A    between atoms: N2_8  and  C3_10 
REMARK    4  A    between atoms: C3_10  and  C4_11 
REMARK    5  A    between atoms: C4_11  and  N3_12 
REMARK    6  A    between atoms: N3_12  and  C5_14 
REMARK    7  A    between atoms: C8_21  and  N6_22 
REMARK    8  A    between atoms: N6_22  and  C9_24 
REMARK    9  A    between atoms: C9_24  and  O2_25 
REMARK   10  A    between atoms: C9_24  and  C10_27 
REMARK   11  A    between atoms: C10_27  and  N7_28 
REMARK   12  A    between atoms: C10_27  and  N8_32 
ROOT
HETATM    1  C5  UNL     1     -30.776  42.286  24.528  1.00  0.00     0.135 A 
HETATM    2  N4  UNL     1     -31.931  41.912  23.952  1.00  0.00    -0.337 N 
ATOM      3  H4  UNL     1     -31.919  41.512  23.014  1.00  0.00     0.168 HD
HETATM    4  C6  UNL     1     -33.112  42.061  24.604  1.00  0.00     0.182 A 
HETATM    5  N5  UNL     1     -33.171  42.583  25.837  1.00  0.00    -0.347 N 
ATOM      6  H5  UNL     1     -34.076  42.681  26.298  1.00  0.00     0.167 HD
HETATM    7  C7  UNL     1     -32.075  42.974  26.466  1.00  0.00     0.108 A 
HETATM    8  C8  UNL     1     -32.192  43.503  27.730  1.00  0.00     0.133 A 
HETATM    9  N9  UNL     1     -31.026  43.891  28.333  1.00  0.00    -0.337 N 
ATOM     10  H9  UNL     1     -31.055  44.290  29.271  1.00  0.00     0.168 HD
HETATM   11  C11 UNL     1     -29.844  43.753  27.709  1.00  0.00     0.182 A 
HETATM   12  N10 UNL     1     -29.739  43.234  26.474  1.00  0.00    -0.347 N 
ATOM     13  H10 UNL     1     -28.827  43.142  26.027  1.00  0.00     0.167 HD
HETATM   14  C12 UNL     1     -30.858  42.837  25.834  1.00  0.00     0.108 A 
ENDROOT
BRANCH   8  15
HETATM   15  N6  UNL     1     -33.272  43.635  28.313  1.00  0.00    -0.345 N 
ATOM     16  H6  UNL     1     -33.891  42.850  28.110  1.00  0.00     0.163 HD
BRANCH  15  17
HETATM   17  C9  UNL     1     -33.891  44.543  29.168  1.00  0.00     0.277 C 
BRANCH  17  18
HETATM   18  O2  UNL     1     -33.342  44.666  30.444  1.00  0.00    -0.373 OA
ATOM     19  H2  UNL     1     -33.938  44.542  31.174  1.00  0.00     0.212 HD
ENDBRANCH  17  18
BRANCH  17  20
HETATM   20  C10 UNL     1     -35.356  44.150  29.394  1.00  0.00     0.425 C 
BRANCH  20  21
HETATM   21  N7  UNL     1     -35.810  44.674  30.665  1.00  0.00    -0.046 N 
ATOM     22  H73 UNL     1     -36.825  44.754  30.708  1.00  0.00     0.277 HD
ATOM     23  H72 UNL     1     -35.684  44.005  31.425  1.00  0.00     0.277 HD
ATOM     24  H71 UNL     1     -35.346  45.563  30.855  1.00  0.00     0.277 HD
ENDBRANCH  20  21
BRANCH  20  25
HETATM   25  N8  UNL     1     -35.547  42.734  29.384  1.00  0.00    -0.046 N 
ATOM     26  H83 UNL     1     -36.501  42.493  29.113  1.00  0.00     0.277 HD
ATOM     27  H82 UNL     1     -35.044  42.301  28.610  1.00  0.00     0.277 HD
ATOM     28  H81 UNL     1     -35.297  42.302  30.274  1.00  0.00     0.277 HD
ENDBRANCH  20  25
ENDBRANCH  17  20
ENDBRANCH  15  17
ENDBRANCH   8  15
BRANCH   1  29
HETATM   29  N3  UNL     1     -29.642  42.210  24.062  1.00  0.00    -0.352 N 
ATOM     30  H3  UNL     1     -28.991  42.232  24.847  1.00  0.00     0.166 HD
BRANCH  29  31
HETATM   31  C4  UNL     1     -28.891  42.107  22.910  1.00  0.00     0.082 C 
BRANCH  31  32
HETATM   32  C3  UNL     1     -28.953  40.854  22.099  1.00  0.00     0.167 C 
BRANCH  32  33
HETATM   33  N2  UNL     1     -28.140  40.962  20.913  1.00  0.00    -0.355 N 
HETATM   34  C2  UNL     1     -26.804  40.505  20.909  1.00  0.00     0.243 C 
HETATM   35  O1  UNL     1     -26.204  39.993  21.879  1.00  0.00    -0.272 OA
ATOM     36  H2  UNL     1     -28.535  41.373  20.067  1.00  0.00     0.162 HD
BRANCH  34  37
HETATM   37  C1  UNL     1     -25.976  40.621  19.642  1.00  0.00     0.332 C 
BRANCH  37  38
HETATM   38  N1  UNL     1     -24.610  40.231  19.859  1.00  0.00    -0.071 N 
ATOM     39  H13 UNL     1     -24.232  40.657  20.705  1.00  0.00     0.274 HD
ATOM     40  H12 UNL     1     -24.543  39.250  20.129  1.00  0.00     0.274 HD
ATOM     41  H11 UNL     1     -24.025  40.434  19.048  1.00  0.00     0.274 HD
ENDBRANCH  37  38
ENDBRANCH  34  37
ENDBRANCH  32  33
ENDBRANCH  31  32
ENDBRANCH  29  31
ENDBRANCH   1  29
TORSDOF 12
ENDMDL
MODEL 3
REMARK VINA RESULT: -4.861377871      2.800      7.418
REMARK  12 active torsions:
REMARK  status: ('A' for Active; 'I' for Inactive)
REMARK    1  A    between atoms: N1_1  and  C1_5 
REMARK    2  A    between atoms: C1_5  and  C2_6 
REMARK       I    between atoms: C2_6  and  N2_8 
REMARK    3  A    between atoms: N2_8  and  C3_10 
REMARK    4  A    between atoms: C3_10  and  C4_11 
REMARK    5  A    between atoms: C4_11  and  N3_12 
REMARK    6  A    between atoms: N3_12  and  C5_14 
REMARK    7  A    between atoms: C8_21  and  N6_22 
REMARK    8  A    between atoms: N6_22  and  C9_24 
REMARK    9  A    between atoms: C9_24  and  O2_25 
REMARK   10  A    between atoms: C9_24  and  C10_27 
REMARK   11  A    between atoms: C10_27  and  N7_28 
REMARK   12  A    between atoms: C10_27  and  N8_32 
ROOT
HETATM    1  C5  UNL     1     -30.350  42.679  26.010  1.00  0.00     0.135 A 
HETATM    2  N4  UNL     1     -29.483  43.219  26.882  1.00  0.00    -0.337 N 
ATOM      3  H4  UNL     1     -28.483  43.191  26.681  1.00  0.00     0.168 HD
HETATM    4  C6  UNL     1     -29.921  43.800  28.028  1.00  0.00     0.182 A 
HETATM    5  N5  UNL     1     -31.225  43.857  28.331  1.00  0.00    -0.347 N 
ATOM      6  H5  UNL     1     -31.520  44.300  29.201  1.00  0.00     0.167 HD
HETATM    7  C7  UNL     1     -32.137  43.345  27.520  1.00  0.00     0.108 A 
HETATM    8  C8  UNL     1     -33.462  43.431  27.878  1.00  0.00     0.133 A 
HETATM    9  N9  UNL     1     -34.361  42.886  27.002  1.00  0.00    -0.337 N 
ATOM     10  H9  UNL     1     -35.357  42.921  27.219  1.00  0.00     0.168 HD
HETATM   11  C11 UNL     1     -33.953  42.305  25.862  1.00  0.00     0.182 A 
HETATM   12  N10 UNL     1     -32.655  42.227  25.519  1.00  0.00    -0.347 N 
ATOM     13  H10 UNL     1     -32.377  41.781  24.645  1.00  0.00     0.167 HD
HETATM   14  C12 UNL     1     -31.728  42.748  26.347  1.00  0.00     0.108 A 
ENDROOT
BRANCH   8  15
HETATM   15  N6  UNL     1     -33.850  43.960  28.923  1.00  0.00    -0.345 N 
ATOM     16  H6  UNL     1     -34.177  43.257  29.585  1.00  0.00     0.163 HD
BRANCH  15  17
HETATM   17  C9  UNL     1     -33.970  45.238  29.463  1.00  0.00     0.277 C 
BRANCH  17  18
HETATM   18  O2  UNL     1     -32.909  45.681  30.251  1.00  0.00    -0.373 OA
ATOM     19  H2  UNL     1     -32.732  46.614  30.237  1.00  0.00     0.212 HD
ENDBRANCH  17  18
BRANCH  17  20
HETATM   20  C10 UNL     1     -35.207  45.322  30.365  1.00  0.00     0.425 C 
BRANCH  20  21
HETATM   21  N7  UNL     1     -34.799  45.599  31.727  1.00  0.00    -0.046 N 
ATOM     22  H73 UNL     1     -35.417  46.267  32.186  1.00  0.00     0.277 HD
ATOM     23  H72 UNL     1     -34.957  44.804  32.346  1.00  0.00     0.277 HD
ATOM     24  H71 UNL     1     -33.826  45.905  31.737  1.00  0.00     0.277 HD
ENDBRANCH  20  21
BRANCH  20  25
HETATM   25  N8  UNL     1     -35.975  44.117  30.350  1.00  0.00    -0.046 N 
ATOM     26  H83 UNL     1     -36.871  44.246  30.821  1.00  0.00     0.277 HD
ATOM     27  H82 UNL     1     -36.314  43.909  29.410  1.00  0.00     0.277 HD
ATOM     28  H81 UNL     1     -35.464  43.326  30.741  1.00  0.00     0.277 HD
ENDBRANCH  20  25
ENDBRANCH  17  20
ENDBRANCH  15  17
ENDBRANCH   8  15
BRANCH   1  29
HETATM   29  N3  UNL     1     -30.099  42.126  24.942  1.00  0.00    -0.352 N 
ATOM     30  H3  UNL     1     -30.576  41.224  24.951  1.00  0.00     0.166 HD
BRANCH  29  31
HETATM   31  C4  UNL     1     -29.436  42.228  23.738  1.00  0.00     0.082 C 
BRANCH  31  32
HETATM   32  C3  UNL     1     -29.693  41.216  22.668  1.00  0.00     0.167 C 
BRANCH  32  33
HETATM   33  N2  UNL     1     -31.079  40.820  22.648  1.00  0.00    -0.355 N 
HETATM   34  C2  UNL     1     -31.448  39.501  22.303  1.00  0.00     0.243 C 
HETATM   35  O1  UNL     1     -30.663  38.582  21.985  1.00  0.00    -0.272 OA
ATOM     36  H2  UNL     1     -31.801  41.500  22.886  1.00  0.00     0.162 HD
BRANCH  34  37
HETATM   37  C1  UNL     1     -32.915  39.111  22.302  1.00  0.00     0.332 C 
BRANCH  37  38
HETATM   38  N1  UNL     1     -33.393  38.833  20.976  1.00  0.00    -0.071 N 
ATOM     39  H13 UNL     1     -34.310  38.387  20.997  1.00  0.00     0.274 HD
ATOM     40  H12 UNL     1     -33.644  39.691  20.485  1.00  0.00     0.274 HD
ATOM     41  H11 UNL     1     -32.724  38.280  20.440  1.00  0.00     0.274 HD
ENDBRANCH  37  38
ENDBRANCH  34  37
ENDBRANCH  32  33
ENDBRANCH  31  32
ENDBRANCH  29  31
ENDBRANCH   1  29
TORSDOF 12
ENDMDL
MODEL 4
REMARK VINA RESULT: -4.804709834      3.301      7.263
REMARK  12 active torsions:
REMARK  status: ('A' for Active; 'I' for Inactive)
REMARK    1  A    between atoms: N1_1  and  C1_5 
REMARK    2  A    between atoms: C1_5  and  C2_6 
REMARK       I    between atoms: C2_6  and  N2_8 
REMARK    3  A    between atoms: N2_8  and  C3_10 
REMARK    4  A    between atoms: C3_10  and  C4_11 
REMARK    5  A    between atoms: C4_11  and  N3_12 
REMARK    6  A    between atoms: N3_12  and  C5_14 
REMARK    7  A    between atoms: C8_21  and  N6_22 
REMARK    8  A    between atoms: N6_22  and  C9_24 
REMARK    9  A    between atoms: C9_24  and  O2_25 
REMARK   10  A    between atoms: C9_24  and  C10_27 
REMARK   11  A    between atoms: C10_27  and  N7_28 
REMARK   12  A    between atoms: C10_27  and  N8_32 
ROOT
HETATM    1  C5  UNL     1     -30.060  42.773  25.096  1.00  0.00     0.135 A 
HETATM    2  N4  UNL     1     -29.186  43.271  25.985  1.00  0.00    -0.337 N 
ATOM      3  H4  UNL     1     -28.207  43.382  25.721  1.00  0.00     0.168 HD
HETATM    4  C6  UNL     1     -29.590  43.629  27.230  1.00  0.00     0.182 A 
HETATM    5  N5  UNL     1     -30.866  43.499  27.618  1.00  0.00    -0.347 N 
ATOM      6  H5  UNL     1     -31.135  43.777  28.561  1.00  0.00     0.167 HD
HETATM    7  C7  UNL     1     -31.783  43.015  26.796  1.00  0.00     0.108 A 
HETATM    8  C8  UNL     1     -33.078  42.903  27.243  1.00  0.00     0.133 A 
HETATM    9  N9  UNL     1     -33.984  42.397  26.351  1.00  0.00    -0.337 N 
ATOM     10  H9  UNL     1     -34.959  42.291  26.632  1.00  0.00     0.168 HD
HETATM   11  C11 UNL     1     -33.610  42.035  25.113  1.00  0.00     0.182 A 
HETATM   12  N10 UNL     1     -32.341  42.149  24.683  1.00  0.00    -0.347 N 
ATOM     13  H10 UNL     1     -32.088  41.868  23.736  1.00  0.00     0.167 HD
HETATM   14  C12 UNL     1     -31.408  42.642  25.523  1.00  0.00     0.108 A 
ENDROOT
BRANCH   8  15
HETATM   15  N6  UNL     1     -33.435  43.230  28.379  1.00  0.00    -0.345 N 
ATOM     16  H6  UNL     1     -33.385  42.436  29.016  1.00  0.00     0.163 HD
BRANCH  15  17
HETATM   17  C9  UNL     1     -33.885  44.368  29.043  1.00  0.00     0.277 C 
BRANCH  17  18
HETATM   18  O2  UNL     1     -33.230  44.692  30.231  1.00  0.00    -0.373 OA
ATOM     19  H2  UNL     1     -33.348  44.089  30.957  1.00  0.00     0.212 HD
ENDBRANCH  17  18
BRANCH  17  20
HETATM   20  C10 UNL     1     -35.362  44.214  29.425  1.00  0.00     0.425 C 
BRANCH  20  21
HETATM   21  N7  UNL     1     -35.627  44.943  30.648  1.00  0.00    -0.046 N 
ATOM     22  H73 UNL     1     -36.440  44.579  31.144  1.00  0.00     0.277 HD
ATOM     23  H72 UNL     1     -34.924  44.762  31.364  1.00  0.00     0.277 HD
ATOM     24  H71 UNL     1     -35.718  45.938  30.441  1.00  0.00     0.277 HD
ENDBRANCH  20  21
BRANCH  20  25
HETATM   25  N8  UNL     1     -35.736  42.848  29.612  1.00  0.00    -0.046 N 
ATOM     26  H83 UNL     1     -34.950  42.223  29.434  1.00  0.00     0.277 HD
ATOM     27  H82 UNL     1     -35.887  42.640  30.600  1.00  0.00     0.277 HD
ATOM     28  H81 UNL     1     -36.548  42.587  29.052  1.00  0.00     0.277 HD
ENDBRANCH  20  25
ENDBRANCH  17  20
ENDBRANCH  15  17
ENDBRANCH   8  15
BRANCH   1  29
HETATM   29  N3  UNL     1     -29.839  42.411  23.943  1.00  0.00    -0.352 N 
ATOM     30  H3  UNL     1     -30.742  42.219  23.508  1.00  0.00     0.166 HD
BRANCH  29  31
HETATM   31  C4  UNL     1     -28.868  42.159  22.997  1.00  0.00     0.082 C 
BRANCH  31  32
HETATM   32  C3  UNL     1     -28.959  40.925  22.159  1.00  0.00     0.167 C 
BRANCH  32  33
HETATM   33  N2  UNL     1     -28.145  41.040  20.974  1.00  0.00    -0.355 N 
HETATM   34  C2  UNL     1     -26.825  40.539  20.953  1.00  0.00     0.243 C 
HETATM   35  O1  UNL     1     -26.242  39.978  21.906  1.00  0.00    -0.272 OA
ATOM     36  H2  UNL     1     -28.528  41.489  20.141  1.00  0.00     0.162 HD
BRANCH  34  37
HETATM   37  C1  UNL     1     -25.997  40.664  19.687  1.00  0.00     0.332 C 
BRANCH  37  38
HETATM   38  N1  UNL     1     -24.639  40.242  19.894  1.00  0.00    -0.071 N 
ATOM     39  H13 UNL     1     -24.024  41.038  20.065  1.00  0.00     0.274 HD
ATOM     40  H12 UNL     1     -24.532  39.762  20.787  1.00  0.00     0.274 HD
ATOM     41  H11 UNL     1     -24.298  39.670  19.122  1.00  0.00     0.274 HD
ENDBRANCH  37  38
ENDBRANCH  34  37
ENDBRANCH  32  33
ENDBRANCH  31  32
ENDBRANCH  29  31
ENDBRANCH   1  29
TORSDOF 12
ENDMDL
MODEL 5
REMARK VINA RESULT: -4.796046535      2.185      6.844
REMARK  12 active torsions:
REMARK  status: ('A' for Active; 'I' for Inactive)
REMARK    1  A    between atoms: N1_1  and  C1_5 
REMARK    2  A    between atoms: C1_5  and  C2_6 
REMARK       I    between atoms: C2_6  and  N2_8 
REMARK    3  A    between atoms: N2_8  and  C3_10 
REMARK    4  A    between atoms: C3_10  and  C4_11 
REMARK    5  A    between atoms: C4_11  and  N3_12 
REMARK    6  A    between atoms: N3_12  and  C5_14 
REMARK    7  A    between atoms: C8_21  and  N6_22 
REMARK    8  A    between atoms: N6_22  and  C9_24 
REMARK    9  A    between atoms: C9_24  and  O2_25 
REMARK   10  A    between atoms: C9_24  and  C10_27 
REMARK   11  A    between atoms: C10_27  and  N7_28 
REMARK   12  A    between atoms: C10_27  and  N8_32 
ROOT
HETATM    1  C5  UNL     1     -32.163  41.331  21.355  1.00  0.00     0.135 A 
HETATM    2  N4  UNL     1     -33.306  40.984  21.968  1.00  0.00    -0.337 N 
ATOM      3  H4  UNL     1     -34.098  40.659  21.412  1.00  0.00     0.168 HD
HETATM    4  C6  UNL     1     -33.421  41.060  23.319  1.00  0.00     0.182 A 
HETATM    5  N5  UNL     1     -32.406  41.482  24.086  1.00  0.00    -0.347 N 
ATOM      6  H5  UNL     1     -32.526  41.527  25.097  1.00  0.00     0.167 HD
HETATM    7  C7  UNL     1     -31.250  41.841  23.551  1.00  0.00     0.108 A 
HETATM    8  C8  UNL     1     -30.241  42.265  24.383  1.00  0.00     0.133 A 
HETATM    9  N9  UNL     1     -29.068  42.624  23.776  1.00  0.00    -0.337 N 
ATOM     10  H9  UNL     1     -28.286  42.948  24.347  1.00  0.00     0.168 HD
HETATM   11  C11 UNL     1     -28.929  42.558  22.441  1.00  0.00     0.182 A 
HETATM   12  N10 UNL     1     -29.921  42.140  21.636  1.00  0.00    -0.347 N 
ATOM     13  H10 UNL     1     -29.785  42.099  20.626  1.00  0.00     0.167 HD
HETATM   14  C12 UNL     1     -31.098  41.775  22.183  1.00  0.00     0.108 A 
ENDROOT
BRANCH   8  15
HETATM   15  N6  UNL     1     -30.356  42.332  25.610  1.00  0.00    -0.345 N 
ATOM     16  H6  UNL     1     -30.905  41.549  25.965  1.00  0.00     0.163 HD
BRANCH  15  17
HETATM   17  C9  UNL     1     -29.955  43.164  26.651  1.00  0.00     0.277 C 
BRANCH  17  18
HETATM   18  O2  UNL     1     -28.581  43.260  26.874  1.00  0.00    -0.373 OA
ATOM     19  H2  UNL     1     -28.098  43.838  26.295  1.00  0.00     0.212 HD
ENDBRANCH  17  18
BRANCH  17  20
HETATM   20  C10 UNL     1     -30.547  42.681  27.981  1.00  0.00     0.425 C 
BRANCH  20  21
HETATM   21  N7  UNL     1     -31.402  43.710  28.535  1.00  0.00    -0.046 N 
ATOM     22  H73 UNL     1     -30.919  44.603  28.628  1.00  0.00     0.277 HD
ATOM     23  H72 UNL     1     -32.127  44.003  27.880  1.00  0.00     0.277 HD
ATOM     24  H71 UNL     1     -31.792  43.390  29.422  1.00  0.00     0.277 HD
ENDBRANCH  20  21
BRANCH  20  25
HETATM   25  N8  UNL     1     -29.540  42.352  28.938  1.00  0.00    -0.046 N 
ATOM     26  H83 UNL     1     -29.950  42.157  29.852  1.00  0.00     0.277 HD
ATOM     27  H82 UNL     1     -29.133  41.437  28.744  1.00  0.00     0.277 HD
ATOM     28  H81 UNL     1     -28.818  43.070  29.004  1.00  0.00     0.277 HD
ENDBRANCH  20  25
ENDBRANCH  17  20
ENDBRANCH  15  17
ENDBRANCH   8  15
BRANCH   1  29
HETATM   29  N3  UNL     1     -31.917  41.312  20.151  1.00  0.00    -0.352 N 
ATOM     30  H3  UNL     1     -31.569  42.237  19.900  1.00  0.00     0.166 HD
BRANCH  29  31
HETATM   31  C4  UNL     1     -31.921  40.550  19.002  1.00  0.00     0.082 C 
BRANCH  31  32
HETATM   32  C3  UNL     1     -30.996  39.382  18.890  1.00  0.00     0.167 C 
BRANCH  32  33
HETATM   33  N2  UNL     1     -29.666  39.805  18.524  1.00  0.00    -0.355 N 
HETATM   34  C2  UNL     1     -28.626  39.823  19.479  1.00  0.00     0.243 C 
HETATM   35  O1  UNL     1     -28.734  39.502  20.682  1.00  0.00    -0.272 OA
ATOM     36  H2  UNL     1     -29.476  40.094  17.564  1.00  0.00     0.162 HD
BRANCH  34  37
HETATM   37  C1  UNL     1     -27.234  40.262  19.061  1.00  0.00     0.332 C 
BRANCH  37  38
HETATM   38  N1  UNL     1     -26.404  40.555  20.196  1.00  0.00    -0.071 N 
ATOM     39  H13 UNL     1     -26.427  39.798  20.879  1.00  0.00     0.274 HD
ATOM     40  H12 UNL     1     -25.414  40.519  19.951  1.00  0.00     0.274 HD
ATOM     41  H11 UNL     1     -26.648  41.448  20.624  1.00  0.00     0.274 HD
ENDBRANCH  37  38
ENDBRANCH  34  37
ENDBRANCH  32  33
ENDBRANCH  31  32
ENDBRANCH  29  31
ENDBRANCH   1  29
TORSDOF 12
ENDMDL
