MODEL 1
REMARK VINA RESULT: -7.554355635      0.000      0.000
REMARK  5 active torsions:
REMARK  status: ('A' for Active; 'I' for Inactive)
REMARK    1  A    between atoms: C4_5  and  C5_6 
REMARK    2  A    between atoms: C5_6  and  C6_7 
REMARK    3  A    between atoms: C8_10  and  C9_11 
REMARK    4  A    between atoms: C9_11  and  O2_12 
REMARK    5  A    between atoms: O2_12  and  C10_13 
ROOT
HETATM    1  C6  UNL     1      34.120  58.203  58.197  1.00  0.00     0.179 C 
HETATM    2  C7  UNL     1      33.750  59.545  57.710  1.00  0.00     0.182 C 
HETATM    3  O1  UNL     1      32.985  59.568  56.757  1.00  0.00    -0.293 OA
HETATM    4  C8  UNL     1      34.119  60.917  58.143  1.00  0.00     0.224 C 
HETATM    5  O3  UNL     1      35.431  61.220  57.797  1.00  0.00    -0.336 OA
HETATM    6  C16 UNL     1      36.695  60.713  57.838  1.00  0.00     0.078 A 
HETATM    7  C17 UNL     1      37.491  61.716  57.360  1.00  0.00     0.037 A 
HETATM    8  C18 UNL     1      38.848  61.526  57.269  1.00  0.00     0.003 A 
HETATM    9  C19 UNL     1      39.368  60.318  57.668  1.00  0.00     0.001 A 
HETATM   10  C20 UNL     1      38.530  59.286  58.162  1.00  0.00     0.012 A 
HETATM   11  C21 UNL     1      37.192  59.462  58.256  1.00  0.00     0.001 A 
HETATM   12  C22 UNL     1      36.491  58.306  58.767  1.00  0.00     0.154 C 
HETATM   13  C23 UNL     1      37.278  57.087  58.958  1.00  0.00     0.119 A 
HETATM   14  C24 UNL     1      36.260  55.979  58.639  1.00  0.00     0.107 A 
HETATM   15  N2  UNL     1      36.344  55.113  59.529  1.00  0.00    -0.344 N 
ATOM     16  H2  UNL     1      35.787  54.259  59.533  1.00  0.00     0.167 HD
HETATM   17  C25 UNL     1      37.285  55.428  60.537  1.00  0.00     0.040 A 
HETATM   18  C26 UNL     1      37.620  54.706  61.697  1.00  0.00     0.030 A 
HETATM   19  C27 UNL     1      38.534  55.218  62.585  1.00  0.00     0.002 A 
HETATM   20  C28 UNL     1      39.077  56.440  62.271  1.00  0.00     0.001 A 
HETATM   21  C29 UNL     1      38.754  57.146  61.144  1.00  0.00     0.010 A 
HETATM   22  C30 UNL     1      37.830  56.652  60.220  1.00  0.00    -0.018 A 
HETATM   23  N3  UNL     1      35.647  56.568  57.451  1.00  0.00    -0.289 N 
ATOM     24  H3  UNL     1      35.432  56.138  56.551  1.00  0.00     0.188 HD
HETATM   25  N4  UNL     1      35.434  57.876  57.879  1.00  0.00    -0.304 N 
ENDROOT
BRANCH   1  26
HETATM   26  C5  UNL     1      33.718  57.930  59.603  1.00  0.00     0.073 C 
BRANCH  26  27
HETATM   27  C4  UNL     1      32.648  56.892  59.725  1.00  0.00    -0.056 A 
HETATM   28  C3  UNL     1      31.617  57.068  60.658  1.00  0.00     0.009 A 
HETATM   29  C2  UNL     1      30.607  56.169  60.819  1.00  0.00     0.027 A 
HETATM   30  C1  UNL     1      30.560  55.036  60.057  1.00  0.00     0.046 A 
HETATM   31  N1  UNL     1      29.522  54.082  60.196  1.00  0.00    -0.102 NA
HETATM   32  C32 UNL     1      31.557  54.839  59.135  1.00  0.00     0.027 A 
HETATM   33  C31 UNL     1      32.581  55.752  58.975  1.00  0.00     0.009 A 
ENDBRANCH  26  27
ENDBRANCH   1  26
BRANCH   4  34
HETATM   34  C9  UNL     1      33.220  61.935  57.421  1.00  0.00     0.216 C 
BRANCH  34  35
HETATM   35  O2  UNL     1      34.001  62.793  56.633  1.00  0.00    -0.348 OA
BRANCH  35  36
HETATM   36  C10 UNL     1      34.008  62.856  55.282  1.00  0.00     0.068 A 
HETATM   37  C11 UNL     1      35.110  62.499  54.544  1.00  0.00     0.037 A 
HETATM   38  C12 UNL     1      35.119  62.562  53.157  1.00  0.00     0.003 A 
HETATM   39  C13 UNL     1      34.010  62.992  52.510  1.00  0.00     0.000 A 
HETATM   40  C14 UNL     1      32.896  63.358  53.199  1.00  0.00     0.003 A 
HETATM   41  C15 UNL     1      32.902  63.287  54.590  1.00  0.00     0.037 A 
ENDBRANCH  35  36
ENDBRANCH  34  35
ENDBRANCH   4  34
TORSDOF 5
ENDMDL
MODEL 2
REMARK VINA RESULT: -7.438508211      1.665      2.463
REMARK  5 active torsions:
REMARK  status: ('A' for Active; 'I' for Inactive)
REMARK    1  A    between atoms: C4_5  and  C5_6 
REMARK    2  A    between atoms: C5_6  and  C6_7 
REMARK    3  A    between atoms: C8_10  and  C9_11 
REMARK    4  A    between atoms: C9_11  and  O2_12 
REMARK    5  A    between atoms: O2_12  and  C10_13 
ROOT
HETATM    1  C6  UNL     1      34.071  58.081  58.244  1.00  0.00     0.179 C 
HETATM    2  C7  UNL     1      33.684  59.422  57.767  1.00  0.00     0.182 C 
HETATM    3  O1  UNL     1      32.913  59.442  56.819  1.00  0.00    -0.293 OA
HETATM    4  C8  UNL     1      34.041  60.796  58.206  1.00  0.00     0.224 C 
HETATM    5  O3  UNL     1      35.348  61.114  57.853  1.00  0.00    -0.336 OA
HETATM    6  C16 UNL     1      36.618  60.620  57.882  1.00  0.00     0.078 A 
HETATM    7  C17 UNL     1      37.399  61.634  57.404  1.00  0.00     0.037 A 
HETATM    8  C18 UNL     1      38.758  61.458  57.304  1.00  0.00     0.003 A 
HETATM    9  C19 UNL     1      39.293  60.254  57.692  1.00  0.00     0.001 A 
HETATM   10  C20 UNL     1      38.469  59.211  58.186  1.00  0.00     0.012 A 
HETATM   11  C21 UNL     1      37.130  59.372  58.290  1.00  0.00     0.001 A 
HETATM   12  C22 UNL     1      36.445  58.206  58.799  1.00  0.00     0.154 C 
HETATM   13  C23 UNL     1      37.246  56.994  58.977  1.00  0.00     0.119 A 
HETATM   14  C24 UNL     1      36.238  55.877  58.658  1.00  0.00     0.107 A 
HETATM   15  N2  UNL     1      36.336  55.007  59.543  1.00  0.00    -0.344 N 
ATOM     16  H2  UNL     1      35.789  54.147  59.545  1.00  0.00     0.167 HD
HETATM   17  C25 UNL     1      37.281  55.327  60.547  1.00  0.00     0.040 A 
HETATM   18  C26 UNL     1      37.631  54.601  61.700  1.00  0.00     0.030 A 
HETATM   19  C27 UNL     1      38.545  55.118  62.586  1.00  0.00     0.002 A 
HETATM   20  C28 UNL     1      39.073  56.347  62.275  1.00  0.00     0.001 A 
HETATM   21  C29 UNL     1      38.736  57.056  61.154  1.00  0.00     0.010 A 
HETATM   22  C30 UNL     1      37.811  56.558  60.233  1.00  0.00    -0.018 A 
HETATM   23  N3  UNL     1      35.610  56.467  57.478  1.00  0.00    -0.289 N 
ATOM     24  H3  UNL     1      35.394  56.039  56.577  1.00  0.00     0.188 HD
HETATM   25  N4  UNL     1      35.387  57.769  57.915  1.00  0.00    -0.304 N 
ENDROOT
BRANCH   1  26
HETATM   26  C5  UNL     1      33.682  57.796  59.650  1.00  0.00     0.073 C 
BRANCH  26  27
HETATM   27  C4  UNL     1      32.594  56.776  59.772  1.00  0.00    -0.056 A 
HETATM   28  C3  UNL     1      31.538  56.994  60.667  1.00  0.00     0.009 A 
HETATM   29  C2  UNL     1      30.511  56.114  60.824  1.00  0.00     0.027 A 
HETATM   30  C1  UNL     1      30.471  54.959  60.097  1.00  0.00     0.046 A 
HETATM   31  N1  UNL     1      29.417  54.022  60.233  1.00  0.00    -0.102 NA
HETATM   32  C32 UNL     1      31.493  54.720  59.212  1.00  0.00     0.027 A 
HETATM   33  C31 UNL     1      32.534  55.614  59.055  1.00  0.00     0.009 A 
ENDBRANCH  26  27
ENDBRANCH   1  26
BRANCH   4  34
HETATM   34  C9  UNL     1      33.127  61.807  57.495  1.00  0.00     0.216 C 
BRANCH  34  35
HETATM   35  O2  UNL     1      32.009  62.089  58.293  1.00  0.00    -0.348 OA
BRANCH  35  36
HETATM   36  C10 UNL     1      30.714  62.043  57.903  1.00  0.00     0.068 A 
HETATM   37  C11 UNL     1      30.356  61.803  56.600  1.00  0.00     0.037 A 
HETATM   38  C12 UNL     1      29.028  61.755  56.198  1.00  0.00     0.003 A 
HETATM   39  C13 UNL     1      28.054  61.953  57.118  1.00  0.00     0.000 A 
HETATM   40  C14 UNL     1      28.361  62.196  58.419  1.00  0.00     0.003 A 
HETATM   41  C15 UNL     1      29.698  62.239  58.807  1.00  0.00     0.037 A 
ENDBRANCH  35  36
ENDBRANCH  34  35
ENDBRANCH   4  34
TORSDOF 5
ENDMDL
MODEL 3
REMARK VINA RESULT: -7.315658832      1.781      3.221
REMARK  5 active torsions:
REMARK  status: ('A' for Active; 'I' for Inactive)
REMARK    1  A    between atoms: C4_5  and  C5_6 
REMARK    2  A    between atoms: C5_6  and  C6_7 
REMARK    3  A    between atoms: C8_10  and  C9_11 
REMARK    4  A    between atoms: C9_11  and  O2_12 
REMARK    5  A    between atoms: O2_12  and  C10_13 
ROOT
HETATM    1  C6  UNL     1      34.107  58.423  58.332  1.00  0.00     0.179 C 
HETATM    2  C7  UNL     1      33.732  59.806  57.984  1.00  0.00     0.182 C 
HETATM    3  O1  UNL     1      32.890  59.919  57.106  1.00  0.00    -0.293 OA
HETATM    4  C8  UNL     1      34.173  61.133  58.487  1.00  0.00     0.224 C 
HETATM    5  O3  UNL     1      35.458  61.436  58.052  1.00  0.00    -0.336 OA
HETATM    6  C16 UNL     1      36.707  60.903  57.944  1.00  0.00     0.078 A 
HETATM    7  C17 UNL     1      37.485  61.925  57.475  1.00  0.00     0.037 A 
HETATM    8  C18 UNL     1      38.824  61.716  57.252  1.00  0.00     0.003 A 
HETATM    9  C19 UNL     1      39.344  60.470  57.511  1.00  0.00     0.001 A 
HETATM   10  C20 UNL     1      38.525  59.420  57.995  1.00  0.00     0.012 A 
HETATM   11  C21 UNL     1      37.205  59.614  58.219  1.00  0.00     0.001 A 
HETATM   12  C22 UNL     1      36.521  58.435  58.699  1.00  0.00     0.154 C 
HETATM   13  C23 UNL     1      37.289  57.189  58.726  1.00  0.00     0.119 A 
HETATM   14  C24 UNL     1      36.219  56.130  58.413  1.00  0.00     0.107 A 
HETATM   15  N2  UNL     1      36.356  55.196  59.224  1.00  0.00    -0.344 N 
ATOM     16  H2  UNL     1      35.780  54.354  59.211  1.00  0.00     0.167 HD
HETATM   17  C25 UNL     1      37.388  55.412  60.167  1.00  0.00     0.040 A 
HETATM   18  C26 UNL     1      37.802  54.594  61.235  1.00  0.00     0.030 A 
HETATM   19  C27 UNL     1      38.801  55.017  62.076  1.00  0.00     0.002 A 
HETATM   20  C28 UNL     1      39.347  56.249  61.810  1.00  0.00     0.001 A 
HETATM   21  C29 UNL     1      38.948  57.047  60.774  1.00  0.00     0.010 A 
HETATM   22  C30 UNL     1      37.935  56.646  59.899  1.00  0.00    -0.018 A 
HETATM   23  N3  UNL     1      35.522  56.823  57.332  1.00  0.00    -0.289 N 
ATOM     24  H3  UNL     1      35.220  56.469  56.424  1.00  0.00     0.188 HD
HETATM   25  N4  UNL     1      35.381  58.096  57.877  1.00  0.00    -0.304 N 
ENDROOT
BRANCH   1  26
HETATM   26  C5  UNL     1      33.820  58.048  59.742  1.00  0.00     0.073 C 
BRANCH  26  27
HETATM   27  C4  UNL     1      32.704  57.061  59.881  1.00  0.00    -0.056 A 
HETATM   28  C3  UNL     1      31.704  57.279  60.838  1.00  0.00     0.009 A 
HETATM   29  C2  UNL     1      30.656  56.428  61.014  1.00  0.00     0.027 A 
HETATM   30  C1  UNL     1      30.537  55.306  60.246  1.00  0.00     0.046 A 
HETATM   31  N1  UNL     1      29.458  54.401  60.400  1.00  0.00    -0.102 NA
HETATM   32  C32 UNL     1      31.503  55.069  59.300  1.00  0.00     0.027 A 
HETATM   33  C31 UNL     1      32.566  55.933  59.124  1.00  0.00     0.009 A 
ENDBRANCH  26  27
ENDBRANCH   1  26
BRANCH   4  34
HETATM   34  C9  UNL     1      33.242  62.221  57.926  1.00  0.00     0.216 C 
BRANCH  34  35
HETATM   35  O2  UNL     1      32.490  62.793  58.963  1.00  0.00    -0.348 OA
BRANCH  35  36
HETATM   36  C10 UNL     1      31.949  62.138  60.016  1.00  0.00     0.068 A 
HETATM   37  C11 UNL     1      32.510  62.189  61.268  1.00  0.00     0.037 A 
HETATM   38  C12 UNL     1      31.957  61.518  62.350  1.00  0.00     0.003 A 
HETATM   39  C13 UNL     1      30.829  60.790  62.167  1.00  0.00     0.000 A 
HETATM   40  C14 UNL     1      30.239  60.710  60.946  1.00  0.00     0.003 A 
HETATM   41  C15 UNL     1      30.807  61.389  59.870  1.00  0.00     0.037 A 
ENDBRANCH  35  36
ENDBRANCH  34  35
ENDBRANCH   4  34
TORSDOF 5
ENDMDL
MODEL 4
REMARK VINA RESULT: -7.215515223      2.384      7.662
REMARK  5 active torsions:
REMARK  status: ('A' for Active; 'I' for Inactive)
REMARK    1  A    between atoms: C4_5  and  C5_6 
REMARK    2  A    between atoms: C5_6  and  C6_7 
REMARK    3  A    between atoms: C8_10  and  C9_11 
REMARK    4  A    between atoms: C9_11  and  O2_12 
REMARK    5  A    between atoms: O2_12  and  C10_13 
ROOT
HETATM    1  C6  UNL     1      35.982  60.299  58.392  1.00  0.00     0.179 C 
HETATM    2  C7  UNL     1      37.009  59.640  59.222  1.00  0.00     0.182 C 
HETATM    3  O1  UNL     1      36.685  59.411  60.377  1.00  0.00    -0.293 OA
HETATM    4  C8  UNL     1      38.394  59.181  58.944  1.00  0.00     0.224 C 
HETATM    5  O3  UNL     1      39.268  60.255  58.825  1.00  0.00    -0.336 OA
HETATM    6  C16 UNL     1      39.397  61.470  58.222  1.00  0.00     0.078 A 
HETATM    7  C17 UNL     1      40.657  61.891  58.546  1.00  0.00     0.037 A 
HETATM    8  C18 UNL     1      41.111  63.102  58.086  1.00  0.00     0.003 A 
HETATM    9  C19 UNL     1      40.273  63.863  57.305  1.00  0.00     0.001 A 
HETATM   10  C20 UNL     1      38.969  63.414  56.978  1.00  0.00     0.012 A 
HETATM   11  C21 UNL     1      38.511  62.222  57.424  1.00  0.00     0.001 A 
HETATM   12  C22 UNL     1      37.158  61.930  57.008  1.00  0.00     0.154 C 
HETATM   13  C23 UNL     1      36.435  62.997  56.314  1.00  0.00     0.119 A 
HETATM   14  C24 UNL     1      34.986  62.774  56.779  1.00  0.00     0.107 A 
HETATM   15  N2  UNL     1      34.248  62.833  55.778  1.00  0.00    -0.344 N 
ATOM     16  H2  UNL     1      33.234  62.742  55.824  1.00  0.00     0.167 HD
HETATM   17  C25 UNL     1      34.953  63.040  54.569  1.00  0.00     0.040 A 
HETATM   18  C26 UNL     1      34.456  63.130  53.255  1.00  0.00     0.030 A 
HETATM   19  C27 UNL     1      35.324  63.281  52.202  1.00  0.00     0.002 A 
HETATM   20  C28 UNL     1      36.661  63.337  52.511  1.00  0.00     0.001 A 
HETATM   21  C29 UNL     1      37.148  63.251  53.787  1.00  0.00     0.010 A 
HETATM   22  C30 UNL     1      36.292  63.098  54.880  1.00  0.00    -0.018 A 
HETATM   23  N3  UNL     1      35.236  62.527  58.197  1.00  0.00    -0.289 N 
ATOM     24  H3  UNL     1      34.762  62.910  59.016  1.00  0.00     0.188 HD
HETATM   25  N4  UNL     1      36.297  61.628  58.129  1.00  0.00    -0.304 N 
ENDROOT
BRANCH   1  26
HETATM   26  C5  UNL     1      35.545  59.503  57.214  1.00  0.00     0.073 C 
BRANCH  26  27
HETATM   27  C4  UNL     1      35.011  58.153  57.572  1.00  0.00    -0.056 A 
HETATM   28  C3  UNL     1      35.795  57.015  57.336  1.00  0.00     0.009 A 
HETATM   29  C2  UNL     1      35.377  55.756  57.644  1.00  0.00     0.027 A 
HETATM   30  C1  UNL     1      34.150  55.551  58.208  1.00  0.00     0.046 A 
HETATM   31  N1  UNL     1      33.685  54.256  58.543  1.00  0.00    -0.102 NA
HETATM   32  C32 UNL     1      33.362  56.649  58.450  1.00  0.00     0.027 A 
HETATM   33  C31 UNL     1      33.789  57.925  58.136  1.00  0.00     0.009 A 
ENDBRANCH  26  27
ENDBRANCH   1  26
BRANCH   4  34
HETATM   34  C9  UNL     1      38.891  58.330  60.125  1.00  0.00     0.216 C 
BRANCH  34  35
HETATM   35  O2  UNL     1      39.236  57.045  59.681  1.00  0.00    -0.348 OA
BRANCH  35  36
HETATM   36  C10 UNL     1      39.118  55.895  60.385  1.00  0.00     0.068 A 
HETATM   37  C11 UNL     1      40.211  55.136  60.724  1.00  0.00     0.037 A 
HETATM   38  C12 UNL     1      40.093  53.956  61.446  1.00  0.00     0.003 A 
HETATM   39  C13 UNL     1      38.862  53.538  61.827  1.00  0.00     0.000 A 
HETATM   40  C14 UNL     1      37.752  54.256  61.512  1.00  0.00     0.003 A 
HETATM   41  C15 UNL     1      37.887  55.438  60.789  1.00  0.00     0.037 A 
ENDBRANCH  35  36
ENDBRANCH  34  35
ENDBRANCH   4  34
TORSDOF 5
ENDMDL
MODEL 5
REMARK VINA RESULT: -7.198087871      2.369      7.560
REMARK  5 active torsions:
REMARK  status: ('A' for Active; 'I' for Inactive)
REMARK    1  A    between atoms: C4_5  and  C5_6 
REMARK    2  A    between atoms: C5_6  and  C6_7 
REMARK    3  A    between atoms: C8_10  and  C9_11 
REMARK    4  A    between atoms: C9_11  and  O2_12 
REMARK    5  A    between atoms: O2_12  and  C10_13 
ROOT
HETATM    1  C6  UNL     1      35.676  60.796  57.872  1.00  0.00     0.179 C 
HETATM    2  C7  UNL     1      36.735  60.354  58.799  1.00  0.00     0.182 C 
HETATM    3  O1  UNL     1      36.386  60.196  59.960  1.00  0.00    -0.293 OA
HETATM    4  C8  UNL     1      38.177  60.049  58.619  1.00  0.00     0.224 C 
HETATM    5  O3  UNL     1      38.917  61.210  58.424  1.00  0.00    -0.336 OA
HETATM    6  C16 UNL     1      38.926  62.368  57.706  1.00  0.00     0.078 A 
HETATM    7  C17 UNL     1      40.107  62.973  58.031  1.00  0.00     0.037 A 
HETATM    8  C18 UNL     1      40.431  64.183  57.469  1.00  0.00     0.003 A 
HETATM    9  C19 UNL     1      39.545  64.754  56.586  1.00  0.00     0.001 A 
HETATM   10  C20 UNL     1      38.323  64.115  56.259  1.00  0.00     0.012 A 
HETATM   11  C21 UNL     1      37.993  62.923  56.807  1.00  0.00     0.001 A 
HETATM   12  C22 UNL     1      36.708  62.423  56.374  1.00  0.00     0.154 C 
HETATM   13  C23 UNL     1      35.893  63.319  55.552  1.00  0.00     0.119 A 
HETATM   14  C24 UNL     1      34.462  62.960  55.985  1.00  0.00     0.107 A 
HETATM   15  N2  UNL     1      33.771  62.831  54.957  1.00  0.00    -0.344 N 
ATOM     16  H2  UNL     1      32.774  62.617  54.976  1.00  0.00     0.167 HD
HETATM   17  C25 UNL     1      34.502  63.009  53.759  1.00  0.00     0.040 A 
HETATM   18  C26 UNL     1      34.061  62.910  52.426  1.00  0.00     0.030 A 
HETATM   19  C27 UNL     1      34.953  63.069  51.395  1.00  0.00     0.002 A 
HETATM   20  C28 UNL     1      36.257  63.323  51.744  1.00  0.00     0.001 A 
HETATM   21  C29 UNL     1      36.690  63.420  53.038  1.00  0.00     0.010 A 
HETATM   22  C30 UNL     1      35.808  63.265  54.111  1.00  0.00    -0.018 A 
HETATM   23  N3  UNL     1      34.673  62.883  57.429  1.00  0.00    -0.289 N 
ATOM     24  H3  UNL     1      34.117  63.279  58.187  1.00  0.00     0.188 HD
HETATM   25  N4  UNL     1      35.838  62.123  57.489  1.00  0.00    -0.304 N 
ENDROOT
BRANCH   1  26
HETATM   26  C5  UNL     1      35.396  59.843  56.765  1.00  0.00     0.073 C 
BRANCH  26  27
HETATM   27  C4  UNL     1      34.808  58.548  57.228  1.00  0.00    -0.056 A 
HETATM   28  C3  UNL     1      35.434  57.342  56.883  1.00  0.00     0.009 A 
HETATM   29  C2  UNL     1      34.960  56.128  57.276  1.00  0.00     0.027 A 
HETATM   30  C1  UNL     1      33.831  56.038  58.039  1.00  0.00     0.046 A 
HETATM   31  N1  UNL     1      33.311  54.791  58.467  1.00  0.00    -0.102 NA
HETATM   32  C32 UNL     1      33.198  57.204  58.392  1.00  0.00     0.027 A 
HETATM   33  C31 UNL     1      33.681  58.434  57.991  1.00  0.00     0.009 A 
ENDBRANCH  26  27
ENDBRANCH   1  26
BRANCH   4  34
HETATM   34  C9  UNL     1      38.718  59.384  59.896  1.00  0.00     0.216 C 
BRANCH  34  35
HETATM   35  O2  UNL     1      39.239  58.117  59.596  1.00  0.00    -0.348 OA
BRANCH  35  36
HETATM   36  C10 UNL     1      38.790  56.932  60.071  1.00  0.00     0.068 A 
HETATM   37  C11 UNL     1      39.624  56.039  60.698  1.00  0.00     0.037 A 
HETATM   38  C12 UNL     1      39.166  54.824  61.187  1.00  0.00     0.003 A 
HETATM   39  C13 UNL     1      37.858  54.505  61.040  1.00  0.00     0.000 A 
HETATM   40  C14 UNL     1      36.996  55.357  60.425  1.00  0.00     0.003 A 
HETATM   41  C15 UNL     1      37.471  56.574  59.941  1.00  0.00     0.037 A 
ENDBRANCH  35  36
ENDBRANCH  34  35
ENDBRANCH   4  34
TORSDOF 5
ENDMDL
