MODEL 1
REMARK VINA RESULT: -6.933174840      0.000      0.000
REMARK  5 active torsions:
REMARK  status: ('A' for Active; 'I' for Inactive)
REMARK    1  A    between atoms: C4_8  and  C5_9 
REMARK    2  A    between atoms: C5_9  and  C6_10 
REMARK    3  A    between atoms: C11_16  and  C12_17 
REMARK    4  A    between atoms: C15_20  and  N3_21 
REMARK    5  A    between atoms: C21_31  and  S1_32 
ROOT
HETATM    1  C12 UNL     1      39.481  63.282  56.768  1.00  0.00    -0.035 A 
HETATM    2  C13 UNL     1      40.005  62.099  56.217  1.00  0.00     0.013 A 
HETATM    3  C14 UNL     1      39.918  60.886  56.842  1.00  0.00     0.030 A 
HETATM    4  C15 UNL     1      39.300  60.764  58.067  1.00  0.00     0.032 A 
HETATM    5  C25 UNL     1      38.784  61.915  58.615  1.00  0.00     0.030 A 
HETATM    6  C26 UNL     1      38.863  63.139  58.001  1.00  0.00     0.013 A 
ENDROOT
BRANCH   1   7
HETATM    7  C11 UNL     1      39.670  64.542  56.097  1.00  0.00     0.030 C 
HETATM    8  C10 UNL     1      38.938  65.058  55.185  1.00  0.00     0.061 C 
HETATM    9  C9  UNL     1      39.269  66.377  54.602  1.00  0.00     0.163 C 
HETATM   10  C27 UNL     1      37.772  64.405  54.607  1.00  0.00     0.192 C 
HETATM   11  C8  UNL     1      38.353  67.247  53.879  1.00  0.00     0.089 C 
HETATM   12  O1  UNL     1      40.459  66.761  54.758  1.00  0.00    -0.292 OA
HETATM   13  C7  UNL     1      37.005  66.612  53.637  1.00  0.00     0.050 C 
HETATM   14  C6  UNL     1      37.077  65.157  53.516  1.00  0.00    -0.004 C 
HETATM   15  O5  UNL     1      37.331  63.282  54.952  1.00  0.00    -0.287 OA
BRANCH  14  16
HETATM   16  C5  UNL     1      36.582  64.460  52.513  1.00  0.00     0.042 C 
BRANCH  16  17
HETATM   17  C4  UNL     1      35.338  63.735  52.476  1.00  0.00     0.056 A 
HETATM   18  C2  UNL     1      34.832  62.931  51.514  1.00  0.00     0.033 A 
HETATM   19  C1  UNL     1      35.480  62.503  50.235  1.00  0.00     0.070 C 
HETATM   20  N1  UNL     1      33.597  62.506  51.911  1.00  0.00    -0.354 N 
HETATM   21  C3  UNL     1      33.363  63.054  53.112  1.00  0.00     0.181 A 
ATOM     22  H1  UNL     1      32.971  61.888  51.393  1.00  0.00     0.166 HD
HETATM   23  N2  UNL     1      34.419  63.803  53.464  1.00  0.00    -0.351 N 
ATOM     24  H2  UNL     1      34.511  64.335  54.330  1.00  0.00     0.166 HD
ENDBRANCH  16  17
ENDBRANCH  14  16
ENDBRANCH   1   7
BRANCH   4  25
HETATM   25  N3  UNL     1      39.213  59.504  58.710  1.00  0.00    -0.351 N 
HETATM   26  C16 UNL     1      38.173  58.755  58.670  1.00  0.00     0.114 A 
HETATM   27  C17 UNL     1      36.903  58.984  58.004  1.00  0.00     0.273 A 
HETATM   28  C24 UNL     1      38.089  57.456  59.337  1.00  0.00     0.024 A 
HETATM   29  O2  UNL     1      36.614  59.985  57.338  1.00  0.00    -0.266 OA
HETATM   30  N4  UNL     1      36.079  57.856  58.262  1.00  0.00    -0.321 N 
HETATM   31  C18 UNL     1      36.819  56.935  59.077  1.00  0.00     0.048 A 
ATOM     32  H4  UNL     1      35.125  57.723  57.927  1.00  0.00     0.169 HD
HETATM   33  C19 UNL     1      36.441  55.712  59.579  1.00  0.00     0.032 A 
HETATM   34  C20 UNL     1      37.351  55.019  60.344  1.00  0.00     0.026 A 
HETATM   35  C21 UNL     1      38.608  55.498  60.621  1.00  0.00     0.059 A 
HETATM   36  C23 UNL     1      38.967  56.724  60.109  1.00  0.00     0.039 A 
ATOM     37  H3  UNL     1      40.024  59.174  59.235  1.00  0.00     0.166 HD
BRANCH  35  38
HETATM   38  S1  UNL     1      39.761  54.611  61.595  1.00  0.00     0.171 S 
HETATM   39  C22 UNL     1      40.754  55.696  62.582  1.00  0.00     0.167 C 
HETATM   40  O3  UNL     1      40.682  53.865  60.662  1.00  0.00    -0.223 OA
HETATM   41  O4  UNL     1      39.069  53.607  62.450  1.00  0.00    -0.223 OA
ENDBRANCH  35  38
ENDBRANCH   4  25
TORSDOF 5
ENDMDL
MODEL 2
REMARK VINA RESULT: -6.449309094      9.857     13.796
REMARK  5 active torsions:
REMARK  status: ('A' for Active; 'I' for Inactive)
REMARK    1  A    between atoms: C4_8  and  C5_9 
REMARK    2  A    between atoms: C5_9  and  C6_10 
REMARK    3  A    between atoms: C11_16  and  C12_17 
REMARK    4  A    between atoms: C15_20  and  N3_21 
REMARK    5  A    between atoms: C21_31  and  S1_32 
ROOT
HETATM    1  C12 UNL     1      33.060  56.605  47.192  1.00  0.00    -0.035 A 
HETATM    2  C13 UNL     1      32.819  55.962  48.419  1.00  0.00     0.013 A 
HETATM    3  C14 UNL     1      32.213  56.583  49.476  1.00  0.00     0.030 A 
HETATM    4  C15 UNL     1      31.802  57.894  49.387  1.00  0.00     0.032 A 
HETATM    5  C25 UNL     1      32.034  58.533  48.191  1.00  0.00     0.030 A 
HETATM    6  C26 UNL     1      32.641  57.924  47.122  1.00  0.00     0.013 A 
ENDROOT
BRANCH   1   7
HETATM    7  C11 UNL     1      33.770  55.922  46.142  1.00  0.00     0.030 C 
HETATM    8  C10 UNL     1      33.275  55.290  45.148  1.00  0.00     0.061 C 
HETATM    9  C9  UNL     1      34.151  54.647  44.144  1.00  0.00     0.163 C 
HETATM   10  C27 UNL     1      31.848  55.098  44.931  1.00  0.00     0.192 C 
HETATM   11  C8  UNL     1      33.764  54.256  42.797  1.00  0.00     0.089 C 
HETATM   12  O1  UNL     1      35.335  54.427  44.513  1.00  0.00    -0.292 OA
HETATM   13  C7  UNL     1      32.290  54.440  42.530  1.00  0.00     0.050 C 
HETATM   14  C6  UNL     1      31.473  54.288  43.732  1.00  0.00    -0.004 C 
HETATM   15  O5  UNL     1      30.941  55.551  45.670  1.00  0.00    -0.287 OA
BRANCH  14  16
HETATM   16  C5  UNL     1      30.435  53.482  43.838  1.00  0.00     0.042 C 
BRANCH  16  17
HETATM   17  C4  UNL     1      29.056  53.781  43.546  1.00  0.00     0.056 A 
HETATM   18  C2  UNL     1      28.437  53.936  42.355  1.00  0.00     0.033 A 
HETATM   19  C1  UNL     1      29.012  53.755  40.986  1.00  0.00     0.070 C 
HETATM   20  N1  UNL     1      27.130  54.258  42.586  1.00  0.00    -0.354 N 
HETATM   21  C3  UNL     1      26.966  54.295  43.916  1.00  0.00     0.181 A 
ATOM     22  H1  UNL     1      26.415  54.437  41.881  1.00  0.00     0.166 HD
HETATM   23  N2  UNL     1      28.134  54.004  44.509  1.00  0.00    -0.351 N 
ATOM     24  H2  UNL     1      28.298  53.960  45.515  1.00  0.00     0.166 HD
ENDBRANCH  16  17
ENDBRANCH  14  16
ENDBRANCH   1   7
BRANCH   4  25
HETATM   25  N3  UNL     1      31.175  58.533  50.486  1.00  0.00    -0.351 N 
HETATM   26  C16 UNL     1      29.912  58.493  50.706  1.00  0.00     0.114 A 
HETATM   27  C17 UNL     1      28.869  57.831  49.943  1.00  0.00     0.273 A 
HETATM   28  C24 UNL     1      29.270  59.154  51.842  1.00  0.00     0.024 A 
HETATM   29  O2  UNL     1      29.045  57.170  48.912  1.00  0.00    -0.266 OA
HETATM   30  N4  UNL     1      27.636  58.087  50.599  1.00  0.00    -0.321 N 
HETATM   31  C18 UNL     1      27.901  58.895  51.755  1.00  0.00     0.048 A 
ATOM     32  H4  UNL     1      26.719  57.754  50.301  1.00  0.00     0.169 HD
HETATM   33  C19 UNL     1      27.028  59.393  52.693  1.00  0.00     0.032 A 
HETATM   34  C20 UNL     1      27.544  60.152  53.718  1.00  0.00     0.026 A 
HETATM   35  C21 UNL     1      28.885  60.428  53.837  1.00  0.00     0.059 A 
HETATM   36  C23 UNL     1      29.742  59.920  52.887  1.00  0.00     0.039 A 
ATOM     37  H3  UNL     1      31.761  59.054  51.139  1.00  0.00     0.166 HD
BRANCH  35  38
HETATM   38  S1  UNL     1      29.537  61.394  55.143  1.00  0.00     0.171 S 
HETATM   39  C22 UNL     1      29.709  63.093  54.676  1.00  0.00     0.167 C 
HETATM   40  O3  UNL     1      30.910  60.865  55.473  1.00  0.00    -0.223 OA
HETATM   41  O4  UNL     1      28.693  61.267  56.365  1.00  0.00    -0.223 OA
ENDBRANCH  35  38
ENDBRANCH   4  25
TORSDOF 5
ENDMDL
MODEL 3
REMARK VINA RESULT: -6.276213452      3.781     10.913
REMARK  5 active torsions:
REMARK  status: ('A' for Active; 'I' for Inactive)
REMARK    1  A    between atoms: C4_8  and  C5_9 
REMARK    2  A    between atoms: C5_9  and  C6_10 
REMARK    3  A    between atoms: C11_16  and  C12_17 
REMARK    4  A    between atoms: C15_20  and  N3_21 
REMARK    5  A    between atoms: C21_31  and  S1_32 
ROOT
HETATM    1  C12 UNL     1      33.995  59.079  57.677  1.00  0.00    -0.035 A 
HETATM    2  C13 UNL     1      34.610  59.064  56.413  1.00  0.00     0.013 A 
HETATM    3  C14 UNL     1      35.156  60.179  55.840  1.00  0.00     0.030 A 
HETATM    4  C15 UNL     1      35.129  61.394  56.488  1.00  0.00     0.032 A 
HETATM    5  C25 UNL     1      34.530  61.419  57.726  1.00  0.00     0.030 A 
HETATM    6  C26 UNL     1      33.977  60.310  58.314  1.00  0.00     0.013 A 
ENDROOT
BRANCH   1   7
HETATM    7  C11 UNL     1      33.371  57.888  58.195  1.00  0.00     0.030 C 
HETATM    8  C10 UNL     1      33.904  56.979  58.919  1.00  0.00     0.061 C 
HETATM    9  C9  UNL     1      33.115  55.816  59.378  1.00  0.00     0.163 C 
HETATM   10  C27 UNL     1      35.306  56.965  59.311  1.00  0.00     0.192 C 
HETATM   11  C8  UNL     1      33.448  54.943  60.494  1.00  0.00     0.089 C 
HETATM   12  O1  UNL     1      32.062  55.578  58.729  1.00  0.00    -0.292 OA
HETATM   13  C7  UNL     1      34.800  55.246  61.096  1.00  0.00     0.050 C 
HETATM   14  C6  UNL     1      35.745  55.787  60.121  1.00  0.00    -0.004 C 
HETATM   15  O5  UNL     1      36.145  57.850  59.015  1.00  0.00    -0.287 OA
BRANCH  14  16
HETATM   16  C5  UNL     1      36.953  55.308  59.899  1.00  0.00     0.042 C 
BRANCH  16  17
HETATM   17  C4  UNL     1      38.176  55.659  60.574  1.00  0.00     0.056 A 
HETATM   18  C2  UNL     1      38.910  54.949  61.460  1.00  0.00     0.033 A 
HETATM   19  C1  UNL     1      38.690  53.544  61.926  1.00  0.00     0.070 C 
HETATM   20  N1  UNL     1      39.964  55.718  61.862  1.00  0.00    -0.354 N 
HETATM   21  C3  UNL     1      39.862  56.888  61.216  1.00  0.00     0.181 A 
ATOM     22  H1  UNL     1      40.691  55.453  62.527  1.00  0.00     0.166 HD
HETATM   23  N2  UNL     1      38.776  56.860  60.429  1.00  0.00    -0.351 N 
ATOM     24  H2  UNL     1      38.458  57.618  59.824  1.00  0.00     0.166 HD
ENDBRANCH  16  17
ENDBRANCH  14  16
ENDBRANCH   1   7
BRANCH   4  25
HETATM   25  N3  UNL     1      35.697  62.547  55.889  1.00  0.00    -0.351 N 
HETATM   26  C16 UNL     1      36.902  62.933  56.092  1.00  0.00     0.114 A 
HETATM   27  C17 UNL     1      37.929  62.335  56.927  1.00  0.00     0.273 A 
HETATM   28  C24 UNL     1      37.483  64.123  55.471  1.00  0.00     0.024 A 
HETATM   29  O2  UNL     1      37.793  61.309  57.606  1.00  0.00    -0.266 OA
HETATM   30  N4  UNL     1      39.092  63.142  56.813  1.00  0.00    -0.321 N 
HETATM   31  C18 UNL     1      38.801  64.228  55.921  1.00  0.00     0.048 A 
ATOM     32  H4  UNL     1      39.982  62.979  57.284  1.00  0.00     0.169 HD
HETATM   33  C19 UNL     1      39.608  65.260  55.507  1.00  0.00     0.032 A 
HETATM   34  C20 UNL     1      39.079  66.185  54.636  1.00  0.00     0.026 A 
HETATM   35  C21 UNL     1      37.788  66.116  54.172  1.00  0.00     0.059 A 
HETATM   36  C23 UNL     1      36.996  65.074  54.599  1.00  0.00     0.039 A 
ATOM     37  H3  UNL     1      35.113  63.100  55.262  1.00  0.00     0.166 HD
BRANCH  35  38
HETATM   38  S1  UNL     1      37.120  67.295  53.064  1.00  0.00     0.171 S 
HETATM   39  C22 UNL     1      36.638  66.552  51.531  1.00  0.00     0.167 C 
HETATM   40  O3  UNL     1      38.191  68.314  52.766  1.00  0.00    -0.223 OA
HETATM   41  O4  UNL     1      35.971  68.012  53.686  1.00  0.00    -0.223 OA
ENDBRANCH  35  38
ENDBRANCH   4  25
TORSDOF 5
ENDMDL
MODEL 4
REMARK VINA RESULT: -6.261172959     11.696     14.031
REMARK  5 active torsions:
REMARK  status: ('A' for Active; 'I' for Inactive)
REMARK    1  A    between atoms: C4_8  and  C5_9 
REMARK    2  A    between atoms: C5_9  and  C6_10 
REMARK    3  A    between atoms: C11_16  and  C12_17 
REMARK    4  A    between atoms: C15_20  and  N3_21 
REMARK    5  A    between atoms: C21_31  and  S1_32 
ROOT
HETATM    1  C12 UNL     1      35.356  55.244  44.813  1.00  0.00    -0.035 A 
HETATM    2  C13 UNL     1      34.590  56.403  44.591  1.00  0.00     0.013 A 
HETATM    3  C14 UNL     1      33.645  56.848  45.474  1.00  0.00     0.030 A 
HETATM    4  C15 UNL     1      33.395  56.169  46.646  1.00  0.00     0.032 A 
HETATM    5  C25 UNL     1      34.139  55.035  46.872  1.00  0.00     0.030 A 
HETATM    6  C26 UNL     1      35.090  54.575  45.997  1.00  0.00     0.013 A 
ENDROOT
BRANCH   1   7
HETATM    7  C11 UNL     1      36.283  54.785  43.811  1.00  0.00     0.030 C 
HETATM    8  C10 UNL     1      37.529  55.054  43.718  1.00  0.00     0.061 C 
HETATM    9  C9  UNL     1      38.348  54.487  42.624  1.00  0.00     0.163 C 
HETATM   10  C27 UNL     1      38.239  55.955  44.614  1.00  0.00     0.192 C 
HETATM   11  C8  UNL     1      39.799  54.374  42.613  1.00  0.00     0.089 C 
HETATM   12  O1  UNL     1      37.709  54.070  41.622  1.00  0.00    -0.292 OA
HETATM   13  C7  UNL     1      40.451  55.037  43.802  1.00  0.00     0.050 C 
HETATM   14  C6  UNL     1      39.686  56.175  44.307  1.00  0.00    -0.004 C 
HETATM   15  O5  UNL     1      37.726  56.546  45.595  1.00  0.00    -0.287 OA
BRANCH  14  16
HETATM   16  C5  UNL     1      40.176  57.383  44.503  1.00  0.00     0.042 C 
BRANCH  16  17
HETATM   17  C4  UNL     1      40.045  58.535  43.649  1.00  0.00     0.056 A 
HETATM   18  C2  UNL     1      39.209  59.592  43.743  1.00  0.00     0.033 A 
HETATM   19  C1  UNL     1      38.228  59.900  44.830  1.00  0.00     0.070 C 
HETATM   20  N1  UNL     1      39.424  60.410  42.670  1.00  0.00    -0.354 N 
HETATM   21  C3  UNL     1      40.390  59.842  41.935  1.00  0.00     0.181 A 
ATOM     22  H1  UNL     1      38.941  61.286  42.468  1.00  0.00     0.166 HD
HETATM   23  N2  UNL     1      40.775  58.700  42.524  1.00  0.00    -0.351 N 
ATOM     24  H2  UNL     1      41.496  58.065  42.180  1.00  0.00     0.166 HD
ENDBRANCH  16  17
ENDBRANCH  14  16
ENDBRANCH   1   7
BRANCH   4  25
HETATM   25  N3  UNL     1      32.414  56.636  47.556  1.00  0.00    -0.351 N 
HETATM   26  C16 UNL     1      31.183  56.279  47.520  1.00  0.00     0.114 A 
HETATM   27  C17 UNL     1      30.518  55.371  46.603  1.00  0.00     0.273 A 
HETATM   28  C24 UNL     1      30.175  56.764  48.462  1.00  0.00     0.024 A 
HETATM   29  O2  UNL     1      31.063  54.769  45.670  1.00  0.00    -0.266 OA
HETATM   30  N4  UNL     1      29.150  55.311  46.982  1.00  0.00    -0.321 N 
HETATM   31  C18 UNL     1      28.960  56.167  48.118  1.00  0.00     0.048 A 
ATOM     32  H4  UNL     1      28.427  54.755  46.526  1.00  0.00     0.169 HD
HETATM   33  C19 UNL     1      27.815  56.435  48.830  1.00  0.00     0.032 A 
HETATM   34  C20 UNL     1      27.903  57.307  49.890  1.00  0.00     0.026 A 
HETATM   35  C21 UNL     1      29.078  57.913  50.260  1.00  0.00     0.059 A 
HETATM   36  C23 UNL     1      30.214  57.632  49.533  1.00  0.00     0.039 A 
ATOM     37  H3  UNL     1      32.704  57.293  48.282  1.00  0.00     0.166 HD
BRANCH  35  38
HETATM   38  S1  UNL     1      29.184  59.021  51.610  1.00  0.00     0.171 S 
HETATM   39  C22 UNL     1      28.302  60.523  51.294  1.00  0.00     0.167 C 
HETATM   40  O3  UNL     1      30.637  59.374  51.811  1.00  0.00    -0.223 OA
HETATM   41  O4  UNL     1      28.694  58.377  52.862  1.00  0.00    -0.223 OA
ENDBRANCH  35  38
ENDBRANCH   4  25
TORSDOF 5
ENDMDL
MODEL 5
REMARK VINA RESULT: -6.152684356      4.302      6.720
REMARK  5 active torsions:
REMARK  status: ('A' for Active; 'I' for Inactive)
REMARK    1  A    between atoms: C4_8  and  C5_9 
REMARK    2  A    between atoms: C5_9  and  C6_10 
REMARK    3  A    between atoms: C11_16  and  C12_17 
REMARK    4  A    between atoms: C15_20  and  N3_21 
REMARK    5  A    between atoms: C21_31  and  S1_32 
ROOT
HETATM    1  C12 UNL     1      32.432  62.393  55.134  1.00  0.00    -0.035 A 
HETATM    2  C13 UNL     1      32.233  62.065  56.487  1.00  0.00     0.013 A 
HETATM    3  C14 UNL     1      33.204  61.497  57.264  1.00  0.00     0.030 A 
HETATM    4  C15 UNL     1      34.449  61.213  56.747  1.00  0.00     0.032 A 
HETATM    5  C25 UNL     1      34.654  61.530  55.424  1.00  0.00     0.030 A 
HETATM    6  C26 UNL     1      33.690  62.100  54.632  1.00  0.00     0.013 A 
ENDROOT
BRANCH   1   7
HETATM    7  C11 UNL     1      31.347  62.921  54.347  1.00  0.00     0.030 C 
HETATM    8  C10 UNL     1      30.392  62.272  53.801  1.00  0.00     0.061 C 
HETATM    9  C9  UNL     1      29.342  62.972  53.028  1.00  0.00     0.163 C 
HETATM   10  C27 UNL     1      30.267  60.821  53.833  1.00  0.00     0.192 C 
HETATM   11  C8  UNL     1      28.026  62.446  52.702  1.00  0.00     0.089 C 
HETATM   12  O1  UNL     1      29.639  64.129  52.627  1.00  0.00    -0.292 OA
HETATM   13  C7  UNL     1      27.849  61.004  53.114  1.00  0.00     0.050 C 
HETATM   14  C6  UNL     1      29.101  60.250  53.091  1.00  0.00    -0.004 C 
HETATM   15  O5  UNL     1      31.056  60.044  54.422  1.00  0.00    -0.287 OA
BRANCH  14  16
HETATM   16  C5  UNL     1      29.279  59.109  52.457  1.00  0.00     0.042 C 
BRANCH  16  17
HETATM   17  C4  UNL     1      29.737  58.916  51.104  1.00  0.00     0.056 A 
HETATM   18  C2  UNL     1      29.041  58.920  49.946  1.00  0.00     0.033 A 
HETATM   19  C1  UNL     1      27.588  59.213  49.743  1.00  0.00     0.070 C 
HETATM   20  N1  UNL     1      29.903  58.645  48.923  1.00  0.00    -0.354 N 
HETATM   21  C3  UNL     1      31.115  58.478  49.469  1.00  0.00     0.181 A 
ATOM     22  H1  UNL     1      29.668  58.579  47.932  1.00  0.00     0.166 HD
HETATM   23  N2  UNL     1      31.024  58.642  50.798  1.00  0.00    -0.351 N 
ATOM     24  H2  UNL     1      31.795  58.572  51.462  1.00  0.00     0.166 HD
ENDBRANCH  16  17
ENDBRANCH  14  16
ENDBRANCH   1   7
BRANCH   4  25
HETATM   25  N3  UNL     1      35.451  60.623  57.557  1.00  0.00    -0.351 N 
HETATM   26  C16 UNL     1      35.659  59.360  57.625  1.00  0.00     0.114 A 
HETATM   27  C17 UNL     1      34.972  58.280  56.940  1.00  0.00     0.273 A 
HETATM   28  C24 UNL     1      36.694  58.757  58.463  1.00  0.00     0.024 A 
HETATM   29  O2  UNL     1      34.034  58.417  56.145  1.00  0.00    -0.266 OA
HETATM   30  N4  UNL     1      35.575  57.062  57.354  1.00  0.00    -0.321 N 
HETATM   31  C18 UNL     1      36.624  57.374  58.283  1.00  0.00     0.048 A 
ATOM     32  H4  UNL     1      35.309  56.128  57.045  1.00  0.00     0.169 HD
HETATM   33  C19 UNL     1      37.481  56.530  58.950  1.00  0.00     0.032 A 
HETATM   34  C20 UNL     1      38.409  57.090  59.797  1.00  0.00     0.026 A 
HETATM   35  C21 UNL     1      38.509  58.445  60.000  1.00  0.00     0.059 A 
HETATM   36  C23 UNL     1      37.641  59.272  59.323  1.00  0.00     0.039 A 
ATOM     37  H3  UNL     1      36.041  61.239  58.118  1.00  0.00     0.166 HD
BRANCH  35  38
HETATM   38  S1  UNL     1      39.692  59.152  61.080  1.00  0.00     0.171 S 
HETATM   39  C22 UNL     1      38.938  59.778  62.554  1.00  0.00     0.167 C 
HETATM   40  O3  UNL     1      40.341  60.311  60.366  1.00  0.00    -0.223 OA
HETATM   41  O4  UNL     1      40.759  58.166  61.412  1.00  0.00    -0.223 OA
ENDBRANCH  35  38
ENDBRANCH   4  25
TORSDOF 5
ENDMDL
