MODEL 1
REMARK VINA RESULT: -9.223857117      0.000      0.000
REMARK  6 active torsions:
REMARK  status: ('A' for Active; 'I' for Inactive)
REMARK    1  A    between atoms: C2_5  and  N3_6 
REMARK    2  A    between atoms: C4_12  and  C5_13 
REMARK       I    between atoms: C5_13  and  N5_15 
REMARK    3  A    between atoms: N5_15  and  N6_17 
REMARK    4  A    between atoms: C6_19  and  C7_20 
REMARK    5  A    between atoms: C10_23  and  O3_24 
REMARK    6  A    between atoms: C13_31  and  N9_32 
ROOT
HETATM    1  C1  UNL     1      28.257  72.434   4.952  1.00  0.00     0.198 C 
HETATM    2  N1  UNL     1      29.049  71.227   5.066  1.00  0.00    -0.111 N 
HETATM    3  N2  UNL     1      29.629  70.905   6.204  1.00  0.00    -0.114 N 
ATOM      4  H2  UNL     1      29.522  71.510   7.019  1.00  0.00     0.206 HD
HETATM    5  C2  UNL     1      30.377  69.756   6.294  1.00  0.00     0.717 A 
HETATM    6  N4  UNL     1      30.516  68.960   5.211  1.00  0.00    -0.008 N 
HETATM    7  C3  UNL     1      31.174  67.786   4.980  1.00  0.00     0.318 A 
HETATM    8  O1  UNL     1      31.830  67.228   5.904  1.00  0.00    -0.263 OA
HETATM    9  C4  UNL     1      30.978  67.416   3.689  1.00  0.00     0.191 A 
HETATM   10  N7  UNL     1      30.189  68.379   3.130  1.00  0.00    -0.253 N 
ATOM     11  H7  UNL     1      29.854  68.402   2.166  1.00  0.00     0.190 HD
HETATM   12  N8  UNL     1      29.941  69.270   4.064  1.00  0.00     0.006 N 
HETATM   13  C13 UNL     1      29.201  70.427   4.012  1.00  0.00     0.730 A 
ENDROOT
BRANCH   9  14
HETATM   14  C5  UNL     1      31.487  66.240   3.008  1.00  0.00     0.293 C 
HETATM   15  O2  UNL     1      30.710  65.627   2.190  1.00  0.00    -0.264 OA
HETATM   16  N5  UNL     1      32.799  65.773   3.230  1.00  0.00    -0.265 N 
ATOM     17  H5  UNL     1      33.425  66.253   3.877  1.00  0.00     0.190 HD
BRANCH  16  18
HETATM   18  N6  UNL     1      33.222  64.620   2.527  1.00  0.00    -0.308 N 
HETATM   19  C6  UNL     1      34.391  64.164   2.783  1.00  0.00     0.118 C 
ATOM     20  H6  UNL     1      32.617  64.168   1.841  1.00  0.00     0.186 HD
BRANCH  19  21
HETATM   21  C7  UNL     1      34.892  62.967   2.085  1.00  0.00    -0.019 A 
HETATM   22  C8  UNL     1      34.020  61.995   1.645  1.00  0.00     0.015 A 
HETATM   23  C9  UNL     1      34.496  60.880   0.992  1.00  0.00     0.037 A 
HETATM   24  C10 UNL     1      35.844  60.721   0.773  1.00  0.00     0.065 A 
HETATM   25  C11 UNL     1      36.720  61.686   1.209  1.00  0.00     0.037 A 
HETATM   26  C12 UNL     1      36.244  62.801   1.861  1.00  0.00     0.015 A 
BRANCH  24  27
HETATM   27  O3  UNL     1      36.289  59.569   0.104  1.00  0.00    -0.361 OA
ATOM     28  H3  UNL     1      37.097  59.159   0.389  1.00  0.00     0.217 HD
ENDBRANCH  24  27
ENDBRANCH  19  21
ENDBRANCH  16  18
ENDBRANCH   9  14
BRANCH   5  29
HETATM   29  N3  UNL     1      30.921  69.469   7.393  1.00  0.00    -0.231 N 
ATOM     30  H32 UNL     1      30.367  69.188   8.202  1.00  0.00     0.174 HD
ATOM     31  H31 UNL     1      31.937  69.522   7.468  1.00  0.00     0.174 HD
ENDBRANCH   5  29
BRANCH  13  32
HETATM   32  N9  UNL     1      28.628  70.762   2.918  1.00  0.00    -0.230 N 
ATOM     33  H92 UNL     1      29.195  71.057   2.124  1.00  0.00     0.174 HD
ATOM     34  H91 UNL     1      27.610  70.721   2.880  1.00  0.00     0.174 HD
ENDBRANCH  13  32
TORSDOF 6
ENDMDL
MODEL 2
REMARK VINA RESULT: -8.709474281      2.727      9.776
REMARK  6 active torsions:
REMARK  status: ('A' for Active; 'I' for Inactive)
REMARK    1  A    between atoms: C2_5  and  N3_6 
REMARK    2  A    between atoms: C4_12  and  C5_13 
REMARK       I    between atoms: C5_13  and  N5_15 
REMARK    3  A    between atoms: N5_15  and  N6_17 
REMARK    4  A    between atoms: C6_19  and  C7_20 
REMARK    5  A    between atoms: C10_23  and  O3_24 
REMARK    6  A    between atoms: C13_31  and  N9_32 
ROOT
HETATM    1  C1  UNL     1      35.547  61.833   2.113  1.00  0.00     0.198 C 
HETATM    2  N1  UNL     1      34.370  62.591   1.741  1.00  0.00    -0.111 N 
HETATM    3  N2  UNL     1      33.460  62.074   0.942  1.00  0.00    -0.114 N 
ATOM      4  H2  UNL     1      33.579  61.129   0.578  1.00  0.00     0.206 HD
HETATM    5  C2  UNL     1      32.349  62.808   0.599  1.00  0.00     0.717 A 
HETATM    6  N4  UNL     1      32.197  64.060   1.084  1.00  0.00    -0.008 N 
HETATM    7  C3  UNL     1      31.238  65.020   0.937  1.00  0.00     0.318 A 
HETATM    8  O1  UNL     1      30.224  64.805   0.215  1.00  0.00    -0.263 OA
HETATM    9  C4  UNL     1      31.591  66.113   1.659  1.00  0.00     0.191 A 
HETATM   10  N7  UNL     1      32.782  65.812   2.252  1.00  0.00    -0.253 N 
ATOM     11  H7  UNL     1      33.323  66.421   2.867  1.00  0.00     0.190 HD
HETATM   12  N8  UNL     1      33.102  64.591   1.885  1.00  0.00     0.006 N 
HETATM   13  C13 UNL     1      34.199  63.827   2.206  1.00  0.00     0.730 A 
ENDROOT
BRANCH   9  14
HETATM   14  C5  UNL     1      30.872  67.366   1.795  1.00  0.00     0.293 C 
HETATM   15  O2  UNL     1      30.791  68.136   0.771  1.00  0.00    -0.264 OA
HETATM   16  N5  UNL     1      30.272  67.740   3.016  1.00  0.00    -0.265 N 
ATOM     17  H5  UNL     1      30.330  67.136   3.836  1.00  0.00     0.190 HD
BRANCH  16  18
HETATM   18  N6  UNL     1      29.588  68.978   3.069  1.00  0.00    -0.308 N 
HETATM   19  C6  UNL     1      29.569  69.598   4.189  1.00  0.00     0.118 C 
ATOM     20  H6  UNL     1      29.127  69.362   2.244  1.00  0.00     0.186 HD
BRANCH  19  21
HETATM   21  C7  UNL     1      28.872  70.891   4.312  1.00  0.00    -0.019 A 
HETATM   22  C8  UNL     1      28.403  71.544   3.193  1.00  0.00     0.015 A 
HETATM   23  C9  UNL     1      27.752  72.752   3.316  1.00  0.00     0.037 A 
HETATM   24  C10 UNL     1      27.564  73.320   4.554  1.00  0.00     0.065 A 
HETATM   25  C11 UNL     1      28.030  72.675   5.674  1.00  0.00     0.037 A 
HETATM   26  C12 UNL     1      28.680  71.468   5.550  1.00  0.00     0.015 A 
BRANCH  24  27
HETATM   27  O3  UNL     1      26.896  74.553   4.636  1.00  0.00    -0.361 OA
ATOM     28  H3  UNL     1      27.140  75.159   5.325  1.00  0.00     0.217 HD
ENDBRANCH  24  27
ENDBRANCH  19  21
ENDBRANCH  16  18
ENDBRANCH   9  14
BRANCH   5  29
HETATM   29  N3  UNL     1      31.492  62.292  -0.166  1.00  0.00    -0.231 N 
ATOM     30  H32 UNL     1      31.584  61.331  -0.495  1.00  0.00     0.174 HD
ATOM     31  H31 UNL     1      30.692  62.854  -0.459  1.00  0.00     0.174 HD
ENDBRANCH   5  29
BRANCH  13  32
HETATM   32  N9  UNL     1      35.098  64.306   2.980  1.00  0.00    -0.230 N 
ATOM     33  H92 UNL     1      36.077  64.267   2.698  1.00  0.00     0.174 HD
ATOM     34  H91 UNL     1      34.797  64.717   3.864  1.00  0.00     0.174 HD
ENDBRANCH  13  32
TORSDOF 6
ENDMDL
MODEL 3
REMARK VINA RESULT: -8.433930886      1.750      3.157
REMARK  6 active torsions:
REMARK  status: ('A' for Active; 'I' for Inactive)
REMARK    1  A    between atoms: C2_5  and  N3_6 
REMARK    2  A    between atoms: C4_12  and  C5_13 
REMARK       I    between atoms: C5_13  and  N5_15 
REMARK    3  A    between atoms: N5_15  and  N6_17 
REMARK    4  A    between atoms: C6_19  and  C7_20 
REMARK    5  A    between atoms: C10_23  and  O3_24 
REMARK    6  A    between atoms: C13_31  and  N9_32 
ROOT
HETATM    1  C1  UNL     1      27.778  73.178   4.376  1.00  0.00     0.198 C 
HETATM    2  N1  UNL     1      28.235  72.117   3.503  1.00  0.00    -0.111 N 
HETATM    3  N2  UNL     1      28.043  72.185   2.201  1.00  0.00    -0.114 N 
ATOM      4  H2  UNL     1      27.568  72.992   1.798  1.00  0.00     0.206 HD
HETATM    5  C2  UNL     1      28.483  71.169   1.387  1.00  0.00     0.717 A 
HETATM    6  N4  UNL     1      29.111  70.101   1.927  1.00  0.00    -0.008 N 
HETATM    7  C3  UNL     1      29.651  68.960   1.407  1.00  0.00     0.318 A 
HETATM    8  O1  UNL     1      29.616  68.746   0.163  1.00  0.00    -0.263 OA
HETATM    9  C4  UNL     1      30.165  68.214   2.417  1.00  0.00     0.191 A 
HETATM   10  N7  UNL     1      29.934  68.912   3.566  1.00  0.00    -0.253 N 
ATOM     11  H7  UNL     1      30.197  68.628   4.510  1.00  0.00     0.190 HD
HETATM   12  N8  UNL     1      29.309  70.020   3.229  1.00  0.00     0.006 N 
HETATM   13  C13 UNL     1      28.856  71.055   4.011  1.00  0.00     0.730 A 
ENDROOT
BRANCH   9  14
HETATM   14  C5  UNL     1      30.834  66.929   2.329  1.00  0.00     0.293 C 
HETATM   15  O2  UNL     1      30.602  66.059   3.246  1.00  0.00    -0.264 OA
HETATM   16  N5  UNL     1      31.716  66.630   1.271  1.00  0.00    -0.265 N 
ATOM     17  H5  UNL     1      31.907  67.313   0.537  1.00  0.00     0.190 HD
BRANCH  16  18
HETATM   18  N6  UNL     1      32.328  65.354   1.255  1.00  0.00    -0.308 N 
HETATM   19  C6  UNL     1      33.466  65.235   1.832  1.00  0.00     0.118 C 
ATOM     20  H6  UNL     1      31.880  64.558   0.802  1.00  0.00     0.186 HD
BRANCH  19  21
HETATM   21  C7  UNL     1      34.157  63.933   1.851  1.00  0.00    -0.019 A 
HETATM   22  C8  UNL     1      35.516  63.863   2.072  1.00  0.00     0.015 A 
HETATM   23  C9  UNL     1      36.154  62.643   2.090  1.00  0.00     0.037 A 
HETATM   24  C10 UNL     1      35.446  61.482   1.886  1.00  0.00     0.065 A 
HETATM   25  C11 UNL     1      34.091  61.544   1.664  1.00  0.00     0.037 A 
HETATM   26  C12 UNL     1      33.454  62.764   1.648  1.00  0.00     0.015 A 
BRANCH  24  27
HETATM   27  O3  UNL     1      36.135  60.258   1.911  1.00  0.00    -0.361 OA
ATOM     28  H3  UNL     1      36.051  59.672   1.169  1.00  0.00     0.217 HD
ENDBRANCH  24  27
ENDBRANCH  19  21
ENDBRANCH  16  18
ENDBRANCH   9  14
BRANCH   5  29
HETATM   29  N3  UNL     1      28.289  71.257   0.146  1.00  0.00    -0.231 N 
ATOM     30  H32 UNL     1      28.303  70.431  -0.454  1.00  0.00     0.174 HD
ATOM     31  H31 UNL     1      28.115  72.176  -0.261  1.00  0.00     0.174 HD
ENDBRANCH   5  29
BRANCH  13  32
HETATM   32  N9  UNL     1      29.029  71.012   5.278  1.00  0.00    -0.230 N 
ATOM     33  H92 UNL     1      28.928  71.864   5.829  1.00  0.00     0.174 HD
ATOM     34  H91 UNL     1      29.267  70.113   5.698  1.00  0.00     0.174 HD
ENDBRANCH  13  32
TORSDOF 6
ENDMDL
MODEL 4
REMARK VINA RESULT: -8.419576960      1.049      2.370
REMARK  6 active torsions:
REMARK  status: ('A' for Active; 'I' for Inactive)
REMARK    1  A    between atoms: C2_5  and  N3_6 
REMARK    2  A    between atoms: C4_12  and  C5_13 
REMARK       I    between atoms: C5_13  and  N5_15 
REMARK    3  A    between atoms: N5_15  and  N6_17 
REMARK    4  A    between atoms: C6_19  and  C7_20 
REMARK    5  A    between atoms: C10_23  and  O3_24 
REMARK    6  A    between atoms: C13_31  and  N9_32 
ROOT
HETATM    1  C1  UNL     1      29.421  71.716   7.566  1.00  0.00     0.198 C 
HETATM    2  N1  UNL     1      29.516  70.962   6.333  1.00  0.00    -0.111 N 
HETATM    3  N2  UNL     1      28.940  71.396   5.231  1.00  0.00    -0.114 N 
ATOM      4  H2  UNL     1      28.419  72.274   5.239  1.00  0.00     0.206 HD
HETATM    5  C2  UNL     1      29.040  70.668   4.069  1.00  0.00     0.717 A 
HETATM    6  N4  UNL     1      29.730  69.506   4.064  1.00  0.00    -0.008 N 
HETATM    7  C3  UNL     1      30.007  68.576   3.103  1.00  0.00     0.318 A 
HETATM    8  O1  UNL     1      29.578  68.728   1.925  1.00  0.00    -0.263 OA
HETATM    9  C4  UNL     1      30.755  67.585   3.650  1.00  0.00     0.191 A 
HETATM   10  N7  UNL     1      30.934  67.918   4.961  1.00  0.00    -0.253 N 
ATOM     11  H7  UNL     1      31.454  67.382   5.656  1.00  0.00     0.190 HD
HETATM   12  N8  UNL     1      30.312  69.059   5.161  1.00  0.00     0.006 N 
HETATM   13  C13 UNL     1      30.190  69.814   6.303  1.00  0.00     0.730 A 
ENDROOT
BRANCH   9  14
HETATM   14  C5  UNL     1      31.276  66.396   3.001  1.00  0.00     0.293 C 
HETATM   15  O2  UNL     1      30.459  65.653   2.346  1.00  0.00    -0.264 OA
HETATM   16  N5  UNL     1      32.642  66.055   3.081  1.00  0.00    -0.265 N 
ATOM     17  H5  UNL     1      33.300  66.638   3.599  1.00  0.00     0.190 HD
BRANCH  16  18
HETATM   18  N6  UNL     1      33.074  64.880   2.420  1.00  0.00    -0.308 N 
HETATM   19  C6  UNL     1      34.196  64.376   2.778  1.00  0.00     0.118 C 
ATOM     20  H6  UNL     1      32.511  64.450   1.686  1.00  0.00     0.186 HD
BRANCH  19  21
HETATM   21  C7  UNL     1      34.702  63.153   2.129  1.00  0.00    -0.019 A 
HETATM   22  C8  UNL     1      36.056  62.961   1.955  1.00  0.00     0.015 A 
HETATM   23  C9  UNL     1      36.521  61.815   1.349  1.00  0.00     0.037 A 
HETATM   24  C10 UNL     1      35.643  60.851   0.911  1.00  0.00     0.065 A 
HETATM   25  C11 UNL     1      34.293  61.036   1.081  1.00  0.00     0.037 A 
HETATM   26  C12 UNL     1      33.828  62.182   1.687  1.00  0.00     0.015 A 
BRANCH  24  27
HETATM   27  O3  UNL     1      36.159  59.697   0.297  1.00  0.00    -0.361 OA
ATOM     28  H3  UNL     1      37.000  59.751  -0.141  1.00  0.00     0.217 HD
ENDBRANCH  24  27
ENDBRANCH  19  21
ENDBRANCH  16  18
ENDBRANCH   9  14
BRANCH   5  29
HETATM   29  N3  UNL     1      28.481  71.104   3.028  1.00  0.00    -0.231 N 
ATOM     30  H32 UNL     1      28.623  72.064   2.712  1.00  0.00     0.174 HD
ATOM     31  H31 UNL     1      27.876  70.479   2.496  1.00  0.00     0.174 HD
ENDBRANCH   5  29
BRANCH  13  32
HETATM   32  N9  UNL     1      30.740  69.414   7.386  1.00  0.00    -0.230 N 
ATOM     33  H92 UNL     1      30.156  69.152   8.180  1.00  0.00     0.174 HD
ATOM     34  H91 UNL     1      31.759  69.371   7.417  1.00  0.00     0.174 HD
ENDBRANCH  13  32
TORSDOF 6
ENDMDL
MODEL 5
REMARK VINA RESULT: -8.403424251      1.664      2.928
REMARK  6 active torsions:
REMARK  status: ('A' for Active; 'I' for Inactive)
REMARK    1  A    between atoms: C2_5  and  N3_6 
REMARK    2  A    between atoms: C4_12  and  C5_13 
REMARK       I    between atoms: C5_13  and  N5_15 
REMARK    3  A    between atoms: N5_15  and  N6_17 
REMARK    4  A    between atoms: C6_19  and  C7_20 
REMARK    5  A    between atoms: C10_23  and  O3_24 
REMARK    6  A    between atoms: C13_31  and  N9_32 
ROOT
HETATM    1  C1  UNL     1      27.518  73.552   4.677  1.00  0.00     0.198 C 
HETATM    2  N1  UNL     1      28.049  72.442   3.912  1.00  0.00    -0.111 N 
HETATM    3  N2  UNL     1      27.919  72.403   2.602  1.00  0.00    -0.114 N 
ATOM      4  H2  UNL     1      27.441  73.160   2.114  1.00  0.00     0.206 HD
HETATM    5  C2  UNL     1      28.429  71.342   1.892  1.00  0.00     0.717 A 
HETATM    6  N4  UNL     1      29.061  70.341   2.543  1.00  0.00    -0.008 N 
HETATM    7  C3  UNL     1      29.659  69.181   2.141  1.00  0.00     0.318 A 
HETATM    8  O1  UNL     1      29.692  68.871   0.918  1.00  0.00    -0.263 OA
HETATM    9  C4  UNL     1      30.145  68.533   3.230  1.00  0.00     0.191 A 
HETATM   10  N7  UNL     1      29.837  69.311   4.309  1.00  0.00    -0.253 N 
ATOM     11  H7  UNL     1      30.061  69.110   5.283  1.00  0.00     0.190 HD
HETATM   12  N8  UNL     1      29.197  70.367   3.856  1.00  0.00     0.006 N 
HETATM   13  C13 UNL     1      28.675  71.444   4.532  1.00  0.00     0.730 A 
ENDROOT
BRANCH   9  14
HETATM   14  C5  UNL     1      30.855  67.269   3.276  1.00  0.00     0.293 C 
HETATM   15  O2  UNL     1      31.128  66.766   4.426  1.00  0.00    -0.264 OA
HETATM   16  N5  UNL     1      31.239  66.599   2.096  1.00  0.00    -0.265 N 
ATOM     17  H5  UNL     1      31.027  66.989   1.178  1.00  0.00     0.190 HD
BRANCH  16  18
HETATM   18  N6  UNL     1      31.928  65.369   2.224  1.00  0.00    -0.308 N 
HETATM   19  C6  UNL     1      33.065  65.262   1.644  1.00  0.00     0.118 C 
ATOM     20  H6  UNL     1      31.533  64.596   2.760  1.00  0.00     0.186 HD
BRANCH  19  21
HETATM   21  C7  UNL     1      33.833  64.007   1.738  1.00  0.00    -0.019 A 
HETATM   22  C8  UNL     1      33.230  62.795   1.479  1.00  0.00     0.015 A 
HETATM   23  C9  UNL     1      33.955  61.627   1.568  1.00  0.00     0.037 A 
HETATM   24  C10 UNL     1      35.285  61.656   1.915  1.00  0.00     0.065 A 
HETATM   25  C11 UNL     1      35.893  62.861   2.175  1.00  0.00     0.037 A 
HETATM   26  C12 UNL     1      35.167  64.028   2.085  1.00  0.00     0.015 A 
BRANCH  24  27
HETATM   27  O3  UNL     1      35.988  60.442   1.995  1.00  0.00    -0.361 OA
ATOM     28  H3  UNL     1      36.731  60.383   2.584  1.00  0.00     0.217 HD
ENDBRANCH  24  27
ENDBRANCH  19  21
ENDBRANCH  16  18
ENDBRANCH   9  14
BRANCH   5  29
HETATM   29  N3  UNL     1      28.293  71.327   0.640  1.00  0.00    -0.231 N 
ATOM     30  H32 UNL     1      28.816  70.672   0.058  1.00  0.00     0.174 HD
ATOM     31  H31 UNL     1      27.647  71.986   0.207  1.00  0.00     0.174 HD
ENDBRANCH   5  29
BRANCH  13  32
HETATM   32  N9  UNL     1      28.787  71.506   5.805  1.00  0.00    -0.230 N 
ATOM     33  H92 UNL     1      29.712  71.581   6.226  1.00  0.00     0.174 HD
ATOM     34  H91 UNL     1      27.932  71.476   6.361  1.00  0.00     0.174 HD
ENDBRANCH  13  32
TORSDOF 6
ENDMDL
