MODEL 1
REMARK VINA RESULT: -8.712268202      0.000      0.000
REMARK  10 active torsions:
REMARK  status: ('A' for Active; 'I' for Inactive)
REMARK    1  A    between atoms: C2_2  and  C3_3 
REMARK    2  A    between atoms: C4_4  and  C5_5 
REMARK       I    between atoms: N1_10  and  C9_11 
REMARK    3  A    between atoms: C10_16  and  C11_17 
REMARK    4  A    between atoms: C11_17  and  C12_18 
REMARK    5  A    between atoms: C12_18  and  C13_19 
REMARK    6  A    between atoms: C13_19  and  C14_20 
REMARK    7  A    between atoms: C14_20  and  C15_21 
REMARK    8  A    between atoms: C15_21  and  C16_22 
REMARK    9  A    between atoms: C17_23  and  C18_24 
REMARK   10  A    between atoms: C22_28  and  C23_29 
ROOT
HETATM    1  C5  UNL     1       6.854  24.419   6.167  1.00  0.00    -0.092 C 
HETATM    2  C6  UNL     1       7.595  24.160   5.261  1.00  0.00    -0.110 C 
HETATM    3  C7  UNL     1       8.522  23.846   4.167  1.00  0.00     0.112 C 
ENDROOT
BRANCH   1   4
HETATM    4  C4  UNL     1       5.972  24.735   7.286  1.00  0.00     0.167 C 
HETATM    5  C3  UNL     1       5.621  26.230   7.232  1.00  0.00     0.055 C 
HETATM    6  C10 UNL     1       5.293  26.449   8.723  1.00  0.00     0.105 C 
HETATM    7  N1  UNL     1       6.530  25.918   9.270  1.00  0.00    -0.286 N 
HETATM    8  C8  UNL     1       6.673  24.652   8.588  1.00  0.00     0.243 C 
HETATM    9  C9  UNL     1       7.465  26.361  10.201  1.00  0.00     0.191 C 
HETATM   10  O1  UNL     1       7.279  23.649   9.014  1.00  0.00    -0.271 OA
HETATM   11  N2  UNL     1       7.683  25.706  11.279  1.00  0.00    -0.373 N 
HETATM   12  N3  UNL     1       8.238  27.547   9.986  1.00  0.00    -0.063 NA
ATOM     13  H22 UNL     1       7.133  24.861  11.432  1.00  0.00     0.158 HD
ATOM     14  H21 UNL     1       8.369  26.031  11.961  1.00  0.00     0.158 HD
BRANCH   5  15
HETATM   15  C2  UNL     1       4.466  26.477   6.357  1.00  0.00    -0.029 C 
HETATM   16  C1  UNL     1       3.290  25.917   6.468  1.00  0.00     0.007 C 
ENDBRANCH   5  15
BRANCH   6  17
HETATM   17  C11 UNL     1       5.047  27.880   8.943  1.00  0.00     0.026 C 
BRANCH  17  18
HETATM   18  C12 UNL     1       3.661  28.233   9.425  1.00  0.00     0.002 C 
BRANCH  18  19
HETATM   19  C13 UNL     1       3.038  29.345   8.641  1.00  0.00     0.001 C 
BRANCH  19  20
HETATM   20  C14 UNL     1       4.100  30.052   7.853  1.00  0.00     0.012 C 
BRANCH  20  21
HETATM   21  C15 UNL     1       3.806  30.056   6.371  1.00  0.00     0.094 C 
BRANCH  21  22
HETATM   22  C16 UNL     1       2.410  29.634   6.128  1.00  0.00    -0.101 C 
HETATM   23  C17 UNL     1       1.264  29.305   5.942  1.00  0.00    -0.067 C 
BRANCH  23  24
HETATM   24  C18 UNL     1      -0.110  28.933   5.734  1.00  0.00     0.018 A 
HETATM   25  C19 UNL     1      -0.580  28.495   4.501  1.00  0.00     0.020 A 
HETATM   26  C20 UNL     1      -1.897  28.150   4.344  1.00  0.00     0.002 A 
HETATM   27  C21 UNL     1      -2.744  28.245   5.422  1.00  0.00     0.007 A 
HETATM   28  C22 UNL     1      -2.307  28.675   6.653  1.00  0.00    -0.049 A 
HETATM   29  C27 UNL     1      -0.980  29.020   6.803  1.00  0.00     0.028 A 
BRANCH  28  30
HETATM   30  C23 UNL     1      -3.186  28.789   7.830  1.00  0.00     0.075 C 
HETATM   31  C24 UNL     1      -4.646  28.740   7.369  1.00  0.00     0.283 C 
HETATM   32  N4  UNL     1      -4.961  29.919   8.150  1.00  0.00     0.085 N 
HETATM   33  C25 UNL     1      -5.651  30.960   7.424  1.00  0.00     0.309 C 
HETATM   34  C26 UNL     1      -3.547  30.150   8.292  1.00  0.00     0.283 C 
ENDBRANCH  28  30
ENDBRANCH  23  24
ENDBRANCH  21  22
ENDBRANCH  20  21
ENDBRANCH  19  20
ENDBRANCH  18  19
ENDBRANCH  17  18
ENDBRANCH   6  17
ENDBRANCH   1   4
TORSDOF 10
ENDMDL
MODEL 2
REMARK VINA RESULT: -8.705274277      2.606      3.277
REMARK  10 active torsions:
REMARK  status: ('A' for Active; 'I' for Inactive)
REMARK    1  A    between atoms: C2_2  and  C3_3 
REMARK    2  A    between atoms: C4_4  and  C5_5 
REMARK       I    between atoms: N1_10  and  C9_11 
REMARK    3  A    between atoms: C10_16  and  C11_17 
REMARK    4  A    between atoms: C11_17  and  C12_18 
REMARK    5  A    between atoms: C12_18  and  C13_19 
REMARK    6  A    between atoms: C13_19  and  C14_20 
REMARK    7  A    between atoms: C14_20  and  C15_21 
REMARK    8  A    between atoms: C15_21  and  C16_22 
REMARK    9  A    between atoms: C17_23  and  C18_24 
REMARK   10  A    between atoms: C22_28  and  C23_29 
ROOT
HETATM    1  C5  UNL     1       4.816  20.975   4.917  1.00  0.00    -0.092 C 
HETATM    2  C6  UNL     1       4.514  20.128   4.125  1.00  0.00    -0.110 C 
HETATM    3  C7  UNL     1       4.167  19.079   3.159  1.00  0.00     0.112 C 
ENDROOT
BRANCH   1   4
HETATM    4  C4  UNL     1       5.202  21.992   5.890  1.00  0.00     0.167 C 
HETATM    5  C3  UNL     1       4.897  23.379   5.302  1.00  0.00     0.055 C 
HETATM    6  C10 UNL     1       5.912  24.208   6.115  1.00  0.00     0.105 C 
HETATM    7  N1  UNL     1       7.095  23.427   5.798  1.00  0.00    -0.286 N 
HETATM    8  C8  UNL     1       6.672  22.070   6.060  1.00  0.00     0.243 C 
HETATM    9  C9  UNL     1       8.377  23.722   5.346  1.00  0.00     0.191 C 
HETATM   10  O1  UNL     1       7.409  21.116   6.379  1.00  0.00    -0.271 OA
HETATM   11  N2  UNL     1       9.407  23.446   6.055  1.00  0.00    -0.373 N 
HETATM   12  N3  UNL     1       8.606  24.322   4.065  1.00  0.00    -0.063 NA
ATOM     13  H22 UNL     1       9.245  23.020   6.967  1.00  0.00     0.158 HD
ATOM     14  H21 UNL     1      10.347  23.663   5.723  1.00  0.00     0.158 HD
BRANCH   5  15
HETATM   15  C2  UNL     1       3.506  23.775   5.562  1.00  0.00    -0.029 C 
HETATM   16  C1  UNL     1       2.919  23.783   6.730  1.00  0.00     0.007 C 
ENDBRANCH   5  15
BRANCH   6  17
HETATM   17  C11 UNL     1       5.893  25.590   5.619  1.00  0.00     0.026 C 
BRANCH  17  18
HETATM   18  C12 UNL     1       5.325  26.614   6.572  1.00  0.00     0.002 C 
BRANCH  18  19
HETATM   19  C13 UNL     1       4.246  27.447   5.955  1.00  0.00     0.001 C 
BRANCH  19  20
HETATM   20  C14 UNL     1       4.811  28.782   5.566  1.00  0.00     0.012 C 
BRANCH  20  21
HETATM   21  C15 UNL     1       3.962  29.929   6.061  1.00  0.00     0.094 C 
BRANCH  21  22
HETATM   22  C16 UNL     1       2.528  29.581   5.960  1.00  0.00    -0.101 C 
HETATM   23  C17 UNL     1       1.360  29.294   5.858  1.00  0.00    -0.067 C 
BRANCH  23  24
HETATM   24  C18 UNL     1      -0.027  28.942   5.712  1.00  0.00     0.018 A 
HETATM   25  C19 UNL     1      -0.551  28.479   4.510  1.00  0.00     0.020 A 
HETATM   26  C20 UNL     1      -1.879  28.155   4.413  1.00  0.00     0.002 A 
HETATM   27  C21 UNL     1      -2.683  28.296   5.518  1.00  0.00     0.007 A 
HETATM   28  C22 UNL     1      -2.192  28.751   6.720  1.00  0.00    -0.049 A 
HETATM   29  C27 UNL     1      -0.854  29.075   6.810  1.00  0.00     0.028 A 
BRANCH  28  30
HETATM   30  C23 UNL     1      -3.024  28.914   7.924  1.00  0.00     0.075 C 
HETATM   31  C24 UNL     1      -4.495  28.709   7.548  1.00  0.00     0.283 C 
HETATM   32  N4  UNL     1      -4.868  29.932   8.228  1.00  0.00     0.085 N 
HETATM   33  C25 UNL     1      -5.671  30.841   7.444  1.00  0.00     0.309 C 
HETATM   34  C26 UNL     1      -3.471  30.283   8.273  1.00  0.00     0.283 C 
ENDBRANCH  28  30
ENDBRANCH  23  24
ENDBRANCH  21  22
ENDBRANCH  20  21
ENDBRANCH  19  20
ENDBRANCH  18  19
ENDBRANCH  17  18
ENDBRANCH   6  17
ENDBRANCH   1   4
TORSDOF 10
ENDMDL
MODEL 3
REMARK VINA RESULT: -8.697825384      3.888     10.681
REMARK  10 active torsions:
REMARK  status: ('A' for Active; 'I' for Inactive)
REMARK    1  A    between atoms: C2_2  and  C3_3 
REMARK    2  A    between atoms: C4_4  and  C5_5 
REMARK       I    between atoms: N1_10  and  C9_11 
REMARK    3  A    between atoms: C10_16  and  C11_17 
REMARK    4  A    between atoms: C11_17  and  C12_18 
REMARK    5  A    between atoms: C12_18  and  C13_19 
REMARK    6  A    between atoms: C13_19  and  C14_20 
REMARK    7  A    between atoms: C14_20  and  C15_21 
REMARK    8  A    between atoms: C15_21  and  C16_22 
REMARK    9  A    between atoms: C17_23  and  C18_24 
REMARK   10  A    between atoms: C22_28  and  C23_29 
ROOT
HETATM    1  C5  UNL     1      -4.204  28.077   6.355  1.00  0.00    -0.092 C 
HETATM    2  C6  UNL     1      -5.177  27.377   6.374  1.00  0.00    -0.110 C 
HETATM    3  C7  UNL     1      -6.360  26.508   6.376  1.00  0.00     0.112 C 
ENDROOT
BRANCH   1   4
HETATM    4  C4  UNL     1      -3.010  28.915   6.313  1.00  0.00     0.167 C 
HETATM    5  C3  UNL     1      -1.847  28.089   5.742  1.00  0.00     0.055 C 
HETATM    6  C10 UNL     1      -0.674  28.866   6.372  1.00  0.00     0.105 C 
HETATM    7  N1  UNL     1      -1.122  28.802   7.753  1.00  0.00    -0.286 N 
HETATM    8  C8  UNL     1      -2.501  29.227   7.669  1.00  0.00     0.243 C 
HETATM    9  C9  UNL     1      -0.534  28.449   8.963  1.00  0.00     0.191 C 
HETATM   10  O1  UNL     1      -3.163  29.767   8.577  1.00  0.00    -0.271 OA
HETATM   11  N2  UNL     1      -0.421  29.298   9.915  1.00  0.00    -0.373 N 
HETATM   12  N3  UNL     1      -0.054  27.122   9.209  1.00  0.00    -0.063 NA
ATOM     13  H22 UNL     1      -0.763  30.243   9.740  1.00  0.00     0.158 HD
ATOM     14  H21 UNL     1       0.010  29.039  10.802  1.00  0.00     0.158 HD
BRANCH   5  15
HETATM   15  C2  UNL     1      -1.831  28.134   4.273  1.00  0.00    -0.029 C 
HETATM   16  C1  UNL     1      -1.755  29.215   3.542  1.00  0.00     0.007 C 
ENDBRANCH   5  15
BRANCH   6  17
HETATM   17  C11 UNL     1       0.576  28.161   6.062  1.00  0.00     0.026 C 
BRANCH  17  18
HETATM   18  C12 UNL     1       1.763  29.045   5.766  1.00  0.00     0.002 C 
BRANCH  18  19
HETATM   19  C13 UNL     1       2.362  29.647   7.000  1.00  0.00     0.001 C 
BRANCH  19  20
HETATM   20  C14 UNL     1       3.310  28.664   7.621  1.00  0.00     0.012 C 
BRANCH  20  21
HETATM   21  C15 UNL     1       3.219  28.656   9.128  1.00  0.00     0.094 C 
BRANCH  21  22
HETATM   22  C16 UNL     1       4.547  28.381   9.717  1.00  0.00    -0.101 C 
HETATM   23  C17 UNL     1       5.638  28.151  10.180  1.00  0.00    -0.067 C 
BRANCH  23  24
HETATM   24  C18 UNL     1       6.946  27.870  10.708  1.00  0.00     0.018 A 
HETATM   25  C19 UNL     1       7.377  26.573  10.969  1.00  0.00     0.020 A 
HETATM   26  C20 UNL     1       8.631  26.348  11.472  1.00  0.00     0.002 A 
HETATM   27  C21 UNL     1       9.455  27.421  11.714  1.00  0.00     0.007 A 
HETATM   28  C22 UNL     1       9.056  28.713  11.465  1.00  0.00    -0.049 A 
HETATM   29  C27 UNL     1       7.792  28.932  10.959  1.00  0.00     0.028 A 
BRANCH  28  30
HETATM   30  C23 UNL     1       9.912  29.886  11.713  1.00  0.00     0.075 C 
HETATM   31  C24 UNL     1      11.208  29.738  10.908  1.00  0.00     0.283 C 
HETATM   32  N4  UNL     1      12.003  30.044  12.080  1.00  0.00     0.085 N 
HETATM   33  C25 UNL     1      13.062  29.102  12.356  1.00  0.00     0.309 C 
HETATM   34  C26 UNL     1      10.822  29.842  12.881  1.00  0.00     0.283 C 
ENDBRANCH  28  30
ENDBRANCH  23  24
ENDBRANCH  21  22
ENDBRANCH  20  21
ENDBRANCH  19  20
ENDBRANCH  18  19
ENDBRANCH  17  18
ENDBRANCH   6  17
ENDBRANCH   1   4
TORSDOF 10
ENDMDL
MODEL 4
REMARK VINA RESULT: -8.620181900      2.459      3.631
REMARK  10 active torsions:
REMARK  status: ('A' for Active; 'I' for Inactive)
REMARK    1  A    between atoms: C2_2  and  C3_3 
REMARK    2  A    between atoms: C4_4  and  C5_5 
REMARK       I    between atoms: N1_10  and  C9_11 
REMARK    3  A    between atoms: C10_16  and  C11_17 
REMARK    4  A    between atoms: C11_17  and  C12_18 
REMARK    5  A    between atoms: C12_18  and  C13_19 
REMARK    6  A    between atoms: C13_19  and  C14_20 
REMARK    7  A    between atoms: C14_20  and  C15_21 
REMARK    8  A    between atoms: C15_21  and  C16_22 
REMARK    9  A    between atoms: C17_23  and  C18_24 
REMARK   10  A    between atoms: C22_28  and  C23_29 
ROOT
HETATM    1  C5  UNL     1       8.507  22.790   7.970  1.00  0.00    -0.092 C 
HETATM    2  C6  UNL     1       9.134  22.193   8.799  1.00  0.00    -0.110 C 
HETATM    3  C7  UNL     1       9.914  21.449   9.795  1.00  0.00     0.112 C 
ENDROOT
BRANCH   1   4
HETATM    4  C4  UNL     1       7.759  23.509   6.944  1.00  0.00     0.167 C 
HETATM    5  C3  UNL     1       6.509  24.128   7.586  1.00  0.00     0.055 C 
HETATM    6  C10 UNL     1       5.622  24.229   6.329  1.00  0.00     0.105 C 
HETATM    7  N1  UNL     1       5.725  22.841   5.911  1.00  0.00    -0.286 N 
HETATM    8  C8  UNL     1       7.148  22.591   5.954  1.00  0.00     0.243 C 
HETATM    9  C9  UNL     1       4.817  21.856   5.536  1.00  0.00     0.191 C 
HETATM   10  O1  UNL     1       7.770  21.749   5.277  1.00  0.00    -0.271 OA
HETATM   11  N2  UNL     1       4.850  21.340   4.365  1.00  0.00    -0.373 N 
HETATM   12  N3  UNL     1       3.826  21.359   6.444  1.00  0.00    -0.063 NA
ATOM     13  H22 UNL     1       5.555  21.693   3.719  1.00  0.00     0.158 HD
ATOM     14  H21 UNL     1       4.183  20.618   4.090  1.00  0.00     0.158 HD
BRANCH   5  15
HETATM   15  C2  UNL     1       6.805  25.442   8.175  1.00  0.00    -0.029 C 
HETATM   16  C1  UNL     1       6.607  25.785   9.421  1.00  0.00     0.007 C 
ENDBRANCH   5  15
BRANCH   6  17
HETATM   17  C11 UNL     1       4.287  24.688   6.732  1.00  0.00     0.026 C 
BRANCH  17  18
HETATM   18  C12 UNL     1       3.715  25.818   5.910  1.00  0.00     0.002 C 
BRANCH  18  19
HETATM   19  C13 UNL     1       4.718  26.890   5.616  1.00  0.00     0.001 C 
BRANCH  19  20
HETATM   20  C14 UNL     1       4.676  27.921   6.705  1.00  0.00     0.012 C 
BRANCH  20  21
HETATM   21  C15 UNL     1       4.058  29.218   6.241  1.00  0.00     0.094 C 
BRANCH  21  22
HETATM   22  C16 UNL     1       2.596  29.060   6.090  1.00  0.00    -0.101 C 
HETATM   23  C17 UNL     1       1.405  28.918   5.951  1.00  0.00    -0.067 C 
BRANCH  23  24
HETATM   24  C18 UNL     1      -0.009  28.730   5.766  1.00  0.00     0.018 A 
HETATM   25  C19 UNL     1      -0.558  28.402   4.531  1.00  0.00     0.020 A 
HETATM   26  C20 UNL     1      -1.911  28.232   4.397  1.00  0.00     0.002 A 
HETATM   27  C21 UNL     1      -2.715  28.391   5.500  1.00  0.00     0.007 A 
HETATM   28  C22 UNL     1      -2.201  28.716   6.734  1.00  0.00    -0.049 A 
HETATM   29  C27 UNL     1      -0.838  28.884   6.860  1.00  0.00     0.028 A 
BRANCH  28  30
HETATM   30  C23 UNL     1      -3.032  28.894   7.936  1.00  0.00     0.075 C 
HETATM   31  C24 UNL     1      -4.506  28.730   7.554  1.00  0.00     0.283 C 
HETATM   32  N4  UNL     1      -4.850  29.959   8.239  1.00  0.00     0.085 N 
HETATM   33  C25 UNL     1      -5.626  30.892   7.457  1.00  0.00     0.309 C 
HETATM   34  C26 UNL     1      -3.445  30.272   8.291  1.00  0.00     0.283 C 
ENDBRANCH  28  30
ENDBRANCH  23  24
ENDBRANCH  21  22
ENDBRANCH  20  21
ENDBRANCH  19  20
ENDBRANCH  18  19
ENDBRANCH  17  18
ENDBRANCH   6  17
ENDBRANCH   1   4
TORSDOF 10
ENDMDL
MODEL 5
REMARK VINA RESULT: -8.555559270      2.998      9.369
REMARK  10 active torsions:
REMARK  status: ('A' for Active; 'I' for Inactive)
REMARK    1  A    between atoms: C2_2  and  C3_3 
REMARK    2  A    between atoms: C4_4  and  C5_5 
REMARK       I    between atoms: N1_10  and  C9_11 
REMARK    3  A    between atoms: C10_16  and  C11_17 
REMARK    4  A    between atoms: C11_17  and  C12_18 
REMARK    5  A    between atoms: C12_18  and  C13_19 
REMARK    6  A    between atoms: C13_19  and  C14_20 
REMARK    7  A    between atoms: C14_20  and  C15_21 
REMARK    8  A    between atoms: C15_21  and  C16_22 
REMARK    9  A    between atoms: C17_23  and  C18_24 
REMARK   10  A    between atoms: C22_28  and  C23_29 
ROOT
HETATM    1  C5  UNL     1      -2.600  28.133   6.784  1.00  0.00    -0.092 C 
HETATM    2  C6  UNL     1      -3.715  27.736   6.594  1.00  0.00    -0.110 C 
HETATM    3  C7  UNL     1      -5.088  27.265   6.379  1.00  0.00     0.112 C 
ENDROOT
BRANCH   1   4
HETATM    4  C4  UNL     1      -1.253  28.636   7.030  1.00  0.00     0.167 C 
HETATM    5  C3  UNL     1      -0.284  27.949   6.055  1.00  0.00     0.055 C 
HETATM    6  C10 UNL     1       1.016  28.096   6.872  1.00  0.00     0.105 C 
HETATM    7  N1  UNL     1       0.535  27.496   8.105  1.00  0.00    -0.286 N 
HETATM    8  C8  UNL     1      -0.718  28.180   8.334  1.00  0.00     0.243 C 
HETATM    9  C9  UNL     1       1.007  26.516   8.973  1.00  0.00     0.191 C 
HETATM   10  O1  UNL     1      -1.266  28.364   9.439  1.00  0.00    -0.271 OA
HETATM   11  N2  UNL     1       1.280  26.791  10.193  1.00  0.00    -0.373 N 
HETATM   12  N3  UNL     1       1.183  25.158   8.551  1.00  0.00    -0.063 NA
ATOM     13  H22 UNL     1       1.154  27.757  10.493  1.00  0.00     0.158 HD
ATOM     14  H21 UNL     1       1.626  26.072  10.828  1.00  0.00     0.158 HD
BRANCH   5  15
HETATM   15  C2  UNL     1      -0.226  28.660   4.770  1.00  0.00    -0.029 C 
HETATM   16  C1  UNL     1      -0.860  28.318   3.678  1.00  0.00     0.007 C 
ENDBRANCH   5  15
BRANCH   6  17
HETATM   17  C11 UNL     1       2.090  27.376   6.176  1.00  0.00     0.026 C 
BRANCH  17  18
HETATM   18  C12 UNL     1       3.401  28.116   6.067  1.00  0.00     0.002 C 
BRANCH  18  19
HETATM   19  C13 UNL     1       3.252  29.595   6.251  1.00  0.00     0.001 C 
BRANCH  19  20
HETATM   20  C14 UNL     1       4.066  30.032   7.432  1.00  0.00     0.012 C 
BRANCH  20  21
HETATM   21  C15 UNL     1       3.628  29.359   8.711  1.00  0.00     0.094 C 
BRANCH  21  22
HETATM   22  C16 UNL     1       4.792  28.750   9.390  1.00  0.00    -0.101 C 
HETATM   23  C17 UNL     1       5.753  28.258   9.930  1.00  0.00    -0.067 C 
BRANCH  23  24
HETATM   24  C18 UNL     1       6.915  27.683  10.553  1.00  0.00     0.018 A 
HETATM   25  C19 UNL     1       7.895  28.463  11.157  1.00  0.00     0.020 A 
HETATM   26  C20 UNL     1       8.987  27.876  11.740  1.00  0.00     0.002 A 
HETATM   27  C21 UNL     1       9.098  26.507  11.718  1.00  0.00     0.007 A 
HETATM   28  C22 UNL     1       8.145  25.710  11.128  1.00  0.00    -0.049 A 
HETATM   29  C27 UNL     1       7.049  26.309  10.544  1.00  0.00     0.028 A 
BRANCH  28  30
HETATM   30  C23 UNL     1       8.233  24.240  11.086  1.00  0.00     0.075 C 
HETATM   31  C24 UNL     1       8.652  23.804   9.678  1.00  0.00     0.283 C 
HETATM   32  N4  UNL     1       7.574  22.837   9.627  1.00  0.00     0.085 N 
HETATM   33  C25 UNL     1       6.751  22.910   8.442  1.00  0.00     0.309 C 
HETATM   34  C26 UNL     1       6.996  23.484  10.777  1.00  0.00     0.283 C 
ENDBRANCH  28  30
ENDBRANCH  23  24
ENDBRANCH  21  22
ENDBRANCH  20  21
ENDBRANCH  19  20
ENDBRANCH  18  19
ENDBRANCH  17  18
ENDBRANCH   6  17
ENDBRANCH   1   4
TORSDOF 10
ENDMDL
