MODEL 1
REMARK VINA RESULT: -8.838628836      0.000      0.000
REMARK  8 active torsions:
REMARK  status: ('A' for Active; 'I' for Inactive)
REMARK    1  A    between atoms: C2_2  and  O1_3 
REMARK    2  A    between atoms: C2_2  and  C3_5 
REMARK    3  A    between atoms: C3_5  and  C4_6 
REMARK    4  A    between atoms: C4_6  and  C5_7 
REMARK    5  A    between atoms: C5_7  and  N1_8 
REMARK    6  A    between atoms: C8_11  and  C9_12 
REMARK    7  A    between atoms: C11_14  and  C12_15 
REMARK    8  A    between atoms: C23_29  and  C24_30 
ROOT
HETATM    1  C9  UNL     1      -5.106 -27.106   8.859  1.00  0.00    -0.052 A 
HETATM    2  C10 UNL     1      -3.723 -27.129   8.905  1.00  0.00     0.019 A 
HETATM    3  C11 UNL     1      -2.962 -28.265   8.791  1.00  0.00    -0.032 A 
HETATM    4  C22 UNL     1      -3.655 -29.452   8.621  1.00  0.00     0.027 A 
HETATM    5  C23 UNL     1      -5.029 -29.497   8.565  1.00  0.00     0.049 A 
HETATM    6  C25 UNL     1      -5.757 -28.301   8.687  1.00  0.00     0.023 A 
ENDROOT
BRANCH   1   7
HETATM    7  C8  UNL     1      -5.759 -25.828   9.131  1.00  0.00     0.022 C 
HETATM    8  C7  UNL     1      -7.122 -26.081   9.830  1.00  0.00     0.039 C 
HETATM    9  C6  UNL     1      -7.416 -24.753  10.464  1.00  0.00     0.273 C 
HETATM   10  N1  UNL     1      -7.842 -23.856   9.381  1.00  0.00     0.088 N 
HETATM   11  C27 UNL     1      -7.381 -24.289   8.094  1.00  0.00     0.273 C 
HETATM   12  C26 UNL     1      -5.958 -24.834   8.055  1.00  0.00     0.039 C 
BRANCH  10  13
HETATM   13  C5  UNL     1      -9.305 -23.906   9.425  1.00  0.00     0.272 C 
BRANCH  13  14
HETATM   14  C4  UNL     1      -9.863 -22.584   9.036  1.00  0.00     0.033 C 
BRANCH  14  15
HETATM   15  C3  UNL     1     -10.587 -21.938  10.206  1.00  0.00     0.033 C 
BRANCH  15  16
HETATM   16  C2  UNL     1     -12.071 -22.131  10.203  1.00  0.00     0.114 C 
HETATM   17  C1  UNL     1     -12.357 -23.198  11.250  1.00  0.00     0.039 C 
BRANCH  16  18
HETATM   18  O1  UNL     1     -12.750 -20.993  10.673  1.00  0.00    -0.396 OA
ATOM     19  H1  UNL     1     -12.353 -20.816  11.517  1.00  0.00     0.210 HD
ENDBRANCH  16  18
ENDBRANCH  15  16
ENDBRANCH  14  15
ENDBRANCH  13  14
ENDBRANCH  10  13
ENDBRANCH   1   7
BRANCH   3  20
HETATM   20  C12 UNL     1      -1.514 -28.239   8.905  1.00  0.00    -0.057 C 
HETATM   21  C13 UNL     1      -0.834 -26.923   8.907  1.00  0.00     0.042 C 
HETATM   22  C14 UNL     1      -0.529 -26.428  10.322  1.00  0.00     0.017 C 
HETATM   23  C15 UNL     1       0.475 -27.102   8.113  1.00  0.00     0.194 C 
HETATM   24  C16 UNL     1       1.336 -28.182   8.689  1.00  0.00     0.034 C 
HETATM   25  N2  UNL     1      -0.001 -27.422   6.754  1.00  0.00    -0.061 N 
HETATM   26  C17 UNL     1       0.572 -29.441   8.881  1.00  0.00     0.013 C 
HETATM   27  C18 UNL     1      -0.751 -29.287   8.098  1.00  0.00     0.051 C 
HETATM   28  C19 UNL     1      -0.412 -28.834   6.713  1.00  0.00     0.126 C 
HETATM   29  C20 UNL     1       0.759 -29.558   6.119  1.00  0.00     0.046 C 
HETATM   30  C21 UNL     1      -1.593 -29.037   5.801  1.00  0.00     0.046 C 
ATOM     31  H22 UNL     1      -0.740 -26.792   6.443  1.00  0.00     0.278 HD
ATOM     32  H21 UNL     1       0.688 -27.197   6.037  1.00  0.00     0.278 HD
ENDBRANCH   3  20
BRANCH   5  33
HETATM   33  C24 UNL     1      -5.802 -30.768   8.387  1.00  0.00     0.417 C 
HETATM   34  F1  UNL     1      -6.495 -30.717   7.185  1.00  0.00    -0.166 F 
HETATM   35  F2  UNL     1      -6.751 -30.783   9.432  1.00  0.00    -0.166 F 
HETATM   36  F3  UNL     1      -5.024 -31.874   8.433  1.00  0.00    -0.166 F 
ENDBRANCH   5  33
TORSDOF 8
ENDMDL
MODEL 2
REMARK VINA RESULT: -8.782596263      1.541      1.789
REMARK  8 active torsions:
REMARK  status: ('A' for Active; 'I' for Inactive)
REMARK    1  A    between atoms: C2_2  and  O1_3 
REMARK    2  A    between atoms: C2_2  and  C3_5 
REMARK    3  A    between atoms: C3_5  and  C4_6 
REMARK    4  A    between atoms: C4_6  and  C5_7 
REMARK    5  A    between atoms: C5_7  and  N1_8 
REMARK    6  A    between atoms: C8_11  and  C9_12 
REMARK    7  A    between atoms: C11_14  and  C12_15 
REMARK    8  A    between atoms: C23_29  and  C24_30 
ROOT
HETATM    1  C9  UNL     1      -5.112 -27.116   8.866  1.00  0.00    -0.052 A 
HETATM    2  C10 UNL     1      -3.728 -27.137   8.903  1.00  0.00     0.019 A 
HETATM    3  C11 UNL     1      -2.966 -28.271   8.782  1.00  0.00    -0.032 A 
HETATM    4  C22 UNL     1      -3.657 -29.459   8.614  1.00  0.00     0.027 A 
HETATM    5  C23 UNL     1      -5.032 -29.506   8.567  1.00  0.00     0.049 A 
HETATM    6  C25 UNL     1      -5.761 -28.312   8.696  1.00  0.00     0.023 A 
ENDROOT
BRANCH   1   7
HETATM    7  C8  UNL     1      -5.765 -25.840   9.145  1.00  0.00     0.022 C 
HETATM    8  C7  UNL     1      -7.105 -26.095   9.886  1.00  0.00     0.039 C 
HETATM    9  C6  UNL     1      -7.390 -24.763  10.515  1.00  0.00     0.273 C 
HETATM   10  N1  UNL     1      -7.853 -23.879   9.436  1.00  0.00     0.088 N 
HETATM   11  C27 UNL     1      -7.428 -24.322   8.140  1.00  0.00     0.273 C 
HETATM   12  C26 UNL     1      -6.003 -24.858   8.065  1.00  0.00     0.039 C 
BRANCH  10  13
HETATM   13  C5  UNL     1      -9.315 -23.939   9.524  1.00  0.00     0.272 C 
BRANCH  13  14
HETATM   14  C4  UNL     1      -9.871 -24.467   8.250  1.00  0.00     0.033 C 
BRANCH  14  15
HETATM   15  C3  UNL     1     -11.378 -24.641   8.349  1.00  0.00     0.033 C 
BRANCH  15  16
HETATM   16  C2  UNL     1     -12.075 -24.793   7.034  1.00  0.00     0.114 C 
HETATM   17  C1  UNL     1     -11.202 -24.079   6.012  1.00  0.00     0.039 C 
BRANCH  16  18
HETATM   18  O1  UNL     1     -12.093 -26.130   6.600  1.00  0.00    -0.396 OA
ATOM     19  H1  UNL     1     -12.891 -26.200   6.090  1.00  0.00     0.210 HD
ENDBRANCH  16  18
ENDBRANCH  15  16
ENDBRANCH  14  15
ENDBRANCH  13  14
ENDBRANCH  10  13
ENDBRANCH   1   7
BRANCH   3  20
HETATM   20  C12 UNL     1      -1.517 -28.242   8.886  1.00  0.00    -0.057 C 
HETATM   21  C13 UNL     1      -0.839 -26.924   8.879  1.00  0.00     0.042 C 
HETATM   22  C14 UNL     1      -0.526 -26.425  10.291  1.00  0.00     0.017 C 
HETATM   23  C15 UNL     1       0.465 -27.104   8.078  1.00  0.00     0.194 C 
HETATM   24  C16 UNL     1       1.332 -28.181   8.651  1.00  0.00     0.034 C 
HETATM   25  N2  UNL     1      -0.019 -27.429   6.723  1.00  0.00    -0.061 N 
HETATM   26  C17 UNL     1       0.570 -29.440   8.852  1.00  0.00     0.013 C 
HETATM   27  C18 UNL     1      -0.758 -29.291   8.077  1.00  0.00     0.051 C 
HETATM   28  C19 UNL     1      -0.428 -28.842   6.689  1.00  0.00     0.126 C 
HETATM   29  C20 UNL     1       0.740 -29.565   6.088  1.00  0.00     0.046 C 
HETATM   30  C21 UNL     1      -1.615 -29.049   5.785  1.00  0.00     0.046 C 
ATOM     31  H22 UNL     1      -0.762 -26.801   6.415  1.00  0.00     0.278 HD
ATOM     32  H21 UNL     1       0.665 -27.204   6.001  1.00  0.00     0.278 HD
ENDBRANCH   3  20
BRANCH   5  33
HETATM   33  C24 UNL     1      -5.804 -30.779   8.392  1.00  0.00     0.417 C 
HETATM   34  F1  UNL     1      -6.517 -30.720   7.203  1.00  0.00    -0.166 F 
HETATM   35  F2  UNL     1      -6.735 -30.805   9.452  1.00  0.00    -0.166 F 
HETATM   36  F3  UNL     1      -5.021 -31.882   8.417  1.00  0.00    -0.166 F 
ENDBRANCH   5  33
TORSDOF 8
ENDMDL
MODEL 3
REMARK VINA RESULT: -8.673323988      1.217      1.574
REMARK  8 active torsions:
REMARK  status: ('A' for Active; 'I' for Inactive)
REMARK    1  A    between atoms: C2_2  and  O1_3 
REMARK    2  A    between atoms: C2_2  and  C3_5 
REMARK    3  A    between atoms: C3_5  and  C4_6 
REMARK    4  A    between atoms: C4_6  and  C5_7 
REMARK    5  A    between atoms: C5_7  and  N1_8 
REMARK    6  A    between atoms: C8_11  and  C9_12 
REMARK    7  A    between atoms: C11_14  and  C12_15 
REMARK    8  A    between atoms: C23_29  and  C24_30 
ROOT
HETATM    1  C9  UNL     1      -5.085 -27.123   8.866  1.00  0.00    -0.052 A 
HETATM    2  C10 UNL     1      -3.702 -27.147   8.896  1.00  0.00     0.019 A 
HETATM    3  C11 UNL     1      -2.942 -28.282   8.775  1.00  0.00    -0.032 A 
HETATM    4  C22 UNL     1      -3.637 -29.470   8.614  1.00  0.00     0.027 A 
HETATM    5  C23 UNL     1      -5.012 -29.514   8.574  1.00  0.00     0.049 A 
HETATM    6  C25 UNL     1      -5.738 -28.318   8.702  1.00  0.00     0.023 A 
ENDROOT
BRANCH   1   7
HETATM    7  C8  UNL     1      -5.735 -25.845   9.144  1.00  0.00     0.022 C 
HETATM    8  C7  UNL     1      -7.110 -26.098   9.820  1.00  0.00     0.039 C 
HETATM    9  C6  UNL     1      -7.406 -24.777  10.466  1.00  0.00     0.273 C 
HETATM   10  N1  UNL     1      -7.810 -23.864   9.387  1.00  0.00     0.088 N 
HETATM   11  C27 UNL     1      -7.333 -24.284   8.102  1.00  0.00     0.273 C 
HETATM   12  C26 UNL     1      -5.913 -24.837   8.077  1.00  0.00     0.039 C 
BRANCH  10  13
HETATM   13  C5  UNL     1      -9.274 -23.906   9.409  1.00  0.00     0.272 C 
BRANCH  13  14
HETATM   14  C4  UNL     1      -9.786 -24.228   8.051  1.00  0.00     0.033 C 
BRANCH  14  15
HETATM   15  C3  UNL     1     -10.718 -23.136   7.551  1.00  0.00     0.033 C 
BRANCH  15  16
HETATM   16  C2  UNL     1     -10.039 -21.849   7.204  1.00  0.00     0.114 C 
HETATM   17  C1  UNL     1      -9.360 -22.082   5.862  1.00  0.00     0.039 C 
BRANCH  16  18
HETATM   18  O1  UNL     1     -10.962 -20.819   6.952  1.00  0.00    -0.396 OA
ATOM     19  H1  UNL     1     -11.615 -21.222   6.391  1.00  0.00     0.210 HD
ENDBRANCH  16  18
ENDBRANCH  15  16
ENDBRANCH  14  15
ENDBRANCH  13  14
ENDBRANCH  10  13
ENDBRANCH   1   7
BRANCH   3  20
HETATM   20  C12 UNL     1      -1.493 -28.257   8.873  1.00  0.00    -0.057 C 
HETATM   21  C13 UNL     1      -0.813 -26.940   8.868  1.00  0.00     0.042 C 
HETATM   22  C14 UNL     1      -0.492 -26.447  10.281  1.00  0.00     0.017 C 
HETATM   23  C15 UNL     1       0.487 -27.118   8.060  1.00  0.00     0.194 C 
HETATM   24  C16 UNL     1       1.354 -28.199   8.625  1.00  0.00     0.034 C 
HETATM   25  N2  UNL     1      -0.004 -27.437   6.706  1.00  0.00    -0.061 N 
HETATM   26  C17 UNL     1       0.592 -29.458   8.824  1.00  0.00     0.013 C 
HETATM   27  C18 UNL     1      -0.739 -29.303   8.056  1.00  0.00     0.051 C 
HETATM   28  C19 UNL     1      -0.416 -28.849   6.668  1.00  0.00     0.126 C 
HETATM   29  C20 UNL     1       0.749 -29.571   6.059  1.00  0.00     0.046 C 
HETATM   30  C21 UNL     1      -1.607 -29.051   5.769  1.00  0.00     0.046 C 
ATOM     31  H22 UNL     1      -0.747 -26.807   6.404  1.00  0.00     0.278 HD
ATOM     32  H21 UNL     1       0.677 -27.210   5.982  1.00  0.00     0.278 HD
ENDBRANCH   3  20
BRANCH   5  33
HETATM   33  C24 UNL     1      -5.787 -30.786   8.406  1.00  0.00     0.417 C 
HETATM   34  F1  UNL     1      -6.503 -30.730   7.218  1.00  0.00    -0.166 F 
HETATM   35  F2  UNL     1      -6.715 -30.806   9.469  1.00  0.00    -0.166 F 
HETATM   36  F3  UNL     1      -5.007 -31.890   8.432  1.00  0.00    -0.166 F 
ENDBRANCH   5  33
TORSDOF 8
ENDMDL
MODEL 4
REMARK VINA RESULT: -8.663160858      2.611      3.689
REMARK  8 active torsions:
REMARK  status: ('A' for Active; 'I' for Inactive)
REMARK    1  A    between atoms: C2_2  and  O1_3 
REMARK    2  A    between atoms: C2_2  and  C3_5 
REMARK    3  A    between atoms: C3_5  and  C4_6 
REMARK    4  A    between atoms: C4_6  and  C5_7 
REMARK    5  A    between atoms: C5_7  and  N1_8 
REMARK    6  A    between atoms: C8_11  and  C9_12 
REMARK    7  A    between atoms: C11_14  and  C12_15 
REMARK    8  A    between atoms: C23_29  and  C24_30 
ROOT
HETATM    1  C9  UNL     1      -6.534 -26.782   9.582  1.00  0.00    -0.052 A 
HETATM    2  C10 UNL     1      -5.192 -26.844   9.248  1.00  0.00     0.019 A 
HETATM    3  C11 UNL     1      -4.456 -28.000   9.204  1.00  0.00    -0.032 A 
HETATM    4  C22 UNL     1      -5.130 -29.168   9.522  1.00  0.00     0.027 A 
HETATM    5  C23 UNL     1      -6.464 -29.174   9.862  1.00  0.00     0.049 A 
HETATM    6  C25 UNL     1      -7.167 -27.959   9.889  1.00  0.00     0.023 A 
ENDROOT
BRANCH   1   7
HETATM    7  C8  UNL     1      -7.127 -25.453   9.710  1.00  0.00     0.022 C 
HETATM    8  C7  UNL     1      -7.780 -25.045   8.361  1.00  0.00     0.039 C 
HETATM    9  C6  UNL     1      -8.725 -23.955   8.772  1.00  0.00     0.273 C 
HETATM   10  N1  UNL     1      -7.904 -22.764   9.034  1.00  0.00     0.088 N 
HETATM   11  C27 UNL     1      -6.538 -23.089   9.326  1.00  0.00     0.273 C 
HETATM   12  C26 UNL     1      -6.330 -24.313  10.211  1.00  0.00     0.039 C 
BRANCH  10  13
HETATM   13  C5  UNL     1      -7.974 -21.996   7.788  1.00  0.00     0.272 C 
BRANCH  13  14
HETATM   14  C4  UNL     1      -6.930 -22.477   6.845  1.00  0.00     0.033 C 
BRANCH  14  15
HETATM   15  C3  UNL     1      -6.606 -21.412   5.810  1.00  0.00     0.033 C 
BRANCH  15  16
HETATM   16  C2  UNL     1      -5.212 -21.474   5.269  1.00  0.00     0.114 C 
HETATM   17  C1  UNL     1      -4.999 -20.173   4.508  1.00  0.00     0.039 C 
BRANCH  16  18
HETATM   18  O1  UNL     1      -4.249 -21.438   6.292  1.00  0.00    -0.396 OA
ATOM     19  H1  UNL     1      -3.567 -22.029   5.993  1.00  0.00     0.210 HD
ENDBRANCH  16  18
ENDBRANCH  15  16
ENDBRANCH  14  15
ENDBRANCH  13  14
ENDBRANCH  10  13
ENDBRANCH   1   7
BRANCH   3  20
HETATM   20  C12 UNL     1      -3.034 -28.001   8.903  1.00  0.00    -0.057 C 
HETATM   21  C13 UNL     1      -2.370 -26.700   8.658  1.00  0.00     0.042 C 
HETATM   22  C14 UNL     1      -1.672 -26.159   9.907  1.00  0.00     0.017 C 
HETATM   23  C15 UNL     1      -1.340 -26.937   7.535  1.00  0.00     0.194 C 
HETATM   24  C16 UNL     1      -0.362 -28.012   7.889  1.00  0.00     0.034 C 
HETATM   25  N2  UNL     1      -2.185 -27.297   6.380  1.00  0.00    -0.061 N 
HETATM   26  C17 UNL     1      -1.053 -29.246   8.342  1.00  0.00     0.013 C 
HETATM   27  C18 UNL     1      -2.542 -29.094   7.958  1.00  0.00     0.051 C 
HETATM   28  C19 UNL     1      -2.604 -28.701   6.516  1.00  0.00     0.126 C 
HETATM   29  C20 UNL     1      -1.656 -29.471   5.646  1.00  0.00     0.046 C 
HETATM   30  C21 UNL     1      -3.997 -28.913   5.984  1.00  0.00     0.046 C 
ATOM     31  H22 UNL     1      -2.976 -26.664   6.264  1.00  0.00     0.278 HD
ATOM     32  H21 UNL     1      -1.724 -27.113   5.489  1.00  0.00     0.278 HD
ENDBRANCH   3  20
BRANCH   5  33
HETATM   33  C24 UNL     1      -7.214 -30.422  10.215  1.00  0.00     0.417 C 
HETATM   34  F1  UNL     1      -6.315 -31.393  10.635  1.00  0.00    -0.166 F 
HETATM   35  F2  UNL     1      -7.797 -30.867   9.009  1.00  0.00    -0.166 F 
HETATM   36  F3  UNL     1      -8.164 -30.222  11.158  1.00  0.00    -0.166 F 
ENDBRANCH   5  33
TORSDOF 8
ENDMDL
MODEL 5
REMARK VINA RESULT: -8.507249993      2.252      3.109
REMARK  8 active torsions:
REMARK  status: ('A' for Active; 'I' for Inactive)
REMARK    1  A    between atoms: C2_2  and  O1_3 
REMARK    2  A    between atoms: C2_2  and  C3_5 
REMARK    3  A    between atoms: C3_5  and  C4_6 
REMARK    4  A    between atoms: C4_6  and  C5_7 
REMARK    5  A    between atoms: C5_7  and  N1_8 
REMARK    6  A    between atoms: C8_11  and  C9_12 
REMARK    7  A    between atoms: C11_14  and  C12_15 
REMARK    8  A    between atoms: C23_29  and  C24_30 
ROOT
HETATM    1  C9  UNL     1      -6.717 -26.804   9.572  1.00  0.00    -0.052 A 
HETATM    2  C10 UNL     1      -5.488 -26.887   8.942  1.00  0.00     0.019 A 
HETATM    3  C11 UNL     1      -4.805 -28.057   8.724  1.00  0.00    -0.032 A 
HETATM    4  C22 UNL     1      -5.415 -29.215   9.177  1.00  0.00     0.027 A 
HETATM    5  C23 UNL     1      -6.637 -29.201   9.809  1.00  0.00     0.049 A 
HETATM    6  C25 UNL     1      -7.290 -27.973  10.005  1.00  0.00     0.023 A 
ENDROOT
BRANCH   1   7
HETATM    7  C8  UNL     1      -7.237 -25.466   9.842  1.00  0.00     0.022 C 
HETATM    8  C7  UNL     1      -8.182 -25.035   8.687  1.00  0.00     0.039 C 
HETATM    9  C6  UNL     1      -8.983 -23.932   9.314  1.00  0.00     0.273 C 
HETATM   10  N1  UNL     1      -8.100 -22.758   9.380  1.00  0.00     0.088 N 
HETATM   11  C27 UNL     1      -6.711 -23.110   9.340  1.00  0.00     0.273 C 
HETATM   12  C26 UNL     1      -6.323 -24.345  10.146  1.00  0.00     0.039 C 
BRANCH  10  13
HETATM   13  C5  UNL     1      -8.447 -21.979   8.189  1.00  0.00     0.272 C 
BRANCH  13  14
HETATM   14  C4  UNL     1      -9.858 -21.519   8.286  1.00  0.00     0.033 C 
BRANCH  14  15
HETATM   15  C3  UNL     1     -10.554 -21.625   6.939  1.00  0.00     0.033 C 
BRANCH  15  16
HETATM   16  C2  UNL     1      -9.641 -21.905   5.787  1.00  0.00     0.114 C 
HETATM   17  C1  UNL     1     -10.452 -22.737   4.803  1.00  0.00     0.039 C 
BRANCH  16  18
HETATM   18  O1  UNL     1      -9.322 -20.737   5.072  1.00  0.00    -0.396 OA
ATOM     19  H1  UNL     1      -9.394 -20.042   5.716  1.00  0.00     0.210 HD
ENDBRANCH  16  18
ENDBRANCH  15  16
ENDBRANCH  14  15
ENDBRANCH  13  14
ENDBRANCH  10  13
ENDBRANCH   1   7
BRANCH   3  20
HETATM   20  C12 UNL     1      -3.489 -28.080   8.108  1.00  0.00    -0.057 C 
HETATM   21  C13 UNL     1      -3.036 -26.874   7.377  1.00  0.00     0.042 C 
HETATM   22  C14 UNL     1      -2.150 -25.972   8.238  1.00  0.00     0.017 C 
HETATM   23  C15 UNL     1      -2.251 -27.374   6.148  1.00  0.00     0.194 C 
HETATM   24  C16 UNL     1      -1.110 -28.261   6.535  1.00  0.00     0.034 C 
HETATM   25  N2  UNL     1      -3.279 -28.082   5.362  1.00  0.00    -0.061 N 
HETATM   26  C17 UNL     1      -1.551 -29.345   7.448  1.00  0.00     0.013 C 
HETATM   27  C18 UNL     1      -3.095 -29.373   7.399  1.00  0.00     0.051 C 
HETATM   28  C19 UNL     1      -3.506 -29.407   5.961  1.00  0.00     0.126 C 
HETATM   29  C20 UNL     1      -2.689 -30.350   5.128  1.00  0.00     0.046 C 
HETATM   30  C21 UNL     1      -4.949 -29.822   5.847  1.00  0.00     0.046 C 
ATOM     31  H22 UNL     1      -4.139 -27.543   5.272  1.00  0.00     0.278 HD
ATOM     32  H21 UNL     1      -3.042 -28.138   4.373  1.00  0.00     0.278 HD
ENDBRANCH   3  20
BRANCH   5  33
HETATM   33  C24 UNL     1      -7.314 -30.439  10.313  1.00  0.00     0.417 C 
HETATM   34  F1  UNL     1      -6.355 -31.325  10.785  1.00  0.00    -0.166 F 
HETATM   35  F2  UNL     1      -7.923 -31.024   9.183  1.00  0.00    -0.166 F 
HETATM   36  F3  UNL     1      -8.233 -30.188  11.274  1.00  0.00    -0.166 F 
ENDBRANCH   5  33
TORSDOF 8
ENDMDL
