MODEL 1
REMARK VINA RESULT: -8.970366473      0.000      0.000
REMARK  12 active torsions:
REMARK  status: ('A' for Active; 'I' for Inactive)
REMARK    1  A    between atoms: C2_2  and  C3_4 
REMARK    2  A    between atoms: C3_4  and  N5_18 
REMARK    3  A    between atoms: N1_5  and  N2_7 
REMARK    4  A    between atoms: N2_7  and  C4_9 
REMARK    5  A    between atoms: C6_13  and  O2_14 
REMARK    6  A    between atoms: N5_18  and  N6_20 
REMARK    7  A    between atoms: C7_22  and  C8_23 
REMARK    8  A    between atoms: C9_26  and  O3_27 
REMARK    9  A    between atoms: C10_29  and  C11_30 
REMARK   10  A    between atoms: C12_32  and  O5_33 
REMARK   11  A    between atoms: C13_35  and  O6_36 
REMARK   12  A    between atoms: C15_40  and  O8_41 
ROOT
HETATM    1  N6  UNL     1      35.044  -1.861 -12.301  1.00  0.00    -0.306 N 
ATOM      2  H6  UNL     1      34.105  -2.016 -12.669  1.00  0.00     0.186 HD
HETATM    3  C7  UNL     1      35.590  -0.810 -12.649  1.00  0.00     0.163 C 
ENDROOT
BRANCH   3   4
HETATM    4  C8  UNL     1      34.873   0.136 -13.549  1.00  0.00     0.167 A 
HETATM    5  N7  UNL     1      33.589   0.529 -13.354  1.00  0.00    -0.314 N 
HETATM    6  C9  UNL     1      33.300   1.374 -14.358  1.00  0.00     0.179 A 
ATOM      7  H7  UNL     1      32.968   0.240 -12.597  1.00  0.00     0.170 HD
HETATM    8  C10 UNL     1      34.412   1.509 -15.186  1.00  0.00     0.165 A 
HETATM    9  O9  UNL     1      35.306   0.733 -14.628  1.00  0.00    -0.285 OA
BRANCH   6  10
HETATM   10  O3  UNL     1      32.094   2.040 -14.590  1.00  0.00    -0.344 OA
ATOM     11  H3  UNL     1      31.971   2.955 -14.810  1.00  0.00     0.219 HD
ENDBRANCH   6  10
BRANCH   8  12
HETATM   12  C11 UNL     1      34.465   2.346 -16.369  1.00  0.00     0.153 A 
HETATM   13  O4  UNL     1      33.327   2.589 -17.033  1.00  0.00    -0.280 OA
HETATM   14  C12 UNL     1      33.270   3.324 -18.097  1.00  0.00     0.222 A 
HETATM   15  C13 UNL     1      34.406   3.900 -18.603  1.00  0.00     0.178 A 
HETATM   16  C14 UNL     1      35.653   3.692 -17.963  1.00  0.00     0.245 A 
HETATM   17  O7  UNL     1      36.684   4.220 -18.429  1.00  0.00    -0.282 OA
HETATM   18  C15 UNL     1      35.632   2.885 -16.820  1.00  0.00     0.156 A 
BRANCH  14  19
HETATM   19  O5  UNL     1      32.024   3.548 -18.758  1.00  0.00    -0.339 OA
ATOM     20  H5  UNL     1      31.473   4.282 -18.513  1.00  0.00     0.220 HD
ENDBRANCH  14  19
BRANCH  15  21
HETATM   21  O6  UNL     1      34.383   4.685 -19.729  1.00  0.00    -0.353 OA
ATOM     22  H6  UNL     1      34.648   4.354 -20.580  1.00  0.00     0.218 HD
ENDBRANCH  15  21
BRANCH  18  23
HETATM   23  O8  UNL     1      36.868   2.700 -16.217  1.00  0.00    -0.355 OA
ATOM     24  H8  UNL     1      37.480   2.011 -16.447  1.00  0.00     0.218 HD
ENDBRANCH  18  23
ENDBRANCH   8  12
ENDBRANCH   3   4
BRANCH   1  25
HETATM   25  N5  UNL     1      35.531  -2.837 -11.491  1.00  0.00    -0.282 N 
ATOM     26  H5  UNL     1      35.657  -3.798 -11.809  1.00  0.00     0.188 HD
BRANCH  25  27
HETATM   27  C3  UNL     1      35.860  -2.409 -10.125  1.00  0.00     0.181 C 
HETATM   28  N1  UNL     1      34.843  -2.173  -9.419  1.00  0.00    -0.279 N 
ATOM     29  H1  UNL     1      33.947  -2.347  -9.875  1.00  0.00     0.189 HD
BRANCH  27  30
HETATM   30  C2  UNL     1      37.248  -2.265  -9.762  1.00  0.00     0.191 C 
HETATM   31  C1  UNL     1      38.233  -3.346  -9.853  1.00  0.00     0.100 C 
HETATM   32  O1  UNL     1      37.665  -1.143  -9.328  1.00  0.00    -0.289 OA
ENDBRANCH  27  30
BRANCH  28  33
HETATM   33  N2  UNL     1      34.766  -1.722  -8.142  1.00  0.00    -0.270 N 
ATOM     34  H2  UNL     1      34.868  -2.380  -7.369  1.00  0.00     0.190 HD
BRANCH  33  35
HETATM   35  C4  UNL     1      34.540  -0.321  -7.862  1.00  0.00     0.192 C 
HETATM   36  N3  UNL     1      35.422   0.595  -7.899  1.00  0.00    -0.357 N 
HETATM   37  C5  UNL     1      34.826   1.874  -7.562  1.00  0.00     0.176 C 
ATOM     38  H3  UNL     1      36.404   0.451  -8.131  1.00  0.00     0.162 HD
HETATM   39  C6  UNL     1      33.544   1.460  -6.853  1.00  0.00     0.238 C 
HETATM   40  N4  UNL     1      33.279   0.195  -7.506  1.00  0.00    -0.333 N 
ATOM     41  H4  UNL     1      32.369  -0.233  -7.673  1.00  0.00     0.165 HD
BRANCH  39  42
HETATM   42  O2  UNL     1      32.518   2.373  -7.064  1.00  0.00    -0.375 OA
ATOM     43  H2  UNL     1      32.062   2.210  -7.881  1.00  0.00     0.212 HD
ENDBRANCH  39  42
ENDBRANCH  33  35
ENDBRANCH  28  33
ENDBRANCH  25  27
ENDBRANCH   1  25
TORSDOF 12
ENDMDL
MODEL 2
REMARK VINA RESULT: -8.873500741      5.014      8.067
REMARK  12 active torsions:
REMARK  status: ('A' for Active; 'I' for Inactive)
REMARK    1  A    between atoms: C2_2  and  C3_4 
REMARK    2  A    between atoms: C3_4  and  N5_18 
REMARK    3  A    between atoms: N1_5  and  N2_7 
REMARK    4  A    between atoms: N2_7  and  C4_9 
REMARK    5  A    between atoms: C6_13  and  O2_14 
REMARK    6  A    between atoms: N5_18  and  N6_20 
REMARK    7  A    between atoms: C7_22  and  C8_23 
REMARK    8  A    between atoms: C9_26  and  O3_27 
REMARK    9  A    between atoms: C10_29  and  C11_30 
REMARK   10  A    between atoms: C12_32  and  O5_33 
REMARK   11  A    between atoms: C13_35  and  O6_36 
REMARK   12  A    between atoms: C15_40  and  O8_41 
ROOT
HETATM    1  N6  UNL     1      34.593   3.553 -18.614  1.00  0.00    -0.306 N 
ATOM      2  H6  UNL     1      35.251   4.331 -18.573  1.00  0.00     0.186 HD
HETATM    3  C7  UNL     1      33.399   3.861 -18.658  1.00  0.00     0.163 C 
ENDROOT
BRANCH   3   4
HETATM    4  C8  UNL     1      33.003   5.297 -18.655  1.00  0.00     0.167 A 
HETATM    5  N7  UNL     1      33.104   6.100 -17.565  1.00  0.00    -0.314 N 
HETATM    6  C9  UNL     1      32.658   7.308 -17.949  1.00  0.00     0.179 A 
ATOM      7  H7  UNL     1      33.448   5.838 -16.641  1.00  0.00     0.170 HD
HETATM    8  C10 UNL     1      32.276   7.259 -19.287  1.00  0.00     0.165 A 
HETATM    9  O9  UNL     1      32.515   6.019 -19.629  1.00  0.00    -0.285 OA
BRANCH   6  10
HETATM   10  O3  UNL     1      32.565   8.467 -17.173  1.00  0.00    -0.344 OA
ATOM     11  H3  UNL     1      32.050   8.596 -16.386  1.00  0.00     0.219 HD
ENDBRANCH   6  10
BRANCH   8  12
HETATM   12  C11 UNL     1      31.749   8.381 -20.039  1.00  0.00     0.153 A 
HETATM   13  O4  UNL     1      32.536   9.449 -20.232  1.00  0.00    -0.280 OA
HETATM   14  C12 UNL     1      32.159  10.498 -20.890  1.00  0.00     0.222 A 
HETATM   15  C13 UNL     1      30.902  10.561 -21.432  1.00  0.00     0.178 A 
HETATM   16  C14 UNL     1      30.005   9.476 -21.272  1.00  0.00     0.245 A 
HETATM   17  O7  UNL     1      28.861   9.541 -21.769  1.00  0.00    -0.282 OA
HETATM   18  C15 UNL     1      30.486   8.381 -20.548  1.00  0.00     0.156 A 
BRANCH  14  19
HETATM   19  O5  UNL     1      33.048  11.602 -21.064  1.00  0.00    -0.339 OA
ATOM     20  H5  UNL     1      32.945  12.391 -20.544  1.00  0.00     0.220 HD
ENDBRANCH  14  19
BRANCH  15  21
HETATM   21  O6  UNL     1      30.469  11.658 -22.136  1.00  0.00    -0.353 OA
ATOM     22  H6  UNL     1      29.574  11.972 -22.077  1.00  0.00     0.218 HD
ENDBRANCH  15  21
BRANCH  18  23
HETATM   23  O8  UNL     1      29.583   7.336 -20.408  1.00  0.00    -0.355 OA
ATOM     24  H8  UNL     1      28.657   7.446 -20.230  1.00  0.00     0.218 HD
ENDBRANCH  18  23
ENDBRANCH   8  12
ENDBRANCH   3   4
BRANCH   1  25
HETATM   25  N5  UNL     1      35.144   2.311 -18.611  1.00  0.00    -0.282 N 
ATOM     26  H5  UNL     1      34.761   1.541 -19.159  1.00  0.00     0.188 HD
BRANCH  25  27
HETATM   27  C3  UNL     1      36.332   2.156 -17.760  1.00  0.00     0.181 C 
HETATM   28  N1  UNL     1      36.186   2.647 -16.608  1.00  0.00    -0.279 N 
ATOM     29  H1  UNL     1      35.265   3.043 -16.417  1.00  0.00     0.189 HD
BRANCH  27  30
HETATM   30  C2  UNL     1      37.504   1.528 -18.317  1.00  0.00     0.191 C 
HETATM   31  C1  UNL     1      37.956   1.720 -19.699  1.00  0.00     0.100 C 
HETATM   32  O1  UNL     1      38.202   0.754 -17.587  1.00  0.00    -0.289 OA
ENDBRANCH  27  30
BRANCH  28  33
HETATM   33  N2  UNL     1      37.074   2.726 -15.586  1.00  0.00    -0.270 N 
ATOM     34  H2  UNL     1      37.845   3.392 -15.639  1.00  0.00     0.190 HD
BRANCH  33  35
HETATM   35  C4  UNL     1      36.940   1.880 -14.420  1.00  0.00     0.192 C 
HETATM   36  N3  UNL     1      37.357   0.682 -14.321  1.00  0.00    -0.357 N 
HETATM   37  C5  UNL     1      37.047   0.153 -13.006  1.00  0.00     0.176 C 
ATOM     38  H3  UNL     1      37.840   0.169 -15.058  1.00  0.00     0.162 HD
HETATM   39  C6  UNL     1      35.948   1.093 -12.529  1.00  0.00     0.238 C 
HETATM   40  N4  UNL     1      36.312   2.304 -13.234  1.00  0.00    -0.333 N 
ATOM     41  H4  UNL     1      36.149   3.265 -12.933  1.00  0.00     0.165 HD
BRANCH  39  42
HETATM   42  O2  UNL     1      35.981   1.270 -11.151  1.00  0.00    -0.375 OA
ATOM     43  H2  UNL     1      36.860   1.178 -10.803  1.00  0.00     0.212 HD
ENDBRANCH  39  42
ENDBRANCH  33  35
ENDBRANCH  28  33
ENDBRANCH  25  27
ENDBRANCH   1  25
TORSDOF 12
ENDMDL
MODEL 3
REMARK VINA RESULT: -8.834947246      4.556      7.294
REMARK  12 active torsions:
REMARK  status: ('A' for Active; 'I' for Inactive)
REMARK    1  A    between atoms: C2_2  and  C3_4 
REMARK    2  A    between atoms: C3_4  and  N5_18 
REMARK    3  A    between atoms: N1_5  and  N2_7 
REMARK    4  A    between atoms: N2_7  and  C4_9 
REMARK    5  A    between atoms: C6_13  and  O2_14 
REMARK    6  A    between atoms: N5_18  and  N6_20 
REMARK    7  A    between atoms: C7_22  and  C8_23 
REMARK    8  A    between atoms: C9_26  and  O3_27 
REMARK    9  A    between atoms: C10_29  and  C11_30 
REMARK   10  A    between atoms: C12_32  and  O5_33 
REMARK   11  A    between atoms: C13_35  and  O6_36 
REMARK   12  A    between atoms: C15_40  and  O8_41 
ROOT
HETATM    1  N6  UNL     1      37.237   2.011 -19.721  1.00  0.00    -0.306 N 
ATOM      2  H6  UNL     1      36.808   2.008 -18.795  1.00  0.00     0.186 HD
HETATM    3  C7  UNL     1      36.597   2.584 -20.608  1.00  0.00     0.163 C 
ENDROOT
BRANCH   3   4
HETATM    4  C8  UNL     1      35.288   3.217 -20.286  1.00  0.00     0.167 A 
HETATM    5  N7  UNL     1      34.167   2.511 -19.987  1.00  0.00    -0.314 N 
HETATM    6  C9  UNL     1      33.204   3.421 -19.757  1.00  0.00     0.179 A 
ATOM      7  H7  UNL     1      34.075   1.496 -19.946  1.00  0.00     0.170 HD
HETATM    8  C10 UNL     1      33.727   4.702 -19.914  1.00  0.00     0.165 A 
HETATM    9  O9  UNL     1      34.978   4.485 -20.230  1.00  0.00    -0.285 OA
BRANCH   6  10
HETATM   10  O3  UNL     1      31.871   3.179 -19.415  1.00  0.00    -0.344 OA
ATOM     11  H3  UNL     1      31.290   3.744 -18.920  1.00  0.00     0.219 HD
ENDBRANCH   6  10
BRANCH   8  12
HETATM   12  C11 UNL     1      32.975   5.929 -19.740  1.00  0.00     0.153 A 
HETATM   13  O4  UNL     1      31.815   6.067 -20.396  1.00  0.00    -0.280 OA
HETATM   14  C12 UNL     1      31.070   7.122 -20.306  1.00  0.00     0.222 A 
HETATM   15  C13 UNL     1      31.450   8.172 -19.511  1.00  0.00     0.178 A 
HETATM   16  C14 UNL     1      32.664   8.108 -18.783  1.00  0.00     0.245 A 
HETATM   17  O7  UNL     1      33.004   9.069 -18.060  1.00  0.00    -0.282 OA
HETATM   18  C15 UNL     1      33.413   6.936 -18.935  1.00  0.00     0.156 A 
BRANCH  14  19
HETATM   19  O5  UNL     1      29.842   7.207 -21.029  1.00  0.00    -0.339 OA
ATOM     20  H5  UNL     1      29.185   6.527 -20.945  1.00  0.00     0.220 HD
ENDBRANCH  14  19
BRANCH  15  21
HETATM   21  O6  UNL     1      30.685   9.306 -19.390  1.00  0.00    -0.353 OA
ATOM     22  H6  UNL     1      31.066  10.176 -19.426  1.00  0.00     0.218 HD
ENDBRANCH  15  21
BRANCH  18  23
HETATM   23  O8  UNL     1      34.596   6.906 -18.211  1.00  0.00    -0.355 OA
ATOM     24  H8  UNL     1      35.329   7.493 -18.353  1.00  0.00     0.218 HD
ENDBRANCH  18  23
ENDBRANCH   8  12
ENDBRANCH   3   4
BRANCH   1  25
HETATM   25  N5  UNL     1      38.438   1.384 -19.819  1.00  0.00    -0.282 N 
ATOM     26  H5  UNL     1      38.963   1.340 -20.692  1.00  0.00     0.188 HD
BRANCH  25  27
HETATM   27  C3  UNL     1      38.927   0.773 -18.575  1.00  0.00     0.181 C 
HETATM   28  N1  UNL     1      38.204   1.032 -17.576  1.00  0.00    -0.279 N 
ATOM     29  H1  UNL     1      37.372   1.589 -17.774  1.00  0.00     0.189 HD
BRANCH  27  30
HETATM   30  C2  UNL     1      40.150   0.011 -18.613  1.00  0.00     0.191 C 
HETATM   31  C1  UNL     1      40.797  -0.436 -19.851  1.00  0.00     0.100 C 
HETATM   32  O1  UNL     1      40.719  -0.309 -17.520  1.00  0.00    -0.289 OA
ENDBRANCH  27  30
BRANCH  28  33
HETATM   33  N2  UNL     1      38.369   0.679 -16.277  1.00  0.00    -0.270 N 
ATOM     34  H2  UNL     1      39.234   0.225 -15.985  1.00  0.00     0.190 HD
BRANCH  33  35
HETATM   35  C4  UNL     1      37.334   0.938 -15.300  1.00  0.00     0.192 C 
HETATM   36  N3  UNL     1      36.516   0.079 -14.839  1.00  0.00    -0.357 N 
HETATM   37  C5  UNL     1      35.625   0.704 -13.879  1.00  0.00     0.176 C 
ATOM     38  H3  UNL     1      36.490  -0.904 -15.106  1.00  0.00     0.162 HD
HETATM   39  C6  UNL     1      35.759   2.181 -14.224  1.00  0.00     0.238 C 
HETATM   40  N4  UNL     1      37.112   2.210 -14.738  1.00  0.00    -0.333 N 
ATOM     41  H4  UNL     1      37.769   2.990 -14.701  1.00  0.00     0.165 HD
BRANCH  39  42
HETATM   42  O2  UNL     1      35.617   2.989 -13.103  1.00  0.00    -0.375 OA
ATOM     43  H2  UNL     1      34.705   3.188 -12.924  1.00  0.00     0.212 HD
ENDBRANCH  39  42
ENDBRANCH  33  35
ENDBRANCH  28  33
ENDBRANCH  25  27
ENDBRANCH   1  25
TORSDOF 12
ENDMDL
MODEL 4
REMARK VINA RESULT: -8.816952758      6.642     12.075
REMARK  12 active torsions:
REMARK  status: ('A' for Active; 'I' for Inactive)
REMARK    1  A    between atoms: C2_2  and  C3_4 
REMARK    2  A    between atoms: C3_4  and  N5_18 
REMARK    3  A    between atoms: N1_5  and  N2_7 
REMARK    4  A    between atoms: N2_7  and  C4_9 
REMARK    5  A    between atoms: C6_13  and  O2_14 
REMARK    6  A    between atoms: N5_18  and  N6_20 
REMARK    7  A    between atoms: C7_22  and  C8_23 
REMARK    8  A    between atoms: C9_26  and  O3_27 
REMARK    9  A    between atoms: C10_29  and  C11_30 
REMARK   10  A    between atoms: C12_32  and  O5_33 
REMARK   11  A    between atoms: C13_35  and  O6_36 
REMARK   12  A    between atoms: C15_40  and  O8_41 
ROOT
HETATM    1  N6  UNL     1      31.587   6.587 -19.814  1.00  0.00    -0.306 N 
ATOM      2  H6  UNL     1      31.443   6.482 -18.810  1.00  0.00     0.186 HD
HETATM    3  C7  UNL     1      32.626   6.093 -20.262  1.00  0.00     0.163 C 
ENDROOT
BRANCH   3   4
HETATM    4  C8  UNL     1      33.570   5.394 -19.346  1.00  0.00     0.167 A 
HETATM    5  N7  UNL     1      34.894   5.244 -19.607  1.00  0.00    -0.314 N 
HETATM    6  C9  UNL     1      35.406   4.573 -18.560  1.00  0.00     0.179 A 
ATOM      7  H7  UNL     1      35.398   5.574 -20.430  1.00  0.00     0.170 HD
HETATM    8  C10 UNL     1      34.395   4.302 -17.642  1.00  0.00     0.165 A 
HETATM    9  O9  UNL     1      33.331   4.828 -18.193  1.00  0.00    -0.285 OA
BRANCH   6  10
HETATM   10  O3  UNL     1      36.733   4.178 -18.370  1.00  0.00    -0.344 OA
ATOM     11  H3  UNL     1      37.133   3.355 -18.624  1.00  0.00     0.219 HD
ENDBRANCH   6  10
BRANCH   8  12
HETATM   12  C11 UNL     1      34.583   3.596 -16.390  1.00  0.00     0.153 A 
HETATM   13  O4  UNL     1      35.830   3.431 -15.928  1.00  0.00    -0.280 OA
HETATM   14  C12 UNL     1      36.101   2.817 -14.821  1.00  0.00     0.222 A 
HETATM   15  C13 UNL     1      35.093   2.295 -14.054  1.00  0.00     0.178 A 
HETATM   16  C14 UNL     1      33.745   2.423 -14.470  1.00  0.00     0.245 A 
HETATM   17  O7  UNL     1      32.831   1.945 -13.765  1.00  0.00    -0.282 OA
HETATM   18  C15 UNL     1      33.534   3.098 -15.677  1.00  0.00     0.156 A 
BRANCH  14  19
HETATM   19  O5  UNL     1      37.453   2.677 -14.382  1.00  0.00    -0.339 OA
ATOM     20  H5  UNL     1      38.100   2.259 -14.938  1.00  0.00     0.220 HD
ENDBRANCH  14  19
BRANCH  15  21
HETATM   21  O6  UNL     1      35.343   1.638 -12.874  1.00  0.00    -0.353 OA
ATOM     22  H6  UNL     1      35.299   2.079 -12.033  1.00  0.00     0.218 HD
ENDBRANCH  15  21
BRANCH  18  23
HETATM   23  O8  UNL     1      32.204   3.206 -16.058  1.00  0.00    -0.355 OA
ATOM     24  H8  UNL     1      31.848   3.921 -16.572  1.00  0.00     0.218 HD
ENDBRANCH  18  23
ENDBRANCH   8  12
ENDBRANCH   3   4
BRANCH   1  25
HETATM   25  N5  UNL     1      30.612   7.253 -20.486  1.00  0.00    -0.282 N 
ATOM     26  H5  UNL     1      29.849   6.772 -20.961  1.00  0.00     0.188 HD
BRANCH  25  27
HETATM   27  C3  UNL     1      30.736   8.717 -20.479  1.00  0.00     0.181 C 
HETATM   28  N1  UNL     1      31.633   9.136 -19.697  1.00  0.00    -0.279 N 
ATOM     29  H1  UNL     1      32.164   8.410 -19.216  1.00  0.00     0.189 HD
BRANCH  27  30
HETATM   30  C2  UNL     1      29.834   9.492 -21.293  1.00  0.00     0.191 C 
HETATM   31  C1  UNL     1      28.503   9.032 -21.702  1.00  0.00     0.100 C 
HETATM   32  O1  UNL     1      30.193  10.644 -21.698  1.00  0.00    -0.289 OA
ENDBRANCH  27  30
BRANCH  28  33
HETATM   33  N2  UNL     1      31.994  10.410 -19.404  1.00  0.00    -0.270 N 
ATOM     34  H2  UNL     1      31.469  10.933 -18.703  1.00  0.00     0.190 HD
BRANCH  33  35
HETATM   35  C4  UNL     1      33.115  11.036 -20.071  1.00  0.00     0.192 C 
HETATM   36  N3  UNL     1      33.078  11.605 -21.208  1.00  0.00    -0.357 N 
HETATM   37  C5  UNL     1      34.390  12.117 -21.552  1.00  0.00     0.176 C 
ATOM     38  H3  UNL     1      32.247  11.688 -21.793  1.00  0.00     0.162 HD
HETATM   39  C6  UNL     1      35.303  11.322 -20.628  1.00  0.00     0.238 C 
HETATM   40  N4  UNL     1      34.408  11.083 -19.516  1.00  0.00    -0.333 N 
ATOM     41  H4  UNL     1      34.661  10.971 -18.534  1.00  0.00     0.165 HD
BRANCH  39  42
HETATM   42  O2  UNL     1      36.417  12.056 -20.243  1.00  0.00    -0.375 OA
ATOM     43  H2  UNL     1      36.535  12.053 -19.301  1.00  0.00     0.212 HD
ENDBRANCH  39  42
ENDBRANCH  33  35
ENDBRANCH  28  33
ENDBRANCH  25  27
ENDBRANCH   1  25
TORSDOF 12
ENDMDL
MODEL 5
REMARK VINA RESULT: -8.773050435      1.888      2.876
REMARK  12 active torsions:
REMARK  status: ('A' for Active; 'I' for Inactive)
REMARK    1  A    between atoms: C2_2  and  C3_4 
REMARK    2  A    between atoms: C3_4  and  N5_18 
REMARK    3  A    between atoms: N1_5  and  N2_7 
REMARK    4  A    between atoms: N2_7  and  C4_9 
REMARK    5  A    between atoms: C6_13  and  O2_14 
REMARK    6  A    between atoms: N5_18  and  N6_20 
REMARK    7  A    between atoms: C7_22  and  C8_23 
REMARK    8  A    between atoms: C9_26  and  O3_27 
REMARK    9  A    between atoms: C10_29  and  C11_30 
REMARK   10  A    between atoms: C12_32  and  O5_33 
REMARK   11  A    between atoms: C13_35  and  O6_36 
REMARK   12  A    between atoms: C15_40  and  O8_41 
ROOT
HETATM    1  N6  UNL     1      35.401  -1.464 -11.565  1.00  0.00    -0.306 N 
ATOM      2  H6  UNL     1      34.577  -1.257 -12.130  1.00  0.00     0.186 HD
HETATM    3  C7  UNL     1      36.367  -0.713 -11.727  1.00  0.00     0.163 C 
ENDROOT
BRANCH   3   4
HETATM    4  C8  UNL     1      36.276   0.413 -12.699  1.00  0.00     0.167 A 
HETATM    5  N7  UNL     1      37.322   1.221 -13.010  1.00  0.00    -0.314 N 
HETATM    6  C9  UNL     1      36.856   2.102 -13.911  1.00  0.00     0.179 A 
ATOM      7  H7  UNL     1      38.269   1.169 -12.635  1.00  0.00     0.170 HD
HETATM    8  C10 UNL     1      35.512   1.843 -14.164  1.00  0.00     0.165 A 
HETATM    9  O9  UNL     1      35.248   0.818 -13.395  1.00  0.00    -0.285 OA
BRANCH   6  10
HETATM   10  O3  UNL     1      37.561   3.139 -14.529  1.00  0.00    -0.344 OA
ATOM     11  H3  UNL     1      37.856   3.952 -14.137  1.00  0.00     0.219 HD
ENDBRANCH   6  10
BRANCH   8  12
HETATM   12  C11 UNL     1      34.684   2.595 -15.087  1.00  0.00     0.153 A 
HETATM   13  O4  UNL     1      35.282   3.284 -16.068  1.00  0.00    -0.280 OA
HETATM   14  C12 UNL     1      34.632   3.983 -16.942  1.00  0.00     0.222 A 
HETATM   15  C13 UNL     1      33.264   4.048 -16.898  1.00  0.00     0.178 A 
HETATM   16  C14 UNL     1      32.552   3.350 -15.891  1.00  0.00     0.245 A 
HETATM   17  O7  UNL     1      31.305   3.414 -15.857  1.00  0.00    -0.282 OA
HETATM   18  C15 UNL     1      33.326   2.620 -14.984  1.00  0.00     0.156 A 
BRANCH  14  19
HETATM   19  O5  UNL     1      35.329   4.694 -17.966  1.00  0.00    -0.339 OA
ATOM     20  H5  UNL     1      35.298   4.394 -18.867  1.00  0.00     0.220 HD
ENDBRANCH  14  19
BRANCH  15  21
HETATM   21  O6  UNL     1      32.541   4.779 -17.809  1.00  0.00    -0.353 OA
ATOM     22  H6  UNL     1      32.514   5.729 -17.784  1.00  0.00     0.218 HD
ENDBRANCH  15  21
BRANCH  18  23
HETATM   23  O8  UNL     1      32.600   1.948 -14.010  1.00  0.00    -0.355 OA
ATOM     24  H8  UNL     1      32.324   1.042 -14.075  1.00  0.00     0.218 HD
ENDBRANCH  18  23
ENDBRANCH   8  12
ENDBRANCH   3   4
BRANCH   1  25
HETATM   25  N5  UNL     1      35.293  -2.531 -10.731  1.00  0.00    -0.282 N 
ATOM     26  H5  UNL     1      35.484  -3.485 -11.036  1.00  0.00     0.188 HD
BRANCH  25  27
HETATM   27  C3  UNL     1      34.879  -2.211  -9.358  1.00  0.00     0.181 C 
HETATM   28  N1  UNL     1      34.165  -1.175  -9.282  1.00  0.00    -0.279 N 
ATOM     29  H1  UNL     1      33.946  -0.732 -10.174  1.00  0.00     0.189 HD
BRANCH  27  30
HETATM   30  C2  UNL     1      35.346  -3.049  -8.282  1.00  0.00     0.191 C 
HETATM   31  C1  UNL     1      35.049  -4.481  -8.173  1.00  0.00     0.100 C 
HETATM   32  O1  UNL     1      36.056  -2.538  -7.357  1.00  0.00    -0.289 OA
ENDBRANCH  27  30
BRANCH  28  33
HETATM   33  N2  UNL     1      33.647  -0.563  -8.188  1.00  0.00    -0.270 N 
ATOM     34  H2  UNL     1      32.742  -0.863  -7.826  1.00  0.00     0.190 HD
BRANCH  33  35
HETATM   35  C4  UNL     1      34.361   0.508  -7.529  1.00  0.00     0.192 C 
HETATM   36  N3  UNL     1      34.274   0.809  -6.296  1.00  0.00    -0.357 N 
HETATM   37  C5  UNL     1      35.136   1.937  -5.996  1.00  0.00     0.176 C 
ATOM     38  H3  UNL     1      33.685   0.328  -5.617  1.00  0.00     0.162 HD
HETATM   39  C6  UNL     1      35.371   2.542  -7.374  1.00  0.00     0.238 C 
HETATM   40  N4  UNL     1      35.255   1.361  -8.203  1.00  0.00    -0.333 N 
ATOM     41  H4  UNL     1      35.724   1.184  -9.091  1.00  0.00     0.165 HD
BRANCH  39  42
HETATM   42  O2  UNL     1      36.629   3.122  -7.477  1.00  0.00    -0.375 OA
ATOM     43  H2  UNL     1      37.313   2.539  -7.170  1.00  0.00     0.212 HD
ENDBRANCH  39  42
ENDBRANCH  33  35
ENDBRANCH  28  33
ENDBRANCH  25  27
ENDBRANCH   1  25
TORSDOF 12
ENDMDL
