MODEL 1
REMARK VINA RESULT: -8.920394153      0.000      0.000
REMARK  11 active torsions:
REMARK  status: ('A' for Active; 'I' for Inactive)
REMARK    1  A    between atoms: N3_7  and  C3_8 
REMARK    2  A    between atoms: C4_11  and  N5_12 
REMARK    3  A    between atoms: C5_17  and  N7_18 
REMARK    4  A    between atoms: C6_21  and  N8_22 
REMARK    5  A    between atoms: N8_22  and  C7_24 
REMARK    6  A    between atoms: C7_24  and  C8_30 
REMARK    7  A    between atoms: N9_25  and  N10_27 
REMARK    8  A    between atoms: C10_35  and  N12_36 
REMARK    9  A    between atoms: C11_39  and  C12_40 
REMARK   10  A    between atoms: C12_40  and  O4_41 
REMARK   11  A    between atoms: C12_40  and  O5_43 
ROOT
HETATM    1  N8  UNL     1      36.044   3.057 -15.281  1.00  0.00    -0.332 N 
ATOM      2  H8  UNL     1      35.912   4.022 -14.977  1.00  0.00     0.168 HD
ENDROOT
BRANCH   1   3
HETATM    3  C6  UNL     1      36.084   2.101 -14.268  1.00  0.00     0.127 A 
HETATM    4  C3  UNL     1      34.876   1.648 -13.747  1.00  0.00     0.192 A 
HETATM    5  N4  UNL     1      34.905   0.728 -12.774  1.00  0.00    -0.171 N 
HETATM    6  C4  UNL     1      36.030   0.205 -12.258  1.00  0.00     0.679 A 
ATOM      7  H4  UNL     1      34.013   0.402 -12.400  1.00  0.00     0.186 HD
HETATM    8  N6  UNL     1      37.198   0.641 -12.761  1.00  0.00    -0.175 N 
HETATM    9  C5  UNL     1      37.233   1.569 -13.746  1.00  0.00     0.145 A 
ATOM     10  H6  UNL     1      38.073   0.267 -12.395  1.00  0.00     0.186 HD
BRANCH   4  11
HETATM   11  N3  UNL     1      33.628   2.172 -14.255  1.00  0.00    -0.161 N 
HETATM   12  N2  UNL     1      32.864   1.691 -15.189  1.00  0.00    -0.218 N 
HETATM   13  N1  UNL     1      31.817   2.484 -15.333  1.00  0.00    -0.272 N 
ATOM     14  H2  UNL     1      33.043   0.841 -15.724  1.00  0.00     0.210 HD
HETATM   15  C2  UNL     1      31.951   3.484 -14.450  1.00  0.00     0.109 A 
ATOM     16  H1  UNL     1      31.050   2.359 -15.994  1.00  0.00     0.190 HD
HETATM   17  C1  UNL     1      30.982   4.627 -14.259  1.00  0.00     0.092 C 
HETATM   18  N13 UNL     1      33.090   3.273 -13.784  1.00  0.00    -0.264 N 
ATOM     19  H13 UNL     1      33.473   3.860 -13.044  1.00  0.00     0.190 HD
ENDBRANCH   4  11
BRANCH   6  20
HETATM   20  N5  UNL     1      35.968  -0.688 -11.309  1.00  0.00    -0.234 N 
ATOM     21  H52 UNL     1      35.109  -1.192 -11.087  1.00  0.00     0.174 HD
ATOM     22  H51 UNL     1      36.795  -0.909 -10.754  1.00  0.00     0.174 HD
ENDBRANCH   6  20
BRANCH   9  23
HETATM   23  N7  UNL     1      38.385   1.934 -14.171  1.00  0.00    -0.383 N 
ATOM     24  H72 UNL     1      39.142   2.150 -13.523  1.00  0.00     0.157 HD
ATOM     25  H71 UNL     1      38.514   1.998 -15.181  1.00  0.00     0.157 HD
ENDBRANCH   9  23
ENDBRANCH   1   3
BRANCH   1  26
HETATM   26  C7  UNL     1      36.162   2.859 -16.678  1.00  0.00     0.172 C 
HETATM   27  N9  UNL     1      37.058   2.058 -17.104  1.00  0.00    -0.288 N 
ATOM     28  H9  UNL     1      37.662   1.582 -16.434  1.00  0.00     0.188 HD
BRANCH  27  29
HETATM   29  N10 UNL     1      37.230   1.819 -18.463  1.00  0.00    -0.344 N 
ATOM     30 2H10 UNL     1      38.170   1.616 -18.802  1.00  0.00     0.176 HD
ATOM     31 1H10 UNL     1      36.443   1.843 -19.110  1.00  0.00     0.176 HD
ENDBRANCH  27  29
BRANCH  26  32
HETATM   32  C8  UNL     1      35.293   3.516 -17.665  1.00  0.00     0.197 A 
HETATM   33  N11 UNL     1      34.022   3.126 -17.846  1.00  0.00    -0.298 N 
HETATM   34  C9  UNL     1      33.169   3.668 -18.713  1.00  0.00     0.283 A 
ATOM     35  H11 UNL     1      33.682   2.354 -17.273  1.00  0.00     0.171 HD
HETATM   36  O1  UNL     1      31.979   3.301 -18.882  1.00  0.00    -0.265 OA
HETATM   37  C10 UNL     1      33.648   4.735 -19.500  1.00  0.00     0.205 A 
HETATM   38  C11 UNL     1      34.947   5.126 -19.309  1.00  0.00     0.148 A 
HETATM   39  O6  UNL     1      35.709   4.504 -18.403  1.00  0.00    -0.287 OA
BRANCH  37  40
HETATM   40  N12 UNL     1      32.776   5.355 -20.431  1.00  0.00    -0.107 N 
HETATM   41  O2  UNL     1      32.822   5.081 -21.656  1.00  0.00    -0.531 OA
HETATM   42  O3  UNL     1      31.843   6.281 -20.057  1.00  0.00    -0.531 OA
ENDBRANCH  37  40
BRANCH  38  43
HETATM   43  C12 UNL     1      35.532   6.242 -20.099  1.00  0.00     0.315 C 
BRANCH  43  44
HETATM   44  O4  UNL     1      36.637   6.839 -19.533  1.00  0.00    -0.365 OA
ATOM     45  H4  UNL     1      36.876   7.679 -19.907  1.00  0.00     0.213 HD
ENDBRANCH  43  44
BRANCH  43  46
HETATM   46  O5  UNL     1      35.925   5.715 -21.341  1.00  0.00    -0.365 OA
ATOM     47  H5  UNL     1      36.773   6.088 -21.551  1.00  0.00     0.213 HD
ENDBRANCH  43  46
ENDBRANCH  38  43
ENDBRANCH  26  32
ENDBRANCH   1  26
TORSDOF 11
ENDMDL
MODEL 2
REMARK VINA RESULT: -8.905213890      3.478      6.480
REMARK  11 active torsions:
REMARK  status: ('A' for Active; 'I' for Inactive)
REMARK    1  A    between atoms: N3_7  and  C3_8 
REMARK    2  A    between atoms: C4_11  and  N5_12 
REMARK    3  A    between atoms: C5_17  and  N7_18 
REMARK    4  A    between atoms: C6_21  and  N8_22 
REMARK    5  A    between atoms: N8_22  and  C7_24 
REMARK    6  A    between atoms: C7_24  and  C8_30 
REMARK    7  A    between atoms: N9_25  and  N10_27 
REMARK    8  A    between atoms: C10_35  and  N12_36 
REMARK    9  A    between atoms: C11_39  and  C12_40 
REMARK   10  A    between atoms: C12_40  and  O4_41 
REMARK   11  A    between atoms: C12_40  and  O5_43 
ROOT
HETATM    1  N8  UNL     1      34.674   6.181 -18.546  1.00  0.00    -0.332 N 
ATOM      2  H8  UNL     1      35.458   6.357 -17.917  1.00  0.00     0.168 HD
ENDROOT
BRANCH   1   3
HETATM    3  C6  UNL     1      34.878   5.198 -19.512  1.00  0.00     0.127 A 
HETATM    4  C3  UNL     1      34.426   3.911 -19.241  1.00  0.00     0.192 A 
HETATM    5  N4  UNL     1      34.617   2.958 -20.165  1.00  0.00    -0.171 N 
HETATM    6  C4  UNL     1      35.221   3.161 -21.348  1.00  0.00     0.679 A 
ATOM      7  H4  UNL     1      34.280   2.018 -19.956  1.00  0.00     0.186 HD
HETATM    8  N6  UNL     1      35.658   4.405 -21.610  1.00  0.00    -0.175 N 
HETATM    9  C5  UNL     1      35.493   5.408 -20.717  1.00  0.00     0.145 A 
ATOM     10  H6  UNL     1      36.121   4.596 -22.498  1.00  0.00     0.186 HD
BRANCH   4  11
HETATM   11  N3  UNL     1      33.770   3.624 -17.986  1.00  0.00    -0.161 N 
HETATM   12  N2  UNL     1      32.498   3.551 -17.730  1.00  0.00    -0.218 N 
HETATM   13  N1  UNL     1      32.336   3.261 -16.452  1.00  0.00    -0.272 N 
ATOM     14  H2  UNL     1      31.748   3.695 -18.406  1.00  0.00     0.210 HD
HETATM   15  C2  UNL     1      33.559   3.151 -15.911  1.00  0.00     0.109 A 
ATOM     16  H1  UNL     1      31.447   3.142 -15.966  1.00  0.00     0.190 HD
HETATM   17  C1  UNL     1      33.857   2.826 -14.466  1.00  0.00     0.092 C 
HETATM   18  N13 UNL     1      34.443   3.382 -16.885  1.00  0.00    -0.264 N 
ATOM     19  H13 UNL     1      35.458   3.372 -16.791  1.00  0.00     0.190 HD
ENDBRANCH   4  11
BRANCH   6  20
HETATM   20  N5  UNL     1      35.367   2.176 -22.190  1.00  0.00    -0.234 N 
ATOM     21  H52 UNL     1      34.722   1.385 -22.226  1.00  0.00     0.174 HD
ATOM     22  H51 UNL     1      36.146   2.172 -22.849  1.00  0.00     0.174 HD
ENDBRANCH   6  20
BRANCH   9  23
HETATM   23  N7  UNL     1      35.939   6.565 -21.041  1.00  0.00    -0.383 N 
ATOM     24  H72 UNL     1      36.337   7.192 -20.343  1.00  0.00     0.157 HD
ATOM     25  H71 UNL     1      35.881   6.830 -22.025  1.00  0.00     0.157 HD
ENDBRANCH   9  23
ENDBRANCH   1   3
BRANCH   1  26
HETATM   26  C7  UNL     1      33.517   6.966 -18.326  1.00  0.00     0.172 C 
HETATM   27  N9  UNL     1      32.966   6.929 -17.176  1.00  0.00    -0.288 N 
ATOM     28  H9  UNL     1      33.371   6.340 -16.448  1.00  0.00     0.188 HD
BRANCH  27  29
HETATM   29  N10 UNL     1      31.827   7.673 -16.893  1.00  0.00    -0.344 N 
ATOM     30 2H10 UNL     1      31.196   7.900 -17.661  1.00  0.00     0.176 HD
ATOM     31 1H10 UNL     1      31.620   7.989 -15.946  1.00  0.00     0.176 HD
ENDBRANCH  27  29
BRANCH  26  32
HETATM   32  C8  UNL     1      32.924   7.838 -19.350  1.00  0.00     0.197 A 
HETATM   33  N11 UNL     1      33.622   8.843 -19.901  1.00  0.00    -0.298 N 
HETATM   34  C9  UNL     1      33.164   9.675 -20.834  1.00  0.00     0.283 A 
ATOM     35  H11 UNL     1      34.581   8.980 -19.580  1.00  0.00     0.171 HD
HETATM   36  O1  UNL     1      33.819  10.616 -21.348  1.00  0.00    -0.265 OA
HETATM   37  C10 UNL     1      31.839   9.478 -21.272  1.00  0.00     0.205 A 
HETATM   38  C11 UNL     1      31.134   8.450 -20.704  1.00  0.00     0.148 A 
HETATM   39  O6  UNL     1      31.704   7.679 -19.773  1.00  0.00    -0.287 OA
BRANCH  37  40
HETATM   40  N12 UNL     1      31.306  10.329 -22.273  1.00  0.00    -0.107 N 
HETATM   41  O2  UNL     1      31.464  10.084 -23.495  1.00  0.00    -0.531 OA
HETATM   42  O3  UNL     1      30.598  11.460 -21.974  1.00  0.00    -0.531 OA
ENDBRANCH  37  40
BRANCH  38  43
HETATM   43  C12 UNL     1      29.728   8.175 -21.107  1.00  0.00     0.315 C 
BRANCH  43  44
HETATM   44  O4  UNL     1      29.174   7.044 -20.547  1.00  0.00    -0.365 OA
ATOM     45  H4  UNL     1      29.644   6.238 -20.722  1.00  0.00     0.213 HD
ENDBRANCH  43  44
BRANCH  43  46
HETATM   46  O5  UNL     1      28.953   9.273 -20.700  1.00  0.00    -0.365 OA
ATOM     47  H5  UNL     1      28.300   8.949 -20.090  1.00  0.00     0.213 HD
ENDBRANCH  43  46
ENDBRANCH  38  43
ENDBRANCH  26  32
ENDBRANCH   1  26
TORSDOF 11
ENDMDL
MODEL 3
REMARK VINA RESULT: -8.829151514      0.993      2.205
REMARK  11 active torsions:
REMARK  status: ('A' for Active; 'I' for Inactive)
REMARK    1  A    between atoms: N3_7  and  C3_8 
REMARK    2  A    between atoms: C4_11  and  N5_12 
REMARK    3  A    between atoms: C5_17  and  N7_18 
REMARK    4  A    between atoms: C6_21  and  N8_22 
REMARK    5  A    between atoms: N8_22  and  C7_24 
REMARK    6  A    between atoms: C7_24  and  C8_30 
REMARK    7  A    between atoms: N9_25  and  N10_27 
REMARK    8  A    between atoms: C10_35  and  N12_36 
REMARK    9  A    between atoms: C11_39  and  C12_40 
REMARK   10  A    between atoms: C12_40  and  O4_41 
REMARK   11  A    between atoms: C12_40  and  O5_43 
ROOT
HETATM    1  N8  UNL     1      36.244   2.895 -15.507  1.00  0.00    -0.332 N 
ATOM      2  H8  UNL     1      36.146   3.872 -15.233  1.00  0.00     0.168 HD
ENDROOT
BRANCH   1   3
HETATM    3  C6  UNL     1      36.128   1.961 -14.480  1.00  0.00     0.127 A 
HETATM    4  C3  UNL     1      34.853   1.653 -14.017  1.00  0.00     0.192 A 
HETATM    5  N4  UNL     1      34.730   0.755 -13.030  1.00  0.00    -0.171 N 
HETATM    6  C4  UNL     1      35.764   0.123 -12.448  1.00  0.00     0.679 A 
ATOM      7  H4  UNL     1      33.790   0.536 -12.699  1.00  0.00     0.186 HD
HETATM    8  N6  UNL     1      36.996   0.419 -12.896  1.00  0.00    -0.175 N 
HETATM    9  C5  UNL     1      37.183   1.317 -13.891  1.00  0.00     0.145 A 
ATOM     10  H6  UNL     1      37.805  -0.041 -12.478  1.00  0.00     0.186 HD
BRANCH   4  11
HETATM   11  N3  UNL     1      33.698   2.300 -14.597  1.00  0.00    -0.161 N 
HETATM   12  N2  UNL     1      33.203   2.164 -15.790  1.00  0.00    -0.218 N 
HETATM   13  N1  UNL     1      32.138   2.938 -15.901  1.00  0.00    -0.272 N 
ATOM     14  H2  UNL     1      33.575   1.558 -16.522  1.00  0.00     0.210 HD
HETATM   15  C2  UNL     1      31.981   3.567 -14.727  1.00  0.00     0.109 A 
ATOM     16  H1  UNL     1      31.547   3.039 -16.726  1.00  0.00     0.190 HD
HETATM   17  C1  UNL     1      30.886   4.554 -14.396  1.00  0.00     0.092 C 
HETATM   18  N13 UNL     1      32.965   3.156 -13.924  1.00  0.00    -0.264 N 
ATOM     19  H13 UNL     1      33.120   3.453 -12.961  1.00  0.00     0.190 HD
ENDBRANCH   4  11
BRANCH   6  20
HETATM   20  N5  UNL     1      35.556  -0.738 -11.491  1.00  0.00    -0.234 N 
ATOM     21  H52 UNL     1      34.733  -0.699 -10.888  1.00  0.00     0.174 HD
ATOM     22  H51 UNL     1      36.224  -1.490 -11.319  1.00  0.00     0.174 HD
ENDBRANCH   6  20
BRANCH   9  23
HETATM   23  N7  UNL     1      38.389   1.546 -14.259  1.00  0.00    -0.383 N 
ATOM     24  H72 UNL     1      39.051   2.013 -13.640  1.00  0.00     0.157 HD
ATOM     25  H71 UNL     1      38.659   1.240 -15.194  1.00  0.00     0.157 HD
ENDBRANCH   9  23
ENDBRANCH   1   3
BRANCH   1  26
HETATM   26  C7  UNL     1      36.482   2.659 -16.883  1.00  0.00     0.172 C 
HETATM   27  N9  UNL     1      37.386   1.821 -17.209  1.00  0.00    -0.288 N 
ATOM     28  H9  UNL     1      37.911   1.343 -16.476  1.00  0.00     0.188 HD
BRANCH  27  29
HETATM   29  N10 UNL     1      37.671   1.543 -18.540  1.00  0.00    -0.344 N 
ATOM     30 2H10 UNL     1      38.213   0.705 -18.753  1.00  0.00     0.176 HD
ATOM     31 1H10 UNL     1      37.352   2.155 -19.291  1.00  0.00     0.176 HD
ENDBRANCH  27  29
BRANCH  26  32
HETATM   32  C8  UNL     1      35.727   3.318 -17.959  1.00  0.00     0.197 A 
HETATM   33  N11 UNL     1      36.090   4.521 -18.431  1.00  0.00    -0.298 N 
HETATM   34  C9  UNL     1      35.466   5.184 -19.402  1.00  0.00     0.283 A 
ATOM     35  H11 UNL     1      36.909   4.962 -18.013  1.00  0.00     0.171 HD
HETATM   36  O1  UNL     1      35.807   6.311 -19.842  1.00  0.00    -0.265 OA
HETATM   37  C10 UNL     1      34.335   4.567 -19.975  1.00  0.00     0.205 A 
HETATM   38  C11 UNL     1      33.972   3.340 -19.486  1.00  0.00     0.148 A 
HETATM   39  O6  UNL     1      34.681   2.771 -18.505  1.00  0.00    -0.287 OA
BRANCH  37  40
HETATM   40  N12 UNL     1      33.642   5.226 -21.021  1.00  0.00    -0.107 N 
HETATM   41  O2  UNL     1      34.025   5.145 -22.215  1.00  0.00    -0.531 OA
HETATM   42  O3  UNL     1      32.526   5.984 -20.798  1.00  0.00    -0.531 OA
ENDBRANCH  37  40
BRANCH  38  43
HETATM   43  C12 UNL     1      32.790   2.620 -20.032  1.00  0.00     0.315 C 
BRANCH  43  44
HETATM   44  O4  UNL     1      32.750   1.272 -19.752  1.00  0.00    -0.365 OA
ATOM     45  H4  UNL     1      32.043   1.002 -19.177  1.00  0.00     0.213 HD
ENDBRANCH  43  44
BRANCH  43  46
HETATM   46  O5  UNL     1      31.645   3.205 -19.465  1.00  0.00    -0.365 OA
ATOM     47  H5  UNL     1      31.449   3.987 -19.967  1.00  0.00     0.213 HD
ENDBRANCH  43  46
ENDBRANCH  38  43
ENDBRANCH  26  32
ENDBRANCH   1  26
TORSDOF 11
ENDMDL
MODEL 4
REMARK VINA RESULT: -8.826781962      3.523      6.596
REMARK  11 active torsions:
REMARK  status: ('A' for Active; 'I' for Inactive)
REMARK    1  A    between atoms: N3_7  and  C3_8 
REMARK    2  A    between atoms: C4_11  and  N5_12 
REMARK    3  A    between atoms: C5_17  and  N7_18 
REMARK    4  A    between atoms: C6_21  and  N8_22 
REMARK    5  A    between atoms: N8_22  and  C7_24 
REMARK    6  A    between atoms: C7_24  and  C8_30 
REMARK    7  A    between atoms: N9_25  and  N10_27 
REMARK    8  A    between atoms: C10_35  and  N12_36 
REMARK    9  A    between atoms: C11_39  and  C12_40 
REMARK   10  A    between atoms: C12_40  and  O4_41 
REMARK   11  A    between atoms: C12_40  and  O5_43 
ROOT
HETATM    1  N8  UNL     1      33.064   5.163 -18.818  1.00  0.00    -0.332 N 
ATOM      2  H8  UNL     1      32.666   4.743 -19.657  1.00  0.00     0.168 HD
ENDROOT
BRANCH   1   3
HETATM    3  C6  UNL     1      34.042   4.413 -18.168  1.00  0.00     0.127 A 
HETATM    4  C3  UNL     1      35.359   4.542 -18.598  1.00  0.00     0.192 A 
HETATM    5  N4  UNL     1      36.307   3.826 -17.978  1.00  0.00    -0.171 N 
HETATM    6  C4  UNL     1      36.074   2.981 -16.959  1.00  0.00     0.679 A 
ATOM      7  H4  UNL     1      37.269   3.929 -18.302  1.00  0.00     0.186 HD
HETATM    8  N6  UNL     1      34.802   2.856 -16.543  1.00  0.00    -0.175 N 
HETATM    9  C5  UNL     1      33.801   3.554 -17.129  1.00  0.00     0.145 A 
ATOM     10  H6  UNL     1      34.586   2.224 -15.772  1.00  0.00     0.186 HD
BRANCH   4  11
HETATM   11  N3  UNL     1      35.678   5.432 -19.691  1.00  0.00    -0.161 N 
HETATM   12  N2  UNL     1      35.654   5.193 -20.968  1.00  0.00    -0.218 N 
HETATM   13  N1  UNL     1      36.015   6.287 -21.613  1.00  0.00    -0.272 N 
ATOM     14  H2  UNL     1      35.399   4.305 -21.401  1.00  0.00     0.210 HD
HETATM   15  C2  UNL     1      36.266   7.228 -20.691  1.00  0.00     0.109 A 
ATOM     16  H1  UNL     1      36.089   6.396 -22.625  1.00  0.00     0.190 HD
HETATM   17  C1  UNL     1      36.709   8.644 -20.974  1.00  0.00     0.092 C 
HETATM   18  N13 UNL     1      36.050   6.675 -19.495  1.00  0.00    -0.264 N 
ATOM     19  H13 UNL     1      36.156   7.135 -18.591  1.00  0.00     0.190 HD
ENDBRANCH   4  11
BRANCH   6  20
HETATM   20  N5  UNL     1      37.057   2.320 -16.413  1.00  0.00    -0.234 N 
ATOM     21  H52 UNL     1      37.961   2.205 -16.872  1.00  0.00     0.174 HD
ATOM     22  H51 UNL     1      36.943   1.893 -15.494  1.00  0.00     0.174 HD
ENDBRANCH   6  20
BRANCH   9  23
HETATM   23  N7  UNL     1      32.616   3.378 -16.675  1.00  0.00    -0.383 N 
ATOM     24  H72 UNL     1      32.447   3.240 -15.679  1.00  0.00     0.157 HD
ATOM     25  H71 UNL     1      31.850   3.384 -17.349  1.00  0.00     0.157 HD
ENDBRANCH   9  23
ENDBRANCH   1   3
BRANCH   1  26
HETATM   26  C7  UNL     1      32.553   6.434 -18.460  1.00  0.00     0.172 C 
HETATM   27  N9  UNL     1      32.446   6.720 -17.221  1.00  0.00    -0.288 N 
ATOM     28  H9  UNL     1      32.729   6.031 -16.524  1.00  0.00     0.188 HD
BRANCH  27  29
HETATM   29  N10 UNL     1      31.951   7.948 -16.801  1.00  0.00    -0.344 N 
ATOM     30 2H10 UNL     1      32.185   8.776 -17.349  1.00  0.00     0.176 HD
ATOM     31 1H10 UNL     1      31.369   8.030 -15.968  1.00  0.00     0.176 HD
ENDBRANCH  27  29
BRANCH  26  32
HETATM   32  C8  UNL     1      32.156   7.452 -19.443  1.00  0.00     0.197 A 
HETATM   33  N11 UNL     1      33.021   8.385 -19.872  1.00  0.00    -0.298 N 
HETATM   34  C9  UNL     1      32.745   9.338 -20.760  1.00  0.00     0.283 A 
ATOM     35  H11 UNL     1      33.966   8.361 -19.488  1.00  0.00     0.171 HD
HETATM   36  O1  UNL     1      33.557  10.210 -21.159  1.00  0.00    -0.265 OA
HETATM   37  C10 UNL     1      31.438   9.363 -21.286  1.00  0.00     0.205 A 
HETATM   38  C11 UNL     1      30.561   8.408 -20.841  1.00  0.00     0.148 A 
HETATM   39  O6  UNL     1      30.957   7.499 -19.945  1.00  0.00    -0.287 OA
BRANCH  37  40
HETATM   40  N12 UNL     1      31.096  10.350 -22.243  1.00  0.00    -0.107 N 
HETATM   41  O2  UNL     1      30.578  11.444 -21.903  1.00  0.00    -0.531 OA
HETATM   42  O3  UNL     1      31.303  10.176 -23.584  1.00  0.00    -0.531 OA
ENDBRANCH  37  40
BRANCH  38  43
HETATM   43  C12 UNL     1      29.162   8.365 -21.343  1.00  0.00     0.315 C 
BRANCH  43  44
HETATM   44  O4  UNL     1      28.421   7.287 -20.908  1.00  0.00    -0.365 OA
ATOM     45  H4  UNL     1      27.666   7.076 -21.445  1.00  0.00     0.213 HD
ENDBRANCH  43  44
BRANCH  43  46
HETATM   46  O5  UNL     1      28.519   9.530 -20.893  1.00  0.00    -0.365 OA
ATOM     47  H5  UNL     1      27.584   9.366 -20.921  1.00  0.00     0.213 HD
ENDBRANCH  43  46
ENDBRANCH  38  43
ENDBRANCH  26  32
ENDBRANCH   1  26
TORSDOF 11
ENDMDL
MODEL 5
REMARK VINA RESULT: -8.730497180      3.340      7.358
REMARK  11 active torsions:
REMARK  status: ('A' for Active; 'I' for Inactive)
REMARK    1  A    between atoms: N3_7  and  C3_8 
REMARK    2  A    between atoms: C4_11  and  N5_12 
REMARK    3  A    between atoms: C5_17  and  N7_18 
REMARK    4  A    between atoms: C6_21  and  N8_22 
REMARK    5  A    between atoms: N8_22  and  C7_24 
REMARK    6  A    between atoms: C7_24  and  C8_30 
REMARK    7  A    between atoms: N9_25  and  N10_27 
REMARK    8  A    between atoms: C10_35  and  N12_36 
REMARK    9  A    between atoms: C11_39  and  C12_40 
REMARK   10  A    between atoms: C12_40  and  O4_41 
REMARK   11  A    between atoms: C12_40  and  O5_43 
ROOT
HETATM    1  N8  UNL     1      33.106   5.573 -18.855  1.00  0.00    -0.332 N 
ATOM      2  H8  UNL     1      32.240   6.023 -18.559  1.00  0.00     0.168 HD
ENDROOT
BRANCH   1   3
HETATM    3  C6  UNL     1      34.062   6.409 -19.427  1.00  0.00     0.127 A 
HETATM    4  C3  UNL     1      33.634   7.617 -19.968  1.00  0.00     0.192 A 
HETATM    5  N4  UNL     1      34.546   8.430 -20.520  1.00  0.00    -0.171 N 
HETATM    6  C4  UNL     1      35.860   8.157 -20.590  1.00  0.00     0.679 A 
ATOM      7  H4  UNL     1      34.220   9.314 -20.913  1.00  0.00     0.186 HD
HETATM    8  N6  UNL     1      36.274   6.990 -20.067  1.00  0.00    -0.175 N 
HETATM    9  C5  UNL     1      35.400   6.129 -19.496  1.00  0.00     0.145 A 
ATOM     10  H6  UNL     1      37.264   6.749 -20.102  1.00  0.00     0.186 HD
BRANCH   4  11
HETATM   11  N3  UNL     1      32.233   7.971 -19.929  1.00  0.00    -0.161 N 
HETATM   12  N2  UNL     1      31.529   8.395 -18.923  1.00  0.00    -0.218 N 
HETATM   13  N1  UNL     1      30.289   8.603 -19.328  1.00  0.00    -0.272 N 
ATOM     14  H2  UNL     1      31.876   8.543 -17.975  1.00  0.00     0.210 HD
HETATM   15  C2  UNL     1      30.240   8.294 -20.633  1.00  0.00     0.109 A 
ATOM     16  H1  UNL     1      29.513   8.936 -18.756  1.00  0.00     0.190 HD
HETATM   17  C1  UNL     1      29.016   8.383 -21.514  1.00  0.00     0.092 C 
HETATM   18  N13 UNL     1      31.465   7.901 -20.991  1.00  0.00    -0.264 N 
ATOM     19  H13 UNL     1      31.752   7.600 -21.922  1.00  0.00     0.190 HD
ENDBRANCH   4  11
BRANCH   6  20
HETATM   20  N5  UNL     1      36.680   9.005 -21.147  1.00  0.00    -0.234 N 
ATOM     21  H52 UNL     1      37.090   8.846 -22.067  1.00  0.00     0.174 HD
ATOM     22  H51 UNL     1      36.936   9.867 -20.665  1.00  0.00     0.174 HD
ENDBRANCH   6  20
BRANCH   9  23
HETATM   23  N7  UNL     1      35.874   5.037 -19.022  1.00  0.00    -0.383 N 
ATOM     24  H72 UNL     1      35.265   4.334 -18.606  1.00  0.00     0.157 HD
ATOM     25  H71 UNL     1      36.883   4.900 -19.080  1.00  0.00     0.157 HD
ENDBRANCH   9  23
ENDBRANCH   1   3
BRANCH   1  26
HETATM   26  C7  UNL     1      33.186   4.176 -18.631  1.00  0.00     0.172 C 
HETATM   27  N9  UNL     1      32.924   3.390 -19.601  1.00  0.00    -0.288 N 
ATOM     28  H9  UNL     1      32.667   3.783 -20.506  1.00  0.00     0.188 HD
BRANCH  27  29
HETATM   29  N10 UNL     1      32.981   2.009 -19.450  1.00  0.00    -0.344 N 
ATOM     30 2H10 UNL     1      33.657   1.624 -18.791  1.00  0.00     0.176 HD
ATOM     31 1H10 UNL     1      32.368   1.391 -19.980  1.00  0.00     0.176 HD
ENDBRANCH  27  29
BRANCH  26  32
HETATM   32  C8  UNL     1      33.572   3.584 -17.343  1.00  0.00     0.197 A 
HETATM   33  N11 UNL     1      32.700   3.493 -16.326  1.00  0.00    -0.298 N 
HETATM   34  C9  UNL     1      32.967   2.970 -15.131  1.00  0.00     0.283 A 
ATOM     35  H11 UNL     1      31.759   3.853 -16.481  1.00  0.00     0.171 HD
HETATM   36  O1  UNL     1      32.149   2.887 -14.181  1.00  0.00    -0.265 OA
HETATM   37  C10 UNL     1      34.270   2.474 -14.925  1.00  0.00     0.205 A 
HETATM   38  C11 UNL     1      35.153   2.572 -15.969  1.00  0.00     0.148 A 
HETATM   39  O6  UNL     1      34.767   3.118 -17.126  1.00  0.00    -0.287 OA
BRANCH  37  40
HETATM   40  N12 UNL     1      34.601   1.895 -13.675  1.00  0.00    -0.107 N 
HETATM   41  O2  UNL     1      34.308   0.704 -13.404  1.00  0.00    -0.531 OA
HETATM   42  O3  UNL     1      35.253   2.591 -12.694  1.00  0.00    -0.531 OA
ENDBRANCH  37  40
BRANCH  38  43
HETATM   43  C12 UNL     1      36.549   2.075 -15.835  1.00  0.00     0.315 C 
BRANCH  43  44
HETATM   44  O4  UNL     1      37.240   1.956 -17.021  1.00  0.00    -0.365 OA
ATOM     45  H4  UNL     1      38.140   1.667 -16.934  1.00  0.00     0.213 HD
ENDBRANCH  43  44
BRANCH  43  46
HETATM   46  O5  UNL     1      37.245   2.992 -15.030  1.00  0.00    -0.365 OA
ATOM     47  H5  UNL     1      37.152   2.706 -14.129  1.00  0.00     0.213 HD
ENDBRANCH  43  46
ENDBRANCH  38  43
ENDBRANCH  26  32
ENDBRANCH   1  26
TORSDOF 11
ENDMDL
