MODEL 1
REMARK VINA RESULT: -7.922258216      0.000      0.000
REMARK  9 active torsions:
REMARK  status: ('A' for Active; 'I' for Inactive)
REMARK    1  A    between atoms: C2_7  and  C3_8 
REMARK    2  A    between atoms: C3_8  and  O1_10 
REMARK    3  A    between atoms: C3_8  and  C5_12 
REMARK    4  A    between atoms: C6_15  and  C7_16 
REMARK    5  A    between atoms: C7_16  and  C8_17 
REMARK    6  A    between atoms: C8_17  and  O2_18 
REMARK    7  A    between atoms: C8_17  and  N5_20 
REMARK    8  A    between atoms: N5_20  and  O3_22 
REMARK    9  A    between atoms: C13_34  and  C14_35 
ROOT
HETATM    1  C5  UNL     1      33.582   4.514 -19.200  1.00  0.00     0.074 A 
HETATM    2  N4  UNL     1      33.332   5.602 -19.878  1.00  0.00    -0.351 N 
ATOM      3  H4  UNL     1      33.366   5.558 -20.896  1.00  0.00     0.166 HD
HETATM    4  C6  UNL     1      33.046   6.723 -19.323  1.00  0.00     0.087 A 
HETATM    5  S1  UNL     1      33.105   6.300 -17.662  1.00  0.00    -0.067 SA
HETATM    6  C13 UNL     1      33.518   4.620 -17.831  1.00  0.00     0.097 A 
ENDROOT
BRANCH   4   7
HETATM    7  C7  UNL     1      32.701   8.096 -19.811  1.00  0.00     0.151 C 
HETATM    8  N6  UNL     1      32.656   8.931 -18.629  1.00  0.00    -0.343 N 
HETATM    9  C9  UNL     1      33.323  10.002 -18.739  1.00  0.00     0.185 C 
ATOM     10  H6  UNL     1      32.136   8.682 -17.788  1.00  0.00     0.163 HD
HETATM   11  N7  UNL     1      33.424  10.971 -17.706  1.00  0.00    -0.064 NA
HETATM   12  N8  UNL     1      33.897  10.043 -20.028  1.00  0.00    -0.353 N 
HETATM   13  C10 UNL     1      33.657   8.756 -20.687  1.00  0.00     0.061 C 
ATOM     14  H8  UNL     1      34.396  10.835 -20.432  1.00  0.00     0.163 HD
HETATM   15  C11 UNL     1      34.998   8.139 -20.886  1.00  0.00     0.041 C 
HETATM   16  C12 UNL     1      33.092   9.105 -22.065  1.00  0.00     0.041 C 
BRANCH   7  17
HETATM   17  C8  UNL     1      31.295   8.000 -20.349  1.00  0.00     0.276 C 
BRANCH  17  18
HETATM   18  O2  UNL     1      30.988   6.620 -20.411  1.00  0.00    -0.372 OA
ATOM     19  H2  UNL     1      30.681   6.455 -21.295  1.00  0.00     0.212 HD
ENDBRANCH  17  18
BRANCH  17  20
HETATM   20  N5  UNL     1      30.275   8.596 -19.564  1.00  0.00    -0.273 N 
ATOM     21  H5  UNL     1      30.271   8.533 -18.546  1.00  0.00     0.190 HD
BRANCH  20  22
HETATM   22  O3  UNL     1      29.315   9.247 -20.238  1.00  0.00    -0.292 OA
ATOM     23  H3  UNL     1      28.563   8.729 -20.500  1.00  0.00     0.244 HD
ENDBRANCH  20  22
ENDBRANCH  17  20
ENDBRANCH   7  17
ENDBRANCH   4   7
BRANCH   1  24
HETATM   24  C3  UNL     1      33.923   3.227 -19.904  1.00  0.00     0.158 C 
HETATM   25  C4  UNL     1      33.689   3.341 -21.404  1.00  0.00     0.062 C 
BRANCH  24  26
HETATM   26  C2  UNL     1      35.295   2.777 -19.722  1.00  0.00     0.154 A 
HETATM   27  N3  UNL     1      36.281   3.200 -20.593  1.00  0.00    -0.269 N 
HETATM   28  N2  UNL     1      37.408   2.680 -20.233  1.00  0.00    -0.225 N 
ATOM     29  H3  UNL     1      36.142   3.822 -21.391  1.00  0.00     0.190 HD
HETATM   30  N1  UNL     1      37.204   1.937 -19.159  1.00  0.00    -0.223 N 
ATOM     31  H2  UNL     1      38.304   2.818 -20.700  1.00  0.00     0.210 HD
HETATM   32  C1  UNL     1      38.268   1.206 -18.490  1.00  0.00     0.202 C 
HETATM   33  N10 UNL     1      35.929   1.989 -18.844  1.00  0.00    -0.268 N 
ATOM     34  H10 UNL     1      35.492   1.506 -18.059  1.00  0.00     0.190 HD
ENDBRANCH  24  26
BRANCH  24  35
HETATM   35  O1  UNL     1      33.038   2.220 -19.471  1.00  0.00    -0.376 OA
ATOM     36  H1  UNL     1      32.255   2.619 -19.111  1.00  0.00     0.211 HD
ENDBRANCH  24  35
ENDBRANCH   1  24
BRANCH   6  37
HETATM   37  C14 UNL     1      33.664   3.686 -16.738  1.00  0.00     0.274 C 
HETATM   38  N9  UNL     1      34.931   3.579 -16.104  1.00  0.00    -0.057 NA
HETATM   39  O4  UNL     1      32.740   2.976 -16.326  1.00  0.00    -0.270 OA
ENDBRANCH   6  37
TORSDOF 9
ENDMDL
MODEL 2
REMARK VINA RESULT: -7.889096946      1.790      2.187
REMARK  9 active torsions:
REMARK  status: ('A' for Active; 'I' for Inactive)
REMARK    1  A    between atoms: C2_7  and  C3_8 
REMARK    2  A    between atoms: C3_8  and  O1_10 
REMARK    3  A    between atoms: C3_8  and  C5_12 
REMARK    4  A    between atoms: C6_15  and  C7_16 
REMARK    5  A    between atoms: C7_16  and  C8_17 
REMARK    6  A    between atoms: C8_17  and  O2_18 
REMARK    7  A    between atoms: C8_17  and  N5_20 
REMARK    8  A    between atoms: N5_20  and  O3_22 
REMARK    9  A    between atoms: C13_34  and  C14_35 
ROOT
HETATM    1  C5  UNL     1      34.055   4.017 -18.142  1.00  0.00     0.074 A 
HETATM    2  N4  UNL     1      34.120   4.981 -19.021  1.00  0.00    -0.351 N 
ATOM      3  H4  UNL     1      34.657   4.826 -19.874  1.00  0.00     0.166 HD
HETATM    4  C6  UNL     1      33.540   6.115 -18.862  1.00  0.00     0.087 A 
HETATM    5  S1  UNL     1      32.788   5.895 -17.337  1.00  0.00    -0.067 SA
HETATM    6  C13 UNL     1      33.315   4.271 -17.012  1.00  0.00     0.097 A 
ENDROOT
BRANCH   4   7
HETATM    7  C7  UNL     1      33.414   7.369 -19.669  1.00  0.00     0.151 C 
HETATM    8  N6  UNL     1      33.103   8.417 -18.718  1.00  0.00    -0.343 N 
HETATM    9  C9  UNL     1      33.834   9.443 -18.838  1.00  0.00     0.185 C 
ATOM     10  H6  UNL     1      32.365   8.336 -18.018  1.00  0.00     0.163 HD
HETATM   11  N7  UNL     1      33.711  10.593 -18.012  1.00  0.00    -0.064 NA
HETATM   12  N8  UNL     1      34.732   9.235 -19.907  1.00  0.00    -0.353 N 
HETATM   13  C10 UNL     1      34.603   7.845 -20.358  1.00  0.00     0.061 C 
ATOM     14  H8  UNL     1      35.363   9.932 -20.300  1.00  0.00     0.163 HD
HETATM   15  C11 UNL     1      35.913   7.197 -20.069  1.00  0.00     0.041 C 
HETATM   16  C12 UNL     1      34.445   7.926 -21.878  1.00  0.00     0.041 C 
BRANCH   7  17
HETATM   17  C8  UNL     1      32.198   7.178 -20.541  1.00  0.00     0.276 C 
BRANCH  17  18
HETATM   18  O2  UNL     1      32.108   5.789 -20.795  1.00  0.00    -0.372 OA
ATOM     19  H2  UNL     1      32.217   5.357 -19.955  1.00  0.00     0.212 HD
ENDBRANCH  17  18
BRANCH  17  20
HETATM   20  N5  UNL     1      30.951   7.557 -19.981  1.00  0.00    -0.273 N 
ATOM     21  H5  UNL     1      30.882   8.257 -19.243  1.00  0.00     0.190 HD
BRANCH  20  22
HETATM   22  O3  UNL     1      29.868   6.942 -20.479  1.00  0.00    -0.292 OA
ATOM     23  H3  UNL     1      29.194   6.710 -19.852  1.00  0.00     0.244 HD
ENDBRANCH  20  22
ENDBRANCH  17  20
ENDBRANCH   7  17
ENDBRANCH   4   7
BRANCH   1  24
HETATM   24  C3  UNL     1      34.765   2.710 -18.377  1.00  0.00     0.158 C 
HETATM   25  C4  UNL     1      35.744   2.816 -19.538  1.00  0.00     0.062 C 
BRANCH  24  26
HETATM   26  C2  UNL     1      35.515   2.210 -17.235  1.00  0.00     0.154 A 
HETATM   27  N3  UNL     1      36.455   3.016 -16.620  1.00  0.00    -0.269 N 
HETATM   28  N2  UNL     1      36.984   2.364 -15.637  1.00  0.00    -0.225 N 
ATOM     29  H3  UNL     1      36.692   3.969 -16.897  1.00  0.00     0.190 HD
HETATM   30  N1  UNL     1      36.427   1.167 -15.577  1.00  0.00    -0.223 N 
ATOM     31  H2  UNL     1      37.710   2.715 -15.011  1.00  0.00     0.210 HD
HETATM   32  C1  UNL     1      36.793   0.173 -14.580  1.00  0.00     0.202 C 
HETATM   33  N10 UNL     1      35.540   1.064 -16.541  1.00  0.00    -0.268 N 
ATOM     34  H10 UNL     1      34.963   0.244 -16.731  1.00  0.00     0.190 HD
ENDBRANCH  24  26
BRANCH  24  35
HETATM   35  O1  UNL     1      33.823   1.743 -18.779  1.00  0.00    -0.376 OA
ATOM     36  H1  UNL     1      32.956   2.131 -18.791  1.00  0.00     0.211 HD
ENDBRANCH  24  35
ENDBRANCH   1  24
BRANCH   6  37
HETATM   37  C14 UNL     1      32.946   3.494 -15.852  1.00  0.00     0.274 C 
HETATM   38  N9  UNL     1      31.591   3.088 -15.711  1.00  0.00    -0.057 NA
HETATM   39  O4  UNL     1      33.751   3.164 -14.973  1.00  0.00    -0.270 OA
ENDBRANCH   6  37
TORSDOF 9
ENDMDL
MODEL 3
REMARK VINA RESULT: -7.847291710      1.177      1.195
REMARK  9 active torsions:
REMARK  status: ('A' for Active; 'I' for Inactive)
REMARK    1  A    between atoms: C2_7  and  C3_8 
REMARK    2  A    between atoms: C3_8  and  O1_10 
REMARK    3  A    between atoms: C3_8  and  C5_12 
REMARK    4  A    between atoms: C6_15  and  C7_16 
REMARK    5  A    between atoms: C7_16  and  C8_17 
REMARK    6  A    between atoms: C8_17  and  O2_18 
REMARK    7  A    between atoms: C8_17  and  N5_20 
REMARK    8  A    between atoms: N5_20  and  O3_22 
REMARK    9  A    between atoms: C13_34  and  C14_35 
ROOT
HETATM    1  C5  UNL     1      33.161   4.876 -19.726  1.00  0.00     0.074 A 
HETATM    2  N4  UNL     1      32.857   5.885 -20.498  1.00  0.00    -0.351 N 
ATOM      3  H4  UNL     1      32.889   5.750 -21.509  1.00  0.00     0.166 HD
HETATM    4  C6  UNL     1      32.519   7.037 -20.045  1.00  0.00     0.087 A 
HETATM    5  S1  UNL     1      32.606   6.771 -18.353  1.00  0.00    -0.067 SA
HETATM    6  C13 UNL     1      33.099   5.104 -18.372  1.00  0.00     0.097 A 
ENDROOT
BRANCH   4   7
HETATM    7  C7  UNL     1      32.107   8.342 -20.653  1.00  0.00     0.151 C 
HETATM    8  N6  UNL     1      31.972   9.265 -19.545  1.00  0.00    -0.343 N 
HETATM    9  C9  UNL     1      32.575  10.363 -19.724  1.00  0.00     0.185 C 
ATOM     10  H6  UNL     1      31.441   9.050 -18.701  1.00  0.00     0.163 HD
HETATM   11  N7  UNL     1      32.582  11.416 -18.771  1.00  0.00    -0.064 NA
HETATM   12  N8  UNL     1      33.188  10.338 -20.995  1.00  0.00    -0.353 N 
HETATM   13  C10 UNL     1      33.049   8.989 -21.553  1.00  0.00     0.061 C 
ATOM     14  H8  UNL     1      33.650  11.126 -21.449  1.00  0.00     0.163 HD
HETATM   15  C11 UNL     1      34.431   8.446 -21.664  1.00  0.00     0.041 C 
HETATM   16  C12 UNL     1      32.509   9.190 -22.970  1.00  0.00     0.041 C 
BRANCH   7  17
HETATM   17  C8  UNL     1      30.728   8.114 -21.220  1.00  0.00     0.276 C 
BRANCH  17  18
HETATM   18  O2  UNL     1      30.782   6.879 -21.909  1.00  0.00    -0.372 OA
ATOM     19  H2  UNL     1      30.228   6.977 -22.675  1.00  0.00     0.212 HD
ENDBRANCH  17  18
BRANCH  17  20
HETATM   20  N5  UNL     1      29.669   7.995 -20.283  1.00  0.00    -0.273 N 
ATOM     21  H5  UNL     1      29.492   8.709 -19.576  1.00  0.00     0.190 HD
BRANCH  20  22
HETATM   22  O3  UNL     1      28.916   6.889 -20.379  1.00  0.00    -0.292 OA
ATOM     23  H3  UNL     1      29.072   6.342 -21.139  1.00  0.00     0.244 HD
ENDBRANCH  20  22
ENDBRANCH  17  20
ENDBRANCH   7  17
ENDBRANCH   4   7
BRANCH   1  24
HETATM   24  C3  UNL     1      33.561   3.548 -20.313  1.00  0.00     0.158 C 
HETATM   25  C4  UNL     1      33.531   3.587 -21.835  1.00  0.00     0.062 C 
BRANCH  24  26
HETATM   26  C2  UNL     1      34.885   3.085 -19.927  1.00  0.00     0.154 A 
HETATM   27  N3  UNL     1      35.999   3.525 -20.616  1.00  0.00    -0.269 N 
HETATM   28  N2  UNL     1      37.052   2.987 -20.096  1.00  0.00    -0.225 N 
ATOM     29  H3  UNL     1      35.991   4.170 -21.408  1.00  0.00     0.190 HD
HETATM   30  N1  UNL     1      36.678   2.216 -19.090  1.00  0.00    -0.223 N 
ATOM     31  H2  UNL     1      38.012   3.133 -20.408  1.00  0.00     0.210 HD
HETATM   32  C1  UNL     1      37.619   1.459 -18.280  1.00  0.00     0.202 C 
HETATM   33  N10 UNL     1      35.368   2.267 -18.982  1.00  0.00    -0.268 N 
ATOM     34  H10 UNL     1      34.810   1.766 -18.291  1.00  0.00     0.190 HD
ENDBRANCH  24  26
BRANCH  24  35
HETATM   35  O1  UNL     1      32.602   2.581 -19.953  1.00  0.00    -0.376 OA
ATOM     36  H1  UNL     1      32.711   1.809 -20.495  1.00  0.00     0.211 HD
ENDBRANCH  24  35
ENDBRANCH   1  24
BRANCH   6  37
HETATM   37  C14 UNL     1      33.293   4.282 -17.200  1.00  0.00     0.274 C 
HETATM   38  N9  UNL     1      32.222   3.454 -16.767  1.00  0.00    -0.057 NA
HETATM   39  O4  UNL     1      34.347   4.264 -16.553  1.00  0.00    -0.270 OA
ENDBRANCH   6  37
TORSDOF 9
ENDMDL
MODEL 4
REMARK VINA RESULT: -7.762730801      4.073      6.873
REMARK  9 active torsions:
REMARK  status: ('A' for Active; 'I' for Inactive)
REMARK    1  A    between atoms: C2_7  and  C3_8 
REMARK    2  A    between atoms: C3_8  and  O1_10 
REMARK    3  A    between atoms: C3_8  and  C5_12 
REMARK    4  A    between atoms: C6_15  and  C7_16 
REMARK    5  A    between atoms: C7_16  and  C8_17 
REMARK    6  A    between atoms: C8_17  and  O2_18 
REMARK    7  A    between atoms: C8_17  and  N5_20 
REMARK    8  A    between atoms: N5_20  and  O3_22 
REMARK    9  A    between atoms: C13_34  and  C14_35 
ROOT
HETATM    1  C5  UNL     1      36.134   2.005 -15.303  1.00  0.00     0.074 A 
HETATM    2  N4  UNL     1      35.324   2.707 -16.051  1.00  0.00    -0.351 N 
ATOM      3  H4  UNL     1      34.632   3.300 -15.594  1.00  0.00     0.166 HD
HETATM    4  C6  UNL     1      35.361   2.686 -17.334  1.00  0.00     0.087 A 
HETATM    5  S1  UNL     1      36.647   1.588 -17.615  1.00  0.00    -0.067 SA
HETATM    6  C13 UNL     1      37.053   1.226 -15.964  1.00  0.00     0.097 A 
ENDROOT
BRANCH   4   7
HETATM    7  C7  UNL     1      34.608   3.371 -18.432  1.00  0.00     0.151 C 
HETATM    8  N6  UNL     1      34.196   2.320 -19.339  1.00  0.00    -0.343 N 
HETATM    9  C9  UNL     1      32.969   2.367 -19.645  1.00  0.00     0.185 C 
ATOM     10  H6  UNL     1      34.834   1.610 -19.697  1.00  0.00     0.163 HD
HETATM   11  N7  UNL     1      32.344   1.437 -20.518  1.00  0.00    -0.064 NA
HETATM   12  N8  UNL     1      32.385   3.477 -18.997  1.00  0.00    -0.353 N 
HETATM   13  C10 UNL     1      33.371   4.049 -18.075  1.00  0.00     0.061 C 
ATOM     14  H8  UNL     1      31.437   3.822 -19.145  1.00  0.00     0.163 HD
HETATM   15  C11 UNL     1      32.813   3.858 -16.707  1.00  0.00     0.041 C 
HETATM   16  C12 UNL     1      33.381   5.549 -18.372  1.00  0.00     0.041 C 
BRANCH   7  17
HETATM   17  C8  UNL     1      35.621   4.222 -19.157  1.00  0.00     0.276 C 
BRANCH  17  18
HETATM   18  O2  UNL     1      36.653   4.488 -18.227  1.00  0.00    -0.372 OA
ATOM     19  H2  UNL     1      37.406   3.985 -18.515  1.00  0.00     0.212 HD
ENDBRANCH  17  18
BRANCH  17  20
HETATM   20  N5  UNL     1      36.248   3.634 -20.286  1.00  0.00    -0.273 N 
ATOM     21  H5  UNL     1      36.944   2.894 -20.192  1.00  0.00     0.190 HD
BRANCH  20  22
HETATM   22  O3  UNL     1      35.874   4.107 -21.483  1.00  0.00    -0.292 OA
ATOM     23  H3  UNL     1      36.521   4.622 -21.951  1.00  0.00     0.244 HD
ENDBRANCH  20  22
ENDBRANCH  17  20
ENDBRANCH   7  17
ENDBRANCH   4   7
BRANCH   1  24
HETATM   24  C3  UNL     1      36.039   2.060 -13.801  1.00  0.00     0.158 C 
HETATM   25  C4  UNL     1      35.094   3.165 -13.349  1.00  0.00     0.062 C 
BRANCH  24  26
HETATM   26  C2  UNL     1      35.583   0.829 -13.174  1.00  0.00     0.154 A 
HETATM   27  N3  UNL     1      34.253   0.464 -13.257  1.00  0.00    -0.269 N 
HETATM   28  N2  UNL     1      34.088  -0.657 -12.634  1.00  0.00    -0.225 N 
ATOM     29  H3  UNL     1      33.521   0.993 -13.732  1.00  0.00     0.190 HD
HETATM   30  N1  UNL     1      35.255  -1.045 -12.150  1.00  0.00    -0.223 N 
ATOM     31  H2  UNL     1      33.205  -1.157 -12.532  1.00  0.00     0.210 HD
HETATM   32  C1  UNL     1      35.427  -2.274 -11.391  1.00  0.00     0.202 C 
HETATM   33  N10 UNL     1      36.165  -0.151 -12.470  1.00  0.00    -0.268 N 
ATOM     34  H10 UNL     1      37.153  -0.197 -12.222  1.00  0.00     0.190 HD
ENDBRANCH  24  26
BRANCH  24  35
HETATM   35  O1  UNL     1      37.297   2.416 -13.277  1.00  0.00    -0.376 OA
ATOM     36  H1  UNL     1      37.471   3.331 -13.463  1.00  0.00     0.211 HD
ENDBRANCH  24  35
ENDBRANCH   1  24
BRANCH   6  37
HETATM   37  C14 UNL     1      38.134   0.364 -15.545  1.00  0.00     0.274 C 
HETATM   38  N9  UNL     1      38.973  -0.203 -16.541  1.00  0.00    -0.057 NA
HETATM   39  O4  UNL     1      38.365   0.095 -14.360  1.00  0.00    -0.270 OA
ENDBRANCH   6  37
TORSDOF 9
ENDMDL
MODEL 5
REMARK VINA RESULT: -7.689031228      3.489      5.384
REMARK  9 active torsions:
REMARK  status: ('A' for Active; 'I' for Inactive)
REMARK    1  A    between atoms: C2_7  and  C3_8 
REMARK    2  A    between atoms: C3_8  and  O1_10 
REMARK    3  A    between atoms: C3_8  and  C5_12 
REMARK    4  A    between atoms: C6_15  and  C7_16 
REMARK    5  A    between atoms: C7_16  and  C8_17 
REMARK    6  A    between atoms: C8_17  and  O2_18 
REMARK    7  A    between atoms: C8_17  and  N5_20 
REMARK    8  A    between atoms: N5_20  and  O3_22 
REMARK    9  A    between atoms: C13_34  and  C14_35 
ROOT
HETATM    1  C5  UNL     1      34.075   3.000 -15.972  1.00  0.00     0.074 A 
HETATM    2  N4  UNL     1      34.788   3.179 -17.052  1.00  0.00    -0.351 N 
ATOM      3  H4  UNL     1      35.742   2.819 -17.069  1.00  0.00     0.166 HD
HETATM    4  C6  UNL     1      34.344   3.786 -18.092  1.00  0.00     0.087 A 
HETATM    5  S1  UNL     1      32.752   4.183 -17.594  1.00  0.00    -0.067 SA
HETATM    6  C13 UNL     1      32.794   3.497 -15.997  1.00  0.00     0.097 A 
ENDROOT
BRANCH   4   7
HETATM    7  C7  UNL     1      34.890   4.120 -19.445  1.00  0.00     0.151 C 
HETATM    8  N6  UNL     1      36.196   3.496 -19.504  1.00  0.00    -0.343 N 
HETATM    9  C9  UNL     1      36.384   2.812 -20.552  1.00  0.00     0.185 C 
ATOM     10  H6  UNL     1      36.898   3.600 -18.771  1.00  0.00     0.163 HD
HETATM   11  N7  UNL     1      37.589   2.110 -20.823  1.00  0.00    -0.064 NA
HETATM   12  N8  UNL     1      35.228   2.896 -21.358  1.00  0.00    -0.353 N 
HETATM   13  C10 UNL     1      34.183   3.593 -20.602  1.00  0.00     0.061 C 
ATOM     14  H8  UNL     1      35.136   2.534 -22.307  1.00  0.00     0.163 HD
HETATM   15  C11 UNL     1      33.096   2.596 -20.391  1.00  0.00     0.041 C 
HETATM   16  C12 UNL     1      33.652   4.673 -21.546  1.00  0.00     0.041 C 
BRANCH   7  17
HETATM   17  C8  UNL     1      35.103   5.613 -19.447  1.00  0.00     0.276 C 
BRANCH  17  18
HETATM   18  O2  UNL     1      34.602   6.086 -18.211  1.00  0.00    -0.372 OA
ATOM     19  H2  UNL     1      34.797   7.015 -18.183  1.00  0.00     0.212 HD
ENDBRANCH  17  18
BRANCH  17  20
HETATM   20  N5  UNL     1      36.447   6.061 -19.525  1.00  0.00    -0.273 N 
ATOM     21  H5  UNL     1      37.233   5.411 -19.533  1.00  0.00     0.190 HD
BRANCH  20  22
HETATM   22  O3  UNL     1      36.624   7.389 -19.588  1.00  0.00    -0.292 OA
ATOM     23  H3  UNL     1      37.354   7.688 -20.117  1.00  0.00     0.244 HD
ENDBRANCH  20  22
ENDBRANCH  17  20
ENDBRANCH   7  17
ENDBRANCH   4   7
BRANCH   1  24
HETATM   24  C3  UNL     1      34.651   2.290 -14.776  1.00  0.00     0.158 C 
HETATM   25  C4  UNL     1      33.763   1.131 -14.343  1.00  0.00     0.062 C 
BRANCH  24  26
HETATM   26  C2  UNL     1      35.987   1.749 -14.973  1.00  0.00     0.154 A 
HETATM   27  N3  UNL     1      37.080   2.390 -14.422  1.00  0.00    -0.269 N 
HETATM   28  N2  UNL     1      38.149   1.730 -14.725  1.00  0.00    -0.225 N 
ATOM     29  H3  UNL     1      37.048   3.246 -13.867  1.00  0.00     0.190 HD
HETATM   30  N1  UNL     1      37.803   0.678 -15.447  1.00  0.00    -0.223 N 
ATOM     31  H2  UNL     1      39.100   1.978 -14.452  1.00  0.00     0.210 HD
HETATM   32  C1  UNL     1      38.768  -0.284 -15.955  1.00  0.00     0.202 C 
HETATM   33  N10 UNL     1      36.497   0.683 -15.604  1.00  0.00    -0.268 N 
ATOM     34  H10 UNL     1      35.960  -0.012 -16.122  1.00  0.00     0.190 HD
ENDBRANCH  24  26
BRANCH  24  35
HETATM   35  O1  UNL     1      34.660   3.173 -13.678  1.00  0.00    -0.376 OA
ATOM     36  H1  UNL     1      34.792   2.682 -12.877  1.00  0.00     0.211 HD
ENDBRANCH  24  35
ENDBRANCH   1  24
BRANCH   6  37
HETATM   37  C14 UNL     1      31.683   3.473 -15.074  1.00  0.00     0.274 C 
HETATM   38  N9  UNL     1      31.864   4.039 -13.782  1.00  0.00    -0.057 NA
HETATM   39  O4  UNL     1      30.581   2.985 -15.351  1.00  0.00    -0.270 OA
ENDBRANCH   6  37
TORSDOF 9
ENDMDL
