MODEL 1
REMARK VINA RESULT: -7.603080079      0.000      0.000
REMARK  8 active torsions:
REMARK  status: ('A' for Active; 'I' for Inactive)
REMARK    1  A    between atoms: C3_7  and  C4_8 
REMARK    2  A    between atoms: C4_8  and  N3_9 
REMARK    3  A    between atoms: N3_9  and  O1_10 
REMARK    4  A    between atoms: N3_9  and  C11_18 
REMARK    5  A    between atoms: O1_10  and  C5_11 
REMARK    6  A    between atoms: C5_11  and  C6_12 
REMARK    7  A    between atoms: C6_12  and  C7_14 
REMARK    8  A    between atoms: C15_27  and  C16_28 
ROOT
HETATM    1  C4  UNL     1      16.077  -4.636  13.228  1.00  0.00     0.251 C 
HETATM    2  N4  UNL     1      16.602  -4.680  14.568  1.00  0.00    -0.335 N 
ATOM      3  H4  UNL     1      17.242  -3.930  14.828  1.00  0.00     0.164 HD
HETATM    4  C14 UNL     1      16.333  -5.635  15.552  1.00  0.00     0.094 C 
HETATM    5  N5  UNL     1      16.630  -5.393  16.805  1.00  0.00    -0.388 N 
ATOM      6  H51 UNL     1      16.434  -6.091  17.523  1.00  0.00     0.157 HD
ATOM      7  H52 UNL     1      17.057  -4.487  16.995  1.00  0.00     0.157 HD
HETATM    8  C15 UNL     1      15.713  -6.950  15.277  1.00  0.00     0.204 C 
HETATM    9  C17 UNL     1      16.147  -7.417  13.955  1.00  0.00     0.071 C 
HETATM   10  S1  UNL     1      16.779  -8.663  13.773  1.00  0.00    -0.076 SA
HETATM   11  S2  UNL     1      15.848  -6.352  12.576  1.00  0.00    -0.057 SA
ENDROOT
BRANCH   1  12
HETATM   12  C3  UNL     1      17.142  -4.058  12.371  1.00  0.00     0.203 A 
HETATM   13  N2  UNL     1      18.008  -4.759  11.570  1.00  0.00    -0.277 N 
HETATM   14  N1  UNL     1      18.824  -3.956  10.952  1.00  0.00    -0.282 N 
ATOM     15  H2  UNL     1      18.011  -5.774  11.471  1.00  0.00     0.189 HD
HETATM   16  C2  UNL     1      18.503  -2.712  11.341  1.00  0.00     0.136 A 
ATOM     17  H1  UNL     1      19.564  -4.221  10.301  1.00  0.00     0.189 HD
HETATM   18  C1  UNL     1      19.157  -1.426  10.906  1.00  0.00     0.099 C 
HETATM   19  O5  UNL     1      17.508  -2.817  12.176  1.00  0.00    -0.277 OA
ENDBRANCH   1  12
BRANCH   1  20
HETATM   20  N3  UNL     1      14.865  -3.939  13.083  1.00  0.00    -0.242 N 
BRANCH  20  21
HETATM   21  O1  UNL     1      14.522  -3.438  11.932  1.00  0.00    -0.272 OA
BRANCH  21  22
HETATM   22  C5  UNL     1      14.550  -2.080  11.847  1.00  0.00     0.280 C 
BRANCH  22  23
HETATM   23  C6  UNL     1      13.682  -1.574  10.728  1.00  0.00     0.160 C 
HETATM   24  O2  UNL     1      14.225  -1.407   9.652  1.00  0.00    -0.295 OA
BRANCH  23  25
HETATM   25  C7  UNL     1      12.254  -1.281  10.878  1.00  0.00     0.012 C 
HETATM   26  C8  UNL     1      11.853  -1.120  12.336  1.00  0.00     0.022 C 
HETATM   27  C9  UNL     1      11.404  -2.405  10.322  1.00  0.00     0.022 C 
HETATM   28  C10 UNL     1      11.898  -0.021  10.141  1.00  0.00     0.022 C 
ENDBRANCH  23  25
ENDBRANCH  22  23
ENDBRANCH  21  22
ENDBRANCH  20  21
BRANCH  20  29
HETATM   29  C11 UNL     1      13.807  -4.261  14.002  1.00  0.00     0.105 C 
HETATM   30  C12 UNL     1      13.522  -3.181  15.016  1.00  0.00     0.034 C 
HETATM   31  C13 UNL     1      12.534  -4.619  13.275  1.00  0.00     0.034 C 
ENDBRANCH  20  29
ENDBRANCH   1  20
BRANCH   8  32
HETATM   32  C16 UNL     1      16.111  -7.929  16.279  1.00  0.00     0.190 C 
HETATM   33  O3  UNL     1      15.263  -8.679  16.823  1.00  0.00    -0.647 OA
HETATM   34  O4  UNL     1      17.442  -8.070  16.674  1.00  0.00    -0.647 OA
ENDBRANCH   8  32
TORSDOF 8
ENDMDL
MODEL 2
REMARK VINA RESULT: -7.458099524      2.181      3.448
REMARK  8 active torsions:
REMARK  status: ('A' for Active; 'I' for Inactive)
REMARK    1  A    between atoms: C3_7  and  C4_8 
REMARK    2  A    between atoms: C4_8  and  N3_9 
REMARK    3  A    between atoms: N3_9  and  O1_10 
REMARK    4  A    between atoms: N3_9  and  C11_18 
REMARK    5  A    between atoms: O1_10  and  C5_11 
REMARK    6  A    between atoms: C5_11  and  C6_12 
REMARK    7  A    between atoms: C6_12  and  C7_14 
REMARK    8  A    between atoms: C15_27  and  C16_28 
ROOT
HETATM    1  C4  UNL     1      16.987  -2.952  11.393  1.00  0.00     0.251 C 
HETATM    2  N4  UNL     1      17.020  -2.717  12.813  1.00  0.00    -0.335 N 
ATOM      3  H4  UNL     1      17.763  -2.108  13.154  1.00  0.00     0.164 HD
HETATM    4  C14 UNL     1      16.146  -3.229  13.776  1.00  0.00     0.094 C 
HETATM    5  N5  UNL     1      16.101  -2.699  14.973  1.00  0.00    -0.388 N 
ATOM      6  H51 UNL     1      15.464  -3.074  15.677  1.00  0.00     0.157 HD
ATOM      7  H52 UNL     1      16.731  -1.915  15.138  1.00  0.00     0.157 HD
HETATM    8  C15 UNL     1      15.231  -4.367  13.538  1.00  0.00     0.204 C 
HETATM    9  C17 UNL     1      15.868  -5.306  12.607  1.00  0.00     0.071 C 
HETATM   10  S1  UNL     1      16.056  -6.664  12.929  1.00  0.00    -0.076 SA
HETATM   11  S2  UNL     1      16.399  -4.672  11.045  1.00  0.00    -0.057 SA
ENDROOT
BRANCH   1  12
HETATM   12  C3  UNL     1      18.397  -2.947  10.928  1.00  0.00     0.203 A 
HETATM   13  N2  UNL     1      19.469  -2.406  11.593  1.00  0.00    -0.277 N 
HETATM   14  N1  UNL     1      20.567  -2.564  10.913  1.00  0.00    -0.282 N 
ATOM     15  H2  UNL     1      19.412  -1.942  12.499  1.00  0.00     0.189 HD
HETATM   16  C2  UNL     1      20.229  -3.215   9.788  1.00  0.00     0.136 A 
ATOM     17  H1  UNL     1      21.501  -2.254  11.182  1.00  0.00     0.189 HD
HETATM   18  C1  UNL     1      21.148  -3.636   8.670  1.00  0.00     0.099 C 
HETATM   19  O5  UNL     1      18.943  -3.421   9.837  1.00  0.00    -0.277 OA
ENDBRANCH   1  12
BRANCH   1  20
HETATM   20  N3  UNL     1      16.199  -2.054  10.654  1.00  0.00    -0.242 N 
BRANCH  20  21
HETATM   21  O1  UNL     1      15.142  -1.509  11.184  1.00  0.00    -0.272 OA
BRANCH  21  22
HETATM   22  C5  UNL     1      13.957  -2.105  10.884  1.00  0.00     0.280 C 
BRANCH  22  23
HETATM   23  C6  UNL     1      12.977  -2.001  12.021  1.00  0.00     0.160 C 
HETATM   24  O2  UNL     1      13.347  -1.384  13.002  1.00  0.00    -0.295 OA
BRANCH  23  25
HETATM   25  C7  UNL     1      11.638  -2.596  11.994  1.00  0.00     0.012 C 
HETATM   26  C8  UNL     1      10.600  -1.701  12.654  1.00  0.00     0.022 C 
HETATM   27  C9  UNL     1      11.609  -3.911  12.746  1.00  0.00     0.022 C 
HETATM   28  C10 UNL     1      11.211  -2.861  10.578  1.00  0.00     0.022 C 
ENDBRANCH  23  25
ENDBRANCH  22  23
ENDBRANCH  21  22
ENDBRANCH  20  21
BRANCH  20  29
HETATM   29  C11 UNL     1      16.842  -1.339   9.585  1.00  0.00     0.105 C 
HETATM   30  C12 UNL     1      15.931  -1.008   8.429  1.00  0.00     0.034 C 
HETATM   31  C13 UNL     1      17.503  -0.077  10.084  1.00  0.00     0.034 C 
ENDBRANCH  20  29
ENDBRANCH   1  20
BRANCH   8  32
HETATM   32  C16 UNL     1      14.935  -5.061  14.783  1.00  0.00     0.190 C 
HETATM   33  O3  UNL     1      13.759  -5.393  15.074  1.00  0.00    -0.647 OA
HETATM   34  O4  UNL     1      15.939  -5.382  15.697  1.00  0.00    -0.647 OA
ENDBRANCH   8  32
TORSDOF 8
ENDMDL
MODEL 3
REMARK VINA RESULT: -7.411583266      2.766      8.320
REMARK  8 active torsions:
REMARK  status: ('A' for Active; 'I' for Inactive)
REMARK    1  A    between atoms: C3_7  and  C4_8 
REMARK    2  A    between atoms: C4_8  and  N3_9 
REMARK    3  A    between atoms: N3_9  and  O1_10 
REMARK    4  A    between atoms: N3_9  and  C11_18 
REMARK    5  A    between atoms: O1_10  and  C5_11 
REMARK    6  A    between atoms: C5_11  and  C6_12 
REMARK    7  A    between atoms: C6_12  and  C7_14 
REMARK    8  A    between atoms: C15_27  and  C16_28 
ROOT
HETATM    1  C4  UNL     1      15.525  -6.382  15.719  1.00  0.00     0.251 C 
HETATM    2  N4  UNL     1      15.939  -5.004  15.661  1.00  0.00    -0.335 N 
ATOM      3  H4  UNL     1      16.341  -4.615  16.513  1.00  0.00     0.164 HD
HETATM    4  C14 UNL     1      15.851  -4.140  14.566  1.00  0.00     0.094 C 
HETATM    5  N5  UNL     1      16.535  -3.022  14.552  1.00  0.00    -0.388 N 
ATOM      6  H51 UNL     1      16.470  -2.391  13.754  1.00  0.00     0.157 HD
ATOM      7  H52 UNL     1      17.111  -2.841  15.374  1.00  0.00     0.157 HD
HETATM    8  C15 UNL     1      15.016  -4.401  13.373  1.00  0.00     0.204 C 
HETATM    9  C17 UNL     1      13.808  -5.125  13.785  1.00  0.00     0.071 C 
HETATM   10  S1  UNL     1      12.515  -4.645  13.498  1.00  0.00    -0.076 SA
HETATM   11  S2  UNL     1      14.028  -6.643  14.664  1.00  0.00    -0.057 SA
ENDROOT
BRANCH   1  12
HETATM   12  C3  UNL     1      15.044  -6.624  17.102  1.00  0.00     0.203 A 
HETATM   13  N2  UNL     1      15.646  -6.193  18.258  1.00  0.00    -0.277 N 
HETATM   14  N1  UNL     1      14.975  -6.576  19.304  1.00  0.00    -0.282 N 
ATOM     15  H2  UNL     1      16.506  -5.645  18.292  1.00  0.00     0.189 HD
HETATM   16  C2  UNL     1      13.917  -7.266  18.847  1.00  0.00     0.136 A 
ATOM     17  H1  UNL     1      15.206  -6.389  20.280  1.00  0.00     0.189 HD
HETATM   18  C1  UNL     1      12.833  -7.919  19.667  1.00  0.00     0.099 C 
HETATM   19  O5  UNL     1      13.996  -7.270  17.546  1.00  0.00    -0.277 OA
ENDBRANCH   1  12
BRANCH   1  20
HETATM   20  N3  UNL     1      16.504  -7.317  15.343  1.00  0.00    -0.242 N 
BRANCH  20  21
HETATM   21  O1  UNL     1      17.037  -8.110  16.227  1.00  0.00    -0.272 OA
BRANCH  21  22
HETATM   22  C5  UNL     1      18.286  -7.770  16.647  1.00  0.00     0.280 C 
BRANCH  22  23
HETATM   23  C6  UNL     1      18.578  -8.309  18.021  1.00  0.00     0.160 C 
HETATM   24  O2  UNL     1      17.787  -8.018  18.898  1.00  0.00    -0.295 OA
BRANCH  23  25
HETATM   25  C7  UNL     1      19.742  -9.141  18.334  1.00  0.00     0.012 C 
HETATM   26  C8  UNL     1      21.018  -8.602  17.705  1.00  0.00     0.022 C 
HETATM   27  C9  UNL     1      19.566 -10.550  17.804  1.00  0.00     0.022 C 
HETATM   28  C10 UNL     1      19.940  -9.226  19.821  1.00  0.00     0.022 C 
ENDBRANCH  23  25
ENDBRANCH  22  23
ENDBRANCH  21  22
ENDBRANCH  20  21
BRANCH  20  29
HETATM   29  C11 UNL     1      16.495  -7.766  13.977  1.00  0.00     0.105 C 
HETATM   30  C12 UNL     1      17.556  -7.132  13.113  1.00  0.00     0.034 C 
HETATM   31  C13 UNL     1      16.605  -9.269  13.889  1.00  0.00     0.034 C 
ENDBRANCH  20  29
ENDBRANCH   1  20
BRANCH   8  32
HETATM   32  C16 UNL     1      14.625  -3.153  12.733  1.00  0.00     0.190 C 
HETATM   33  O3  UNL     1      14.721  -3.007  11.489  1.00  0.00    -0.647 OA
HETATM   34  O4  UNL     1      14.134  -2.076  13.471  1.00  0.00    -0.647 OA
ENDBRANCH   8  32
TORSDOF 8
ENDMDL
MODEL 4
REMARK VINA RESULT: -7.228451126      2.946      5.338
REMARK  8 active torsions:
REMARK  status: ('A' for Active; 'I' for Inactive)
REMARK    1  A    between atoms: C3_7  and  C4_8 
REMARK    2  A    between atoms: C4_8  and  N3_9 
REMARK    3  A    between atoms: N3_9  and  O1_10 
REMARK    4  A    between atoms: N3_9  and  C11_18 
REMARK    5  A    between atoms: O1_10  and  C5_11 
REMARK    6  A    between atoms: C5_11  and  C6_12 
REMARK    7  A    between atoms: C6_12  and  C7_14 
REMARK    8  A    between atoms: C15_27  and  C16_28 
ROOT
HETATM    1  C4  UNL     1      15.443  -6.714  15.511  1.00  0.00     0.251 C 
HETATM    2  N4  UNL     1      15.641  -7.937  14.778  1.00  0.00    -0.335 N 
ATOM      3  H4  UNL     1      14.838  -8.562  14.715  1.00  0.00     0.164 HD
HETATM    4  C14 UNL     1      16.810  -8.364  14.143  1.00  0.00     0.094 C 
HETATM    5  N5  UNL     1      16.767  -9.336  13.266  1.00  0.00    -0.388 N 
ATOM      6  H51 UNL     1      17.621  -9.647  12.803  1.00  0.00     0.157 HD
ATOM      7  H52 UNL     1      15.847  -9.740  13.092  1.00  0.00     0.157 HD
HETATM    8  C15 UNL     1      18.146  -7.778  14.394  1.00  0.00     0.204 C 
HETATM    9  C17 UNL     1      18.229  -7.362  15.799  1.00  0.00     0.071 C 
HETATM   10  S1  UNL     1      19.244  -7.829  16.657  1.00  0.00    -0.076 SA
HETATM   11  S2  UNL     1      17.000  -6.239  16.391  1.00  0.00    -0.057 SA
ENDROOT
BRANCH   1  12
HETATM   12  C3  UNL     1      14.486  -7.021  16.603  1.00  0.00     0.203 A 
HETATM   13  N2  UNL     1      14.263  -6.262  17.724  1.00  0.00    -0.277 N 
HETATM   14  N1  UNL     1      13.364  -6.812  18.487  1.00  0.00    -0.282 N 
ATOM     15  H2  UNL     1      14.738  -5.384  17.932  1.00  0.00     0.189 HD
HETATM   16  C2  UNL     1      12.982  -7.944  17.874  1.00  0.00     0.136 A 
ATOM     17  H1  UNL     1      13.017  -6.453  19.378  1.00  0.00     0.189 HD
HETATM   18  C1  UNL     1      11.959  -8.940  18.356  1.00  0.00     0.099 C 
HETATM   19  O5  UNL     1      13.667  -8.029  16.768  1.00  0.00    -0.277 OA
ENDBRANCH   1  12
BRANCH   1  20
HETATM   20  N3  UNL     1      15.013  -5.618  14.743  1.00  0.00    -0.242 N 
BRANCH  20  21
HETATM   21  O1  UNL     1      13.750  -5.315  14.669  1.00  0.00    -0.272 OA
BRANCH  21  22
HETATM   22  C5  UNL     1      13.198  -5.385  13.427  1.00  0.00     0.280 C 
BRANCH  22  23
HETATM   23  C6  UNL     1      12.200  -4.283  13.198  1.00  0.00     0.160 C 
HETATM   24  O2  UNL     1      11.149  -4.368  13.805  1.00  0.00    -0.295 OA
BRANCH  23  25
HETATM   25  C7  UNL     1      12.436  -3.149  12.301  1.00  0.00     0.012 C 
HETATM   26  C8  UNL     1      13.813  -3.205  11.658  1.00  0.00     0.022 C 
HETATM   27  C9  UNL     1      12.367  -1.834  13.051  1.00  0.00     0.022 C 
HETATM   28  C10 UNL     1      11.400  -3.118  11.213  1.00  0.00     0.022 C 
ENDBRANCH  23  25
ENDBRANCH  22  23
ENDBRANCH  21  22
ENDBRANCH  20  21
BRANCH  20  29
HETATM   29  C11 UNL     1      15.959  -4.556  14.525  1.00  0.00     0.105 C 
HETATM   30  C12 UNL     1      16.509  -4.500  13.122  1.00  0.00     0.034 C 
HETATM   31  C13 UNL     1      15.375  -3.214  14.893  1.00  0.00     0.034 C 
ENDBRANCH  20  29
ENDBRANCH   1  20
BRANCH   8  32
HETATM   32  C16 UNL     1      19.195  -8.751  14.124  1.00  0.00     0.190 C 
HETATM   33  O3  UNL     1      20.206  -8.440  13.447  1.00  0.00    -0.647 OA
HETATM   34  O4  UNL     1      19.119 -10.059  14.602  1.00  0.00    -0.647 OA
ENDBRANCH   8  32
TORSDOF 8
ENDMDL
MODEL 5
REMARK VINA RESULT: -7.196496244      1.388      1.789
REMARK  8 active torsions:
REMARK  status: ('A' for Active; 'I' for Inactive)
REMARK    1  A    between atoms: C3_7  and  C4_8 
REMARK    2  A    between atoms: C4_8  and  N3_9 
REMARK    3  A    between atoms: N3_9  and  O1_10 
REMARK    4  A    between atoms: N3_9  and  C11_18 
REMARK    5  A    between atoms: O1_10  and  C5_11 
REMARK    6  A    between atoms: C5_11  and  C6_12 
REMARK    7  A    between atoms: C6_12  and  C7_14 
REMARK    8  A    between atoms: C15_27  and  C16_28 
ROOT
HETATM    1  C4  UNL     1      15.780  -5.034  13.226  1.00  0.00     0.251 C 
HETATM    2  N4  UNL     1      16.568  -4.825  14.413  1.00  0.00    -0.335 N 
ATOM      3  H4  UNL     1      16.930  -3.882  14.556  1.00  0.00     0.164 HD
HETATM    4  C14 UNL     1      16.893  -5.769  15.390  1.00  0.00     0.094 C 
HETATM    5  N5  UNL     1      17.350  -5.381  16.555  1.00  0.00    -0.388 N 
ATOM      6  H51 UNL     1      17.588  -6.070  17.269  1.00  0.00     0.157 HD
ATOM      7  H52 UNL     1      17.447  -4.374  16.684  1.00  0.00     0.157 HD
HETATM    8  C15 UNL     1      16.754  -7.230  15.205  1.00  0.00     0.204 C 
HETATM    9  C17 UNL     1      17.024  -7.562  13.801  1.00  0.00     0.071 C 
HETATM   10  S1  UNL     1      18.010  -8.496  13.431  1.00  0.00    -0.076 SA
HETATM   11  S2  UNL     1      16.058  -6.741  12.569  1.00  0.00    -0.057 SA
ENDROOT
BRANCH   1  12
HETATM   12  C3  UNL     1      16.341  -4.144  12.179  1.00  0.00     0.203 A 
HETATM   13  N2  UNL     1      16.158  -4.269  10.825  1.00  0.00    -0.277 N 
HETATM   14  N1  UNL     1      16.788  -3.330  10.181  1.00  0.00    -0.282 N 
ATOM     15  H2  UNL     1      15.602  -5.001  10.381  1.00  0.00     0.189 HD
HETATM   16  C2  UNL     1      17.394  -2.572  11.109  1.00  0.00     0.136 A 
ATOM     17  H1  UNL     1      16.816  -3.196   9.170  1.00  0.00     0.189 HD
HETATM   18  C1  UNL     1      18.250  -1.354  10.872  1.00  0.00     0.099 C 
HETATM   19  O5  UNL     1      17.105  -3.086  12.271  1.00  0.00    -0.277 OA
ENDBRANCH   1  12
BRANCH   1  20
HETATM   20  N3  UNL     1      14.397  -4.837  13.383  1.00  0.00    -0.242 N 
BRANCH  20  21
HETATM   21  O1  UNL     1      13.772  -3.938  12.679  1.00  0.00    -0.272 OA
BRANCH  21  22
HETATM   22  C5  UNL     1      13.628  -2.721  13.270  1.00  0.00     0.280 C 
BRANCH  22  23
HETATM   23  C6  UNL     1      12.467  -1.956  12.695  1.00  0.00     0.160 C 
HETATM   24  O2  UNL     1      11.554  -1.702  13.458  1.00  0.00    -0.295 OA
BRANCH  23  25
HETATM   25  C7  UNL     1      12.395  -1.521  11.298  1.00  0.00     0.012 C 
HETATM   26  C8  UNL     1      13.772  -1.409  10.661  1.00  0.00     0.022 C 
HETATM   27  C9  UNL     1      11.758  -0.151  11.184  1.00  0.00     0.022 C 
HETATM   28  C10 UNL     1      11.571  -2.485  10.492  1.00  0.00     0.022 C 
ENDBRANCH  23  25
ENDBRANCH  22  23
ENDBRANCH  21  22
ENDBRANCH  20  21
BRANCH  20  29
HETATM   29  C11 UNL     1      13.624  -5.949  13.867  1.00  0.00     0.105 C 
HETATM   30  C12 UNL     1      13.654  -6.114  15.366  1.00  0.00     0.034 C 
HETATM   31  C13 UNL     1      12.193  -5.872  13.396  1.00  0.00     0.034 C 
ENDBRANCH  20  29
ENDBRANCH   1  20
BRANCH   8  32
HETATM   32  C16 UNL     1      17.694  -7.950  16.052  1.00  0.00     0.190 C 
HETATM   33  O3  UNL     1      17.324  -8.935  16.737  1.00  0.00    -0.647 OA
HETATM   34  O4  UNL     1      19.036  -7.575  16.136  1.00  0.00    -0.647 OA
ENDBRANCH   8  32
TORSDOF 8
ENDMDL
