MODEL 1
REMARK VINA RESULT: -9.053362596      0.000      0.000
REMARK  13 active torsions:
REMARK  status: ('A' for Active; 'I' for Inactive)
REMARK    1  A    between atoms: C2_2  and  N1_3 
REMARK    2  A    between atoms: N1_3  and  C3_4 
REMARK    3  A    between atoms: C3_4  and  C4_5 
REMARK    4  A    between atoms: C4_5  and  N2_6 
REMARK    5  A    between atoms: N2_6  and  C5_8 
REMARK    6  A    between atoms: N4_12  and  C7_14 
REMARK    7  A    between atoms: C7_14  and  C8_15 
REMARK    8  A    between atoms: C8_15  and  C9_16 
REMARK    9  A    between atoms: C9_16  and  C10_17 
REMARK   10  A    between atoms: C10_17  and  N5_18 
REMARK   11  A    between atoms: N9_31  and  C17_32 
REMARK   12  A    between atoms: C20_35  and  O1_36 
REMARK   13  A    between atoms: C23_39  and  O2_40 
ROOT
HETATM    1  C5  UNL     1     -12.269  21.092 -19.103  1.00  0.00     0.151 A 
HETATM    2  N3  UNL     1     -12.131  20.940 -17.785  1.00  0.00    -0.174 N 
ATOM      3  H3  UNL     1     -11.457  20.268 -17.417  1.00  0.00     0.186 HD
HETATM    4  C6  UNL     1     -12.894  21.685 -16.927  1.00  0.00     0.681 A 
HETATM    5  N4  UNL     1     -12.745  21.522 -15.650  1.00  0.00    -0.226 N 
ATOM      6  H4  UNL     1     -13.320  22.083 -15.022  1.00  0.00     0.177 HD
HETATM    7  N7  UNL     1     -13.793  22.579 -17.363  1.00  0.00    -0.174 N 
ATOM      8  H7  UNL     1     -14.348  23.121 -16.701  1.00  0.00     0.186 HD
HETATM    9  C14 UNL     1     -13.949  22.748 -18.668  1.00  0.00     0.155 A 
HETATM   10  C15 UNL     1     -13.198  22.016 -19.554  1.00  0.00     0.123 A 
HETATM   11  N8  UNL     1     -13.567  22.395 -20.764  1.00  0.00    -0.346 N 
ATOM     12  H8  UNL     1     -13.190  22.031 -21.639  1.00  0.00     0.167 HD
HETATM   13  C16 UNL     1     -14.505  23.322 -20.659  1.00  0.00     0.185 A 
HETATM   14  N9  UNL     1     -14.787  23.585 -19.341  1.00  0.00    -0.319 N 
ENDROOT
BRANCH   1  15
HETATM   15  N2  UNL     1     -11.591  20.428 -19.922  1.00  0.00    -0.352 N 
ATOM     16  H2  UNL     1     -11.369  20.949 -20.771  1.00  0.00     0.166 HD
BRANCH  15  17
HETATM   17  C4  UNL     1     -11.071  19.123 -19.927  1.00  0.00     0.090 C 
BRANCH  17  18
HETATM   18  C3  UNL     1      -9.724  18.930 -20.507  1.00  0.00     0.281 C 
BRANCH  18  19
HETATM   19  N1  UNL     1      -8.658  18.526 -19.640  1.00  0.00    -0.063 N 
HETATM   20  C24 UNL     1      -7.931  17.475 -20.355  1.00  0.00     0.238 C 
HETATM   21  C25 UNL     1      -6.672  17.040 -19.668  1.00  0.00     0.028 C 
HETATM   22  C26 UNL     1      -5.562  18.028 -19.670  1.00  0.00     0.002 C 
HETATM   23  C27 UNL     1      -5.660  19.090 -20.728  1.00  0.00     0.002 C 
HETATM   24  C28 UNL     1      -6.910  19.892 -20.684  1.00  0.00     0.028 C 
HETATM   25  C29 UNL     1      -7.738  19.645 -19.440  1.00  0.00     0.238 C 
BRANCH  19  26
HETATM   26  C2  UNL     1      -9.133  17.980 -18.428  1.00  0.00     0.233 C 
HETATM   27  C1  UNL     1      -8.803  18.816 -17.206  1.00  0.00     0.035 C 
ENDBRANCH  19  26
ENDBRANCH  18  19
ENDBRANCH  17  18
ENDBRANCH  15  17
ENDBRANCH   1  15
BRANCH   5  28
HETATM   28  C7  UNL     1     -11.814  20.592 -15.069  1.00  0.00     0.138 C 
BRANCH  28  29
HETATM   29  C8  UNL     1     -12.417  20.059 -13.790  1.00  0.00     0.022 C 
BRANCH  29  30
HETATM   30  C9  UNL     1     -12.810  21.195 -12.908  1.00  0.00     0.022 C 
BRANCH  30  31
HETATM   31  C10 UNL     1     -14.244  21.064 -12.491  1.00  0.00     0.129 C 
BRANCH  31  32
HETATM   32  N5  UNL     1     -15.110  21.779 -13.414  1.00  0.00    -0.352 N 
HETATM   33  C11 UNL     1     -15.133  23.117 -13.566  1.00  0.00     0.108 A 
HETATM   34  C12 UNL     1     -16.072  23.391 -14.517  1.00  0.00     0.106 A 
HETATM   35  N6  UNL     1     -16.593  22.236 -14.918  1.00  0.00    -0.361 N 
HETATM   36  C13 UNL     1     -16.004  21.207 -14.239  1.00  0.00     0.182 A 
ATOM     37  H6  UNL     1     -17.321  22.133 -15.625  1.00  0.00     0.166 HD
ENDBRANCH  31  32
ENDBRANCH  30  31
ENDBRANCH  29  30
ENDBRANCH  28  29
ENDBRANCH   5  28
BRANCH  14  38
HETATM   38  C17 UNL     1     -15.747  24.530 -18.960  1.00  0.00     0.125 C 
HETATM   39  C18 UNL     1     -16.929  23.936 -18.172  1.00  0.00     0.035 C 
HETATM   40  C19 UNL     1     -17.675  25.073 -17.549  1.00  0.00     0.066 C 
HETATM   41  C20 UNL     1     -17.308  26.421 -18.003  1.00  0.00     0.044 C 
HETATM   42  C22 UNL     1     -16.671  26.728 -19.118  1.00  0.00     0.038 C 
HETATM   43  C23 UNL     1     -16.346  25.466 -19.914  1.00  0.00     0.166 C 
BRANCH  41  44
HETATM   44  O1  UNL     1     -17.668  27.506 -17.171  1.00  0.00    -0.360 OA
HETATM   45  C21 UNL     1     -17.774  27.275 -15.768  1.00  0.00     0.209 C 
ENDBRANCH  41  44
BRANCH  43  46
HETATM   46  O2  UNL     1     -17.684  25.083 -20.236  1.00  0.00    -0.390 OA
ATOM     47  H2  UNL     1     -17.856  25.195 -21.163  1.00  0.00     0.210 HD
ENDBRANCH  43  46
ENDBRANCH  14  38
TORSDOF 13
ENDMDL
MODEL 2
REMARK VINA RESULT: -9.024767061      0.750      1.292
REMARK  13 active torsions:
REMARK  status: ('A' for Active; 'I' for Inactive)
REMARK    1  A    between atoms: C2_2  and  N1_3 
REMARK    2  A    between atoms: N1_3  and  C3_4 
REMARK    3  A    between atoms: C3_4  and  C4_5 
REMARK    4  A    between atoms: C4_5  and  N2_6 
REMARK    5  A    between atoms: N2_6  and  C5_8 
REMARK    6  A    between atoms: N4_12  and  C7_14 
REMARK    7  A    between atoms: C7_14  and  C8_15 
REMARK    8  A    between atoms: C8_15  and  C9_16 
REMARK    9  A    between atoms: C9_16  and  C10_17 
REMARK   10  A    between atoms: C10_17  and  N5_18 
REMARK   11  A    between atoms: N9_31  and  C17_32 
REMARK   12  A    between atoms: C20_35  and  O1_36 
REMARK   13  A    between atoms: C23_39  and  O2_40 
ROOT
HETATM    1  C5  UNL     1     -12.103  20.847 -19.064  1.00  0.00     0.151 A 
HETATM    2  N3  UNL     1     -11.987  20.787 -17.737  1.00  0.00    -0.174 N 
ATOM      3  H3  UNL     1     -11.335  20.129 -17.310  1.00  0.00     0.186 HD
HETATM    4  C6  UNL     1     -12.744  21.611 -16.947  1.00  0.00     0.681 A 
HETATM    5  N4  UNL     1     -12.617  21.538 -15.660  1.00  0.00    -0.226 N 
ATOM      6  H4  UNL     1     -13.187  22.157 -15.083  1.00  0.00     0.177 HD
HETATM    7  N7  UNL     1     -13.615  22.491 -17.461  1.00  0.00    -0.174 N 
ATOM      8  H7  UNL     1     -14.166  23.093 -16.848  1.00  0.00     0.186 HD
HETATM    9  C14 UNL     1     -13.749  22.568 -18.776  1.00  0.00     0.155 A 
HETATM   10  C15 UNL     1     -13.004  21.756 -19.596  1.00  0.00     0.123 A 
HETATM   11  N8  UNL     1     -13.346  22.054 -20.835  1.00  0.00    -0.346 N 
ATOM     12  H8  UNL     1     -12.966  21.618 -21.675  1.00  0.00     0.167 HD
HETATM   13  C16 UNL     1     -14.264  23.008 -20.813  1.00  0.00     0.185 A 
HETATM   14  N9  UNL     1     -14.557  23.372 -19.522  1.00  0.00    -0.319 N 
ENDROOT
BRANCH   1  15
HETATM   15  N2  UNL     1     -11.430  20.109 -19.822  1.00  0.00    -0.352 N 
ATOM     16  H2  UNL     1     -11.366  20.469 -20.775  1.00  0.00     0.166 HD
BRANCH  15  17
HETATM   17  C4  UNL     1     -10.745  18.895 -19.647  1.00  0.00     0.090 C 
BRANCH  17  18
HETATM   18  C3  UNL     1      -9.612  18.615 -20.557  1.00  0.00     0.281 C 
BRANCH  18  19
HETATM   19  N1  UNL     1      -8.304  18.470 -19.993  1.00  0.00    -0.063 N 
HETATM   20  C24 UNL     1      -8.435  17.489 -18.914  1.00  0.00     0.238 C 
HETATM   21  C25 UNL     1      -7.126  17.081 -18.309  1.00  0.00     0.028 C 
HETATM   22  C26 UNL     1      -6.248  16.249 -19.172  1.00  0.00     0.002 C 
HETATM   23  C27 UNL     1      -6.950  15.544 -20.297  1.00  0.00     0.002 C 
HETATM   24  C28 UNL     1      -7.688  16.441 -21.223  1.00  0.00     0.028 C 
HETATM   25  C29 UNL     1      -7.398  17.910 -20.995  1.00  0.00     0.238 C 
BRANCH  19  26
HETATM   26  C2  UNL     1      -7.827  19.675 -19.431  1.00  0.00     0.233 C 
HETATM   27  C1  UNL     1      -7.770  20.830 -20.413  1.00  0.00     0.035 C 
ENDBRANCH  19  26
ENDBRANCH  18  19
ENDBRANCH  17  18
ENDBRANCH  15  17
ENDBRANCH   1  15
BRANCH   5  28
HETATM   28  C7  UNL     1     -11.716  20.632 -14.998  1.00  0.00     0.138 C 
BRANCH  28  29
HETATM   29  C8  UNL     1     -12.407  20.099 -13.763  1.00  0.00     0.022 C 
BRANCH  29  30
HETATM   30  C9  UNL     1     -12.892  21.235 -12.929  1.00  0.00     0.022 C 
BRANCH  30  31
HETATM   31  C10 UNL     1     -14.328  21.032 -12.549  1.00  0.00     0.129 C 
BRANCH  31  32
HETATM   32  N5  UNL     1     -15.206  21.615 -13.550  1.00  0.00    -0.352 N 
HETATM   33  C11 UNL     1     -15.373  22.937 -13.749  1.00  0.00     0.108 A 
HETATM   34  C12 UNL     1     -16.272  23.072 -14.768  1.00  0.00     0.106 A 
HETATM   35  N6  UNL     1     -16.627  21.854 -15.161  1.00  0.00    -0.361 N 
HETATM   36  C13 UNL     1     -15.971  20.920 -14.410  1.00  0.00     0.182 A 
ATOM     37  H6  UNL     1     -17.288  21.647 -15.910  1.00  0.00     0.166 HD
ENDBRANCH  31  32
ENDBRANCH  30  31
ENDBRANCH  29  30
ENDBRANCH  28  29
ENDBRANCH   5  28
BRANCH  14  38
HETATM   38  C17 UNL     1     -15.500  24.364 -19.226  1.00  0.00     0.125 C 
HETATM   39  C18 UNL     1     -16.662  23.877 -18.343  1.00  0.00     0.035 C 
HETATM   40  C19 UNL     1     -17.383  25.085 -17.834  1.00  0.00     0.066 C 
HETATM   41  C20 UNL     1     -17.019  26.368 -18.449  1.00  0.00     0.044 C 
HETATM   42  C22 UNL     1     -16.412  26.539 -19.609  1.00  0.00     0.038 C 
HETATM   43  C23 UNL     1     -16.119  25.191 -20.264  1.00  0.00     0.166 C 
BRANCH  41  44
HETATM   44  O1  UNL     1     -17.348  27.545 -17.737  1.00  0.00    -0.360 OA
HETATM   45  C21 UNL     1     -17.758  27.419 -16.378  1.00  0.00     0.209 C 
ENDBRANCH  41  44
BRANCH  43  46
HETATM   46  O2  UNL     1     -17.468  24.787 -20.503  1.00  0.00    -0.390 OA
ATOM     47  H2  UNL     1     -17.600  24.567 -21.417  1.00  0.00     0.210 HD
ENDBRANCH  43  46
ENDBRANCH  14  38
TORSDOF 13
ENDMDL
MODEL 3
REMARK VINA RESULT: -8.983676812      4.264      9.064
REMARK  13 active torsions:
REMARK  status: ('A' for Active; 'I' for Inactive)
REMARK    1  A    between atoms: C2_2  and  N1_3 
REMARK    2  A    between atoms: N1_3  and  C3_4 
REMARK    3  A    between atoms: C3_4  and  C4_5 
REMARK    4  A    between atoms: C4_5  and  N2_6 
REMARK    5  A    between atoms: N2_6  and  C5_8 
REMARK    6  A    between atoms: N4_12  and  C7_14 
REMARK    7  A    between atoms: C7_14  and  C8_15 
REMARK    8  A    between atoms: C8_15  and  C9_16 
REMARK    9  A    between atoms: C9_16  and  C10_17 
REMARK   10  A    between atoms: C10_17  and  N5_18 
REMARK   11  A    between atoms: N9_31  and  C17_32 
REMARK   12  A    between atoms: C20_35  and  O1_36 
REMARK   13  A    between atoms: C23_39  and  O2_40 
ROOT
HETATM    1  C5  UNL     1     -10.886  19.526 -18.077  1.00  0.00     0.151 A 
HETATM    2  N3  UNL     1     -11.303  19.786 -16.836  1.00  0.00    -0.174 N 
ATOM      3  H3  UNL     1     -12.098  20.407 -16.684  1.00  0.00     0.186 HD
HETATM    4  C6  UNL     1     -10.663  19.217 -15.768  1.00  0.00     0.681 A 
HETATM    5  N4  UNL     1     -11.084  19.482 -14.571  1.00  0.00    -0.226 N 
ATOM      6  H4  UNL     1     -10.598  19.052 -13.784  1.00  0.00     0.177 HD
HETATM    7  N7  UNL     1      -9.615  18.396 -15.917  1.00  0.00    -0.174 N 
ATOM      8  H7  UNL     1      -9.157  17.986 -15.102  1.00  0.00     0.186 HD
HETATM    9  C14 UNL     1      -9.181  18.124 -17.139  1.00  0.00     0.155 A 
HETATM   10  C15 UNL     1      -9.802  18.678 -18.231  1.00  0.00     0.123 A 
HETATM   11  N8  UNL     1      -9.161  18.231 -19.296  1.00  0.00    -0.346 N 
ATOM     12  H8  UNL     1      -9.385  18.465 -20.263  1.00  0.00     0.167 HD
HETATM   13  C16 UNL     1      -8.180  17.432 -18.906  1.00  0.00     0.185 A 
HETATM   14  N9  UNL     1      -8.149  17.330 -17.538  1.00  0.00    -0.319 N 
ENDROOT
BRANCH   1  15
HETATM   15  N2  UNL     1     -11.442  20.028 -19.082  1.00  0.00    -0.352 N 
ATOM     16  H2  UNL     1     -11.954  19.342 -19.639  1.00  0.00     0.166 HD
BRANCH  15  17
HETATM   17  C4  UNL     1     -11.516  21.328 -19.610  1.00  0.00     0.090 C 
BRANCH  17  18
HETATM   18  C3  UNL     1     -11.960  22.407 -18.700  1.00  0.00     0.281 C 
BRANCH  18  19
HETATM   19  N1  UNL     1     -13.366  22.623 -18.532  1.00  0.00    -0.063 N 
HETATM   20  C24 UNL     1     -13.543  24.073 -18.431  1.00  0.00     0.238 C 
HETATM   21  C25 UNL     1     -14.978  24.505 -18.416  1.00  0.00     0.028 C 
HETATM   22  C26 UNL     1     -15.713  24.346 -19.698  1.00  0.00     0.002 C 
HETATM   23  C27 UNL     1     -14.843  24.241 -20.918  1.00  0.00     0.002 C 
HETATM   24  C28 UNL     1     -13.858  23.129 -20.880  1.00  0.00     0.028 C 
HETATM   25  C29 UNL     1     -14.077  22.171 -19.727  1.00  0.00     0.238 C 
BRANCH  19  26
HETATM   26  C2  UNL     1     -13.858  22.040 -17.344  1.00  0.00     0.233 C 
HETATM   27  C1  UNL     1     -14.600  20.734 -17.562  1.00  0.00     0.035 C 
ENDBRANCH  19  26
ENDBRANCH  18  19
ENDBRANCH  17  18
ENDBRANCH  15  17
ENDBRANCH   1  15
BRANCH   5  28
HETATM   28  C7  UNL     1     -12.197  20.349 -14.291  1.00  0.00     0.138 C 
BRANCH  28  29
HETATM   29  C8  UNL     1     -12.650  20.091 -12.872  1.00  0.00     0.022 C 
BRANCH  29  30
HETATM   30  C9  UNL     1     -13.821  20.956 -12.553  1.00  0.00     0.022 C 
BRANCH  30  31
HETATM   31  C10 UNL     1     -14.879  20.816 -13.605  1.00  0.00     0.129 C 
BRANCH  31  32
HETATM   32  N5  UNL     1     -15.418  22.119 -13.961  1.00  0.00    -0.352 N 
HETATM   33  C11 UNL     1     -16.490  22.317 -14.752  1.00  0.00     0.108 A 
HETATM   34  C12 UNL     1     -16.671  23.667 -14.841  1.00  0.00     0.106 A 
HETATM   35  N6  UNL     1     -15.724  24.253 -14.117  1.00  0.00    -0.361 N 
HETATM   36  C13 UNL     1     -14.923  23.301 -13.553  1.00  0.00     0.182 A 
ATOM     37  H6  UNL     1     -15.612  25.260 -13.999  1.00  0.00     0.166 HD
ENDBRANCH  31  32
ENDBRANCH  30  31
ENDBRANCH  29  30
ENDBRANCH  28  29
ENDBRANCH   5  28
BRANCH  14  38
HETATM   38  C17 UNL     1      -7.202  16.541 -16.873  1.00  0.00     0.125 C 
HETATM   39  C18 UNL     1      -6.495  15.519 -17.781  1.00  0.00     0.035 C 
HETATM   40  C19 UNL     1      -5.301  15.003 -17.040  1.00  0.00     0.066 C 
HETATM   41  C20 UNL     1      -5.215  15.356 -15.617  1.00  0.00     0.044 C 
HETATM   42  C22 UNL     1      -6.209  15.758 -14.846  1.00  0.00     0.038 C 
HETATM   43  C23 UNL     1      -7.512  15.817 -15.639  1.00  0.00     0.166 C 
BRANCH  41  44
HETATM   44  O1  UNL     1      -3.946  15.259 -15.000  1.00  0.00    -0.360 OA
HETATM   45  C21 UNL     1      -2.836  15.885 -15.638  1.00  0.00     0.209 C 
ENDBRANCH  41  44
BRANCH  43  46
HETATM   46  O2  UNL     1      -7.657  14.418 -15.889  1.00  0.00    -0.390 OA
ATOM     47  H2  UNL     1      -8.537  14.214 -16.181  1.00  0.00     0.210 HD
ENDBRANCH  43  46
ENDBRANCH  14  38
TORSDOF 13
ENDMDL
MODEL 4
REMARK VINA RESULT: -8.891585818      3.767      8.600
REMARK  13 active torsions:
REMARK  status: ('A' for Active; 'I' for Inactive)
REMARK    1  A    between atoms: C2_2  and  N1_3 
REMARK    2  A    between atoms: N1_3  and  C3_4 
REMARK    3  A    between atoms: C3_4  and  C4_5 
REMARK    4  A    between atoms: C4_5  and  N2_6 
REMARK    5  A    between atoms: N2_6  and  C5_8 
REMARK    6  A    between atoms: N4_12  and  C7_14 
REMARK    7  A    between atoms: C7_14  and  C8_15 
REMARK    8  A    between atoms: C8_15  and  C9_16 
REMARK    9  A    between atoms: C9_16  and  C10_17 
REMARK   10  A    between atoms: C10_17  and  N5_18 
REMARK   11  A    between atoms: N9_31  and  C17_32 
REMARK   12  A    between atoms: C20_35  and  O1_36 
REMARK   13  A    between atoms: C23_39  and  O2_40 
ROOT
HETATM    1  C5  UNL     1     -13.768  20.504 -18.126  1.00  0.00     0.151 A 
HETATM    2  N3  UNL     1     -14.270  20.568 -16.892  1.00  0.00    -0.174 N 
ATOM      3  H3  UNL     1     -15.127  21.092 -16.716  1.00  0.00     0.186 HD
HETATM    4  C6  UNL     1     -13.634  19.930 -15.861  1.00  0.00     0.681 A 
HETATM    5  N4  UNL     1     -14.137  20.005 -14.669  1.00  0.00    -0.226 N 
ATOM      6  H4  UNL     1     -13.653  19.525 -13.911  1.00  0.00     0.177 HD
HETATM    7  N7  UNL     1     -12.504  19.230 -16.042  1.00  0.00    -0.174 N 
ATOM      8  H7  UNL     1     -12.052  18.764 -15.255  1.00  0.00     0.186 HD
HETATM    9  C14 UNL     1     -11.986  19.152 -17.258  1.00  0.00     0.155 A 
HETATM   10  C15 UNL     1     -12.600  19.781 -18.313  1.00  0.00     0.123 A 
HETATM   11  N8  UNL     1     -11.867  19.529 -19.381  1.00  0.00    -0.346 N 
ATOM     12  H8  UNL     1     -12.063  19.861 -20.326  1.00  0.00     0.167 HD
HETATM   13  C16 UNL     1     -10.835  18.779 -19.030  1.00  0.00     0.185 A 
HETATM   14  N9  UNL     1     -10.863  18.509 -17.684  1.00  0.00    -0.319 N 
ENDROOT
BRANCH   1  15
HETATM   15  N2  UNL     1     -14.318  21.075 -19.096  1.00  0.00    -0.352 N 
ATOM     16  H2  UNL     1     -15.172  20.607 -19.403  1.00  0.00     0.166 HD
BRANCH  15  17
HETATM   17  C4  UNL     1     -14.016  22.219 -19.855  1.00  0.00     0.090 C 
BRANCH  17  18
HETATM   18  C3  UNL     1     -13.863  23.497 -19.126  1.00  0.00     0.281 C 
BRANCH  18  19
HETATM   19  N1  UNL     1     -15.044  24.215 -18.750  1.00  0.00    -0.063 N 
HETATM   20  C24 UNL     1     -14.675  25.632 -18.758  1.00  0.00     0.238 C 
HETATM   21  C25 UNL     1     -15.836  26.557 -18.549  1.00  0.00     0.028 C 
HETATM   22  C26 UNL     1     -16.805  26.640 -19.672  1.00  0.00     0.002 C 
HETATM   23  C27 UNL     1     -16.274  26.191 -21.002  1.00  0.00     0.002 C 
HETATM   24  C28 UNL     1     -15.756  24.798 -21.023  1.00  0.00     0.028 C 
HETATM   25  C29 UNL     1     -16.079  24.020 -19.764  1.00  0.00     0.238 C 
BRANCH  19  26
HETATM   26  C2  UNL     1     -15.478  23.885 -17.447  1.00  0.00     0.233 C 
HETATM   27  C1  UNL     1     -16.902  23.363 -17.389  1.00  0.00     0.035 C 
ENDBRANCH  19  26
ENDBRANCH  18  19
ENDBRANCH  17  18
ENDBRANCH  15  17
ENDBRANCH   1  15
BRANCH   5  28
HETATM   28  C7  UNL     1     -15.341  20.728 -14.357  1.00  0.00     0.138 C 
BRANCH  28  29
HETATM   29  C8  UNL     1     -15.019  21.737 -13.279  1.00  0.00     0.022 C 
BRANCH  29  30
HETATM   30  C9  UNL     1     -15.096  23.115 -13.841  1.00  0.00     0.022 C 
BRANCH  30  31
HETATM   31  C10 UNL     1     -16.515  23.596 -13.860  1.00  0.00     0.129 C 
BRANCH  31  32
HETATM   32  N5  UNL     1     -16.569  25.033 -13.645  1.00  0.00    -0.352 N 
HETATM   33  C11 UNL     1     -15.910  25.689 -12.670  1.00  0.00     0.108 A 
HETATM   34  C12 UNL     1     -16.220  27.011 -12.805  1.00  0.00     0.106 A 
HETATM   35  N6  UNL     1     -17.044  27.132 -13.840  1.00  0.00    -0.361 N 
HETATM   36  C13 UNL     1     -17.279  25.902 -14.385  1.00  0.00     0.182 A 
ATOM     37  H6  UNL     1     -17.441  28.009 -14.176  1.00  0.00     0.166 HD
ENDBRANCH  31  32
ENDBRANCH  30  31
ENDBRANCH  29  30
ENDBRANCH  28  29
ENDBRANCH   5  28
BRANCH  14  38
HETATM   38  C17 UNL     1      -9.879  17.732 -17.062  1.00  0.00     0.125 C 
HETATM   39  C18 UNL     1      -9.396  18.300 -15.715  1.00  0.00     0.035 C 
HETATM   40  C19 UNL     1      -8.626  17.222 -15.018  1.00  0.00     0.066 C 
HETATM   41  C20 UNL     1      -8.296  16.035 -15.819  1.00  0.00     0.044 C 
HETATM   42  C22 UNL     1      -8.283  15.955 -17.136  1.00  0.00     0.038 C 
HETATM   43  C23 UNL     1      -8.668  17.296 -17.758  1.00  0.00     0.166 C 
BRANCH  41  44
HETATM   44  O1  UNL     1      -7.957  14.855 -15.118  1.00  0.00    -0.360 OA
HETATM   45  C21 UNL     1      -7.407  14.981 -13.809  1.00  0.00     0.209 C 
ENDBRANCH  41  44
BRANCH  43  46
HETATM   46  O2  UNL     1      -7.532  18.048 -17.329  1.00  0.00    -0.390 OA
ATOM     47  H2  UNL     1      -7.550  18.185 -16.390  1.00  0.00     0.210 HD
ENDBRANCH  43  46
ENDBRANCH  14  38
TORSDOF 13
ENDMDL
MODEL 5
REMARK VINA RESULT: -8.839410003      3.583      8.247
REMARK  13 active torsions:
REMARK  status: ('A' for Active; 'I' for Inactive)
REMARK    1  A    between atoms: C2_2  and  N1_3 
REMARK    2  A    between atoms: N1_3  and  C3_4 
REMARK    3  A    between atoms: C3_4  and  C4_5 
REMARK    4  A    between atoms: C4_5  and  N2_6 
REMARK    5  A    between atoms: N2_6  and  C5_8 
REMARK    6  A    between atoms: N4_12  and  C7_14 
REMARK    7  A    between atoms: C7_14  and  C8_15 
REMARK    8  A    between atoms: C8_15  and  C9_16 
REMARK    9  A    between atoms: C9_16  and  C10_17 
REMARK   10  A    between atoms: C10_17  and  N5_18 
REMARK   11  A    between atoms: N9_31  and  C17_32 
REMARK   12  A    between atoms: C20_35  and  O1_36 
REMARK   13  A    between atoms: C23_39  and  O2_40 
ROOT
HETATM    1  C5  UNL     1     -12.398  18.991 -18.019  1.00  0.00     0.151 A 
HETATM    2  N3  UNL     1     -12.069  19.028 -16.727  1.00  0.00    -0.174 N 
ATOM      3  H3  UNL     1     -12.795  19.136 -16.018  1.00  0.00     0.186 HD
HETATM    4  C6  UNL     1     -10.757  18.921 -16.353  1.00  0.00     0.681 A 
HETATM    5  N4  UNL     1     -10.458  18.960 -15.092  1.00  0.00    -0.226 N 
ATOM      6  H4  UNL     1      -9.477  18.879 -14.827  1.00  0.00     0.177 HD
HETATM    7  N7  UNL     1      -9.768  18.778 -17.247  1.00  0.00    -0.174 N 
ATOM      8  H7  UNL     1      -8.798  18.700 -16.939  1.00  0.00     0.186 HD
HETATM    9  C14 UNL     1     -10.069  18.739 -18.536  1.00  0.00     0.155 A 
HETATM   10  C15 UNL     1     -11.376  18.844 -18.944  1.00  0.00     0.123 A 
HETATM   11  N8  UNL     1     -11.367  18.773 -20.262  1.00  0.00    -0.346 N 
ATOM     12  H8  UNL     1     -12.189  18.821 -20.863  1.00  0.00     0.167 HD
HETATM   13  C16 UNL     1     -10.119  18.630 -20.678  1.00  0.00     0.185 A 
HETATM   14  N9  UNL     1      -9.250  18.603 -19.616  1.00  0.00    -0.319 N 
ENDROOT
BRANCH   1  15
HETATM   15  N2  UNL     1     -13.587  19.088 -18.404  1.00  0.00    -0.352 N 
ATOM     16  H2  UNL     1     -13.968  18.205 -18.748  1.00  0.00     0.166 HD
BRANCH  15  17
HETATM   17  C4  UNL     1     -14.510  20.146 -18.466  1.00  0.00     0.090 C 
BRANCH  17  18
HETATM   18  C3  UNL     1     -14.130  21.419 -17.814  1.00  0.00     0.281 C 
BRANCH  18  19
HETATM   19  N1  UNL     1     -13.674  22.497 -18.638  1.00  0.00    -0.063 N 
HETATM   20  C24 UNL     1     -14.134  22.193 -19.994  1.00  0.00     0.238 C 
HETATM   21  C25 UNL     1     -13.891  23.300 -20.975  1.00  0.00     0.028 C 
HETATM   22  C26 UNL     1     -14.725  24.517 -20.794  1.00  0.00     0.002 C 
HETATM   23  C27 UNL     1     -15.985  24.310 -20.003  1.00  0.00     0.002 C 
HETATM   24  C28 UNL     1     -15.773  23.763 -18.637  1.00  0.00     0.028 C 
HETATM   25  C29 UNL     1     -14.318  23.741 -18.218  1.00  0.00     0.238 C 
BRANCH  19  26
HETATM   26  C2  UNL     1     -12.264  22.589 -18.667  1.00  0.00     0.233 C 
HETATM   27  C1  UNL     1     -11.613  22.472 -17.302  1.00  0.00     0.035 C 
ENDBRANCH  19  26
ENDBRANCH  18  19
ENDBRANCH  17  18
ENDBRANCH  15  17
ENDBRANCH   1  15
BRANCH   5  28
HETATM   28  C7  UNL     1     -11.434  19.111 -14.046  1.00  0.00     0.138 C 
BRANCH  28  29
HETATM   29  C8  UNL     1     -12.035  20.494 -14.159  1.00  0.00     0.022 C 
BRANCH  29  30
HETATM   30  C9  UNL     1     -13.195  20.614 -13.231  1.00  0.00     0.022 C 
BRANCH  30  31
HETATM   31  C10 UNL     1     -13.736  22.012 -13.245  1.00  0.00     0.129 C 
BRANCH  31  32
HETATM   32  N5  UNL     1     -14.944  22.081 -14.052  1.00  0.00    -0.352 N 
HETATM   33  C11 UNL     1     -15.470  23.216 -14.551  1.00  0.00     0.108 A 
HETATM   34  C12 UNL     1     -16.592  22.860 -15.243  1.00  0.00     0.106 A 
HETATM   35  N6  UNL     1     -16.723  21.542 -15.152  1.00  0.00    -0.361 N 
HETATM   36  C13 UNL     1     -15.700  21.028 -14.408  1.00  0.00     0.182 A 
ATOM     37  H6  UNL     1     -17.475  20.995 -15.574  1.00  0.00     0.166 HD
ENDBRANCH  31  32
ENDBRANCH  30  31
ENDBRANCH  29  30
ENDBRANCH  28  29
ENDBRANCH   5  28
BRANCH  14  38
HETATM   38  C17 UNL     1      -7.868  18.460 -19.789  1.00  0.00     0.125 C 
HETATM   39  C18 UNL     1      -7.212  19.625 -20.552  1.00  0.00     0.035 C 
HETATM   40  C19 UNL     1      -5.732  19.513 -20.364  1.00  0.00     0.066 C 
HETATM   41  C20 UNL     1      -5.243  18.265 -19.763  1.00  0.00     0.044 C 
HETATM   42  C22 UNL     1      -5.893  17.118 -19.697  1.00  0.00     0.038 C 
HETATM   43  C23 UNL     1      -7.270  17.245 -20.345  1.00  0.00     0.166 C 
BRANCH  41  44
HETATM   44  O1  UNL     1      -3.948  18.283 -19.194  1.00  0.00    -0.360 OA
HETATM   45  C21 UNL     1      -2.879  17.695 -19.932  1.00  0.00     0.209 C 
ENDBRANCH  41  44
BRANCH  43  46
HETATM   46  O2  UNL     1      -6.839  17.455 -21.690  1.00  0.00    -0.390 OA
ATOM     47  H2  UNL     1      -7.383  16.973 -22.301  1.00  0.00     0.210 HD
ENDBRANCH  43  46
ENDBRANCH  14  38
TORSDOF 13
ENDMDL
