MODEL 1
REMARK VINA RESULT: -8.095180861      0.000      0.000
REMARK  10 active torsions:
REMARK  status: ('A' for Active; 'I' for Inactive)
REMARK    1  A    between atoms: C2_2  and  C3_3 
REMARK    2  A    between atoms: C3_3  and  C4_4 
REMARK    3  A    between atoms: C4_4  and  C5_5 
REMARK    4  A    between atoms: C5_5  and  C6_6 
REMARK    5  A    between atoms: C6_6  and  C7_7 
REMARK    6  A    between atoms: N1_13  and  C13_14 
REMARK    7  A    between atoms: C13_14  and  C14_15 
REMARK    8  A    between atoms: C14_15  and  C15_16 
REMARK    9  A    between atoms: C15_16  and  N2_17 
REMARK       I    between atoms: N2_17  and  C16_19 
REMARK   10  A    between atoms: C16_19  and  C17_21 
ROOT
HETATM    1  C13 UNL     1      -9.547 -18.796   3.340  1.00  0.00     0.274 C 
ENDROOT
BRANCH   1   2
HETATM    2  N1  UNL     1      -9.688 -18.661   4.740  1.00  0.00     0.093 N 
HETATM    3  C12 UNL     1     -10.963 -18.927   5.306  1.00  0.00     0.273 C 
HETATM    4  C11 UNL     1     -11.283 -17.856   6.337  1.00  0.00     0.037 C 
HETATM    5  C10 UNL     1      -9.863 -17.323   6.596  1.00  0.00     0.021 C 
HETATM    6  C9  UNL     1      -9.866 -15.989   7.223  1.00  0.00     0.007 C 
HETATM    7  C22 UNL     1      -9.212 -17.400   5.252  1.00  0.00     0.227 C 
HETATM    8  C8  UNL     1      -9.356 -14.863   6.386  1.00  0.00     0.005 C 
HETATM    9  C7  UNL     1      -9.641 -14.925   4.938  1.00  0.00    -0.012 C 
HETATM   10  C23 UNL     1      -9.601 -16.291   4.324  1.00  0.00     0.041 C 
BRANCH   9  11
HETATM   11  C6  UNL     1     -10.916 -14.202   4.510  1.00  0.00     0.005 C 
BRANCH  11  12
HETATM   12  C5  UNL     1     -11.349 -13.129   5.447  1.00  0.00     0.000 C 
BRANCH  12  13
HETATM   13  C4  UNL     1     -12.703 -13.505   6.006  1.00  0.00     0.000 C 
BRANCH  13  14
HETATM   14  C3  UNL     1     -12.762 -13.574   7.492  1.00  0.00    -0.000 C 
BRANCH  14  15
HETATM   15  C2  UNL     1     -13.279 -14.958   7.857  1.00  0.00    -0.005 C 
HETATM   16  C1  UNL     1     -14.137 -15.541   6.757  1.00  0.00     0.005 C 
ENDBRANCH  14  15
ENDBRANCH  13  14
ENDBRANCH  12  13
ENDBRANCH  11  12
ENDBRANCH   9  11
ENDBRANCH   1   2
BRANCH   1  17
HETATM   17  C14 UNL     1     -10.086 -20.017   2.689  1.00  0.00     0.050 C 
BRANCH  17  18
HETATM   18  C15 UNL     1      -9.433 -21.310   3.016  1.00  0.00     0.124 C 
BRANCH  18  19
HETATM   19  N2  UNL     1     -10.294 -22.389   2.498  1.00  0.00    -0.361 N 
HETATM   20  C16 UNL     1     -10.079 -22.865   1.169  1.00  0.00     0.225 C 
HETATM   21  O1  UNL     1      -9.170 -22.366   0.466  1.00  0.00    -0.273 OA
ATOM     22  H2  UNL     1     -11.030 -22.788   3.079  1.00  0.00     0.162 HD
BRANCH  20  23
HETATM   23  C17 UNL     1     -10.948 -23.952   0.645  1.00  0.00     0.118 C 
HETATM   24  C18 UNL     1     -11.605 -24.727   1.730  1.00  0.00     0.138 C 
HETATM   25  N3  UNL     1     -11.946 -26.079   1.423  1.00  0.00    -0.366 N 
HETATM   26  C19 UNL     1     -11.858 -26.550   0.093  1.00  0.00     0.167 C 
ATOM     27  H3  UNL     1     -12.254 -26.707   2.166  1.00  0.00     0.161 HD
HETATM   28  S1  UNL     1     -12.852 -27.746  -0.456  1.00  0.00    -0.041 SA
HETATM   29  N4  UNL     1     -10.884 -25.961  -0.757  1.00  0.00    -0.362 N 
HETATM   30  C20 UNL     1     -10.186 -24.779  -0.354  1.00  0.00     0.094 C 
ATOM     31  H4  UNL     1     -10.680 -26.385  -1.663  1.00  0.00     0.162 HD
HETATM   32  C21 UNL     1      -8.805 -25.159   0.117  1.00  0.00     0.033 C 
ENDBRANCH  20  23
ENDBRANCH  18  19
ENDBRANCH  17  18
ENDBRANCH   1  17
TORSDOF 10
ENDMDL
MODEL 2
REMARK VINA RESULT: -8.062833963      1.301      2.083
REMARK  10 active torsions:
REMARK  status: ('A' for Active; 'I' for Inactive)
REMARK    1  A    between atoms: C2_2  and  C3_3 
REMARK    2  A    between atoms: C3_3  and  C4_4 
REMARK    3  A    between atoms: C4_4  and  C5_5 
REMARK    4  A    between atoms: C5_5  and  C6_6 
REMARK    5  A    between atoms: C6_6  and  C7_7 
REMARK    6  A    between atoms: N1_13  and  C13_14 
REMARK    7  A    between atoms: C13_14  and  C14_15 
REMARK    8  A    between atoms: C14_15  and  C15_16 
REMARK    9  A    between atoms: C15_16  and  N2_17 
REMARK       I    between atoms: N2_17  and  C16_19 
REMARK   10  A    between atoms: C16_19  and  C17_21 
ROOT
HETATM    1  C13 UNL     1      -9.163 -18.676   2.884  1.00  0.00     0.274 C 
ENDROOT
BRANCH   1   2
HETATM    2  N1  UNL     1      -9.517 -18.842   4.243  1.00  0.00     0.093 N 
HETATM    3  C12 UNL     1     -10.863 -19.179   4.541  1.00  0.00     0.273 C 
HETATM    4  C11 UNL     1     -11.336 -18.345   5.721  1.00  0.00     0.037 C 
HETATM    5  C10 UNL     1      -9.972 -17.931   6.299  1.00  0.00     0.021 C 
HETATM    6  C9  UNL     1     -10.068 -16.764   7.195  1.00  0.00     0.007 C 
HETATM    7  C22 UNL     1      -9.122 -17.738   5.083  1.00  0.00     0.227 C 
HETATM    8  C8  UNL     1      -9.434 -15.502   6.709  1.00  0.00     0.005 C 
HETATM    9  C7  UNL     1      -9.493 -15.240   5.257  1.00  0.00    -0.012 C 
HETATM   10  C23 UNL     1      -9.362 -16.443   4.372  1.00  0.00     0.041 C 
BRANCH   9  11
HETATM   11  C6  UNL     1     -10.686 -14.397   4.812  1.00  0.00     0.005 C 
BRANCH  11  12
HETATM   12  C5  UNL     1     -11.372 -13.683   5.923  1.00  0.00     0.000 C 
BRANCH  12  13
HETATM   13  C4  UNL     1     -10.855 -12.262   5.965  1.00  0.00     0.000 C 
BRANCH  13  14
HETATM   14  C3  UNL     1      -9.919 -11.977   7.088  1.00  0.00    -0.000 C 
BRANCH  14  15
HETATM   15  C2  UNL     1      -8.541 -11.760   6.479  1.00  0.00    -0.005 C 
HETATM   16  C1  UNL     1      -7.468 -12.496   7.249  1.00  0.00     0.005 C 
ENDBRANCH  14  15
ENDBRANCH  13  14
ENDBRANCH  12  13
ENDBRANCH  11  12
ENDBRANCH   9  11
ENDBRANCH   1   2
BRANCH   1  17
HETATM   17  C14 UNL     1      -9.534 -19.745   1.921  1.00  0.00     0.050 C 
BRANCH  17  18
HETATM   18  C15 UNL     1      -8.864 -21.061   2.071  1.00  0.00     0.124 C 
BRANCH  18  19
HETATM   19  N2  UNL     1      -9.562 -22.019   1.194  1.00  0.00    -0.361 N 
HETATM   20  C16 UNL     1     -10.453 -22.969   1.780  1.00  0.00     0.225 C 
HETATM   21  O1  UNL     1     -10.629 -22.976   3.021  1.00  0.00    -0.273 OA
ATOM     22  H2  UNL     1      -9.412 -22.003   0.185  1.00  0.00     0.162 HD
BRANCH  20  23
HETATM   23  C17 UNL     1     -11.157 -23.936   0.898  1.00  0.00     0.118 C 
HETATM   24  C18 UNL     1     -11.798 -25.038   1.661  1.00  0.00     0.138 C 
HETATM   25  N3  UNL     1     -11.964 -26.274   0.965  1.00  0.00    -0.366 N 
HETATM   26  C19 UNL     1     -11.732 -26.343  -0.428  1.00  0.00     0.167 C 
ATOM     27  H3  UNL     1     -12.252 -27.110   1.476  1.00  0.00     0.161 HD
HETATM   28  S1  UNL     1     -12.547 -27.419  -1.376  1.00  0.00    -0.041 SA
HETATM   29  N4  UNL     1     -10.773 -25.456  -0.986  1.00  0.00    -0.362 N 
HETATM   30  C20 UNL     1     -10.241 -24.379  -0.210  1.00  0.00     0.094 C 
ATOM     31  H4  UNL     1     -10.461 -25.589  -1.948  1.00  0.00     0.162 HD
HETATM   32  C21 UNL     1      -8.862 -24.754   0.273  1.00  0.00     0.033 C 
ENDBRANCH  20  23
ENDBRANCH  18  19
ENDBRANCH  17  18
ENDBRANCH   1  17
TORSDOF 10
ENDMDL
MODEL 3
REMARK VINA RESULT: -7.915825427      1.417      2.858
REMARK  10 active torsions:
REMARK  status: ('A' for Active; 'I' for Inactive)
REMARK    1  A    between atoms: C2_2  and  C3_3 
REMARK    2  A    between atoms: C3_3  and  C4_4 
REMARK    3  A    between atoms: C4_4  and  C5_5 
REMARK    4  A    between atoms: C5_5  and  C6_6 
REMARK    5  A    between atoms: C6_6  and  C7_7 
REMARK    6  A    between atoms: N1_13  and  C13_14 
REMARK    7  A    between atoms: C13_14  and  C14_15 
REMARK    8  A    between atoms: C14_15  and  C15_16 
REMARK    9  A    between atoms: C15_16  and  N2_17 
REMARK       I    between atoms: N2_17  and  C16_19 
REMARK   10  A    between atoms: C16_19  and  C17_21 
ROOT
HETATM    1  C13 UNL     1     -10.192 -19.233   4.912  1.00  0.00     0.274 C 
ENDROOT
BRANCH   1   2
HETATM    2  N1  UNL     1     -10.053 -18.028   4.187  1.00  0.00     0.093 N 
HETATM    3  C12 UNL     1      -8.741 -17.531   3.972  1.00  0.00     0.273 C 
HETATM    4  C11 UNL     1      -8.730 -16.030   4.217  1.00  0.00     0.037 C 
HETATM    5  C10 UNL     1     -10.236 -15.742   4.084  1.00  0.00     0.021 C 
HETATM    6  C9  UNL     1     -10.622 -14.455   4.690  1.00  0.00     0.007 C 
HETATM    7  C22 UNL     1     -10.876 -16.953   4.686  1.00  0.00     0.227 C 
HETATM    8  C8  UNL     1     -11.479 -14.529   5.911  1.00  0.00     0.005 C 
HETATM    9  C7  UNL     1     -11.236 -15.659   6.831  1.00  0.00    -0.012 C 
HETATM   10  C23 UNL     1     -10.875 -16.961   6.183  1.00  0.00     0.041 C 
BRANCH   9  11
HETATM   11  C6  UNL     1     -10.258 -15.355   7.964  1.00  0.00     0.005 C 
BRANCH  11  12
HETATM   12  C5  UNL     1     -10.356 -13.968   8.495  1.00  0.00     0.000 C 
BRANCH  12  13
HETATM   13  C4  UNL     1      -8.959 -13.397   8.592  1.00  0.00     0.000 C 
BRANCH  13  14
HETATM   14  C3  UNL     1      -8.107 -13.636   7.394  1.00  0.00    -0.000 C 
BRANCH  14  15
HETATM   15  C2  UNL     1      -8.255 -12.422   6.489  1.00  0.00    -0.005 C 
HETATM   16  C1  UNL     1      -6.950 -11.673   6.342  1.00  0.00     0.005 C 
ENDBRANCH  14  15
ENDBRANCH  13  14
ENDBRANCH  12  13
ENDBRANCH  11  12
ENDBRANCH   9  11
ENDBRANCH   1   2
BRANCH   1  17
HETATM   17  C14 UNL     1     -10.747 -20.420   4.213  1.00  0.00     0.050 C 
BRANCH  17  18
HETATM   18  C15 UNL     1      -9.839 -21.160   3.300  1.00  0.00     0.124 C 
BRANCH  18  19
HETATM   19  N2  UNL     1     -10.608 -22.271   2.711  1.00  0.00    -0.361 N 
HETATM   20  C16 UNL     1     -10.254 -22.744   1.411  1.00  0.00     0.225 C 
HETATM   21  O1  UNL     1      -9.302 -22.212   0.792  1.00  0.00    -0.273 OA
ATOM     22  H2  UNL     1     -11.380 -22.696   3.224  1.00  0.00     0.162 HD
BRANCH  20  23
HETATM   23  C17 UNL     1     -11.029 -23.863   0.815  1.00  0.00     0.118 C 
HETATM   24  C18 UNL     1     -11.627 -24.751   1.846  1.00  0.00     0.138 C 
HETATM   25  N3  UNL     1     -11.856 -26.106   1.457  1.00  0.00    -0.366 N 
HETATM   26  C19 UNL     1     -11.723 -26.488   0.102  1.00  0.00     0.167 C 
ATOM     27  H3  UNL     1     -12.116 -26.799   2.159  1.00  0.00     0.161 HD
HETATM   28  S1  UNL     1     -12.615 -27.726  -0.525  1.00  0.00    -0.041 SA
HETATM   29  N4  UNL     1     -10.796 -25.774  -0.702  1.00  0.00    -0.362 N 
HETATM   30  C20 UNL     1     -10.198 -24.566  -0.223  1.00  0.00     0.094 C 
ATOM     31  H4  UNL     1     -10.554 -26.126  -1.629  1.00  0.00     0.162 HD
HETATM   32  C21 UNL     1      -8.793 -24.861   0.239  1.00  0.00     0.033 C 
ENDBRANCH  20  23
ENDBRANCH  18  19
ENDBRANCH  17  18
ENDBRANCH   1  17
TORSDOF 10
ENDMDL
MODEL 4
REMARK VINA RESULT: -7.865479896      6.837     11.545
REMARK  10 active torsions:
REMARK  status: ('A' for Active; 'I' for Inactive)
REMARK    1  A    between atoms: C2_2  and  C3_3 
REMARK    2  A    between atoms: C3_3  and  C4_4 
REMARK    3  A    between atoms: C4_4  and  C5_5 
REMARK    4  A    between atoms: C5_5  and  C6_6 
REMARK    5  A    between atoms: C6_6  and  C7_7 
REMARK    6  A    between atoms: N1_13  and  C13_14 
REMARK    7  A    between atoms: C13_14  and  C14_15 
REMARK    8  A    between atoms: C14_15  and  C15_16 
REMARK    9  A    between atoms: C15_16  and  N2_17 
REMARK       I    between atoms: N2_17  and  C16_19 
REMARK   10  A    between atoms: C16_19  and  C17_21 
ROOT
HETATM    1  C13 UNL     1     -12.045 -29.857   1.083  1.00  0.00     0.274 C 
ENDROOT
BRANCH   1   2
HETATM    2  N1  UNL     1     -12.995 -29.312   0.189  1.00  0.00     0.093 N 
HETATM    3  C12 UNL     1     -12.893 -29.665  -1.182  1.00  0.00     0.273 C 
HETATM    4  C11 UNL     1     -13.098 -28.421  -2.033  1.00  0.00     0.037 C 
HETATM    5  C10 UNL     1     -13.801 -27.523  -1.000  1.00  0.00     0.021 C 
HETATM    6  C9  UNL     1     -13.752 -26.096  -1.366  1.00  0.00     0.007 C 
HETATM    7  C22 UNL     1     -13.127 -27.879   0.287  1.00  0.00     0.227 C 
HETATM    8  C8  UNL     1     -12.920 -25.216  -0.492  1.00  0.00     0.005 C 
HETATM    9  C7  UNL     1     -11.689 -25.807   0.073  1.00  0.00    -0.012 C 
HETATM   10  C23 UNL     1     -11.780 -27.251   0.463  1.00  0.00     0.041 C 
BRANCH   9  11
HETATM   11  C6  UNL     1     -10.432 -25.574  -0.762  1.00  0.00     0.005 C 
BRANCH  11  12
HETATM   12  C5  UNL     1      -9.355 -24.839  -0.044  1.00  0.00     0.000 C 
BRANCH  12  13
HETATM   13  C4  UNL     1      -9.993 -23.740   0.776  1.00  0.00     0.000 C 
BRANCH  13  14
HETATM   14  C3  UNL     1      -9.221 -22.467   0.813  1.00  0.00    -0.000 C 
BRANCH  14  15
HETATM   15  C2  UNL     1      -9.920 -21.548   1.804  1.00  0.00    -0.005 C 
HETATM   16  C1  UNL     1     -10.752 -22.327   2.799  1.00  0.00     0.005 C 
ENDBRANCH  14  15
ENDBRANCH  13  14
ENDBRANCH  12  13
ENDBRANCH  11  12
ENDBRANCH   9  11
ENDBRANCH   1   2
BRANCH   1  17
HETATM   17  C14 UNL     1     -11.092 -30.874   0.569  1.00  0.00     0.050 C 
BRANCH  17  18
HETATM   18  C15 UNL     1      -9.774 -30.977   1.246  1.00  0.00     0.124 C 
BRANCH  18  19
HETATM   19  N2  UNL     1      -9.874 -32.046   2.257  1.00  0.00    -0.361 N 
HETATM   20  C16 UNL     1      -8.682 -32.706   2.683  1.00  0.00     0.225 C 
HETATM   21  O1  UNL     1      -7.575 -32.372   2.198  1.00  0.00    -0.273 OA
ATOM     22  H2  UNL     1     -10.780 -32.308   2.645  1.00  0.00     0.162 HD
BRANCH  20  23
HETATM   23  C17 UNL     1      -8.781 -33.784   3.701  1.00  0.00     0.118 C 
HETATM   24  C18 UNL     1      -7.533 -33.934   4.494  1.00  0.00     0.138 C 
HETATM   25  N3  UNL     1      -7.281 -35.230   5.037  1.00  0.00    -0.366 N 
HETATM   26  C19 UNL     1      -8.286 -36.225   4.998  1.00  0.00     0.167 C 
ATOM     27  H3  UNL     1      -6.374 -35.439   5.454  1.00  0.00     0.161 HD
HETATM   28  S1  UNL     1      -8.372 -37.395   6.157  1.00  0.00    -0.041 SA
HETATM   29  N4  UNL     1      -9.218 -36.186   3.927  1.00  0.00    -0.362 N 
HETATM   30  C20 UNL     1      -9.282 -35.050   3.060  1.00  0.00     0.094 C 
ATOM     31  H4  UNL     1      -9.847 -36.974   3.775  1.00  0.00     0.162 HD
HETATM   32  C21 UNL     1      -8.582 -35.378   1.765  1.00  0.00     0.033 C 
ENDBRANCH  20  23
ENDBRANCH  18  19
ENDBRANCH  17  18
ENDBRANCH   1  17
TORSDOF 10
ENDMDL
MODEL 5
REMARK VINA RESULT: -7.761023504      5.737     10.197
REMARK  10 active torsions:
REMARK  status: ('A' for Active; 'I' for Inactive)
REMARK    1  A    between atoms: C2_2  and  C3_3 
REMARK    2  A    between atoms: C3_3  and  C4_4 
REMARK    3  A    between atoms: C4_4  and  C5_5 
REMARK    4  A    between atoms: C5_5  and  C6_6 
REMARK    5  A    between atoms: C6_6  and  C7_7 
REMARK    6  A    between atoms: N1_13  and  C13_14 
REMARK    7  A    between atoms: C13_14  and  C14_15 
REMARK    8  A    between atoms: C14_15  and  C15_16 
REMARK    9  A    between atoms: C15_16  and  N2_17 
REMARK       I    between atoms: N2_17  and  C16_19 
REMARK   10  A    between atoms: C16_19  and  C17_21 
ROOT
HETATM    1  C13 UNL     1     -14.755 -26.446  -0.892  1.00  0.00     0.274 C 
ENDROOT
BRANCH   1   2
HETATM    2  N1  UNL     1     -13.634 -27.292  -1.047  1.00  0.00     0.093 N 
HETATM    3  C12 UNL     1     -13.287 -28.138   0.039  1.00  0.00     0.273 C 
HETATM    4  C11 UNL     1     -11.779 -28.106   0.234  1.00  0.00     0.037 C 
HETATM    5  C10 UNL     1     -11.358 -27.571  -1.146  1.00  0.00     0.021 C 
HETATM    6  C9  UNL     1      -9.993 -27.014  -1.144  1.00  0.00     0.007 C 
HETATM    7  C22 UNL     1     -12.446 -26.605  -1.492  1.00  0.00     0.227 C 
HETATM    8  C8  UNL     1      -9.881 -25.537  -1.341  1.00  0.00     0.005 C 
HETATM    9  C7  UNL     1     -10.949 -24.702  -0.754  1.00  0.00    -0.012 C 
HETATM   10  C23 UNL     1     -12.329 -25.283  -0.798  1.00  0.00     0.041 C 
BRANCH   9  11
HETATM   11  C6  UNL     1     -10.650 -24.183   0.650  1.00  0.00     0.005 C 
BRANCH  11  12
HETATM   12  C5  UNL     1      -9.370 -23.431   0.760  1.00  0.00     0.000 C 
BRANCH  12  13
HETATM   13  C4  UNL     1      -9.679 -22.041   1.269  1.00  0.00     0.000 C 
BRANCH  13  14
HETATM   14  C3  UNL     1     -10.378 -22.003   2.583  1.00  0.00    -0.000 C 
BRANCH  14  15
HETATM   15  C2  UNL     1     -10.070 -20.653   3.216  1.00  0.00    -0.005 C 
HETATM   16  C1  UNL     1      -9.135 -19.833   2.357  1.00  0.00     0.005 C 
ENDBRANCH  14  15
ENDBRANCH  13  14
ENDBRANCH  12  13
ENDBRANCH  11  12
ENDBRANCH   9  11
ENDBRANCH   1   2
BRANCH   1  17
HETATM   17  C14 UNL     1     -16.095 -27.068  -0.737  1.00  0.00     0.050 C 
BRANCH  17  18
HETATM   18  C15 UNL     1     -17.083 -26.840  -1.823  1.00  0.00     0.124 C 
BRANCH  18  19
HETATM   19  N2  UNL     1     -17.096 -25.396  -2.118  1.00  0.00    -0.361 N 
HETATM   20  C16 UNL     1     -17.166 -24.970  -3.479  1.00  0.00     0.225 C 
HETATM   21  O1  UNL     1     -17.215 -25.821  -4.398  1.00  0.00    -0.273 OA
ATOM     22  H2  UNL     1     -17.057 -24.712  -1.362  1.00  0.00     0.162 HD
BRANCH  20  23
HETATM   23  C17 UNL     1     -17.179 -23.514  -3.778  1.00  0.00     0.118 C 
HETATM   24  C18 UNL     1     -17.566 -23.227  -5.184  1.00  0.00     0.138 C 
HETATM   25  N3  UNL     1     -17.059 -22.014  -5.743  1.00  0.00    -0.366 N 
HETATM   26  C19 UNL     1     -16.423 -21.061  -4.915  1.00  0.00     0.167 C 
ATOM     27  H3  UNL     1     -17.157 -21.836  -6.743  1.00  0.00     0.161 HD
HETATM   28  S1  UNL     1     -16.475 -19.451  -5.273  1.00  0.00    -0.041 SA
HETATM   29  N4  UNL     1     -15.736 -21.533  -3.765  1.00  0.00    -0.362 N 
HETATM   30  C20 UNL     1     -15.884 -22.889  -3.335  1.00  0.00     0.094 C 
ATOM     31  H4  UNL     1     -15.131 -20.900  -3.241  1.00  0.00     0.162 HD
HETATM   32  C21 UNL     1     -14.669 -23.676  -3.758  1.00  0.00     0.033 C 
ENDBRANCH  20  23
ENDBRANCH  18  19
ENDBRANCH  17  18
ENDBRANCH   1  17
TORSDOF 10
ENDMDL
