MODEL 1
REMARK VINA RESULT: -4.655314522      0.000      0.000
REMARK  2 active torsions:
REMARK  status: ('A' for Active; 'I' for Inactive)
REMARK    1  A    between atoms: C4_4  and  N1_5 
REMARK    2  A    between atoms: N1_5  and  C5_7 
ROOT
HETATM    1  C1  UNL     1      70.714  80.205  29.053  1.00  0.00     0.028 C 
HETATM    2  C2  UNL     1      71.376  80.840  27.842  1.00  0.00     0.005 C 
HETATM    3  C3  UNL     1      70.373  80.958  26.702  1.00  0.00     0.054 C 
HETATM    4  C4  UNL     1      69.262  79.984  26.821  1.00  0.00     0.280 C 
HETATM    5  N2  UNL     1      69.664  78.719  27.407  1.00  0.00    -0.055 N 
ATOM      6  H21 UNL     1      70.348  78.245  26.817  1.00  0.00     0.279 HD
ATOM      7  H22 UNL     1      68.904  78.039  27.361  1.00  0.00     0.279 HD
HETATM    8  C8  UNL     1      70.152  78.848  28.751  1.00  0.00     0.235 C 
ENDROOT
BRANCH   4   9
HETATM    9  N1  UNL     1      68.694  79.679  25.545  1.00  0.00    -0.391 N 
ATOM     10  H1  UNL     1      67.694  79.509  25.443  1.00  0.00     0.155 HD
BRANCH   9  11
HETATM   11  C5  UNL     1      69.566  79.621  24.427  1.00  0.00     0.078 A 
HETATM   12  C6  UNL     1      69.240  79.236  23.060  1.00  0.00     0.027 A 
HETATM   13  C7  UNL     1      69.388  80.702  23.374  1.00  0.00     0.027 A 
ENDBRANCH   9  11
ENDBRANCH   4   9
TORSDOF 2
ENDMDL
MODEL 2
REMARK VINA RESULT: -4.588020678      6.289      8.283
REMARK  2 active torsions:
REMARK  status: ('A' for Active; 'I' for Inactive)
REMARK    1  A    between atoms: C4_4  and  N1_5 
REMARK    2  A    between atoms: N1_5  and  C5_7 
ROOT
HETATM    1  C1  UNL     1      75.779  78.636  34.419  1.00  0.00     0.028 C 
HETATM    2  C2  UNL     1      74.809  77.484  34.223  1.00  0.00     0.005 C 
HETATM    3  C3  UNL     1      73.713  77.885  33.244  1.00  0.00     0.054 C 
HETATM    4  C4  UNL     1      73.528  79.353  33.172  1.00  0.00     0.280 C 
HETATM    5  N2  UNL     1      73.759  80.028  34.437  1.00  0.00    -0.055 N 
ATOM      6  H21 UNL     1      73.083  79.725  35.139  1.00  0.00     0.279 HD
ATOM      7  H22 UNL     1      73.504  81.014  34.374  1.00  0.00     0.279 HD
HETATM    8  C8  UNL     1      75.101  79.876  34.922  1.00  0.00     0.235 C 
ENDROOT
BRANCH   4   9
HETATM    9  N1  UNL     1      72.200  79.694  32.766  1.00  0.00    -0.391 N 
ATOM     10  H1  UNL     1      71.970  80.639  32.462  1.00  0.00     0.155 HD
BRANCH   9  11
HETATM   11  C5  UNL     1      71.213  78.675  32.800  1.00  0.00     0.078 A 
HETATM   12  C6  UNL     1      69.785  78.824  33.048  1.00  0.00     0.027 A 
HETATM   13  C7  UNL     1      70.248  78.629  31.627  1.00  0.00     0.027 A 
ENDBRANCH   9  11
ENDBRANCH   4   9
TORSDOF 2
ENDMDL
MODEL 3
REMARK VINA RESULT: -4.546177051      7.260      8.751
REMARK  2 active torsions:
REMARK  status: ('A' for Active; 'I' for Inactive)
REMARK    1  A    between atoms: C4_4  and  N1_5 
REMARK    2  A    between atoms: N1_5  and  C5_7 
ROOT
HETATM    1  C1  UNL     1      75.462  77.571  34.711  1.00  0.00     0.028 C 
HETATM    2  C2  UNL     1      76.259  78.856  34.577  1.00  0.00     0.005 C 
HETATM    3  C3  UNL     1      75.321  80.057  34.597  1.00  0.00     0.054 C 
HETATM    4  C4  UNL     1      73.942  79.704  34.187  1.00  0.00     0.280 C 
HETATM    5  N2  UNL     1      73.887  78.661  33.179  1.00  0.00    -0.055 N 
ATOM      6  H21 UNL     1      74.333  78.968  32.314  1.00  0.00     0.279 HD
ATOM      7  H22 UNL     1      72.933  78.535  32.839  1.00  0.00     0.279 HD
HETATM    8  C8  UNL     1      74.441  77.414  33.624  1.00  0.00     0.235 C 
ENDROOT
BRANCH   4   9
HETATM    9  N1  UNL     1      73.253  80.832  33.643  1.00  0.00    -0.391 N 
ATOM     10  H1  UNL     1      73.670  81.762  33.663  1.00  0.00     0.155 HD
BRANCH   9  11
HETATM   11  C5  UNL     1      71.970  80.617  33.075  1.00  0.00     0.078 A 
HETATM   12  C6  UNL     1      70.683  81.085  33.573  1.00  0.00     0.027 A 
HETATM   13  C7  UNL     1      71.313  81.817  32.415  1.00  0.00     0.027 A 
ENDBRANCH   9  11
ENDBRANCH   4   9
TORSDOF 2
ENDMDL
MODEL 4
REMARK VINA RESULT: -4.502643738      1.388      4.432
REMARK  2 active torsions:
REMARK  status: ('A' for Active; 'I' for Inactive)
REMARK    1  A    between atoms: C4_4  and  N1_5 
REMARK    2  A    between atoms: N1_5  and  C5_7 
ROOT
HETATM    1  C1  UNL     1      70.064  81.168  23.119  1.00  0.00     0.028 C 
HETATM    2  C2  UNL     1      69.793  79.701  23.403  1.00  0.00     0.005 C 
HETATM    3  C3  UNL     1      69.101  79.550  24.752  1.00  0.00     0.054 C 
HETATM    4  C4  UNL     1      69.360  80.697  25.653  1.00  0.00     0.280 C 
HETATM    5  N2  UNL     1      70.683  81.272  25.491  1.00  0.00    -0.055 N 
ATOM      6  H21 UNL     1      71.406  80.595  25.736  1.00  0.00     0.279 HD
ATOM      7  H22 UNL     1      70.863  81.976  26.208  1.00  0.00     0.279 HD
HETATM    8  C8  UNL     1      70.909  81.809  24.180  1.00  0.00     0.235 C 
ENDROOT
BRANCH   4   9
HETATM    9  N1  UNL     1      69.246  80.320  27.027  1.00  0.00    -0.391 N 
ATOM     10  H1  UNL     1      68.394  80.506  27.554  1.00  0.00     0.155 HD
BRANCH   9  11
HETATM   11  C5  UNL     1      70.357  79.678  27.634  1.00  0.00     0.078 A 
HETATM   12  C6  UNL     1      70.986  79.998  28.909  1.00  0.00     0.027 A 
HETATM   13  C7  UNL     1      70.059  78.812  28.846  1.00  0.00     0.027 A 
ENDBRANCH   9  11
ENDBRANCH   4   9
TORSDOF 2
ENDMDL
MODEL 5
REMARK VINA RESULT: -4.457769513      0.937      4.320
REMARK  2 active torsions:
REMARK  status: ('A' for Active; 'I' for Inactive)
REMARK    1  A    between atoms: C4_4  and  N1_5 
REMARK    2  A    between atoms: N1_5  and  C5_7 
ROOT
HETATM    1  C1  UNL     1      69.910  80.899  23.811  1.00  0.00     0.028 C 
HETATM    2  C2  UNL     1      69.735  81.904  24.936  1.00  0.00     0.005 C 
HETATM    3  C3  UNL     1      69.965  81.225  26.281  1.00  0.00     0.054 C 
HETATM    4  C4  UNL     1      69.744  79.762  26.222  1.00  0.00     0.280 C 
HETATM    5  N2  UNL     1      68.695  79.372  25.297  1.00  0.00    -0.055 N 
ATOM      6  H21 UNL     1      67.793  79.749  25.591  1.00  0.00     0.279 HD
ATOM      7  H22 UNL     1      68.493  78.375  25.376  1.00  0.00     0.279 HD
HETATM    8  C8  UNL     1      68.979  79.730  23.937  1.00  0.00     0.235 C 
ENDROOT
BRANCH   4   9
HETATM    9  N1  UNL     1      69.375  79.236  27.499  1.00  0.00    -0.391 N 
ATOM     10  H1  UNL     1      68.400  79.042  27.726  1.00  0.00     0.155 HD
BRANCH   9  11
HETATM   11  C5  UNL     1      70.408  78.994  28.441  1.00  0.00     0.078 A 
HETATM   12  C6  UNL     1      70.790  79.819  29.580  1.00  0.00     0.027 A 
HETATM   13  C7  UNL     1      69.969  78.582  29.836  1.00  0.00     0.027 A 
ENDBRANCH   9  11
ENDBRANCH   4   9
TORSDOF 2
ENDMDL
