MODEL 1
REMARK VINA RESULT: -5.481679131      0.000      0.000
REMARK  4 active torsions:
REMARK  status: ('A' for Active; 'I' for Inactive)
REMARK    1  A    between atoms: N1_1  and  C1_5 
REMARK    2  A    between atoms: C1_5  and  C2_6 
REMARK    3  A    between atoms: C2_6  and  C3_7 
REMARK    4  A    between atoms: C3_7  and  C4_8 
ROOT
HETATM    1  C4  UNL     1      -9.323 -31.922  17.069  1.00  0.00    -0.043 A 
HETATM    2  C5  UNL     1     -10.077 -31.320  18.053  1.00  0.00     0.010 A 
HETATM    3  C6  UNL     1     -10.074 -31.764  19.359  1.00  0.00     0.018 A 
HETATM    4  C7  UNL     1      -9.285 -32.850  19.677  1.00  0.00     0.087 A 
HETATM    5  N2  UNL     1      -8.542 -33.447  18.725  1.00  0.00    -0.375 N 
ATOM      6  H2  UNL     1      -7.961 -34.249  18.970  1.00  0.00     0.164 HD
HETATM    7  C8  UNL     1      -8.555 -33.003  17.453  1.00  0.00     0.094 A 
ENDROOT
BRANCH   1   8
HETATM    8  C3  UNL     1      -9.350 -31.419  15.677  1.00  0.00     0.041 C 
BRANCH   8   9
HETATM    9  C2  UNL     1      -7.958 -31.412  15.065  1.00  0.00     0.032 C 
BRANCH   9  10
HETATM   10  C1  UNL     1      -7.986 -30.767  13.688  1.00  0.00     0.230 C 
BRANCH  10  11
HETATM   11  N1  UNL     1      -7.805 -29.351  13.746  1.00  0.00    -0.079 N 
ATOM     12  H13 UNL     1      -8.375 -28.879  13.044  1.00  0.00     0.274 HD
ATOM     13  H12 UNL     1      -8.226 -28.960  14.588  1.00  0.00     0.274 HD
ATOM     14  H11 UNL     1      -6.825 -29.081  13.666  1.00  0.00     0.274 HD
ENDBRANCH  10  11
ENDBRANCH   9  10
ENDBRANCH   8   9
ENDBRANCH   1   8
TORSDOF 4
ENDMDL
MODEL 2
REMARK VINA RESULT: -5.388671237      1.111      1.652
REMARK  4 active torsions:
REMARK  status: ('A' for Active; 'I' for Inactive)
REMARK    1  A    between atoms: N1_1  and  C1_5 
REMARK    2  A    between atoms: C1_5  and  C2_6 
REMARK    3  A    between atoms: C2_6  and  C3_7 
REMARK    4  A    between atoms: C3_7  and  C4_8 
ROOT
HETATM    1  C4  UNL     1      -9.597 -32.087  17.223  1.00  0.00    -0.043 A 
HETATM    2  C5  UNL     1      -8.660 -33.022  17.609  1.00  0.00     0.010 A 
HETATM    3  C6  UNL     1      -8.495 -33.401  18.924  1.00  0.00     0.018 A 
HETATM    4  C7  UNL     1      -9.302 -32.815  19.878  1.00  0.00     0.087 A 
HETATM    5  N2  UNL     1     -10.222 -31.900  19.515  1.00  0.00    -0.375 N 
ATOM      6  H2  UNL     1     -10.814 -31.473  20.227  1.00  0.00     0.164 HD
HETATM    7  C8  UNL     1     -10.372 -31.539  18.225  1.00  0.00     0.094 A 
ENDROOT
BRANCH   1   8
HETATM    8  C3  UNL     1      -9.747 -31.703  15.801  1.00  0.00     0.041 C 
BRANCH   8   9
HETATM    9  C2  UNL     1      -8.621 -30.782  15.357  1.00  0.00     0.032 C 
BRANCH   9  10
HETATM   10  C1  UNL     1      -7.802 -31.438  14.256  1.00  0.00     0.230 C 
BRANCH  10  11
HETATM   11  N1  UNL     1      -8.007 -30.822  12.983  1.00  0.00    -0.079 N 
ATOM     12  H13 UNL     1      -7.885 -29.810  13.041  1.00  0.00     0.274 HD
ATOM     13  H12 UNL     1      -7.245 -31.041  12.342  1.00  0.00     0.274 HD
ATOM     14  H11 UNL     1      -8.910 -31.062  12.576  1.00  0.00     0.274 HD
ENDBRANCH  10  11
ENDBRANCH   9  10
ENDBRANCH   8   9
ENDBRANCH   1   8
TORSDOF 4
ENDMDL
MODEL 3
REMARK VINA RESULT: -5.374534479      1.286      1.739
REMARK  4 active torsions:
REMARK  status: ('A' for Active; 'I' for Inactive)
REMARK    1  A    between atoms: N1_1  and  C1_5 
REMARK    2  A    between atoms: C1_5  and  C2_6 
REMARK    3  A    between atoms: C2_6  and  C3_7 
REMARK    4  A    between atoms: C3_7  and  C4_8 
ROOT
HETATM    1  C4  UNL     1      -8.813 -32.593  17.178  1.00  0.00    -0.043 A 
HETATM    2  C5  UNL     1      -8.464 -33.171  18.380  1.00  0.00     0.010 A 
HETATM    3  C6  UNL     1      -9.109 -32.866  19.559  1.00  0.00     0.018 A 
HETATM    4  C7  UNL     1     -10.138 -31.947  19.522  1.00  0.00     0.087 A 
HETATM    5  N2  UNL     1     -10.490 -31.375  18.354  1.00  0.00    -0.375 N 
ATOM      6  H2  UNL     1     -11.252 -30.698  18.336  1.00  0.00     0.164 HD
HETATM    7  C8  UNL     1      -9.850 -31.683  17.209  1.00  0.00     0.094 A 
ENDROOT
BRANCH   1   8
HETATM    8  C3  UNL     1      -8.099 -32.944  15.930  1.00  0.00     0.041 C 
BRANCH   8   9
HETATM    9  C2  UNL     1      -7.389 -31.734  15.341  1.00  0.00     0.032 C 
BRANCH   9  10
HETATM   10  C1  UNL     1      -7.401 -31.799  13.822  1.00  0.00     0.230 C 
BRANCH  10  11
HETATM   11  N1  UNL     1      -8.033 -30.662  13.232  1.00  0.00    -0.079 N 
ATOM     12  H13 UNL     1      -9.049 -30.734  13.292  1.00  0.00     0.274 HD
ATOM     13  H12 UNL     1      -7.896 -29.828  13.803  1.00  0.00     0.274 HD
ATOM     14  H11 UNL     1      -7.731 -30.504  12.271  1.00  0.00     0.274 HD
ENDBRANCH  10  11
ENDBRANCH   9  10
ENDBRANCH   8   9
ENDBRANCH   1   8
TORSDOF 4
ENDMDL
MODEL 4
REMARK VINA RESULT: -5.336015871      1.416      4.526
REMARK  4 active torsions:
REMARK  status: ('A' for Active; 'I' for Inactive)
REMARK    1  A    between atoms: N1_1  and  C1_5 
REMARK    2  A    between atoms: C1_5  and  C2_6 
REMARK    3  A    between atoms: C2_6  and  C3_7 
REMARK    4  A    between atoms: C3_7  and  C4_8 
ROOT
HETATM    1  C4  UNL     1      -9.199 -31.849  16.150  1.00  0.00    -0.043 A 
HETATM    2  C5  UNL     1      -9.226 -30.749  15.319  1.00  0.00     0.010 A 
HETATM    3  C6  UNL     1      -8.341 -30.594  14.274  1.00  0.00     0.018 A 
HETATM    4  C7  UNL     1      -7.399 -31.581  14.064  1.00  0.00     0.087 A 
HETATM    5  N2  UNL     1      -7.362 -32.661  14.869  1.00  0.00    -0.375 N 
ATOM      6  H2  UNL     1      -6.663 -33.386  14.705  1.00  0.00     0.164 HD
HETATM    7  C8  UNL     1      -8.234 -32.799  15.887  1.00  0.00     0.094 A 
ENDROOT
BRANCH   1   8
HETATM    8  C3  UNL     1     -10.166 -31.982  17.264  1.00  0.00     0.041 C 
BRANCH   8   9
HETATM    9  C2  UNL     1      -9.564 -31.506  18.577  1.00  0.00     0.032 C 
BRANCH   9  10
HETATM   10  C1  UNL     1      -9.558 -32.634  19.598  1.00  0.00     0.230 C 
BRANCH  10  11
HETATM   11  N1  UNL     1      -8.581 -33.632  19.302  1.00  0.00    -0.079 N 
ATOM     12  H13 UNL     1      -7.651 -33.338  19.604  1.00  0.00     0.274 HD
ATOM     13  H12 UNL     1      -8.695 -34.449  19.902  1.00  0.00     0.274 HD
ATOM     14  H11 UNL     1      -8.581 -33.897  18.317  1.00  0.00     0.274 HD
ENDBRANCH  10  11
ENDBRANCH   9  10
ENDBRANCH   8   9
ENDBRANCH   1   8
TORSDOF 4
ENDMDL
MODEL 5
REMARK VINA RESULT: -5.292211143      1.397      1.836
REMARK  4 active torsions:
REMARK  status: ('A' for Active; 'I' for Inactive)
REMARK    1  A    between atoms: N1_1  and  C1_5 
REMARK    2  A    between atoms: C1_5  and  C2_6 
REMARK    3  A    between atoms: C2_6  and  C3_7 
REMARK    4  A    between atoms: C3_7  and  C4_8 
ROOT
HETATM    1  C4  UNL     1      -8.500 -32.227  16.460  1.00  0.00    -0.043 A 
HETATM    2  C5  UNL     1      -8.177 -32.086  17.793  1.00  0.00     0.010 A 
HETATM    3  C6  UNL     1      -9.120 -31.778  18.750  1.00  0.00     0.018 A 
HETATM    4  C7  UNL     1     -10.428 -31.606  18.346  1.00  0.00     0.087 A 
HETATM    5  N2  UNL     1     -10.757 -31.742  17.047  1.00  0.00    -0.375 N 
ATOM      6  H2  UNL     1     -11.727 -31.615  16.758  1.00  0.00     0.164 HD
HETATM    7  C8  UNL     1      -9.825 -32.043  16.122  1.00  0.00     0.094 A 
ENDROOT
BRANCH   1   8
HETATM    8  C3  UNL     1      -7.461 -32.558  15.458  1.00  0.00     0.041 C 
BRANCH   8   9
HETATM    9  C2  UNL     1      -7.620 -31.718  14.200  1.00  0.00     0.032 C 
BRANCH   9  10
HETATM   10  C1  UNL     1      -7.054 -30.323  14.418  1.00  0.00     0.230 C 
BRANCH  10  11
HETATM   11  N1  UNL     1      -7.783 -29.322  13.707  1.00  0.00    -0.079 N 
ATOM     12  H13 UNL     1      -8.076 -29.662  12.790  1.00  0.00     0.274 HD
ATOM     13  H12 UNL     1      -8.701 -29.169  14.124  1.00  0.00     0.274 HD
ATOM     14  H11 UNL     1      -7.265 -28.447  13.626  1.00  0.00     0.274 HD
ENDBRANCH  10  11
ENDBRANCH   9  10
ENDBRANCH   8   9
ENDBRANCH   1   8
TORSDOF 4
ENDMDL
