MODEL 1
REMARK VINA RESULT: -5.849705664      0.000      0.000
REMARK  3 active torsions:
REMARK  status: ('A' for Active; 'I' for Inactive)
REMARK    1  A    between atoms: C1_2  and  C2_3 
REMARK    2  A    between atoms: C2_3  and  C3_4 
REMARK    3  A    between atoms: C3_4  and  C4_5 
ROOT
HETATM    1  C4  UNL     1      -8.522 -33.131  16.600  1.00  0.00     0.177 C 
HETATM    2  C5  UNL     1      -8.417 -32.259  17.694  1.00  0.00    -0.002 C 
HETATM    3  O1  UNL     1      -8.475 -31.413  18.683  1.00  0.00    -0.309 OA
HETATM    4  C6  UNL     1      -9.784 -30.816  18.710  1.00  0.00     0.215 C 
HETATM    5  C7  UNL     1     -10.811 -31.558  17.918  1.00  0.00     0.017 C 
HETATM    6  C8  UNL     1     -10.643 -31.924  16.530  1.00  0.00     0.082 C 
HETATM    7  N1  UNL     1      -9.931 -33.108  16.110  1.00  0.00    -0.383 N 
ATOM      8  H1  UNL     1     -10.346 -33.845  15.541  1.00  0.00     0.160 HD
ENDROOT
BRANCH   1   9
HETATM    9  C3  UNL     1      -7.596 -32.800  15.411  1.00  0.00     0.042 C 
BRANCH   9  10
HETATM   10  C2  UNL     1      -7.417 -31.298  15.359  1.00  0.00     0.034 C 
BRANCH  10  11
HETATM   11  C1  UNL     1      -7.783 -30.736  14.005  1.00  0.00     0.222 C 
HETATM   12  F1  UNL     1      -7.370 -29.420  13.946  1.00  0.00    -0.255 F 
ENDBRANCH  10  11
ENDBRANCH   9  10
ENDBRANCH   1   9
TORSDOF 3
ENDMDL
MODEL 2
REMARK VINA RESULT: -5.765582721      1.309      1.528
REMARK  3 active torsions:
REMARK  status: ('A' for Active; 'I' for Inactive)
REMARK    1  A    between atoms: C1_2  and  C2_3 
REMARK    2  A    between atoms: C2_3  and  C3_4 
REMARK    3  A    between atoms: C3_4  and  C4_5 
ROOT
HETATM    1  C4  UNL     1      -8.962 -32.615  16.201  1.00  0.00     0.177 C 
HETATM    2  C5  UNL     1      -8.669 -33.286  17.399  1.00  0.00    -0.002 C 
HETATM    3  O1  UNL     1      -8.473 -33.786  18.586  1.00  0.00    -0.309 OA
HETATM    4  C6  UNL     1      -9.003 -32.879  19.568  1.00  0.00     0.215 C 
HETATM    5  C7  UNL     1      -9.947 -31.861  19.014  1.00  0.00     0.017 C 
HETATM    6  C8  UNL     1      -9.630 -30.996  17.902  1.00  0.00     0.082 C 
HETATM    7  N1  UNL     1      -9.771 -31.403  16.524  1.00  0.00    -0.383 N 
ATOM      8  H1  UNL     1     -10.357 -30.916  15.847  1.00  0.00     0.160 HD
ENDROOT
BRANCH   1   9
HETATM    9  C3  UNL     1      -7.731 -32.167  15.387  1.00  0.00     0.042 C 
BRANCH   9  10
HETATM   10  C2  UNL     1      -8.175 -31.094  14.417  1.00  0.00     0.034 C 
BRANCH  10  11
HETATM   11  C1  UNL     1      -7.197 -29.943  14.367  1.00  0.00     0.222 C 
HETATM   12  F1  UNL     1      -7.885 -28.791  14.039  1.00  0.00    -0.255 F 
ENDBRANCH  10  11
ENDBRANCH   9  10
ENDBRANCH   1   9
TORSDOF 3
ENDMDL
MODEL 3
REMARK VINA RESULT: -5.760569783      2.485      4.029
REMARK  3 active torsions:
REMARK  status: ('A' for Active; 'I' for Inactive)
REMARK    1  A    between atoms: C1_2  and  C2_3 
REMARK    2  A    between atoms: C2_3  and  C3_4 
REMARK    3  A    between atoms: C3_4  and  C4_5 
ROOT
HETATM    1  C4  UNL     1     -10.120 -32.059  16.170  1.00  0.00     0.177 C 
HETATM    2  C5  UNL     1      -9.384 -31.019  15.583  1.00  0.00    -0.002 C 
HETATM    3  O1  UNL     1      -8.586 -30.163  15.011  1.00  0.00    -0.309 OA
HETATM    4  C6  UNL     1      -7.355 -30.826  14.674  1.00  0.00     0.215 C 
HETATM    5  C7  UNL     1      -7.442 -32.318  14.682  1.00  0.00     0.017 C 
HETATM    6  C8  UNL     1      -7.934 -33.085  15.802  1.00  0.00     0.082 C 
HETATM    7  N1  UNL     1      -9.339 -33.325  16.034  1.00  0.00    -0.383 N 
ATOM      8  H1  UNL     1      -9.752 -34.255  16.098  1.00  0.00     0.160 HD
ENDROOT
BRANCH   1   9
HETATM    9  C3  UNL     1     -10.452 -31.861  17.663  1.00  0.00     0.042 C 
BRANCH   9  10
HETATM   10  C2  UNL     1      -9.394 -30.961  18.265  1.00  0.00     0.034 C 
BRANCH  10  11
HETATM   11  C1  UNL     1      -8.447 -31.729  19.157  1.00  0.00     0.222 C 
HETATM   12  F1  UNL     1      -8.912 -33.023  19.288  1.00  0.00    -0.255 F 
ENDBRANCH  10  11
ENDBRANCH   9  10
ENDBRANCH   1   9
TORSDOF 3
ENDMDL
MODEL 4
REMARK VINA RESULT: -5.698422266      1.470      1.986
REMARK  3 active torsions:
REMARK  status: ('A' for Active; 'I' for Inactive)
REMARK    1  A    between atoms: C1_2  and  C2_3 
REMARK    2  A    between atoms: C2_3  and  C3_4 
REMARK    3  A    between atoms: C3_4  and  C4_5 
ROOT
HETATM    1  C4  UNL     1     -10.168 -32.107  16.478  1.00  0.00     0.177 C 
HETATM    2  C5  UNL     1      -9.225 -32.953  17.083  1.00  0.00    -0.002 C 
HETATM    3  O1  UNL     1      -8.392 -33.668  17.785  1.00  0.00    -0.309 OA
HETATM    4  C6  UNL     1      -8.462 -33.251  19.159  1.00  0.00     0.215 C 
HETATM    5  C7  UNL     1      -9.677 -32.448  19.494  1.00  0.00     0.017 C 
HETATM    6  C8  UNL     1     -10.081 -31.266  18.769  1.00  0.00     0.082 C 
HETATM    7  N1  UNL     1     -10.848 -31.317  17.546  1.00  0.00    -0.383 N 
ATOM      8  H1  UNL     1     -11.753 -30.864  17.427  1.00  0.00     0.160 HD
ENDROOT
BRANCH   1   9
HETATM    9  C3  UNL     1      -9.589 -31.118  15.447  1.00  0.00     0.042 C 
BRANCH   9  10
HETATM   10  C2  UNL     1      -8.163 -31.530  15.149  1.00  0.00     0.034 C 
BRANCH  10  11
HETATM   11  C1  UNL     1      -7.606 -30.797  13.950  1.00  0.00     0.222 C 
HETATM   12  F1  UNL     1      -6.973 -29.651  14.387  1.00  0.00    -0.255 F 
ENDBRANCH  10  11
ENDBRANCH   9  10
ENDBRANCH   1   9
TORSDOF 3
ENDMDL
MODEL 5
REMARK VINA RESULT: -5.633023244      2.963      4.515
REMARK  3 active torsions:
REMARK  status: ('A' for Active; 'I' for Inactive)
REMARK    1  A    between atoms: C1_2  and  C2_3 
REMARK    2  A    between atoms: C2_3  and  C3_4 
REMARK    3  A    between atoms: C3_4  and  C4_5 
ROOT
HETATM    1  C4  UNL     1      -9.557 -32.318  16.534  1.00  0.00     0.177 C 
HETATM    2  C5  UNL     1      -9.544 -31.364  15.506  1.00  0.00    -0.002 C 
HETATM    3  O1  UNL     1      -9.386 -30.537  14.511  1.00  0.00    -0.309 OA
HETATM    4  C6  UNL     1      -8.093 -30.758  13.921  1.00  0.00     0.215 C 
HETATM    5  C7  UNL     1      -7.463 -32.060  14.298  1.00  0.00     0.017 C 
HETATM    6  C8  UNL     1      -7.283 -32.497  15.663  1.00  0.00     0.082 C 
HETATM    7  N1  UNL     1      -8.323 -33.150  16.423  1.00  0.00    -0.383 N 
ATOM      8  H1  UNL     1      -8.225 -34.077  16.837  1.00  0.00     0.160 HD
ENDROOT
BRANCH   1   9
HETATM    9  C3  UNL     1      -9.616 -31.738  17.962  1.00  0.00     0.042 C 
BRANCH   9  10
HETATM   10  C2  UNL     1      -8.732 -32.586  18.851  1.00  0.00     0.034 C 
BRANCH  10  11
HETATM   11  C1  UNL     1      -9.484 -33.111  20.052  1.00  0.00     0.222 C 
HETATM   12  F1  UNL     1     -10.499 -32.227  20.360  1.00  0.00    -0.255 F 
ENDBRANCH  10  11
ENDBRANCH   9  10
ENDBRANCH   1   9
TORSDOF 3
ENDMDL
