MODEL 1
REMARK VINA RESULT: -7.488252347      0.000      0.000
REMARK  8 active torsions:
REMARK  status: ('A' for Active; 'I' for Inactive)
REMARK    1  A    between atoms: C2_2  and  C4_4 
REMARK    2  A    between atoms: C4_4  and  C5_5 
REMARK    3  A    between atoms: C5_5  and  C6_6 
REMARK    4  A    between atoms: C5_5  and  N3_15 
REMARK    5  A    between atoms: C6_6  and  N1_7 
REMARK    6  A    between atoms: N1_7  and  S1_9 
REMARK    7  A    between atoms: S1_9  and  N2_10 
REMARK    8  A    between atoms: N3_15  and  C7_17 
ROOT
HETATM    1  C5  UNL     1      -3.506  27.142  56.124  1.00  0.00     0.095 C 
ENDROOT
BRANCH   1   2
HETATM    2  C4  UNL     1      -4.742  27.352  56.938  1.00  0.00     0.030 C 
BRANCH   2   3
HETATM    3  C2  UNL     1      -5.157  28.771  57.113  1.00  0.00    -0.021 C 
HETATM    4  C1  UNL     1      -6.460  28.992  56.327  1.00  0.00     0.009 C 
HETATM    5  C3  UNL     1      -5.500  29.152  58.537  1.00  0.00     0.009 C 
ENDBRANCH   2   3
ENDBRANCH   1   2
BRANCH   1   6
HETATM    6  C6  UNL     1      -2.494  26.251  56.792  1.00  0.00     0.158 C 
BRANCH   6   7
HETATM    7  N1  UNL     1      -1.427  25.977  55.825  1.00  0.00    -0.301 N 
ATOM      8  H1  UNL     1      -1.248  26.538  54.992  1.00  0.00     0.173 HD
BRANCH   7   9
HETATM    9  S1  UNL     1      -0.513  24.584  56.276  1.00  0.00     0.312 S 
HETATM   10  O1  UNL     1       0.521  24.952  57.272  1.00  0.00    -0.183 OA
HETATM   11  O2  UNL     1       0.197  24.082  55.035  1.00  0.00    -0.183 OA
BRANCH   9  12
HETATM   12  N2  UNL     1      -1.553  23.309  56.824  1.00  0.00    -0.312 N 
ATOM     13  H22 UNL     1      -2.246  22.850  56.233  1.00  0.00     0.170 HD
ATOM     14  H21 UNL     1      -1.375  23.088  57.804  1.00  0.00     0.170 HD
ENDBRANCH   9  12
ENDBRANCH   7   9
ENDBRANCH   6   7
ENDBRANCH   1   6
BRANCH   1  15
HETATM   15  N3  UNL     1      -3.822  26.843  54.792  1.00  0.00    -0.408 N 
ATOM     16  H3  UNL     1      -3.248  27.228  54.042  1.00  0.00     0.154 HD
BRANCH  15  17
HETATM   17  C7  UNL     1      -4.910  26.027  54.477  1.00  0.00     0.115 C 
HETATM   18  C8  UNL     1      -4.422  24.639  54.130  1.00  0.00     0.054 C 
HETATM   19  C9  UNL     1      -4.519  24.532  52.611  1.00  0.00     0.170 C 
HETATM   20  O3  UNL     1      -5.877  24.488  52.345  1.00  0.00    -0.383 OA
HETATM   21  C10 UNL     1      -6.516  25.693  52.554  1.00  0.00     0.153 C 
HETATM   22  C11 UNL     1      -7.892  25.354  53.103  1.00  0.00     0.042 C 
HETATM   23  C12 UNL     1      -5.804  26.644  53.448  1.00  0.00     0.221 C 
HETATM   24  F1  UNL     1      -5.057  27.535  52.697  1.00  0.00    -0.245 F 
ENDBRANCH  15  17
ENDBRANCH   1  15
TORSDOF 8
ENDMDL
MODEL 2
REMARK VINA RESULT: -7.410756688      1.587      2.035
REMARK  8 active torsions:
REMARK  status: ('A' for Active; 'I' for Inactive)
REMARK    1  A    between atoms: C2_2  and  C4_4 
REMARK    2  A    between atoms: C4_4  and  C5_5 
REMARK    3  A    between atoms: C5_5  and  C6_6 
REMARK    4  A    between atoms: C5_5  and  N3_15 
REMARK    5  A    between atoms: C6_6  and  N1_7 
REMARK    6  A    between atoms: N1_7  and  S1_9 
REMARK    7  A    between atoms: S1_9  and  N2_10 
REMARK    8  A    between atoms: N3_15  and  C7_17 
ROOT
HETATM    1  C5  UNL     1      -3.592  26.953  56.453  1.00  0.00     0.095 C 
ENDROOT
BRANCH   1   2
HETATM    2  C4  UNL     1      -4.052  27.743  57.635  1.00  0.00     0.030 C 
BRANCH   2   3
HETATM    3  C2  UNL     1      -5.520  27.974  57.716  1.00  0.00    -0.021 C 
HETATM    4  C1  UNL     1      -5.841  28.559  59.102  1.00  0.00     0.009 C 
HETATM    5  C3  UNL     1      -6.047  29.000  56.736  1.00  0.00     0.009 C 
ENDBRANCH   2   3
ENDBRANCH   1   2
BRANCH   1   6
HETATM    6  C6  UNL     1      -2.167  26.483  56.566  1.00  0.00     0.158 C 
BRANCH   6   7
HETATM    7  N1  UNL     1      -2.186  25.105  57.065  1.00  0.00    -0.301 N 
ATOM      8  H1  UNL     1      -2.922  24.717  57.656  1.00  0.00     0.173 HD
BRANCH   7   9
HETATM    9  S1  UNL     1      -0.804  24.222  56.527  1.00  0.00     0.312 S 
HETATM   10  O1  UNL     1      -0.961  22.783  56.844  1.00  0.00    -0.183 OA
HETATM   11  O2  UNL     1       0.396  24.738  57.296  1.00  0.00    -0.183 OA
BRANCH   9  12
HETATM   12  N2  UNL     1      -0.498  24.512  54.844  1.00  0.00    -0.312 N 
ATOM     13  H22 UNL     1      -0.688  25.400  54.379  1.00  0.00     0.170 HD
ATOM     14  H21 UNL     1      -0.108  23.683  54.395  1.00  0.00     0.170 HD
ENDBRANCH   9  12
ENDBRANCH   7   9
ENDBRANCH   6   7
ENDBRANCH   1   6
BRANCH   1  15
HETATM   15  N3  UNL     1      -4.542  25.992  56.085  1.00  0.00    -0.408 N 
ATOM     16  H3  UNL     1      -5.016  25.453  56.809  1.00  0.00     0.154 HD
BRANCH  15  17
HETATM   17  C7  UNL     1      -4.849  25.760  54.743  1.00  0.00     0.115 C 
HETATM   18  C8  UNL     1      -4.263  26.861  53.889  1.00  0.00     0.054 C 
HETATM   19  C9  UNL     1      -5.436  27.757  53.502  1.00  0.00     0.170 C 
HETATM   20  O3  UNL     1      -6.180  27.001  52.613  1.00  0.00    -0.383 OA
HETATM   21  C10 UNL     1      -6.849  25.952  53.210  1.00  0.00     0.153 C 
HETATM   22  C11 UNL     1      -6.826  24.809  52.210  1.00  0.00     0.042 C 
HETATM   23  C12 UNL     1      -6.309  25.521  54.527  1.00  0.00     0.221 C 
HETATM   24  F1  UNL     1      -7.009  26.133  55.552  1.00  0.00    -0.245 F 
ENDBRANCH  15  17
ENDBRANCH   1  15
TORSDOF 8
ENDMDL
MODEL 3
REMARK VINA RESULT: -7.396261895      1.433      1.851
REMARK  8 active torsions:
REMARK  status: ('A' for Active; 'I' for Inactive)
REMARK    1  A    between atoms: C2_2  and  C4_4 
REMARK    2  A    between atoms: C4_4  and  C5_5 
REMARK    3  A    between atoms: C5_5  and  C6_6 
REMARK    4  A    between atoms: C5_5  and  N3_15 
REMARK    5  A    between atoms: C6_6  and  N1_7 
REMARK    6  A    between atoms: N1_7  and  S1_9 
REMARK    7  A    between atoms: S1_9  and  N2_10 
REMARK    8  A    between atoms: N3_15  and  C7_17 
ROOT
HETATM    1  C5  UNL     1      -3.814  26.445  55.348  1.00  0.00     0.095 C 
ENDROOT
BRANCH   1   2
HETATM    2  C4  UNL     1      -3.880  27.298  56.573  1.00  0.00     0.030 C 
BRANCH   2   3
HETATM    3  C2  UNL     1      -5.251  27.665  57.023  1.00  0.00    -0.021 C 
HETATM    4  C1  UNL     1      -5.157  28.219  58.454  1.00  0.00     0.009 C 
HETATM    5  C3  UNL     1      -5.895  28.777  56.223  1.00  0.00     0.009 C 
ENDBRANCH   2   3
ENDBRANCH   1   2
BRANCH   1   6
HETATM    6  C6  UNL     1      -2.453  25.851  55.106  1.00  0.00     0.158 C 
BRANCH   6   7
HETATM    7  N1  UNL     1      -1.690  25.951  56.353  1.00  0.00    -0.301 N 
ATOM      8  H1  UNL     1      -1.835  26.672  57.060  1.00  0.00     0.173 HD
BRANCH   7   9
HETATM    9  S1  UNL     1      -0.515  24.692  56.474  1.00  0.00     0.312 S 
HETATM   10  O1  UNL     1       0.517  25.051  57.475  1.00  0.00    -0.183 OA
HETATM   11  O2  UNL     1       0.167  24.572  55.127  1.00  0.00    -0.183 OA
BRANCH   9  12
HETATM   12  N2  UNL     1      -1.271  23.166  56.804  1.00  0.00    -0.312 N 
ATOM     13  H22 UNL     1      -2.218  23.071  57.172  1.00  0.00     0.170 HD
ATOM     14  H21 UNL     1      -0.645  22.392  56.582  1.00  0.00     0.170 HD
ENDBRANCH   9  12
ENDBRANCH   7   9
ENDBRANCH   6   7
ENDBRANCH   1   6
BRANCH   1  15
HETATM   15  N3  UNL     1      -4.903  25.566  55.283  1.00  0.00    -0.408 N 
ATOM     16  H3  UNL     1      -5.228  25.107  56.133  1.00  0.00     0.154 HD
BRANCH  15  17
HETATM   17  C7  UNL     1      -5.549  25.310  54.071  1.00  0.00     0.115 C 
HETATM   18  C8  UNL     1      -5.106  26.316  53.034  1.00  0.00     0.054 C 
HETATM   19  C9  UNL     1      -6.262  27.300  52.888  1.00  0.00     0.170 C 
HETATM   20  O3  UNL     1      -7.261  26.582  52.255  1.00  0.00    -0.383 OA
HETATM   21  C10 UNL     1      -7.844  25.625  53.061  1.00  0.00     0.153 C 
HETATM   22  C11 UNL     1      -8.161  24.445  52.158  1.00  0.00     0.042 C 
HETATM   23  C12 UNL     1      -7.032  25.200  54.232  1.00  0.00     0.221 C 
HETATM   24  F1  UNL     1      -7.406  25.915  55.355  1.00  0.00    -0.245 F 
ENDBRANCH  15  17
ENDBRANCH   1  15
TORSDOF 8
ENDMDL
MODEL 4
REMARK VINA RESULT: -7.293679779      3.809      5.846
REMARK  8 active torsions:
REMARK  status: ('A' for Active; 'I' for Inactive)
REMARK    1  A    between atoms: C2_2  and  C4_4 
REMARK    2  A    between atoms: C4_4  and  C5_5 
REMARK    3  A    between atoms: C5_5  and  C6_6 
REMARK    4  A    between atoms: C5_5  and  N3_15 
REMARK    5  A    between atoms: C6_6  and  N1_7 
REMARK    6  A    between atoms: N1_7  and  S1_9 
REMARK    7  A    between atoms: S1_9  and  N2_10 
REMARK    8  A    between atoms: N3_15  and  C7_17 
ROOT
HETATM    1  C5  UNL     1      -4.470  25.587  53.956  1.00  0.00     0.095 C 
ENDROOT
BRANCH   1   2
HETATM    2  C4  UNL     1      -3.553  25.187  55.066  1.00  0.00     0.030 C 
BRANCH   2   3
HETATM    3  C2  UNL     1      -2.221  25.853  55.066  1.00  0.00    -0.021 C 
HETATM    4  C1  UNL     1      -1.707  25.904  56.515  1.00  0.00     0.009 C 
HETATM    5  C3  UNL     1      -1.148  25.106  54.305  1.00  0.00     0.009 C 
ENDBRANCH   2   3
ENDBRANCH   1   2
BRANCH   1   6
HETATM    6  C6  UNL     1      -5.143  24.420  53.286  1.00  0.00     0.158 C 
BRANCH   6   7
HETATM    7  N1  UNL     1      -5.951  24.941  52.180  1.00  0.00    -0.301 N 
ATOM      8  H1  UNL     1      -5.579  25.194  51.265  1.00  0.00     0.173 HD
BRANCH   7   9
HETATM    9  S1  UNL     1      -7.614  25.071  52.624  1.00  0.00     0.312 S 
HETATM   10  O1  UNL     1      -8.012  26.496  52.704  1.00  0.00    -0.183 OA
HETATM   11  O2  UNL     1      -7.767  24.468  54.006  1.00  0.00    -0.183 OA
BRANCH   9  12
HETATM   12  N2  UNL     1      -8.618  24.151  51.549  1.00  0.00    -0.312 N 
ATOM     13  H22 UNL     1      -9.495  24.496  51.160  1.00  0.00     0.170 HD
ATOM     14  H21 UNL     1      -8.213  23.232  51.367  1.00  0.00     0.170 HD
ENDBRANCH   9  12
ENDBRANCH   7   9
ENDBRANCH   6   7
ENDBRANCH   1   6
BRANCH   1  15
HETATM   15  N3  UNL     1      -5.296  26.651  54.340  1.00  0.00    -0.408 N 
ATOM     16  H3  UNL     1      -5.708  27.250  53.625  1.00  0.00     0.154 HD
BRANCH  15  17
HETATM   17  C7  UNL     1      -5.564  26.904  55.688  1.00  0.00     0.115 C 
HETATM   18  C8  UNL     1      -7.056  26.875  55.924  1.00  0.00     0.054 C 
HETATM   19  C9  UNL     1      -7.483  28.333  56.065  1.00  0.00     0.170 C 
HETATM   20  O3  UNL     1      -6.957  28.740  57.279  1.00  0.00    -0.383 OA
HETATM   21  C10 UNL     1      -5.584  28.880  57.263  1.00  0.00     0.153 C 
HETATM   22  C11 UNL     1      -5.096  28.434  58.632  1.00  0.00     0.042 C 
HETATM   23  C12 UNL     1      -4.882  28.141  56.180  1.00  0.00     0.221 C 
HETATM   24  F1  UNL     1      -4.660  28.977  55.100  1.00  0.00    -0.245 F 
ENDBRANCH  15  17
ENDBRANCH   1  15
TORSDOF 8
ENDMDL
MODEL 5
REMARK VINA RESULT: -7.238429798      3.221      4.546
REMARK  8 active torsions:
REMARK  status: ('A' for Active; 'I' for Inactive)
REMARK    1  A    between atoms: C2_2  and  C4_4 
REMARK    2  A    between atoms: C4_4  and  C5_5 
REMARK    3  A    between atoms: C5_5  and  C6_6 
REMARK    4  A    between atoms: C5_5  and  N3_15 
REMARK    5  A    between atoms: C6_6  and  N1_7 
REMARK    6  A    between atoms: N1_7  and  S1_9 
REMARK    7  A    between atoms: S1_9  and  N2_10 
REMARK    8  A    between atoms: N3_15  and  C7_17 
ROOT
HETATM    1  C5  UNL     1      -3.502  26.576  56.208  1.00  0.00     0.095 C 
ENDROOT
BRANCH   1   2
HETATM    2  C4  UNL     1      -2.046  26.295  56.395  1.00  0.00     0.030 C 
BRANCH   2   3
HETATM    3  C2  UNL     1      -1.592  24.953  55.936  1.00  0.00    -0.021 C 
HETATM    4  C1  UNL     1      -0.953  25.109  54.546  1.00  0.00     0.009 C 
HETATM    5  C3  UNL     1      -0.506  24.335  56.790  1.00  0.00     0.009 C 
ENDBRANCH   2   3
ENDBRANCH   1   2
BRANCH   1   6
HETATM    6  C6  UNL     1      -3.972  27.803  56.942  1.00  0.00     0.158 C 
BRANCH   6   7
HETATM    7  N1  UNL     1      -4.790  27.363  58.076  1.00  0.00    -0.301 N 
ATOM      8  H1  UNL     1      -4.461  26.743  58.816  1.00  0.00     0.173 HD
BRANCH   7   9
HETATM    9  S1  UNL     1      -6.381  28.028  57.999  1.00  0.00     0.312 S 
HETATM   10  O1  UNL     1      -7.262  27.154  57.188  1.00  0.00    -0.183 OA
HETATM   11  O2  UNL     1      -6.284  29.367  57.296  1.00  0.00    -0.183 OA
BRANCH   9  12
HETATM   12  N2  UNL     1      -7.007  28.328  59.589  1.00  0.00    -0.312 N 
ATOM     13  H22 UNL     1      -7.292  27.590  60.233  1.00  0.00     0.170 HD
ATOM     14  H21 UNL     1      -7.050  29.329  59.783  1.00  0.00     0.170 HD
ENDBRANCH   9  12
ENDBRANCH   7   9
ENDBRANCH   6   7
ENDBRANCH   1   6
BRANCH   1  15
HETATM   15  N3  UNL     1      -3.870  26.473  54.860  1.00  0.00    -0.408 N 
ATOM     16  H3  UNL     1      -3.287  26.909  54.147  1.00  0.00     0.154 HD
BRANCH  15  17
HETATM   17  C7  UNL     1      -5.022  25.781  54.480  1.00  0.00     0.115 C 
HETATM   18  C8  UNL     1      -4.658  24.375  54.063  1.00  0.00     0.054 C 
HETATM   19  C9  UNL     1      -4.729  24.361  52.539  1.00  0.00     0.170 C 
HETATM   20  O3  UNL     1      -6.079  24.460  52.247  1.00  0.00    -0.383 OA
HETATM   21  C10 UNL     1      -6.608  25.706  52.514  1.00  0.00     0.153 C 
HETATM   22  C11 UNL     1      -8.021  25.469  53.019  1.00  0.00     0.042 C 
HETATM   23  C12 UNL     1      -5.830  26.535  53.473  1.00  0.00     0.221 C 
HETATM   24  F1  UNL     1      -4.988  27.392  52.787  1.00  0.00    -0.245 F 
ENDBRANCH  15  17
ENDBRANCH   1  15
TORSDOF 8
ENDMDL
