MODEL 1
REMARK VINA RESULT: -7.701943243      0.000      0.000
REMARK  14 active torsions:
REMARK  status: ('A' for Active; 'I' for Inactive)
REMARK    1  A    between atoms: C4_4  and  C5_5 
REMARK    2  A    between atoms: C5_5  and  N1_6 
REMARK    3  A    between atoms: N1_6  and  C6_9 
REMARK    4  A    between atoms: C6_9  and  C7_10 
REMARK    5  A    between atoms: C7_10  and  C8_11 
REMARK    6  A    between atoms: C8_11  and  C9_12 
REMARK    7  A    between atoms: C9_12  and  C10_13 
REMARK    8  A    between atoms: C10_13  and  C11_14 
REMARK    9  A    between atoms: C11_14  and  C12_15 
REMARK   10  A    between atoms: C12_15  and  C13_16 
REMARK   11  A    between atoms: C13_16  and  C14_17 
REMARK   12  A    between atoms: C14_17  and  C15_18 
REMARK   13  A    between atoms: C15_18  and  C16_19 
REMARK   14  A    between atoms: C16_19  and  C17_20 
ROOT
HETATM    1  C9  UNL     1      22.777  -7.063  11.645  1.00  0.00     0.000 C 
ENDROOT
BRANCH   1   2
HETATM    2  C8  UNL     1      22.555  -7.789  10.355  1.00  0.00     0.002 C 
BRANCH   2   3
HETATM    3  C7  UNL     1      21.460  -8.790  10.478  1.00  0.00     0.027 C 
BRANCH   3   4
HETATM    4  C6  UNL     1      20.195  -8.449   9.768  1.00  0.00     0.232 C 
BRANCH   4   5
HETATM    5  N1  UNL     1      20.328  -7.270   8.942  1.00  0.00    -0.071 N 
ATOM      6  H12 UNL     1      20.149  -7.494   7.962  1.00  0.00     0.277 HD
ATOM      7  H11 UNL     1      21.305  -6.985   8.875  1.00  0.00     0.277 HD
BRANCH   5   8
HETATM    8  C5  UNL     1      19.503  -6.169   9.372  1.00  0.00     0.270 C 
BRANCH   8   9
HETATM    9  C4  UNL     1      20.336  -4.980   9.581  1.00  0.00    -0.033 A 
HETATM   10  C3  UNL     1      21.045  -4.451   8.535  1.00  0.00     0.009 A 
HETATM   11  C2  UNL     1      21.842  -3.343   8.677  1.00  0.00     0.001 A 
HETATM   12  C1  UNL     1      21.931  -2.737   9.921  1.00  0.00     0.000 A 
HETATM   13  C21 UNL     1      21.234  -3.237  10.997  1.00  0.00     0.001 A 
HETATM   14  C20 UNL     1      20.447  -4.349  10.818  1.00  0.00     0.009 A 
ENDBRANCH   8   9
ENDBRANCH   5   8
ENDBRANCH   4   5
ENDBRANCH   3   4
ENDBRANCH   2   3
ENDBRANCH   1   2
BRANCH   1  15
HETATM   15  C10 UNL     1      22.105  -7.809  12.802  1.00  0.00     0.000 C 
BRANCH  15  16
HETATM   16  C11 UNL     1      23.226  -8.433  13.596  1.00  0.00     0.000 C 
BRANCH  16  17
HETATM   17  C12 UNL     1      22.789  -9.678  14.337  1.00  0.00     0.000 C 
BRANCH  17  18
HETATM   18  C13 UNL     1      23.189  -9.633  15.788  1.00  0.00     0.000 C 
BRANCH  18  19
HETATM   19  C14 UNL     1      23.946 -10.876  16.208  1.00  0.00     0.000 C 
BRANCH  19  20
HETATM   20  C15 UNL     1      24.661 -11.534  15.095  1.00  0.00     0.006 C 
BRANCH  20  21
HETATM   21  C16 UNL     1      24.500 -13.008  15.079  1.00  0.00     0.058 C 
BRANCH  21  22
HETATM   22  C17 UNL     1      25.598 -13.797  15.644  1.00  0.00     0.025 A 
HETATM   23  C18 UNL     1      25.411 -14.848  16.516  1.00  0.00     0.113 A 
HETATM   24  N2  UNL     1      26.613 -15.353  16.866  1.00  0.00    -0.360 N 
HETATM   25  C19 UNL     1      27.541 -14.637  16.229  1.00  0.00     0.180 A 
ATOM     26  H2  UNL     1      26.781 -16.135  17.499  1.00  0.00     0.166 HD
HETATM   27  N3  UNL     1      26.911 -13.684  15.480  1.00  0.00    -0.355 N 
ATOM     28  H3  UNL     1      27.376 -12.995  14.889  1.00  0.00     0.166 HD
ENDBRANCH  21  22
ENDBRANCH  20  21
ENDBRANCH  19  20
ENDBRANCH  18  19
ENDBRANCH  17  18
ENDBRANCH  16  17
ENDBRANCH  15  16
ENDBRANCH   1  15
TORSDOF 14
ENDMDL
MODEL 2
REMARK VINA RESULT: -7.597764882      1.323      2.345
REMARK  14 active torsions:
REMARK  status: ('A' for Active; 'I' for Inactive)
REMARK    1  A    between atoms: C4_4  and  C5_5 
REMARK    2  A    between atoms: C5_5  and  N1_6 
REMARK    3  A    between atoms: N1_6  and  C6_9 
REMARK    4  A    between atoms: C6_9  and  C7_10 
REMARK    5  A    between atoms: C7_10  and  C8_11 
REMARK    6  A    between atoms: C8_11  and  C9_12 
REMARK    7  A    between atoms: C9_12  and  C10_13 
REMARK    8  A    between atoms: C10_13  and  C11_14 
REMARK    9  A    between atoms: C11_14  and  C12_15 
REMARK   10  A    between atoms: C12_15  and  C13_16 
REMARK   11  A    between atoms: C13_16  and  C14_17 
REMARK   12  A    between atoms: C14_17  and  C15_18 
REMARK   13  A    between atoms: C15_18  and  C16_19 
REMARK   14  A    between atoms: C16_19  and  C17_20 
ROOT
HETATM    1  C9  UNL     1      21.352  -8.764  10.939  1.00  0.00     0.000 C 
ENDROOT
BRANCH   1   2
HETATM    2  C8  UNL     1      20.430  -8.565   9.777  1.00  0.00     0.002 C 
BRANCH   2   3
HETATM    3  C7  UNL     1      19.746  -7.244   9.848  1.00  0.00     0.027 C 
BRANCH   3   4
HETATM    4  C6  UNL     1      20.006  -6.323   8.706  1.00  0.00     0.232 C 
BRANCH   4   5
HETATM    5  N1  UNL     1      20.573  -5.063   9.133  1.00  0.00    -0.071 N 
ATOM      6  H12 UNL     1      20.122  -4.284   8.653  1.00  0.00     0.277 HD
ATOM      7  H11 UNL     1      21.522  -4.955   8.776  1.00  0.00     0.277 HD
BRANCH   5   8
HETATM    8  C5  UNL     1      20.540  -4.872  10.562  1.00  0.00     0.270 C 
BRANCH   8   9
HETATM    9  C4  UNL     1      21.353  -3.705  10.922  1.00  0.00    -0.033 A 
HETATM   10  C3  UNL     1      20.782  -2.460  10.957  1.00  0.00     0.009 A 
HETATM   11  C2  UNL     1      21.497  -1.336  11.284  1.00  0.00     0.001 A 
HETATM   12  C1  UNL     1      22.844  -1.464  11.592  1.00  0.00     0.000 A 
HETATM   13  C21 UNL     1      23.454  -2.698  11.570  1.00  0.00     0.001 A 
HETATM   14  C20 UNL     1      22.707  -3.801  11.236  1.00  0.00     0.009 A 
ENDBRANCH   8   9
ENDBRANCH   5   8
ENDBRANCH   4   5
ENDBRANCH   3   4
ENDBRANCH   2   3
ENDBRANCH   1   2
BRANCH   1  15
HETATM   15  C10 UNL     1      22.655  -7.985  10.729  1.00  0.00     0.000 C 
BRANCH  15  16
HETATM   16  C11 UNL     1      22.994  -7.380  12.069  1.00  0.00     0.000 C 
BRANCH  16  17
HETATM   17  C12 UNL     1      22.362  -8.131  13.221  1.00  0.00     0.000 C 
BRANCH  17  18
HETATM   18  C13 UNL     1      23.344  -9.063  13.884  1.00  0.00     0.000 C 
BRANCH  18  19
HETATM   19  C14 UNL     1      22.907  -9.446  15.283  1.00  0.00     0.000 C 
BRANCH  19  20
HETATM   20  C15 UNL     1      23.990 -10.041  16.094  1.00  0.00     0.006 C 
BRANCH  20  21
HETATM   21  C16 UNL     1      25.027 -10.725  15.283  1.00  0.00     0.058 C 
BRANCH  21  22
HETATM   22  C17 UNL     1      25.034 -12.190  15.321  1.00  0.00     0.025 A 
HETATM   23  C18 UNL     1      26.116 -12.937  15.731  1.00  0.00     0.113 A 
HETATM   24  N2  UNL     1      25.813 -14.249  15.632  1.00  0.00    -0.360 N 
HETATM   25  C19 UNL     1      24.564 -14.330  15.170  1.00  0.00     0.180 A 
ATOM     26  H2  UNL     1      26.423 -15.032  15.867  1.00  0.00     0.166 HD
HETATM   27  N3  UNL     1      24.091 -13.062  14.982  1.00  0.00    -0.355 N 
ATOM     28  H3  UNL     1      23.162 -12.824  14.635  1.00  0.00     0.166 HD
ENDBRANCH  21  22
ENDBRANCH  20  21
ENDBRANCH  19  20
ENDBRANCH  18  19
ENDBRANCH  17  18
ENDBRANCH  16  17
ENDBRANCH  15  16
ENDBRANCH   1  15
TORSDOF 14
ENDMDL
MODEL 3
REMARK VINA RESULT: -7.559567572      1.147      1.621
REMARK  14 active torsions:
REMARK  status: ('A' for Active; 'I' for Inactive)
REMARK    1  A    between atoms: C4_4  and  C5_5 
REMARK    2  A    between atoms: C5_5  and  N1_6 
REMARK    3  A    between atoms: N1_6  and  C6_9 
REMARK    4  A    between atoms: C6_9  and  C7_10 
REMARK    5  A    between atoms: C7_10  and  C8_11 
REMARK    6  A    between atoms: C8_11  and  C9_12 
REMARK    7  A    between atoms: C9_12  and  C10_13 
REMARK    8  A    between atoms: C10_13  and  C11_14 
REMARK    9  A    between atoms: C11_14  and  C12_15 
REMARK   10  A    between atoms: C12_15  and  C13_16 
REMARK   11  A    between atoms: C13_16  and  C14_17 
REMARK   12  A    between atoms: C14_17  and  C15_18 
REMARK   13  A    between atoms: C15_18  and  C16_19 
REMARK   14  A    between atoms: C16_19  and  C17_20 
ROOT
HETATM    1  C9  UNL     1      22.717  -7.661  12.798  1.00  0.00     0.000 C 
ENDROOT
BRANCH   1   2
HETATM    2  C8  UNL     1      22.660  -7.271  11.353  1.00  0.00     0.002 C 
BRANCH   2   3
HETATM    3  C7  UNL     1      22.007  -8.327  10.532  1.00  0.00     0.027 C 
BRANCH   3   4
HETATM    4  C6  UNL     1      20.542  -8.160  10.318  1.00  0.00     0.232 C 
BRANCH   4   5
HETATM    5  N1  UNL     1      20.242  -7.422   9.111  1.00  0.00    -0.071 N 
ATOM      6  H12 UNL     1      19.820  -8.032   8.411  1.00  0.00     0.277 HD
ATOM      7  H11 UNL     1      21.099  -7.168   8.621  1.00  0.00     0.277 HD
BRANCH   5   8
HETATM    8  C5  UNL     1      19.420  -6.258   9.337  1.00  0.00     0.270 C 
BRANCH   8   9
HETATM    9  C4  UNL     1      20.273  -5.084   9.545  1.00  0.00    -0.033 A 
HETATM   10  C3  UNL     1      21.008  -4.581   8.504  1.00  0.00     0.009 A 
HETATM   11  C2  UNL     1      21.824  -3.487   8.646  1.00  0.00     0.001 A 
HETATM   12  C1  UNL     1      21.907  -2.869   9.885  1.00  0.00     0.000 A 
HETATM   13  C21 UNL     1      21.184  -3.343  10.955  1.00  0.00     0.001 A 
HETATM   14  C20 UNL     1      20.378  -4.441  10.777  1.00  0.00     0.009 A 
ENDBRANCH   8   9
ENDBRANCH   5   8
ENDBRANCH   4   5
ENDBRANCH   3   4
ENDBRANCH   2   3
ENDBRANCH   1   2
BRANCH   1  15
HETATM   15  C10 UNL     1      22.725  -9.186  12.940  1.00  0.00     0.000 C 
BRANCH  15  16
HETATM   16  C11 UNL     1      22.650  -9.462  14.422  1.00  0.00     0.000 C 
BRANCH  16  17
HETATM   17  C12 UNL     1      23.931  -9.105  15.144  1.00  0.00     0.000 C 
BRANCH  17  18
HETATM   18  C13 UNL     1      24.888 -10.268  15.191  1.00  0.00     0.000 C 
BRANCH  18  19
HETATM   19  C14 UNL     1      24.192 -11.562  15.557  1.00  0.00     0.000 C 
BRANCH  19  20
HETATM   20  C15 UNL     1      24.949 -12.769  15.164  1.00  0.00     0.006 C 
BRANCH  20  21
HETATM   21  C16 UNL     1      24.101 -13.978  15.025  1.00  0.00     0.058 C 
BRANCH  21  22
HETATM   22  C17 UNL     1      24.215 -14.988  16.080  1.00  0.00     0.025 A 
HETATM   23  C18 UNL     1      25.391 -15.273  16.738  1.00  0.00     0.113 A 
HETATM   24  N2  UNL     1      25.171 -16.258  17.634  1.00  0.00    -0.360 N 
HETATM   25  C19 UNL     1      23.882 -16.589  17.546  1.00  0.00     0.180 A 
ATOM     26  H2  UNL     1      25.861 -16.672  18.262  1.00  0.00     0.166 HD
HETATM   27  N3  UNL     1      23.301 -15.805  16.590  1.00  0.00    -0.355 N 
ATOM     28  H3  UNL     1      22.319 -15.842  16.313  1.00  0.00     0.166 HD
ENDBRANCH  21  22
ENDBRANCH  20  21
ENDBRANCH  19  20
ENDBRANCH  18  19
ENDBRANCH  17  18
ENDBRANCH  16  17
ENDBRANCH  15  16
ENDBRANCH   1  15
TORSDOF 14
ENDMDL
MODEL 4
REMARK VINA RESULT: -7.542889597      1.424      2.502
REMARK  14 active torsions:
REMARK  status: ('A' for Active; 'I' for Inactive)
REMARK    1  A    between atoms: C4_4  and  C5_5 
REMARK    2  A    between atoms: C5_5  and  N1_6 
REMARK    3  A    between atoms: N1_6  and  C6_9 
REMARK    4  A    between atoms: C6_9  and  C7_10 
REMARK    5  A    between atoms: C7_10  and  C8_11 
REMARK    6  A    between atoms: C8_11  and  C9_12 
REMARK    7  A    between atoms: C9_12  and  C10_13 
REMARK    8  A    between atoms: C10_13  and  C11_14 
REMARK    9  A    between atoms: C11_14  and  C12_15 
REMARK   10  A    between atoms: C12_15  and  C13_16 
REMARK   11  A    between atoms: C13_16  and  C14_17 
REMARK   12  A    between atoms: C14_17  and  C15_18 
REMARK   13  A    between atoms: C15_18  and  C16_19 
REMARK   14  A    between atoms: C16_19  and  C17_20 
ROOT
HETATM    1  C9  UNL     1      20.978  -8.668  10.687  1.00  0.00     0.000 C 
ENDROOT
BRANCH   1   2
HETATM    2  C8  UNL     1      20.090  -8.390   9.515  1.00  0.00     0.002 C 
BRANCH   2   3
HETATM    3  C7  UNL     1      20.114  -6.947   9.147  1.00  0.00     0.027 C 
BRANCH   3   4
HETATM    4  C6  UNL     1      19.142  -6.083   9.873  1.00  0.00     0.232 C 
BRANCH   4   5
HETATM    5  N1  UNL     1      19.795  -5.055  10.652  1.00  0.00    -0.071 N 
ATOM      6  H12 UNL     1      19.665  -5.222  11.650  1.00  0.00     0.277 HD
ATOM      7  H11 UNL     1      19.302  -4.167  10.564  1.00  0.00     0.277 HD
BRANCH   5   8
HETATM    8  C5  UNL     1      21.194  -4.896  10.339  1.00  0.00     0.270 C 
BRANCH   8   9
HETATM    9  C4  UNL     1      21.647  -3.568  10.765  1.00  0.00    -0.033 A 
HETATM   10  C3  UNL     1      22.884  -3.420  11.336  1.00  0.00     0.009 A 
HETATM   11  C2  UNL     1      23.356  -2.202  11.755  1.00  0.00     0.001 A 
HETATM   12  C1  UNL     1      22.554  -1.081  11.594  1.00  0.00     0.000 A 
HETATM   13  C21 UNL     1      21.305  -1.188  11.024  1.00  0.00     0.001 A 
HETATM   14  C20 UNL     1      20.866  -2.424  10.617  1.00  0.00     0.009 A 
ENDBRANCH   8   9
ENDBRANCH   5   8
ENDBRANCH   4   5
ENDBRANCH   3   4
ENDBRANCH   2   3
ENDBRANCH   1   2
BRANCH   1  15
HETATM   15  C10 UNL     1      22.418  -8.246  10.380  1.00  0.00     0.000 C 
BRANCH  15  16
HETATM   16  C11 UNL     1      23.037  -7.896  11.712  1.00  0.00     0.000 C 
BRANCH  16  17
HETATM   17  C12 UNL     1      22.030  -7.907  12.841  1.00  0.00     0.000 C 
BRANCH  17  18
HETATM   18  C13 UNL     1      22.239  -9.081  13.762  1.00  0.00     0.000 C 
BRANCH  18  19
HETATM   19  C14 UNL     1      23.530  -8.967  14.544  1.00  0.00     0.000 C 
BRANCH  19  20
HETATM   20  C15 UNL     1      23.778 -10.115  15.442  1.00  0.00     0.006 C 
BRANCH  20  21
HETATM   21  C16 UNL     1      25.052 -10.821  15.158  1.00  0.00     0.058 C 
BRANCH  21  22
HETATM   22  C17 UNL     1      25.042 -12.279  15.293  1.00  0.00     0.025 A 
HETATM   23  C18 UNL     1      26.129 -13.014  15.713  1.00  0.00     0.113 A 
HETATM   24  N2  UNL     1      25.806 -14.325  15.713  1.00  0.00    -0.360 N 
HETATM   25  C19 UNL     1      24.540 -14.417  15.302  1.00  0.00     0.180 A 
ATOM     26  H2  UNL     1      26.415 -15.099  15.977  1.00  0.00     0.166 HD
HETATM   27  N3  UNL     1      24.077 -13.159  15.046  1.00  0.00    -0.355 N 
ATOM     28  H3  UNL     1      23.138 -12.930  14.718  1.00  0.00     0.166 HD
ENDBRANCH  21  22
ENDBRANCH  20  21
ENDBRANCH  19  20
ENDBRANCH  18  19
ENDBRANCH  17  18
ENDBRANCH  16  17
ENDBRANCH  15  16
ENDBRANCH   1  15
TORSDOF 14
ENDMDL
MODEL 5
REMARK VINA RESULT: -7.527141167      1.573      2.633
REMARK  14 active torsions:
REMARK  status: ('A' for Active; 'I' for Inactive)
REMARK    1  A    between atoms: C4_4  and  C5_5 
REMARK    2  A    between atoms: C5_5  and  N1_6 
REMARK    3  A    between atoms: N1_6  and  C6_9 
REMARK    4  A    between atoms: C6_9  and  C7_10 
REMARK    5  A    between atoms: C7_10  and  C8_11 
REMARK    6  A    between atoms: C8_11  and  C9_12 
REMARK    7  A    between atoms: C9_12  and  C10_13 
REMARK    8  A    between atoms: C10_13  and  C11_14 
REMARK    9  A    between atoms: C11_14  and  C12_15 
REMARK   10  A    between atoms: C12_15  and  C13_16 
REMARK   11  A    between atoms: C13_16  and  C14_17 
REMARK   12  A    between atoms: C14_17  and  C15_18 
REMARK   13  A    between atoms: C15_18  and  C16_19 
REMARK   14  A    between atoms: C16_19  and  C17_20 
ROOT
HETATM    1  C9  UNL     1      21.056  -6.357  11.355  1.00  0.00     0.000 C 
ENDROOT
BRANCH   1   2
HETATM    2  C8  UNL     1      20.373  -6.874  10.127  1.00  0.00     0.002 C 
BRANCH   2   3
HETATM    3  C7  UNL     1      20.039  -5.769   9.186  1.00  0.00     0.027 C 
BRANCH   3   4
HETATM    4  C6  UNL     1      21.043  -5.510   8.116  1.00  0.00     0.232 C 
BRANCH   4   5
HETATM    5  N1  UNL     1      21.868  -4.359   8.403  1.00  0.00    -0.071 N 
ATOM      6  H12 UNL     1      22.524  -4.185   7.640  1.00  0.00     0.277 HD
ATOM      7  H11 UNL     1      22.530  -4.566   9.151  1.00  0.00     0.277 HD
BRANCH   5   8
HETATM    8  C5  UNL     1      21.112  -3.169   8.706  1.00  0.00     0.270 C 
BRANCH   8   9
HETATM    9  C4  UNL     1      21.645  -2.541   9.920  1.00  0.00    -0.033 A 
HETATM   10  C3  UNL     1      22.732  -3.087  10.550  1.00  0.00     0.009 A 
HETATM   11  C2  UNL     1      23.268  -2.542  11.689  1.00  0.00     0.001 A 
HETATM   12  C1  UNL     1      22.691  -1.398  12.220  1.00  0.00     0.000 A 
HETATM   13  C21 UNL     1      21.598  -0.818  11.616  1.00  0.00     0.001 A 
HETATM   14  C20 UNL     1      21.088  -1.392  10.477  1.00  0.00     0.009 A 
ENDBRANCH   8   9
ENDBRANCH   5   8
ENDBRANCH   4   5
ENDBRANCH   3   4
ENDBRANCH   2   3
ENDBRANCH   1   2
BRANCH   1  15
HETATM   15  C10 UNL     1      22.540  -6.734  11.340  1.00  0.00     0.000 C 
BRANCH  15  16
HETATM   16  C11 UNL     1      22.755  -7.610  12.550  1.00  0.00     0.000 C 
BRANCH  16  17
HETATM   17  C12 UNL     1      22.094  -8.965  12.410  1.00  0.00     0.000 C 
BRANCH  17  18
HETATM   18  C13 UNL     1      22.399  -9.858  13.584  1.00  0.00     0.000 C 
BRANCH  18  19
HETATM   19  C14 UNL     1      23.256  -9.162  14.620  1.00  0.00     0.000 C 
BRANCH  19  20
HETATM   20  C15 UNL     1      23.856 -10.087  15.605  1.00  0.00     0.006 C 
BRANCH  20  21
HETATM   21  C16 UNL     1      25.028 -10.830  15.080  1.00  0.00     0.058 C 
BRANCH  21  22
HETATM   22  C17 UNL     1      25.039 -12.279  15.292  1.00  0.00     0.025 A 
HETATM   23  C18 UNL     1      26.117 -12.967  15.803  1.00  0.00     0.113 A 
HETATM   24  N2  UNL     1      25.821 -14.282  15.858  1.00  0.00    -0.360 N 
HETATM   25  C19 UNL     1      24.580 -14.424  15.391  1.00  0.00     0.180 A 
ATOM     26  H2  UNL     1      26.431 -15.028  16.193  1.00  0.00     0.166 HD
HETATM   27  N3  UNL     1      24.105 -13.191  15.046  1.00  0.00    -0.355 N 
ATOM     28  H3  UNL     1      23.180 -13.001  14.659  1.00  0.00     0.166 HD
ENDBRANCH  21  22
ENDBRANCH  20  21
ENDBRANCH  19  20
ENDBRANCH  18  19
ENDBRANCH  17  18
ENDBRANCH  16  17
ENDBRANCH  15  16
ENDBRANCH   1  15
TORSDOF 14
ENDMDL
