MODEL 1
REMARK VINA RESULT: -7.577778765      0.000      0.000
REMARK  1 active torsions:
REMARK  status: ('A' for Active; 'I' for Inactive)
REMARK    1  A    between atoms: O1_2  and  C2_3 
ROOT
HETATM    1  C2  UNL     1      32.534  17.516  -0.307  1.00  0.00     0.260 C 
HETATM    2  C3  UNL     1      31.880  16.928   0.920  1.00  0.00     0.067 C 
HETATM    3  C4  UNL     1      30.823  15.924   0.589  1.00  0.00     0.018 C 
HETATM    4  C5  UNL     1      29.608  15.998   1.461  1.00  0.00     0.012 C 
HETATM    5  C6  UNL     1      30.469  16.159  -0.888  1.00  0.00     0.155 C 
HETATM    6  O2  UNL     1      29.402  15.365  -1.178  1.00  0.00    -0.371 OA
HETATM    7  C7  UNL     1      29.164  15.122  -2.498  1.00  0.00     0.196 C 
HETATM    8  C8  UNL     1      30.067  15.838  -3.451  1.00  0.00     0.169 C 
HETATM    9  O3  UNL     1      29.849  15.283  -4.746  1.00  0.00    -0.321 OA
HETATM   10  C9  UNL     1      28.643  14.705  -5.093  1.00  0.00     0.195 A 
HETATM   11  O4  UNL     1      28.284  14.079  -6.188  1.00  0.00    -0.300 OA
HETATM   12  C10 UNL     1      27.043  13.680  -6.117  1.00  0.00     0.145 A 
HETATM   13  C11 UNL     1      26.546  14.068  -4.895  1.00  0.00     0.040 A 
HETATM   14  C12 UNL     1      27.555  14.715  -4.246  1.00  0.00     0.044 A 
HETATM   15  C13 UNL     1      27.728  15.383  -2.920  1.00  0.00     0.160 C 
HETATM   16  C14 UNL     1      27.483  16.870  -3.159  1.00  0.00     0.060 C 
HETATM   17  F1  UNL     1      26.821  14.881  -2.015  1.00  0.00    -0.235 F 
HETATM   18  C15 UNL     1      31.511  15.660  -3.120  1.00  0.00     0.045 C 
HETATM   19  C16 UNL     1      31.943  14.282  -3.600  1.00  0.00     0.015 C 
HETATM   20  C17 UNL     1      31.736  15.779  -1.626  1.00  0.00     0.160 C 
HETATM   21  O5  UNL     1      32.763  16.617  -1.306  1.00  0.00    -0.353 OA
ENDROOT
BRANCH   1  22
HETATM   22  O1  UNL     1      33.758  18.046   0.097  1.00  0.00    -0.366 OA
HETATM   23  C1  UNL     1      33.688  18.647   1.344  1.00  0.00     0.204 C 
ENDBRANCH   1  22
TORSDOF 1
ENDMDL
MODEL 2
REMARK VINA RESULT: -7.291013359      1.798      2.210
REMARK  1 active torsions:
REMARK  status: ('A' for Active; 'I' for Inactive)
REMARK    1  A    between atoms: O1_2  and  C2_3 
ROOT
HETATM    1  C2  UNL     1      31.072  18.151   0.880  1.00  0.00     0.260 C 
HETATM    2  C3  UNL     1      30.033  17.348   1.624  1.00  0.00     0.067 C 
HETATM    3  C4  UNL     1      29.657  16.087   0.915  1.00  0.00     0.018 C 
HETATM    4  C5  UNL     1      28.197  15.761   0.970  1.00  0.00     0.012 C 
HETATM    5  C6  UNL     1      30.139  16.261  -0.534  1.00  0.00     0.155 C 
HETATM    6  O2  UNL     1      29.676  15.195  -1.243  1.00  0.00    -0.371 OA
HETATM    7  C7  UNL     1      30.289  14.943  -2.434  1.00  0.00     0.196 C 
HETATM    8  C8  UNL     1      31.337  15.932  -2.834  1.00  0.00     0.169 C 
HETATM    9  O3  UNL     1      32.037  15.387  -3.949  1.00  0.00    -0.321 OA
HETATM   10  C9  UNL     1      31.438  14.488  -4.812  1.00  0.00     0.195 A 
HETATM   11  O4  UNL     1      31.935  13.824  -5.828  1.00  0.00    -0.300 OA
HETATM   12  C10 UNL     1      31.028  13.071  -6.387  1.00  0.00     0.145 A 
HETATM   13  C11 UNL     1      29.852  13.244  -5.695  1.00  0.00     0.040 A 
HETATM   14  C12 UNL     1      30.109  14.139  -4.700  1.00  0.00     0.044 A 
HETATM   15  C13 UNL     1      29.327  14.777  -3.597  1.00  0.00     0.160 C 
HETATM   16  C14 UNL     1      28.867  16.130  -4.132  1.00  0.00     0.060 C 
HETATM   17  F1  UNL     1      28.245  13.993  -3.269  1.00  0.00    -0.235 F 
HETATM   18  C15 UNL     1      32.335  16.182  -1.753  1.00  0.00     0.045 C 
HETATM   19  C16 UNL     1      33.312  15.016  -1.728  1.00  0.00     0.015 C 
HETATM   20  C17 UNL     1      31.648  16.306  -0.407  1.00  0.00     0.160 C 
HETATM   21  O5  UNL     1      32.051  17.401   0.299  1.00  0.00    -0.353 OA
ENDROOT
BRANCH   1  22
HETATM   22  O1  UNL     1      31.666  19.008   1.805  1.00  0.00    -0.366 OA
HETATM   23  C1  UNL     1      33.028  19.153   1.594  1.00  0.00     0.204 C 
ENDBRANCH   1  22
TORSDOF 1
ENDMDL
MODEL 3
REMARK VINA RESULT: -7.208122971      2.478      4.609
REMARK  1 active torsions:
REMARK  status: ('A' for Active; 'I' for Inactive)
REMARK    1  A    between atoms: O1_2  and  C2_3 
ROOT
HETATM    1  C2  UNL     1      27.013  15.034  -0.070  1.00  0.00     0.260 C 
HETATM    2  C3  UNL     1      28.026  15.645   0.869  1.00  0.00     0.067 C 
HETATM    3  C4  UNL     1      29.202  16.226   0.153  1.00  0.00     0.018 C 
HETATM    4  C5  UNL     1      30.515  15.988   0.831  1.00  0.00     0.012 C 
HETATM    5  C6  UNL     1      29.180  15.615  -1.257  1.00  0.00     0.155 C 
HETATM    6  O2  UNL     1      30.324  16.004  -1.883  1.00  0.00    -0.371 OA
HETATM    7  C7  UNL     1      30.339  15.905  -3.243  1.00  0.00     0.196 C 
HETATM    8  C8  UNL     1      29.115  15.297  -3.851  1.00  0.00     0.169 C 
HETATM    9  O3  UNL     1      29.190  15.502  -5.259  1.00  0.00    -0.321 OA
HETATM   10  C9  UNL     1      30.403  15.638  -5.908  1.00  0.00     0.195 A 
HETATM   11  O4  UNL     1      30.670  15.910  -7.163  1.00  0.00    -0.300 OA
HETATM   12  C10 UNL     1      31.958  15.950  -7.372  1.00  0.00     0.145 A 
HETATM   13  C11 UNL     1      32.587  15.688  -6.177  1.00  0.00     0.040 A 
HETATM   14  C12 UNL     1      31.606  15.491  -5.251  1.00  0.00     0.044 A 
HETATM   15  C13 UNL     1      31.552  15.174  -3.791  1.00  0.00     0.160 C 
HETATM   16  C14 UNL     1      31.379  13.661  -3.692  1.00  0.00     0.060 C 
HETATM   17  F1  UNL     1      32.718  15.569  -3.177  1.00  0.00    -0.235 F 
HETATM   18  C15 UNL     1      27.855  15.934  -3.369  1.00  0.00     0.045 C 
HETATM   19  C16 UNL     1      27.678  17.255  -4.103  1.00  0.00     0.015 C 
HETATM   20  C17 UNL     1      27.918  16.181  -1.874  1.00  0.00     0.160 C 
HETATM   21  O5  UNL     1      26.807  15.745  -1.214  1.00  0.00    -0.353 OA
ENDROOT
BRANCH   1  22
HETATM   22  O1  UNL     1      25.807  14.958   0.624  1.00  0.00    -0.366 OA
HETATM   23  C1  UNL     1      25.985  14.648   1.963  1.00  0.00     0.204 C 
ENDBRANCH   1  22
TORSDOF 1
ENDMDL
MODEL 4
REMARK VINA RESULT: -7.199416587      2.709      7.169
REMARK  1 active torsions:
REMARK  status: ('A' for Active; 'I' for Inactive)
REMARK    1  A    between atoms: O1_2  and  C2_3 
ROOT
HETATM    1  C2  UNL     1      29.652  15.019  -2.592  1.00  0.00     0.260 C 
HETATM    2  C3  UNL     1      30.971  14.296  -2.722  1.00  0.00     0.067 C 
HETATM    3  C4  UNL     1      31.916  14.610  -1.608  1.00  0.00     0.018 C 
HETATM    4  C5  UNL     1      33.342  14.771  -2.037  1.00  0.00     0.012 C 
HETATM    5  C6  UNL     1      31.380  15.893  -0.952  1.00  0.00     0.155 C 
HETATM    6  O2  UNL     1      32.302  16.291  -0.033  1.00  0.00    -0.371 OA
HETATM    7  C7  UNL     1      31.874  17.165   0.921  1.00  0.00     0.196 C 
HETATM    8  C8  UNL     1      30.461  17.632   0.770  1.00  0.00     0.169 C 
HETATM    9  O3  UNL     1      30.108  18.322   1.966  1.00  0.00    -0.321 OA
HETATM   10  C9  UNL     1      31.059  18.946   2.751  1.00  0.00     0.195 A 
HETATM   11  O4  UNL     1      30.943  19.550   3.909  1.00  0.00    -0.300 OA
HETATM   12  C10 UNL     1      32.094  20.010   4.317  1.00  0.00     0.145 A 
HETATM   13  C11 UNL     1      33.036  19.690   3.368  1.00  0.00     0.040 A 
HETATM   14  C12 UNL     1      32.385  19.017   2.378  1.00  0.00     0.044 A 
HETATM   15  C13 UNL     1      32.761  18.388   1.075  1.00  0.00     0.160 C 
HETATM   16  C14 UNL     1      32.462  19.429  -0.001  1.00  0.00     0.060 C 
HETATM   17  F1  UNL     1      34.099  18.063   1.075  1.00  0.00    -0.235 F 
HETATM   18  C15 UNL     1      29.498  16.506   0.597  1.00  0.00     0.045 C 
HETATM   19  C16 UNL     1      29.245  15.882   1.961  1.00  0.00     0.015 C 
HETATM   20  C17 UNL     1      30.058  15.462  -0.349  1.00  0.00     0.160 C 
HETATM   21  O5  UNL     1      29.173  15.089  -1.317  1.00  0.00    -0.353 OA
ENDROOT
BRANCH   1  22
HETATM   22  O1  UNL     1      28.727  14.325  -3.370  1.00  0.00    -0.366 OA
HETATM   23  C1  UNL     1      27.444  14.386  -2.849  1.00  0.00     0.204 C 
ENDBRANCH   1  22
TORSDOF 1
ENDMDL
MODEL 5
REMARK VINA RESULT: -7.149784287      2.146      6.321
REMARK  1 active torsions:
REMARK  status: ('A' for Active; 'I' for Inactive)
REMARK    1  A    between atoms: O1_2  and  C2_3 
ROOT
HETATM    1  C2  UNL     1      29.797  12.470  -2.558  1.00  0.00     0.260 C 
HETATM    2  C3  UNL     1      28.716  13.284  -3.226  1.00  0.00     0.067 C 
HETATM    3  C4  UNL     1      28.842  14.748  -2.954  1.00  0.00     0.018 C 
HETATM    4  C5  UNL     1      27.538  15.446  -2.719  1.00  0.00     0.012 C 
HETATM    5  C6  UNL     1      29.771  14.871  -1.735  1.00  0.00     0.155 C 
HETATM    6  O2  UNL     1      29.783  16.181  -1.367  1.00  0.00    -0.371 OA
HETATM    7  C7  UNL     1      30.815  16.581  -0.571  1.00  0.00     0.196 C 
HETATM    8  C8  UNL     1      31.748  15.494  -0.143  1.00  0.00     0.169 C 
HETATM    9  O3  UNL     1      32.883  16.114   0.456  1.00  0.00    -0.321 OA
HETATM   10  C9  UNL     1      32.797  17.355   1.058  1.00  0.00     0.195 A 
HETATM   11  O4  UNL     1      33.730  18.114   1.582  1.00  0.00    -0.300 OA
HETATM   12  C10 UNL     1      33.227  19.222   2.052  1.00  0.00     0.145 A 
HETATM   13  C11 UNL     1      31.870  19.198   1.826  1.00  0.00     0.040 A 
HETATM   14  C12 UNL     1      31.597  18.020   1.198  1.00  0.00     0.044 A 
HETATM   15  C13 UNL     1      30.375  17.341   0.668  1.00  0.00     0.160 C 
HETATM   16  C14 UNL     1      29.909  16.388   1.766  1.00  0.00     0.060 C 
HETATM   17  F1  UNL     1      29.400  18.271   0.388  1.00  0.00    -0.235 F 
HETATM   18  C15 UNL     1      32.236  14.669  -1.287  1.00  0.00     0.045 C 
HETATM   19  C16 UNL     1      33.326  15.450  -2.006  1.00  0.00     0.015 C 
HETATM   20  C17 UNL     1      31.103  14.364  -2.248  1.00  0.00     0.160 C 
HETATM   21  O5  UNL     1      31.032  13.044  -2.586  1.00  0.00    -0.353 OA
ENDROOT
BRANCH   1  22
HETATM   22  O1  UNL     1      29.864  11.251  -3.230  1.00  0.00    -0.366 OA
HETATM   23  C1  UNL     1      30.698  11.301  -4.336  1.00  0.00     0.204 C 
ENDBRANCH   1  22
TORSDOF 1
ENDMDL
