MODEL 1
REMARK VINA RESULT: -4.836013407      0.000      0.000
REMARK  2 active torsions:
REMARK  status: ('A' for Active; 'I' for Inactive)
REMARK    1  A    between atoms: N1_3  and  C3_5 
REMARK    2  A    between atoms: C3_5  and  C4_6 
ROOT
HETATM    1  C1  UNL     1     -28.864 -24.817 -31.365  1.00  0.00     0.036 C 
HETATM    2  C2  UNL     1     -27.779 -24.293 -31.492  1.00  0.00    -0.006 C 
HETATM    3  N1  UNL     1     -26.549 -23.671 -31.643  1.00  0.00    -0.351 N 
ATOM      4  H1  UNL     1     -26.511 -22.818 -32.199  1.00  0.00     0.169 HD
ENDROOT
BRANCH   3   5
HETATM    5  C3  UNL     1     -25.319 -24.154 -31.062  1.00  0.00     0.134 C 
BRANCH   5   6
HETATM    6  C4  UNL     1     -25.254 -23.690 -29.647  1.00  0.00     0.004 C 
HETATM    7  C5  UNL     1     -23.897 -23.317 -29.107  1.00  0.00     0.006 C 
HETATM    8  C6  UNL     1     -24.633 -22.215 -28.328  1.00  0.00     0.001 C 
HETATM    9  C7  UNL     1     -25.630 -22.211 -29.488  1.00  0.00     0.006 C 
ENDBRANCH   5   6
ENDBRANCH   3   5
TORSDOF 2
ENDMDL
MODEL 2
REMARK VINA RESULT: -4.795450227      2.118      2.579
REMARK  2 active torsions:
REMARK  status: ('A' for Active; 'I' for Inactive)
REMARK    1  A    between atoms: N1_3  and  C3_5 
REMARK    2  A    between atoms: C3_5  and  C4_6 
ROOT
HETATM    1  C1  UNL     1     -30.296 -21.081 -30.697  1.00  0.00     0.036 C 
HETATM    2  C2  UNL     1     -29.143 -21.442 -30.607  1.00  0.00    -0.006 C 
HETATM    3  N1  UNL     1     -27.819 -21.843 -30.525  1.00  0.00    -0.351 N 
ATOM      4  H1  UNL     1     -27.282 -21.897 -31.390  1.00  0.00     0.169 HD
ENDROOT
BRANCH   3   5
HETATM    5  C3  UNL     1     -27.150 -22.189 -29.294  1.00  0.00     0.134 C 
BRANCH   5   6
HETATM    6  C4  UNL     1     -25.682 -22.222 -29.550  1.00  0.00     0.004 C 
HETATM    7  C5  UNL     1     -24.774 -22.212 -28.347  1.00  0.00     0.006 C 
HETATM    8  C6  UNL     1     -23.871 -23.155 -29.159  1.00  0.00     0.001 C 
HETATM    9  C7  UNL     1     -25.159 -23.638 -29.826  1.00  0.00     0.006 C 
ENDBRANCH   5   6
ENDBRANCH   3   5
TORSDOF 2
ENDMDL
MODEL 3
REMARK VINA RESULT: -4.714602655      0.928      1.721
REMARK  2 active torsions:
REMARK  status: ('A' for Active; 'I' for Inactive)
REMARK    1  A    between atoms: N1_3  and  C3_5 
REMARK    2  A    between atoms: C3_5  and  C4_6 
ROOT
HETATM    1  C1  UNL     1     -28.817 -24.783 -31.338  1.00  0.00     0.036 C 
HETATM    2  C2  UNL     1     -28.301 -23.728 -31.040  1.00  0.00    -0.006 C 
HETATM    3  N1  UNL     1     -27.725 -22.509 -30.717  1.00  0.00    -0.351 N 
ATOM      4  H1  UNL     1     -27.704 -21.786 -31.436  1.00  0.00     0.169 HD
ENDROOT
BRANCH   3   5
HETATM    5  C3  UNL     1     -27.152 -22.197 -29.429  1.00  0.00     0.134 C 
BRANCH   5   6
HETATM    6  C4  UNL     1     -25.668 -22.195 -29.563  1.00  0.00     0.004 C 
HETATM    7  C5  UNL     1     -24.863 -22.205 -28.289  1.00  0.00     0.006 C 
HETATM    8  C6  UNL     1     -23.875 -23.104 -29.051  1.00  0.00     0.001 C 
HETATM    9  C7  UNL     1     -25.093 -23.591 -29.837  1.00  0.00     0.006 C 
ENDBRANCH   5   6
ENDBRANCH   3   5
TORSDOF 2
ENDMDL
MODEL 4
REMARK VINA RESULT: -4.662812168      0.941      1.442
REMARK  2 active torsions:
REMARK  status: ('A' for Active; 'I' for Inactive)
REMARK    1  A    between atoms: N1_3  and  C3_5 
REMARK    2  A    between atoms: C3_5  and  C4_6 
ROOT
HETATM    1  C1  UNL     1     -29.039 -25.565 -32.053  1.00  0.00     0.036 C 
HETATM    2  C2  UNL     1     -28.357 -24.858 -31.344  1.00  0.00    -0.006 C 
HETATM    3  N1  UNL     1     -27.596 -24.033 -30.530  1.00  0.00    -0.351 N 
ATOM      4  H1  UNL     1     -27.876 -23.056 -30.446  1.00  0.00     0.169 HD
ENDROOT
BRANCH   3   5
HETATM    5  C3  UNL     1     -26.434 -24.468 -29.793  1.00  0.00     0.134 C 
BRANCH   5   6
HETATM    6  C4  UNL     1     -25.445 -23.353 -29.774  1.00  0.00     0.004 C 
HETATM    7  C5  UNL     1     -25.665 -22.256 -28.764  1.00  0.00     0.006 C 
HETATM    8  C6  UNL     1     -24.133 -22.213 -28.643  1.00  0.00     0.001 C 
HETATM    9  C7  UNL     1     -24.171 -23.702 -28.993  1.00  0.00     0.006 C 
ENDBRANCH   5   6
ENDBRANCH   3   5
TORSDOF 2
ENDMDL
MODEL 5
REMARK VINA RESULT: -4.645233187      1.115      1.734
REMARK  2 active torsions:
REMARK  status: ('A' for Active; 'I' for Inactive)
REMARK    1  A    between atoms: N1_3  and  C3_5 
REMARK    2  A    between atoms: C3_5  and  C4_6 
ROOT
HETATM    1  C1  UNL     1     -28.960 -25.665 -32.025  1.00  0.00     0.036 C 
HETATM    2  C2  UNL     1     -28.391 -24.808 -31.384  1.00  0.00    -0.006 C 
HETATM    3  N1  UNL     1     -27.735 -23.846 -30.633  1.00  0.00    -0.351 N 
ATOM      4  H1  UNL     1     -27.664 -23.993 -29.626  1.00  0.00     0.169 HD
ENDROOT
BRANCH   3   5
HETATM    5  C3  UNL     1     -27.145 -22.649 -31.183  1.00  0.00     0.134 C 
BRANCH   5   6
HETATM    6  C4  UNL     1     -26.160 -22.117 -30.199  1.00  0.00     0.004 C 
HETATM    7  C5  UNL     1     -26.597 -22.048 -28.758  1.00  0.00     0.006 C 
HETATM    8  C6  UNL     1     -25.145 -22.424 -28.416  1.00  0.00     0.001 C 
HETATM    9  C7  UNL     1     -25.139 -23.171 -29.751  1.00  0.00     0.006 C 
ENDBRANCH   5   6
ENDBRANCH   3   5
TORSDOF 2
ENDMDL
