MODEL 1
REMARK VINA RESULT: -4.666722454      0.000      0.000
REMARK  3 active torsions:
REMARK  status: ('A' for Active; 'I' for Inactive)
REMARK    1  A    between atoms: C2_2  and  C3_4 
REMARK    2  A    between atoms: C4_5  and  C5_6 
REMARK       I    between atoms: C5_6  and  N1_8 
REMARK    3  A    between atoms: C6_10  and  C8_12 
ROOT
HETATM    1  C5  UNL     1       5.448  15.775  39.542  1.00  0.00     0.301 C 
HETATM    2  O2  UNL     1       6.107  15.701  40.637  1.00  0.00    -0.258 OA
HETATM    3  N1  UNL     1       5.998  16.217  38.330  1.00  0.00    -0.314 N 
ATOM      4  H1  UNL     1       6.375  15.527  37.680  1.00  0.00     0.169 HD
HETATM    5  C6  UNL     1       6.045  17.437  38.014  1.00  0.00     0.086 C 
HETATM    6  C7  UNL     1       6.664  17.767  36.676  1.00  0.00     0.076 C 
ENDROOT
BRANCH   1   7
HETATM    7  C4  UNL     1       4.045  15.384  39.518  1.00  0.00     0.003 C 
HETATM    8  C3  UNL     1       2.885  15.052  39.516  1.00  0.00    -0.019 C 
BRANCH   8   9
HETATM    9  C2  UNL     1       1.509  14.666  39.511  1.00  0.00     0.199 C 
HETATM   10  C1  UNL     1       1.059  13.376  40.077  1.00  0.00     0.106 C 
HETATM   11  O1  UNL     1       0.681  15.459  39.007  1.00  0.00    -0.284 OA
ENDBRANCH   8   9
ENDBRANCH   1   7
BRANCH   5  12
HETATM   12  C8  UNL     1       5.548  18.485  38.849  1.00  0.00     0.222 C 
HETATM   13  O3  UNL     1       4.396  18.941  38.638  1.00  0.00    -0.643 OA
HETATM   14  O4  UNL     1       6.275  19.013  39.872  1.00  0.00    -0.643 OA
ENDBRANCH   5  12
TORSDOF 3
ENDMDL
MODEL 2
REMARK VINA RESULT: -4.257563519      1.776      2.710
REMARK  3 active torsions:
REMARK  status: ('A' for Active; 'I' for Inactive)
REMARK    1  A    between atoms: C2_2  and  C3_4 
REMARK    2  A    between atoms: C4_5  and  C5_6 
REMARK       I    between atoms: C5_6  and  N1_8 
REMARK    3  A    between atoms: C6_10  and  C8_12 
ROOT
HETATM    1  C5  UNL     1       3.995  18.122  38.125  1.00  0.00     0.301 C 
HETATM    2  O2  UNL     1       4.106  18.301  36.862  1.00  0.00    -0.258 OA
HETATM    3  N1  UNL     1       4.635  18.921  39.084  1.00  0.00    -0.314 N 
ATOM      4  H1  UNL     1       4.129  19.714  39.480  1.00  0.00     0.169 HD
HETATM    5  C6  UNL     1       5.812  18.695  39.477  1.00  0.00     0.086 C 
HETATM    6  C7  UNL     1       6.372  19.638  40.515  1.00  0.00     0.076 C 
ENDROOT
BRANCH   1   7
HETATM    7  C4  UNL     1       3.165  17.037  38.629  1.00  0.00     0.003 C 
HETATM    8  C3  UNL     1       2.484  16.140  39.065  1.00  0.00    -0.019 C 
BRANCH   8   9
HETATM    9  C2  UNL     1       1.672  15.082  39.576  1.00  0.00     0.199 C 
HETATM   10  C1  UNL     1       2.218  14.047  40.481  1.00  0.00     0.106 C 
HETATM   11  O1  UNL     1       0.468  15.051  39.234  1.00  0.00    -0.284 OA
ENDBRANCH   8   9
ENDBRANCH   1   7
BRANCH   5  12
HETATM   12  C8  UNL     1       6.609  17.614  38.989  1.00  0.00     0.222 C 
HETATM   13  O3  UNL     1       6.648  16.541  39.642  1.00  0.00    -0.643 OA
HETATM   14  O4  UNL     1       7.331  17.697  37.838  1.00  0.00    -0.643 OA
ENDBRANCH   5  12
TORSDOF 3
ENDMDL
MODEL 3
REMARK VINA RESULT: -3.974779409      1.864      2.725
REMARK  3 active torsions:
REMARK  status: ('A' for Active; 'I' for Inactive)
REMARK    1  A    between atoms: C2_2  and  C3_4 
REMARK    2  A    between atoms: C4_5  and  C5_6 
REMARK       I    between atoms: C5_6  and  N1_8 
REMARK    3  A    between atoms: C6_10  and  C8_12 
ROOT
HETATM    1  C5  UNL     1       6.018  17.086  39.263  1.00  0.00     0.301 C 
HETATM    2  O2  UNL     1       6.414  17.859  40.204  1.00  0.00    -0.258 OA
HETATM    3  N1  UNL     1       5.970  17.462  37.913  1.00  0.00    -0.314 N 
ATOM      4  H1  UNL     1       6.767  17.247  37.314  1.00  0.00     0.169 HD
HETATM    5  C6  UNL     1       4.977  18.057  37.412  1.00  0.00     0.086 C 
HETATM    6  C7  UNL     1       5.064  18.401  35.943  1.00  0.00     0.076 C 
ENDROOT
BRANCH   1   7
HETATM    7  C4  UNL     1       5.585  15.732  39.579  1.00  0.00     0.003 C 
HETATM    8  C3  UNL     1       5.208  14.616  39.845  1.00  0.00    -0.019 C 
BRANCH   8   9
HETATM    9  C2  UNL     1       4.765  13.293  40.154  1.00  0.00     0.199 C 
HETATM   10  C1  UNL     1       3.330  12.937  40.184  1.00  0.00     0.106 C 
HETATM   11  O1  UNL     1       5.637  12.429  40.404  1.00  0.00    -0.284 OA
ENDBRANCH   8   9
ENDBRANCH   1   7
BRANCH   5  12
HETATM   12  C8  UNL     1       3.810  18.407  38.159  1.00  0.00     0.222 C 
HETATM   13  O3  UNL     1       3.633  19.607  38.488  1.00  0.00    -0.643 OA
HETATM   14  O4  UNL     1       2.877  17.489  38.532  1.00  0.00    -0.643 OA
ENDBRANCH   5  12
TORSDOF 3
ENDMDL
MODEL 4
REMARK VINA RESULT: -3.936190814      1.108      1.398
REMARK  3 active torsions:
REMARK  status: ('A' for Active; 'I' for Inactive)
REMARK    1  A    between atoms: C2_2  and  C3_4 
REMARK    2  A    between atoms: C4_5  and  C5_6 
REMARK       I    between atoms: C5_6  and  N1_8 
REMARK    3  A    between atoms: C6_10  and  C8_12 
ROOT
HETATM    1  C5  UNL     1       5.810  16.660  39.315  1.00  0.00     0.301 C 
HETATM    2  O2  UNL     1       6.370  17.213  40.325  1.00  0.00    -0.258 OA
HETATM    3  N1  UNL     1       6.374  16.626  38.032  1.00  0.00    -0.314 N 
ATOM      4  H1  UNL     1       6.929  15.813  37.760  1.00  0.00     0.169 HD
HETATM    5  C6  UNL     1       6.222  17.563  37.201  1.00  0.00     0.086 C 
HETATM    6  C7  UNL     1       6.888  17.389  35.856  1.00  0.00     0.076 C 
ENDROOT
BRANCH   1   7
HETATM    7  C4  UNL     1       4.511  16.019  39.474  1.00  0.00     0.003 C 
HETATM    8  C3  UNL     1       3.441  15.474  39.592  1.00  0.00    -0.019 C 
BRANCH   8   9
HETATM    9  C2  UNL     1       2.173  14.830  39.739  1.00  0.00     0.199 C 
HETATM   10  C1  UNL     1       2.051  13.468  40.303  1.00  0.00     0.106 C 
HETATM   11  O1  UNL     1       1.154  15.457  39.373  1.00  0.00    -0.284 OA
ENDBRANCH   8   9
ENDBRANCH   1   7
BRANCH   5  12
HETATM   12  C8  UNL     1       5.468  18.744  37.478  1.00  0.00     0.222 C 
HETATM   13  O3  UNL     1       6.077  19.801  37.780  1.00  0.00    -0.643 OA
HETATM   14  O4  UNL     1       4.108  18.773  37.427  1.00  0.00    -0.643 OA
ENDBRANCH   5  12
TORSDOF 3
ENDMDL
MODEL 5
REMARK VINA RESULT: -3.685704788      1.865      2.621
REMARK  3 active torsions:
REMARK  status: ('A' for Active; 'I' for Inactive)
REMARK    1  A    between atoms: C2_2  and  C3_4 
REMARK    2  A    between atoms: C4_5  and  C5_6 
REMARK       I    between atoms: C5_6  and  N1_8 
REMARK    3  A    between atoms: C6_10  and  C8_12 
ROOT
HETATM    1  C5  UNL     1       4.165  18.255  38.685  1.00  0.00     0.301 C 
HETATM    2  O2  UNL     1       3.865  19.163  37.833  1.00  0.00    -0.258 OA
HETATM    3  N1  UNL     1       5.354  18.246  39.428  1.00  0.00    -0.314 N 
ATOM      4  H1  UNL     1       5.355  18.664  40.359  1.00  0.00     0.169 HD
HETATM    5  C6  UNL     1       6.423  17.739  38.989  1.00  0.00     0.086 C 
HETATM    6  C7  UNL     1       7.626  17.801  39.900  1.00  0.00     0.076 C 
ENDROOT
BRANCH   1   7
HETATM    7  C4  UNL     1       3.240  17.155  38.920  1.00  0.00     0.003 C 
HETATM    8  C3  UNL     1       2.479  16.242  39.135  1.00  0.00    -0.019 C 
BRANCH   8   9
HETATM    9  C2  UNL     1       1.574  15.165  39.384  1.00  0.00     0.199 C 
HETATM   10  C1  UNL     1       1.975  13.974  40.165  1.00  0.00     0.106 C 
HETATM   11  O1  UNL     1       0.416  15.256  38.918  1.00  0.00    -0.284 OA
ENDBRANCH   8   9
ENDBRANCH   1   7
BRANCH   5  12
HETATM   12  C8  UNL     1       6.532  17.129  37.701  1.00  0.00     0.222 C 
HETATM   13  O3  UNL     1       6.198  15.925  37.565  1.00  0.00    -0.643 OA
HETATM   14  O4  UNL     1       6.983  17.803  36.608  1.00  0.00    -0.643 OA
ENDBRANCH   5  12
TORSDOF 3
ENDMDL
