MODEL 1
REMARK VINA RESULT: -6.018844568      0.000      0.000
REMARK  3 active torsions:
REMARK  status: ('A' for Active; 'I' for Inactive)
REMARK    1  A    between atoms: C2_2  and  N1_3 
REMARK       I    between atoms: N1_3  and  C4_5 
REMARK    2  A    between atoms: C4_5  and  C5_7 
REMARK    3  A    between atoms: C8_15  and  C9_16 
ROOT
HETATM    1  C5  UNL     1      -6.842  24.752  32.097  1.00  0.00     0.149 A 
HETATM    2  C6  UNL     1      -7.155  25.606  30.869  1.00  0.00     0.056 C 
HETATM    3  N2  UNL     1      -7.004  23.365  31.831  1.00  0.00    -0.345 N 
ATOM      4  H2  UNL     1      -6.509  22.839  31.111  1.00  0.00     0.163 HD
HETATM    5  C7  UNL     1      -7.962  22.830  32.724  1.00  0.00     0.173 A 
HETATM    6  S1  UNL     1      -8.492  21.270  32.779  1.00  0.00    -0.041 SA
HETATM    7  N3  UNL     1      -8.350  23.915  33.505  1.00  0.00    -0.337 N 
ATOM      8  H3  UNL     1      -9.045  23.836  34.247  1.00  0.00     0.168 HD
HETATM    9  C8  UNL     1      -7.761  25.034  33.216  1.00  0.00     0.034 A 
ENDROOT
BRANCH   1  10
HETATM   10  C4  UNL     1      -5.430  25.025  32.442  1.00  0.00     0.253 C 
HETATM   11  N1  UNL     1      -4.854  26.299  32.602  1.00  0.00    -0.354 N 
HETATM   12  C3  UNL     1      -5.273  27.578  32.138  1.00  0.00     0.152 C 
HETATM   13  O1  UNL     1      -4.637  24.019  32.606  1.00  0.00    -0.270 OA
BRANCH  11  14
HETATM   14  C2  UNL     1      -3.525  26.282  33.283  1.00  0.00     0.120 C 
HETATM   15  C1  UNL     1      -3.197  27.652  33.823  1.00  0.00     0.026 C 
ENDBRANCH  11  14
ENDBRANCH   1  10
BRANCH   9  16
HETATM   16  C9  UNL     1      -8.113  26.170  34.087  1.00  0.00    -0.010 C 
HETATM   17  C10 UNL     1      -8.641  27.379  33.433  1.00  0.00     0.021 C 
HETATM   18  C11 UNL     1      -7.113  26.469  35.147  1.00  0.00     0.021 C 
HETATM   19  C12 UNL     1      -9.373  25.719  34.962  1.00  0.00     0.021 C 
ENDBRANCH   9  16
TORSDOF 3
ENDMDL
MODEL 2
REMARK VINA RESULT: -5.967962110      2.687      4.690
REMARK  3 active torsions:
REMARK  status: ('A' for Active; 'I' for Inactive)
REMARK    1  A    between atoms: C2_2  and  N1_3 
REMARK       I    between atoms: N1_3  and  C4_5 
REMARK    2  A    between atoms: C4_5  and  C5_7 
REMARK    3  A    between atoms: C8_15  and  C9_16 
ROOT
HETATM    1  C5  UNL     1      -7.463  25.801  31.585  1.00  0.00     0.149 A 
HETATM    2  C6  UNL     1      -6.643  25.428  30.351  1.00  0.00     0.056 C 
HETATM    3  N2  UNL     1      -8.646  26.510  31.238  1.00  0.00    -0.345 N 
ATOM      4  H2  UNL     1      -9.384  26.164  30.626  1.00  0.00     0.163 HD
HETATM    5  C7  UNL     1      -8.637  27.772  31.879  1.00  0.00     0.173 A 
HETATM    6  S1  UNL     1      -9.789  28.944  31.758  1.00  0.00    -0.041 SA
HETATM    7  N3  UNL     1      -7.444  27.785  32.595  1.00  0.00    -0.337 N 
ATOM      8  H3  UNL     1      -7.154  28.581  33.164  1.00  0.00     0.168 HD
HETATM    9  C8  UNL     1      -6.728  26.710  32.485  1.00  0.00     0.034 A 
ENDROOT
BRANCH   1  10
HETATM   10  C4  UNL     1      -7.828  24.527  32.242  1.00  0.00     0.253 C 
HETATM   11  N1  UNL     1      -7.980  23.285  31.598  1.00  0.00    -0.354 N 
HETATM   12  C3  UNL     1      -8.214  22.964  30.231  1.00  0.00     0.152 C 
HETATM   13  O1  UNL     1      -8.039  24.536  33.516  1.00  0.00    -0.270 OA
BRANCH  11  14
HETATM   14  C2  UNL     1      -8.003  22.118  32.531  1.00  0.00     0.120 C 
HETATM   15  C1  UNL     1      -8.611  20.917  31.849  1.00  0.00     0.026 C 
ENDBRANCH  11  14
ENDBRANCH   1  10
BRANCH   9  16
HETATM   16  C9  UNL     1      -5.499  26.689  33.299  1.00  0.00    -0.010 C 
HETATM   17  C10 UNL     1      -4.518  25.630  33.008  1.00  0.00     0.021 C 
HETATM   18  C11 UNL     1      -5.720  26.897  34.756  1.00  0.00     0.021 C 
HETATM   19  C12 UNL     1      -4.661  27.997  32.920  1.00  0.00     0.021 C 
ENDBRANCH   9  16
TORSDOF 3
ENDMDL
MODEL 3
REMARK VINA RESULT: -5.675296884      2.474      4.487
REMARK  3 active torsions:
REMARK  status: ('A' for Active; 'I' for Inactive)
REMARK    1  A    between atoms: C2_2  and  N1_3 
REMARK       I    between atoms: N1_3  and  C4_5 
REMARK    2  A    between atoms: C4_5  and  C5_7 
REMARK    3  A    between atoms: C8_15  and  C9_16 
ROOT
HETATM    1  C5  UNL     1      -7.680  26.310  33.810  1.00  0.00     0.149 A 
HETATM    2  C6  UNL     1      -8.465  27.323  32.977  1.00  0.00     0.056 C 
HETATM    3  N2  UNL     1      -8.156  26.244  35.148  1.00  0.00    -0.345 N 
ATOM      4  H2  UNL     1      -9.109  26.010  35.426  1.00  0.00     0.163 HD
HETATM    5  C7  UNL     1      -7.096  26.555  36.033  1.00  0.00     0.173 A 
HETATM    6  S1  UNL     1      -7.178  26.625  37.678  1.00  0.00    -0.041 SA
HETATM    7  N3  UNL     1      -6.010  26.799  35.198  1.00  0.00    -0.337 N 
ATOM      8  H3  UNL     1      -5.090  27.054  35.556  1.00  0.00     0.168 HD
HETATM    9  C8  UNL     1      -6.257  26.677  33.931  1.00  0.00     0.034 A 
ENDROOT
BRANCH   1  10
HETATM   10  C4  UNL     1      -7.872  24.998  33.155  1.00  0.00     0.253 C 
HETATM   11  N1  UNL     1      -7.548  24.690  31.820  1.00  0.00    -0.354 N 
HETATM   12  C3  UNL     1      -7.347  25.533  30.690  1.00  0.00     0.152 C 
HETATM   13  O1  UNL     1      -8.391  24.040  33.848  1.00  0.00    -0.270 OA
BRANCH  11  14
HETATM   14  C2  UNL     1      -7.517  23.226  31.526  1.00  0.00     0.120 C 
HETATM   15  C1  UNL     1      -8.168  22.946  30.194  1.00  0.00     0.026 C 
ENDBRANCH  11  14
ENDBRANCH   1  10
BRANCH   9  16
HETATM   16  C9  UNL     1      -5.092  26.863  33.046  1.00  0.00    -0.010 C 
HETATM   17  C10 UNL     1      -5.257  27.777  31.903  1.00  0.00     0.021 C 
HETATM   18  C11 UNL     1      -4.380  25.606  32.691  1.00  0.00     0.021 C 
HETATM   19  C12 UNL     1      -3.974  27.629  33.894  1.00  0.00     0.021 C 
ENDBRANCH   9  16
TORSDOF 3
ENDMDL
MODEL 4
REMARK VINA RESULT: -5.663116121      2.696      4.517
REMARK  3 active torsions:
REMARK  status: ('A' for Active; 'I' for Inactive)
REMARK    1  A    between atoms: C2_2  and  N1_3 
REMARK       I    between atoms: N1_3  and  C4_5 
REMARK    2  A    between atoms: C4_5  and  C5_7 
REMARK    3  A    between atoms: C8_15  and  C9_16 
ROOT
HETATM    1  C5  UNL     1      -6.602  26.281  31.539  1.00  0.00     0.149 A 
HETATM    2  C6  UNL     1      -6.677  26.504  30.028  1.00  0.00     0.056 C 
HETATM    3  N2  UNL     1      -5.566  27.050  32.135  1.00  0.00    -0.345 N 
ATOM      4  H2  UNL     1      -5.486  28.065  32.097  1.00  0.00     0.163 HD
HETATM    5  C7  UNL     1      -4.663  26.181  32.792  1.00  0.00     0.173 A 
HETATM    6  S1  UNL     1      -3.297  26.615  33.606  1.00  0.00    -0.041 SA
HETATM    7  N3  UNL     1      -5.184  24.910  32.571  1.00  0.00    -0.337 N 
ATOM      8  H3  UNL     1      -4.739  24.064  32.928  1.00  0.00     0.168 HD
HETATM    9  C8  UNL     1      -6.279  24.882  31.876  1.00  0.00     0.034 A 
ENDROOT
BRANCH   1  10
HETATM   10  C4  UNL     1      -7.909  26.707  32.086  1.00  0.00     0.253 C 
HETATM   11  N1  UNL     1      -8.189  26.959  33.442  1.00  0.00    -0.354 N 
HETATM   12  C3  UNL     1      -7.519  26.541  34.627  1.00  0.00     0.152 C 
HETATM   13  O1  UNL     1      -8.894  26.856  31.266  1.00  0.00    -0.270 OA
BRANCH  11  14
HETATM   14  C2  UNL     1      -9.465  27.702  33.669  1.00  0.00     0.120 C 
HETATM   15  C1  UNL     1      -9.310  29.144  33.254  1.00  0.00     0.026 C 
ENDBRANCH  11  14
ENDBRANCH   1  10
BRANCH   9  16
HETATM   16  C9  UNL     1      -6.875  23.544  31.700  1.00  0.00    -0.010 C 
HETATM   17  C10 UNL     1      -7.359  23.197  30.354  1.00  0.00     0.021 C 
HETATM   18  C11 UNL     1      -7.814  23.140  32.782  1.00  0.00     0.021 C 
HETATM   19  C12 UNL     1      -5.700  22.477  31.890  1.00  0.00     0.021 C 
ENDBRANCH   9  16
TORSDOF 3
ENDMDL
MODEL 5
REMARK VINA RESULT: -5.578494405      2.815      4.649
REMARK  3 active torsions:
REMARK  status: ('A' for Active; 'I' for Inactive)
REMARK    1  A    between atoms: C2_2  and  N1_3 
REMARK       I    between atoms: N1_3  and  C4_5 
REMARK    2  A    between atoms: C4_5  and  C5_7 
REMARK    3  A    between atoms: C8_15  and  C9_16 
ROOT
HETATM    1  C5  UNL     1      -6.623  27.101  32.886  1.00  0.00     0.149 A 
HETATM    2  C6  UNL     1      -5.309  27.404  32.166  1.00  0.00     0.056 C 
HETATM    3  N2  UNL     1      -6.624  27.601  34.217  1.00  0.00    -0.345 N 
ATOM      4  H2  UNL     1      -6.491  28.576  34.482  1.00  0.00     0.163 HD
HETATM    5  C7  UNL     1      -6.840  26.528  35.115  1.00  0.00     0.173 A 
HETATM    6  S1  UNL     1      -6.900  26.621  36.759  1.00  0.00    -0.041 SA
HETATM    7  N3  UNL     1      -6.963  25.411  34.295  1.00  0.00    -0.337 N 
ATOM      8  H3  UNL     1      -7.124  24.474  34.664  1.00  0.00     0.168 HD
HETATM    9  C8  UNL     1      -6.857  25.651  33.024  1.00  0.00     0.034 A 
ENDROOT
BRANCH   1  10
HETATM   10  C4  UNL     1      -7.687  27.774  32.108  1.00  0.00     0.253 C 
HETATM   11  N1  UNL     1      -8.980  28.077  32.574  1.00  0.00    -0.354 N 
HETATM   12  C3  UNL     1      -9.732  27.539  33.656  1.00  0.00     0.152 C 
HETATM   13  O1  UNL     1      -7.429  28.110  30.888  1.00  0.00    -0.270 OA
BRANCH  11  14
HETATM   14  C2  UNL     1      -9.718  29.053  31.718  1.00  0.00     0.120 C 
HETATM   15  C1  UNL     1     -10.335  30.134  32.572  1.00  0.00     0.026 C 
ENDBRANCH  11  14
ENDBRANCH   1  10
BRANCH   9  16
HETATM   16  C9  UNL     1      -7.060  24.484  32.147  1.00  0.00    -0.010 C 
HETATM   17  C10 UNL     1      -7.263  24.749  30.713  1.00  0.00     0.021 C 
HETATM   18  C11 UNL     1      -7.991  23.458  32.690  1.00  0.00     0.021 C 
HETATM   19  C12 UNL     1      -5.683  23.672  32.118  1.00  0.00     0.021 C 
ENDBRANCH   9  16
TORSDOF 3
ENDMDL
