MODEL 1
REMARK VINA RESULT: -7.754077449      0.000      0.000
REMARK  5 active torsions:
REMARK  status: ('A' for Active; 'I' for Inactive)
REMARK    1  A    between atoms: C4_5  and  C5_6 
REMARK       I    between atoms: C5_6  and  N2_8 
REMARK    2  A    between atoms: N2_8  and  N3_10 
REMARK    3  A    between atoms: N3_10  and  C6_11 
REMARK    4  A    between atoms: C6_11  and  C7_12 
REMARK    5  A    between atoms: C13_19  and  N4_20 
ROOT
HETATM    1  C5  UNL     1      58.802  26.496 101.419  1.00  0.00     0.282 C 
HETATM    2  O1  UNL     1      59.249  26.239 100.358  1.00  0.00    -0.265 OA
HETATM    3  N2  UNL     1      57.890  25.793 102.242  1.00  0.00    -0.199 N 
ATOM      4  H2  UNL     1      57.657  26.236 103.131  1.00  0.00     0.205 HD
ENDROOT
BRANCH   1   5
HETATM    5  C4  UNL     1      59.175  27.802 102.122  1.00  0.00     0.070 A 
HETATM    6  C3  UNL     1      59.508  27.676 103.450  1.00  0.00     0.037 A 
HETATM    7  C2  UNL     1      60.101  28.721 104.089  1.00  0.00     0.091 A 
HETATM    8  N1  UNL     1      60.374  29.892 103.470  1.00  0.00    -0.368 N 
HETATM    9  C1  UNL     1      61.077  30.956 104.144  1.00  0.00     0.154 C 
HETATM   10  C14 UNL     1      60.034  30.007 102.160  1.00  0.00     0.127 A 
HETATM   11  C13 UNL     1      59.424  28.952 101.459  1.00  0.00     0.134 A 
BRANCH  11  12
HETATM   12  N4  UNL     1      59.045  29.135 100.114  1.00  0.00    -0.113 N 
HETATM   13  O2  UNL     1      59.936  29.213  99.262  1.00  0.00    -0.532 OA
HETATM   14  O3  UNL     1      57.764  29.248  99.643  1.00  0.00    -0.532 OA
ENDBRANCH  11  12
ENDBRANCH   1   5
BRANCH   3  15
HETATM   15  N3  UNL     1      57.309  24.645 102.006  1.00  0.00    -0.335 NA
BRANCH  15  16
HETATM   16  C6  UNL     1      56.806  23.633 101.813  1.00  0.00     0.223 C 
BRANCH  16  17
HETATM   17  C7  UNL     1      56.621  22.447 102.648  1.00  0.00     0.033 A 
HETATM   18  C8  UNL     1      57.687  21.803 103.193  1.00  0.00     0.017 A 
HETATM   19  C9  UNL     1      57.409  20.680 103.959  1.00  0.00     0.001 A 
HETATM   20  C10 UNL     1      56.127  20.223 104.169  1.00  0.00     0.003 A 
HETATM   21  C11 UNL     1      55.036  20.883 103.602  1.00  0.00     0.043 A 
HETATM   22  C12 UNL     1      55.313  21.988 102.849  1.00  0.00     0.129 A 
HETATM   23  F1  UNL     1      54.231  22.630 102.325  1.00  0.00    -0.205 F 
ENDBRANCH  16  17
ENDBRANCH  15  16
ENDBRANCH   3  15
TORSDOF 5
ENDMDL
MODEL 2
REMARK VINA RESULT: -7.745955192      1.524      2.071
REMARK  5 active torsions:
REMARK  status: ('A' for Active; 'I' for Inactive)
REMARK    1  A    between atoms: C4_5  and  C5_6 
REMARK       I    between atoms: C5_6  and  N2_8 
REMARK    2  A    between atoms: N2_8  and  N3_10 
REMARK    3  A    between atoms: N3_10  and  C6_11 
REMARK    4  A    between atoms: C6_11  and  C7_12 
REMARK    5  A    between atoms: C13_19  and  N4_20 
ROOT
HETATM    1  C5  UNL     1      58.531  26.309 101.469  1.00  0.00     0.282 C 
HETATM    2  O1  UNL     1      59.098  25.984 100.486  1.00  0.00    -0.265 OA
HETATM    3  N2  UNL     1      57.391  25.767 102.111  1.00  0.00    -0.199 N 
ATOM      4  H2  UNL     1      57.093  26.240 102.964  1.00  0.00     0.205 HD
ENDROOT
BRANCH   1   5
HETATM    5  C4  UNL     1      58.997  27.529 102.265  1.00  0.00     0.070 A 
HETATM    6  C3  UNL     1      59.250  27.296 103.596  1.00  0.00     0.037 A 
HETATM    7  C2  UNL     1      59.911  28.238 104.322  1.00  0.00     0.091 A 
HETATM    8  N1  UNL     1      60.328  29.408 103.788  1.00  0.00    -0.368 N 
HETATM    9  C1  UNL     1      61.099  30.356 104.554  1.00  0.00     0.154 C 
HETATM   10  C14 UNL     1      60.065  29.630 102.474  1.00  0.00     0.127 A 
HETATM   11  C13 UNL     1      59.390  28.683 101.684  1.00  0.00     0.134 A 
BRANCH  11  12
HETATM   12  N4  UNL     1      59.098  28.978 100.337  1.00  0.00    -0.113 N 
HETATM   13  O2  UNL     1      60.041  29.168  99.563  1.00  0.00    -0.532 OA
HETATM   14  O3  UNL     1      57.848  29.088  99.786  1.00  0.00    -0.532 OA
ENDBRANCH  11  12
ENDBRANCH   1   5
BRANCH   3  15
HETATM   15  N3  UNL     1      56.673  24.736 101.746  1.00  0.00    -0.335 NA
BRANCH  15  16
HETATM   16  C6  UNL     1      56.036  23.834 101.441  1.00  0.00     0.223 C 
BRANCH  16  17
HETATM   17  C7  UNL     1      54.746  23.331 101.913  1.00  0.00     0.033 A 
HETATM   18  C8  UNL     1      54.669  22.197 102.660  1.00  0.00     0.017 A 
HETATM   19  C9  UNL     1      53.400  21.794 103.049  1.00  0.00     0.001 A 
HETATM   20  C10 UNL     1      52.263  22.491 102.706  1.00  0.00     0.003 A 
HETATM   21  C11 UNL     1      52.345  23.650 101.933  1.00  0.00     0.043 A 
HETATM   22  C12 UNL     1      53.596  24.044 101.553  1.00  0.00     0.129 A 
HETATM   23  F1  UNL     1      53.654  25.192 100.819  1.00  0.00    -0.205 F 
ENDBRANCH  16  17
ENDBRANCH  15  16
ENDBRANCH   3  15
TORSDOF 5
ENDMDL
MODEL 3
REMARK VINA RESULT: -7.507964027      0.995      1.430
REMARK  5 active torsions:
REMARK  status: ('A' for Active; 'I' for Inactive)
REMARK    1  A    between atoms: C4_5  and  C5_6 
REMARK       I    between atoms: C5_6  and  N2_8 
REMARK    2  A    between atoms: N2_8  and  N3_10 
REMARK    3  A    between atoms: N3_10  and  C6_11 
REMARK    4  A    between atoms: C6_11  and  C7_12 
REMARK    5  A    between atoms: C13_19  and  N4_20 
ROOT
HETATM    1  C5  UNL     1      58.770  26.514 101.444  1.00  0.00     0.282 C 
HETATM    2  O1  UNL     1      59.295  26.251 100.420  1.00  0.00    -0.265 OA
HETATM    3  N2  UNL     1      57.742  25.855 102.160  1.00  0.00    -0.199 N 
ATOM      4  H2  UNL     1      57.458  26.292 103.037  1.00  0.00     0.205 HD
ENDROOT
BRANCH   1   5
HETATM    5  C4  UNL     1      59.162  27.774 102.215  1.00  0.00     0.070 A 
HETATM    6  C3  UNL     1      59.415  27.585 103.554  1.00  0.00     0.037 A 
HETATM    7  C2  UNL     1      60.018  28.576 104.264  1.00  0.00     0.091 A 
HETATM    8  N1  UNL     1      60.377  29.756 103.706  1.00  0.00    -0.368 N 
HETATM    9  C1  UNL     1      61.089  30.760 104.457  1.00  0.00     0.154 C 
HETATM   10  C14 UNL     1      60.115  29.933 102.385  1.00  0.00     0.127 A 
HETATM   11  C13 UNL     1      59.499  28.934 101.612  1.00  0.00     0.134 A 
BRANCH  11  12
HETATM   12  N4  UNL     1      59.204  29.184 100.256  1.00  0.00    -0.113 N 
HETATM   13  O2  UNL     1      60.144  29.388  99.483  1.00  0.00    -0.532 OA
HETATM   14  O3  UNL     1      57.954  29.233  99.697  1.00  0.00    -0.532 OA
ENDBRANCH  11  12
ENDBRANCH   1   5
BRANCH   3  15
HETATM   15  N3  UNL     1      57.110  24.755 101.838  1.00  0.00    -0.335 NA
BRANCH  15  16
HETATM   16  C6  UNL     1      56.558  23.787 101.572  1.00  0.00     0.223 C 
BRANCH  16  17
HETATM   17  C7  UNL     1      56.095  22.660 102.381  1.00  0.00     0.033 A 
HETATM   18  C8  UNL     1      54.768  22.393 102.512  1.00  0.00     0.017 A 
HETATM   19  C9  UNL     1      54.428  21.310 103.310  1.00  0.00     0.001 A 
HETATM   20  C10 UNL     1      55.370  20.532 103.946  1.00  0.00     0.003 A 
HETATM   21  C11 UNL     1      56.731  20.814 103.814  1.00  0.00     0.043 A 
HETATM   22  C12 UNL     1      57.062  21.880 103.028  1.00  0.00     0.129 A 
HETATM   23  F1  UNL     1      58.396  22.121 102.894  1.00  0.00    -0.205 F 
ENDBRANCH  16  17
ENDBRANCH  15  16
ENDBRANCH   3  15
TORSDOF 5
ENDMDL
MODEL 4
REMARK VINA RESULT: -7.479463043      3.596      8.042
REMARK  5 active torsions:
REMARK  status: ('A' for Active; 'I' for Inactive)
REMARK    1  A    between atoms: C4_5  and  C5_6 
REMARK       I    between atoms: C5_6  and  N2_8 
REMARK    2  A    between atoms: N2_8  and  N3_10 
REMARK    3  A    between atoms: N3_10  and  C6_11 
REMARK    4  A    between atoms: C6_11  and  C7_12 
REMARK    5  A    between atoms: C13_19  and  N4_20 
ROOT
HETATM    1  C5  UNL     1      56.528  23.685 102.051  1.00  0.00     0.282 C 
HETATM    2  O1  UNL     1      57.267  22.783 101.870  1.00  0.00    -0.265 OA
HETATM    3  N2  UNL     1      56.757  25.081 102.104  1.00  0.00    -0.199 N 
ATOM      4  H2  UNL     1      55.937  25.662 102.278  1.00  0.00     0.205 HD
ENDROOT
BRANCH   1   5
HETATM    5  C4  UNL     1      55.043  23.431 102.311  1.00  0.00     0.070 A 
HETATM    6  C3  UNL     1      54.181  24.265 101.638  1.00  0.00     0.037 A 
HETATM    7  C2  UNL     1      52.857  23.958 101.594  1.00  0.00     0.091 A 
HETATM    8  N1  UNL     1      52.344  22.861 102.197  1.00  0.00    -0.368 N 
HETATM    9  C1  UNL     1      50.951  22.510 102.069  1.00  0.00     0.154 C 
HETATM   10  C14 UNL     1      53.204  22.049 102.865  1.00  0.00     0.127 A 
HETATM   11  C13 UNL     1      54.581  22.324 102.931  1.00  0.00     0.134 A 
BRANCH  11  12
HETATM   12  N4  UNL     1      55.427  21.478 103.677  1.00  0.00    -0.113 N 
HETATM   13  O2  UNL     1      55.528  20.298 103.327  1.00  0.00    -0.532 OA
HETATM   14  O3  UNL     1      56.158  21.835 104.780  1.00  0.00    -0.532 OA
ENDBRANCH  11  12
ENDBRANCH   1   5
BRANCH   3  15
HETATM   15  N3  UNL     1      57.890  25.719 101.958  1.00  0.00    -0.335 NA
BRANCH  15  16
HETATM   16  C6  UNL     1      58.878  26.288 101.843  1.00  0.00     0.223 C 
BRANCH  16  17
HETATM   17  C7  UNL     1      59.548  27.283 102.680  1.00  0.00     0.033 A 
HETATM   18  C8  UNL     1      60.235  26.913 103.793  1.00  0.00     0.017 A 
HETATM   19  C9  UNL     1      60.825  27.931 104.527  1.00  0.00     0.001 A 
HETATM   20  C10 UNL     1      60.732  29.257 104.165  1.00  0.00     0.003 A 
HETATM   21  C11 UNL     1      60.021  29.634 103.025  1.00  0.00     0.043 A 
HETATM   22  C12 UNL     1      59.442  28.629 102.305  1.00  0.00     0.129 A 
HETATM   23  F1  UNL     1      58.773  29.018 101.183  1.00  0.00    -0.205 F 
ENDBRANCH  16  17
ENDBRANCH  15  16
ENDBRANCH   3  15
TORSDOF 5
ENDMDL
MODEL 5
REMARK VINA RESULT: -7.442586476      3.495      8.062
REMARK  5 active torsions:
REMARK  status: ('A' for Active; 'I' for Inactive)
REMARK    1  A    between atoms: C4_5  and  C5_6 
REMARK       I    between atoms: C5_6  and  N2_8 
REMARK    2  A    between atoms: N2_8  and  N3_10 
REMARK    3  A    between atoms: N3_10  and  C6_11 
REMARK    4  A    between atoms: C6_11  and  C7_12 
REMARK    5  A    between atoms: C13_19  and  N4_20 
ROOT
HETATM    1  C5  UNL     1      56.561  23.701 102.076  1.00  0.00     0.282 C 
HETATM    2  O1  UNL     1      57.304  22.802 101.895  1.00  0.00    -0.265 OA
HETATM    3  N2  UNL     1      56.783  25.098 102.133  1.00  0.00    -0.199 N 
ATOM      4  H2  UNL     1      55.960  25.674 102.306  1.00  0.00     0.205 HD
ENDROOT
BRANCH   1   5
HETATM    5  C4  UNL     1      55.076  23.440 102.332  1.00  0.00     0.070 A 
HETATM    6  C3  UNL     1      54.212  24.278 101.667  1.00  0.00     0.037 A 
HETATM    7  C2  UNL     1      52.888  23.967 101.619  1.00  0.00     0.091 A 
HETATM    8  N1  UNL     1      52.379  22.862 102.211  1.00  0.00    -0.368 N 
HETATM    9  C1  UNL     1      50.986  22.508 102.078  1.00  0.00     0.154 C 
HETATM   10  C14 UNL     1      53.241  22.046 102.871  1.00  0.00     0.127 A 
HETATM   11  C13 UNL     1      54.617  22.325 102.941  1.00  0.00     0.134 A 
BRANCH  11  12
HETATM   12  N4  UNL     1      55.465  21.475 103.679  1.00  0.00    -0.113 N 
HETATM   13  O2  UNL     1      55.548  20.292 103.334  1.00  0.00    -0.532 OA
HETATM   14  O3  UNL     1      56.216  21.829 104.769  1.00  0.00    -0.532 OA
ENDBRANCH  11  12
ENDBRANCH   1   5
BRANCH   3  15
HETATM   15  N3  UNL     1      57.913  25.742 101.991  1.00  0.00    -0.335 NA
BRANCH  15  16
HETATM   16  C6  UNL     1      58.896  26.319 101.875  1.00  0.00     0.223 C 
BRANCH  16  17
HETATM   17  C7  UNL     1      59.462  27.461 102.592  1.00  0.00     0.033 A 
HETATM   18  C8  UNL     1      59.366  28.720 102.088  1.00  0.00     0.017 A 
HETATM   19  C9  UNL     1      59.946  29.735 102.836  1.00  0.00     0.001 A 
HETATM   20  C10 UNL     1      60.590  29.501 104.030  1.00  0.00     0.003 A 
HETATM   21  C11 UNL     1      60.692  28.206 104.541  1.00  0.00     0.043 A 
HETATM   22  C12 UNL     1      60.121  27.210 103.803  1.00  0.00     0.129 A 
HETATM   23  F1  UNL     1      60.212  25.957 104.333  1.00  0.00    -0.205 F 
ENDBRANCH  16  17
ENDBRANCH  15  16
ENDBRANCH   3  15
TORSDOF 5
ENDMDL
