MODEL 1
REMARK VINA RESULT: -5.170678067      0.000      0.000
REMARK  4 active torsions:
REMARK  status: ('A' for Active; 'I' for Inactive)
REMARK       I    between atoms: C2_2  and  N1_4 
REMARK    1  A    between atoms: N1_4  and  C3_6 
REMARK    2  A    between atoms: C8_11  and  C9_12 
REMARK       I    between atoms: C9_12  and  N2_14 
REMARK    3  A    between atoms: N2_14  and  C10_15 
REMARK    4  A    between atoms: N2_14  and  C12_18 
ROOT
HETATM    1  C10 UNL     1      59.124  27.542 108.554  1.00  0.00     0.191 C 
HETATM    2  C11 UNL     1      60.538  27.307 108.652  1.00  0.00     0.105 C 
HETATM    3  N3  UNL     1      61.668  27.139 108.730  1.00  0.00    -0.191 NA
ENDROOT
BRANCH   1   4
HETATM    4  N2  UNL     1      58.731  28.813 108.013  1.00  0.00    -0.281 N 
HETATM    5  C9  UNL     1      59.055  29.281 106.714  1.00  0.00     0.231 C 
HETATM    6  O2  UNL     1      58.653  30.423 106.382  1.00  0.00    -0.273 OA
BRANCH   5   7
HETATM    7  C8  UNL     1      59.817  28.508 105.757  1.00  0.00     0.085 C 
HETATM    8  C7  UNL     1      59.073  27.970 104.575  1.00  0.00     0.022 C 
HETATM    9  C3  UNL     1      59.615  28.893 103.458  1.00  0.00     0.093 C 
HETATM   10  C6  UNL     1      59.758  26.687 104.171  1.00  0.00     0.008 C 
HETATM   11  C4  UNL     1      61.059  28.699 103.776  1.00  0.00     0.009 C 
HETATM   12  C5  UNL     1      61.173  27.206 103.907  1.00  0.00     0.007 C 
HETATM   13  C15 UNL     1      61.042  29.260 105.210  1.00  0.00     0.021 C 
BRANCH   9  14
HETATM   14  N1  UNL     1      59.186  28.520 102.161  1.00  0.00    -0.356 N 
HETATM   15  C2  UNL     1      59.513  29.127 100.945  1.00  0.00     0.213 C 
HETATM   16  C1  UNL     1      59.004  28.650  99.642  1.00  0.00     0.117 C 
HETATM   17  O1  UNL     1      60.274  30.124 100.954  1.00  0.00    -0.274 OA
ATOM     18  H1  UNL     1      58.565  27.713 102.108  1.00  0.00     0.162 HD
ENDBRANCH   9  14
ENDBRANCH   5   7
BRANCH   4  19
HETATM   19  C12 UNL     1      57.937  29.674 108.909  1.00  0.00     0.177 C 
HETATM   20  C13 UNL     1      57.092  28.886 109.870  1.00  0.00     0.076 C 
HETATM   21  C14 UNL     1      58.921  30.565 109.632  1.00  0.00     0.076 C 
HETATM   22  F1  UNL     1      57.091  30.479 108.176  1.00  0.00    -0.220 F 
ENDBRANCH   4  19
ENDBRANCH   1   4
TORSDOF 4
ENDMDL
MODEL 2
REMARK VINA RESULT: -5.126605136      1.402      1.852
REMARK  4 active torsions:
REMARK  status: ('A' for Active; 'I' for Inactive)
REMARK       I    between atoms: C2_2  and  N1_4 
REMARK    1  A    between atoms: N1_4  and  C3_6 
REMARK    2  A    between atoms: C8_11  and  C9_12 
REMARK       I    between atoms: C9_12  and  N2_14 
REMARK    3  A    between atoms: N2_14  and  C10_15 
REMARK    4  A    between atoms: N2_14  and  C12_18 
ROOT
HETATM    1  C10 UNL     1      58.437  28.426 108.452  1.00  0.00     0.191 C 
HETATM    2  C11 UNL     1      57.105  27.995 108.129  1.00  0.00     0.105 C 
HETATM    3  N3  UNL     1      56.043  27.665 107.855  1.00  0.00    -0.191 NA
ENDROOT
BRANCH   1   4
HETATM    4  N2  UNL     1      58.844  29.687 107.900  1.00  0.00    -0.281 N 
HETATM    5  C9  UNL     1      59.552  29.854 106.682  1.00  0.00     0.231 C 
HETATM    6  O2  UNL     1      59.853  31.021 106.331  1.00  0.00    -0.273 OA
BRANCH   5   7
HETATM    7  C8  UNL     1      59.938  28.752 105.829  1.00  0.00     0.085 C 
HETATM    8  C7  UNL     1      59.003  28.400 104.713  1.00  0.00     0.022 C 
HETATM    9  C3  UNL     1      59.807  28.924 103.499  1.00  0.00     0.093 C 
HETATM   10  C6  UNL     1      59.149  26.918 104.469  1.00  0.00     0.008 C 
HETATM   11  C4  UNL     1      61.087  28.243 103.848  1.00  0.00     0.009 C 
HETATM   12  C5  UNL     1      60.645  26.839 104.155  1.00  0.00     0.007 C 
HETATM   13  C15 UNL     1      61.333  28.926 105.206  1.00  0.00     0.021 C 
BRANCH   9  14
HETATM   14  N1  UNL     1      59.222  28.595 102.252  1.00  0.00    -0.356 N 
HETATM   15  C2  UNL     1      59.469  29.186 101.009  1.00  0.00     0.213 C 
HETATM   16  C1  UNL     1      58.797  28.759  99.765  1.00  0.00     0.117 C 
HETATM   17  O1  UNL     1      60.299  30.124 100.942  1.00  0.00    -0.274 OA
ATOM     18  H1  UNL     1      58.541  27.836 102.261  1.00  0.00     0.162 HD
ENDBRANCH   9  14
ENDBRANCH   5   7
BRANCH   4  19
HETATM   19  C12 UNL     1      58.487  30.880 108.691  1.00  0.00     0.177 C 
HETATM   20  C13 UNL     1      57.265  31.579 108.164  1.00  0.00     0.076 C 
HETATM   21  C14 UNL     1      58.288  30.408 110.114  1.00  0.00     0.076 C 
HETATM   22  F1  UNL     1      59.522  31.790 108.684  1.00  0.00    -0.220 F 
ENDBRANCH   4  19
ENDBRANCH   1   4
TORSDOF 4
ENDMDL
MODEL 3
REMARK VINA RESULT: -5.087997033      1.791      2.036
REMARK  4 active torsions:
REMARK  status: ('A' for Active; 'I' for Inactive)
REMARK       I    between atoms: C2_2  and  N1_4 
REMARK    1  A    between atoms: N1_4  and  C3_6 
REMARK    2  A    between atoms: C8_11  and  C9_12 
REMARK       I    between atoms: C9_12  and  N2_14 
REMARK    3  A    between atoms: N2_14  and  C10_15 
REMARK    4  A    between atoms: N2_14  and  C12_18 
ROOT
HETATM    1  C10 UNL     1      61.540  29.445 108.628  1.00  0.00     0.191 C 
HETATM    2  C11 UNL     1      61.684  28.070 109.019  1.00  0.00     0.105 C 
HETATM    3  N3  UNL     1      61.783  26.969 109.319  1.00  0.00    -0.191 NA
ENDROOT
BRANCH   1   4
HETATM    4  N2  UNL     1      60.253  29.824 108.117  1.00  0.00    -0.281 N 
HETATM    5  C9  UNL     1      59.754  29.485 106.833  1.00  0.00     0.231 C 
HETATM    6  O2  UNL     1      58.612  29.900 106.517  1.00  0.00    -0.273 OA
BRANCH   5   7
HETATM    7  C8  UNL     1      60.491  28.686 105.878  1.00  0.00     0.085 C 
HETATM    8  C7  UNL     1      59.951  27.322 105.578  1.00  0.00     0.022 C 
HETATM    9  C3  UNL     1      59.394  27.550 104.153  1.00  0.00     0.093 C 
HETATM   10  C6  UNL     1      61.133  26.449 105.231  1.00  0.00     0.008 C 
HETATM   11  C4  UNL     1      60.629  28.171 103.594  1.00  0.00     0.009 C 
HETATM   12  C5  UNL     1      61.710  27.230 104.048  1.00  0.00     0.007 C 
HETATM   13  C15 UNL     1      60.698  29.393 104.529  1.00  0.00     0.021 C 
BRANCH   9  14
HETATM   14  N1  UNL     1      58.934  26.363 103.532  1.00  0.00    -0.356 N 
HETATM   15  C2  UNL     1      58.470  26.207 102.222  1.00  0.00     0.213 C 
HETATM   16  C1  UNL     1      58.012  24.912 101.677  1.00  0.00     0.117 C 
HETATM   17  O1  UNL     1      58.439  27.211 101.470  1.00  0.00    -0.274 OA
ATOM     18  H1  UNL     1      58.942  25.521 104.108  1.00  0.00     0.162 HD
ENDBRANCH   9  14
ENDBRANCH   5   7
BRANCH   4  19
HETATM   19  C12 UNL     1      59.416  30.634 109.022  1.00  0.00     0.177 C 
HETATM   20  C13 UNL     1      58.398  29.810 109.760  1.00  0.00     0.076 C 
HETATM   21  C14 UNL     1      60.361  31.334 109.971  1.00  0.00     0.076 C 
HETATM   22  F1  UNL     1      58.734  31.598 108.312  1.00  0.00    -0.220 F 
ENDBRANCH   4  19
ENDBRANCH   1   4
TORSDOF 4
ENDMDL
MODEL 4
REMARK VINA RESULT: -5.081061695      2.816      3.600
REMARK  4 active torsions:
REMARK  status: ('A' for Active; 'I' for Inactive)
REMARK       I    between atoms: C2_2  and  N1_4 
REMARK    1  A    between atoms: N1_4  and  C3_6 
REMARK    2  A    between atoms: C8_11  and  C9_12 
REMARK       I    between atoms: C9_12  and  N2_14 
REMARK    3  A    between atoms: N2_14  and  C10_15 
REMARK    4  A    between atoms: N2_14  and  C12_18 
ROOT
HETATM    1  C10 UNL     1      61.666  29.475 107.984  1.00  0.00     0.191 C 
HETATM    2  C11 UNL     1      61.847  28.109 108.392  1.00  0.00     0.105 C 
HETATM    3  N3  UNL     1      62.007  27.019 108.706  1.00  0.00    -0.191 NA
ENDROOT
BRANCH   1   4
HETATM    4  N2  UNL     1      62.324  29.863 106.769  1.00  0.00    -0.281 N 
HETATM    5  C9  UNL     1      61.877  29.541 105.461  1.00  0.00     0.231 C 
HETATM    6  O2  UNL     1      62.565  29.939 104.489  1.00  0.00    -0.273 OA
BRANCH   5   7
HETATM    7  C8  UNL     1      60.673  28.784 105.195  1.00  0.00     0.085 C 
HETATM    8  C7  UNL     1      59.859  29.202 104.010  1.00  0.00     0.022 C 
HETATM    9  C3  UNL     1      60.166  28.039 103.037  1.00  0.00     0.093 C 
HETATM   10  C6  UNL     1      58.421  28.870 104.325  1.00  0.00     0.008 C 
HETATM   11  C4  UNL     1      59.858  26.940 103.997  1.00  0.00     0.009 C 
HETATM   12  C5  UNL     1      58.537  27.365 104.576  1.00  0.00     0.007 C 
HETATM   13  C15 UNL     1      60.924  27.274 105.057  1.00  0.00     0.021 C 
BRANCH   9  14
HETATM   14  N1  UNL     1      59.402  28.085 101.845  1.00  0.00    -0.356 N 
HETATM   15  C2  UNL     1      59.424  29.069 100.852  1.00  0.00     0.213 C 
HETATM   16  C1  UNL     1      58.578  29.013  99.642  1.00  0.00     0.117 C 
HETATM   17  O1  UNL     1      60.196  30.048 100.991  1.00  0.00    -0.274 OA
ATOM     18  H1  UNL     1      58.760  27.307 101.692  1.00  0.00     0.162 HD
ENDBRANCH   9  14
ENDBRANCH   5   7
BRANCH   4  19
HETATM   19  C12 UNL     1      63.559  30.651 106.931  1.00  0.00     0.177 C 
HETATM   20  C13 UNL     1      63.651  31.791 105.956  1.00  0.00     0.076 C 
HETATM   21  C14 UNL     1      63.573  31.138 108.362  1.00  0.00     0.076 C 
HETATM   22  F1  UNL     1      64.667  29.853 106.742  1.00  0.00    -0.220 F 
ENDBRANCH   4  19
ENDBRANCH   1   4
TORSDOF 4
ENDMDL
MODEL 5
REMARK VINA RESULT: -4.925875931      2.918      6.335
REMARK  4 active torsions:
REMARK  status: ('A' for Active; 'I' for Inactive)
REMARK       I    between atoms: C2_2  and  N1_4 
REMARK    1  A    between atoms: N1_4  and  C3_6 
REMARK    2  A    between atoms: C8_11  and  C9_12 
REMARK       I    between atoms: C9_12  and  N2_14 
REMARK    3  A    between atoms: N2_14  and  C10_15 
REMARK    4  A    between atoms: N2_14  and  C12_18 
ROOT
HETATM    1  C10 UNL     1      59.425  26.586 101.433  1.00  0.00     0.191 C 
HETATM    2  C11 UNL     1      58.225  25.875 101.777  1.00  0.00     0.105 C 
HETATM    3  N3  UNL     1      57.257  25.326 102.048  1.00  0.00    -0.191 NA
ENDROOT
BRANCH   1   4
HETATM    4  N2  UNL     1      59.348  28.018 101.485  1.00  0.00    -0.281 N 
HETATM    5  C9  UNL     1      59.452  28.798 102.665  1.00  0.00     0.231 C 
HETATM    6  O2  UNL     1      59.351  30.045 102.558  1.00  0.00    -0.273 OA
BRANCH   5   7
HETATM    7  C8  UNL     1      59.669  28.230 103.978  1.00  0.00     0.085 C 
HETATM    8  C7  UNL     1      61.070  28.264 104.506  1.00  0.00     0.022 C 
HETATM    9  C3  UNL     1      60.933  29.360 105.589  1.00  0.00     0.093 C 
HETATM   10  C6  UNL     1      61.229  27.063 105.407  1.00  0.00     0.008 C 
HETATM   11  C4  UNL     1      59.735  28.778 106.257  1.00  0.00     0.009 C 
HETATM   12  C5  UNL     1      60.112  27.332 106.418  1.00  0.00     0.007 C 
HETATM   13  C15 UNL     1      58.767  28.843 105.061  1.00  0.00     0.021 C 
BRANCH   9  14
HETATM   14  N1  UNL     1      62.097  29.519 106.380  1.00  0.00    -0.356 N 
HETATM   15  C2  UNL     1      63.183  30.367 106.144  1.00  0.00     0.213 C 
HETATM   16  C1  UNL     1      64.352  30.451 107.045  1.00  0.00     0.117 C 
HETATM   17  O1  UNL     1      63.169  31.094 105.122  1.00  0.00    -0.274 OA
ATOM     18  H1  UNL     1      62.150  28.946 107.223  1.00  0.00     0.162 HD
ENDBRANCH   9  14
ENDBRANCH   5   7
BRANCH   4  19
HETATM   19  C12 UNL     1      59.139  28.697 100.192  1.00  0.00     0.177 C 
HETATM   20  C13 UNL     1      60.049  29.879 100.005  1.00  0.00     0.076 C 
HETATM   21  C14 UNL     1      59.353  27.654  99.119  1.00  0.00     0.076 C 
HETATM   22  F1  UNL     1      57.841  29.152 100.092  1.00  0.00    -0.220 F 
ENDBRANCH   4  19
ENDBRANCH   1   4
TORSDOF 4
ENDMDL
