MODEL 1
REMARK VINA RESULT: -6.325123711      0.000      0.000
REMARK  8 active torsions:
REMARK  status: ('A' for Active; 'I' for Inactive)
REMARK    1  A    between atoms: C2_2  and  C3_3 
REMARK    2  A    between atoms: C3_3  and  C4_4 
REMARK    3  A    between atoms: C4_4  and  N1_5 
REMARK    4  A    between atoms: N1_5  and  C5_8 
REMARK    5  A    between atoms: C5_8  and  C6_9 
REMARK    6  A    between atoms: C6_9  and  C7_10 
REMARK    7  A    between atoms: C7_10  and  C8_11 
REMARK    8  A    between atoms: C8_11  and  C9_12 
ROOT
HETATM    1  C5  UNL     1       1.921   0.576  22.443  1.00  0.00     0.232 C 
ENDROOT
BRANCH   1   2
HETATM    2  N1  UNL     1       3.249   0.677  21.936  1.00  0.00    -0.075 N 
ATOM      3  H12 UNL     1       3.252   0.577  20.921  1.00  0.00     0.277 HD
ATOM      4  H11 UNL     1       3.792  -0.147  22.193  1.00  0.00     0.277 HD
BRANCH   2   5
HETATM    5  C4  UNL     1       3.942   1.884  22.329  1.00  0.00     0.236 C 
BRANCH   5   6
HETATM    6  C3  UNL     1       3.000   2.887  22.924  1.00  0.00     0.054 C 
BRANCH   6   7
HETATM    7  C2  UNL     1       2.982   4.146  22.128  1.00  0.00    -0.035 C 
HETATM    8  C1  UNL     1       2.268   5.173  22.551  1.00  0.00     0.007 C 
ENDBRANCH   6   7
ENDBRANCH   5   6
ENDBRANCH   2   5
ENDBRANCH   1   2
BRANCH   1   9
HETATM    9  C6  UNL     1       1.481  -0.842  22.542  1.00  0.00     0.027 C 
BRANCH   9  10
HETATM   10  C7  UNL     1       1.234  -1.281  23.943  1.00  0.00     0.002 C 
BRANCH  10  11
HETATM   11  C8  UNL     1       1.227  -2.819  24.007  1.00  0.00     0.005 C 
BRANCH  11  12
HETATM   12  C9  UNL     1       0.124  -3.177  24.976  1.00  0.00    -0.014 C 
HETATM   13  C10 UNL     1      -0.415  -2.071  25.819  1.00  0.00     0.004 C 
HETATM   14  C11 UNL     1      -0.081  -2.892  27.048  1.00  0.00     0.001 C 
HETATM   15  C12 UNL     1       0.697  -3.871  26.192  1.00  0.00     0.004 C 
ENDBRANCH  11  12
ENDBRANCH  10  11
ENDBRANCH   9  10
ENDBRANCH   1   9
TORSDOF 8
ENDMDL
MODEL 2
REMARK VINA RESULT: -6.236113186      0.800      1.026
REMARK  8 active torsions:
REMARK  status: ('A' for Active; 'I' for Inactive)
REMARK    1  A    between atoms: C2_2  and  C3_3 
REMARK    2  A    between atoms: C3_3  and  C4_4 
REMARK    3  A    between atoms: C4_4  and  N1_5 
REMARK    4  A    between atoms: N1_5  and  C5_8 
REMARK    5  A    between atoms: C5_8  and  C6_9 
REMARK    6  A    between atoms: C6_9  and  C7_10 
REMARK    7  A    between atoms: C7_10  and  C8_11 
REMARK    8  A    between atoms: C8_11  and  C9_12 
ROOT
HETATM    1  C5  UNL     1       3.228  -0.020  21.604  1.00  0.00     0.232 C 
ENDROOT
BRANCH   1   2
HETATM    2  N1  UNL     1       4.023   1.152  21.458  1.00  0.00    -0.075 N 
ATOM      3  H12 UNL     1       3.798   1.629  20.584  1.00  0.00     0.277 HD
ATOM      4  H11 UNL     1       4.995   0.905  21.274  1.00  0.00     0.277 HD
BRANCH   2   5
HETATM    5  C4  UNL     1       3.936   2.069  22.573  1.00  0.00     0.236 C 
BRANCH   5   6
HETATM    6  C3  UNL     1       3.864   3.493  22.108  1.00  0.00     0.054 C 
BRANCH   6   7
HETATM    7  C2  UNL     1       2.454   3.965  22.036  1.00  0.00    -0.035 C 
HETATM    8  C1  UNL     1       2.165   5.206  22.379  1.00  0.00     0.007 C 
ENDBRANCH   6   7
ENDBRANCH   5   6
ENDBRANCH   2   5
ENDBRANCH   1   2
BRANCH   1   9
HETATM    9  C6  UNL     1       2.063   0.218  22.498  1.00  0.00     0.027 C 
BRANCH   9  10
HETATM   10  C7  UNL     1       1.368  -1.035  22.901  1.00  0.00     0.002 C 
BRANCH  10  11
HETATM   11  C8  UNL     1       1.483  -1.221  24.424  1.00  0.00     0.005 C 
BRANCH  11  12
HETATM   12  C9  UNL     1       0.481  -2.297  24.775  1.00  0.00    -0.014 C 
HETATM   13  C10 UNL     1      -0.429  -2.019  25.923  1.00  0.00     0.004 C 
HETATM   14  C11 UNL     1       0.058  -3.298  26.574  1.00  0.00     0.001 C 
HETATM   15  C12 UNL     1       1.157  -3.416  25.537  1.00  0.00     0.004 C 
ENDBRANCH  11  12
ENDBRANCH  10  11
ENDBRANCH   9  10
ENDBRANCH   1   9
TORSDOF 8
ENDMDL
MODEL 3
REMARK VINA RESULT: -6.232691519      1.141      6.793
REMARK  8 active torsions:
REMARK  status: ('A' for Active; 'I' for Inactive)
REMARK    1  A    between atoms: C2_2  and  C3_3 
REMARK    2  A    between atoms: C3_3  and  C4_4 
REMARK    3  A    between atoms: C4_4  and  N1_5 
REMARK    4  A    between atoms: N1_5  and  C5_8 
REMARK    5  A    between atoms: C5_8  and  C6_9 
REMARK    6  A    between atoms: C6_9  and  C7_10 
REMARK    7  A    between atoms: C7_10  and  C8_11 
REMARK    8  A    between atoms: C8_11  and  C9_12 
ROOT
HETATM    1  C5  UNL     1       1.749  -0.839  21.920  1.00  0.00     0.232 C 
ENDROOT
BRANCH   1   2
HETATM    2  N1  UNL     1       1.857  -1.822  22.944  1.00  0.00    -0.075 N 
ATOM      3  H12 UNL     1       2.835  -2.068  23.102  1.00  0.00     0.277 HD
ATOM      4  H11 UNL     1       1.504  -2.721  22.616  1.00  0.00     0.277 HD
BRANCH   2   5
HETATM    5  C4  UNL     1       1.221  -1.452  24.189  1.00  0.00     0.236 C 
BRANCH   5   6
HETATM    6  C3  UNL     1       0.425  -2.588  24.757  1.00  0.00     0.054 C 
BRANCH   6   7
HETATM    7  C2  UNL     1      -0.302  -2.173  25.988  1.00  0.00    -0.035 C 
HETATM    8  C1  UNL     1      -0.026  -2.761  27.138  1.00  0.00     0.007 C 
ENDBRANCH   6   7
ENDBRANCH   5   6
ENDBRANCH   2   5
ENDBRANCH   1   2
BRANCH   1   9
HETATM    9  C6  UNL     1       1.521   0.517  22.487  1.00  0.00     0.027 C 
BRANCH   9  10
HETATM   10  C7  UNL     1       2.444   1.546  21.933  1.00  0.00     0.002 C 
BRANCH  10  11
HETATM   11  C8  UNL     1       2.921   2.472  23.065  1.00  0.00     0.005 C 
BRANCH  11  12
HETATM   12  C9  UNL     1       3.263   3.784  22.396  1.00  0.00    -0.014 C 
HETATM   13  C10 UNL     1       2.462   4.974  22.802  1.00  0.00     0.004 C 
HETATM   14  C11 UNL     1       2.092   5.178  21.347  1.00  0.00     0.001 C 
HETATM   15  C12 UNL     1       2.683   3.827  20.999  1.00  0.00     0.004 C 
ENDBRANCH  11  12
ENDBRANCH  10  11
ENDBRANCH   9  10
ENDBRANCH   1   9
TORSDOF 8
ENDMDL
MODEL 4
REMARK VINA RESULT: -6.136682005      1.218      6.908
REMARK  8 active torsions:
REMARK  status: ('A' for Active; 'I' for Inactive)
REMARK    1  A    between atoms: C2_2  and  C3_3 
REMARK    2  A    between atoms: C3_3  and  C4_4 
REMARK    3  A    between atoms: C4_4  and  N1_5 
REMARK    4  A    between atoms: N1_5  and  C5_8 
REMARK    5  A    between atoms: C5_8  and  C6_9 
REMARK    6  A    between atoms: C6_9  and  C7_10 
REMARK    7  A    between atoms: C7_10  and  C8_11 
REMARK    8  A    between atoms: C8_11  and  C9_12 
ROOT
HETATM    1  C5  UNL     1       1.480  -0.796  22.448  1.00  0.00     0.232 C 
ENDROOT
BRANCH   1   2
HETATM    2  N1  UNL     1       1.112  -1.276  23.737  1.00  0.00    -0.075 N 
ATOM      3  H12 UNL     1       0.143  -1.036  23.945  1.00  0.00     0.277 HD
ATOM      4  H11 UNL     1       1.583  -0.741  24.466  1.00  0.00     0.277 HD
BRANCH   2   5
HETATM    5  C4  UNL     1       1.335  -2.693  23.926  1.00  0.00     0.236 C 
BRANCH   5   6
HETATM    6  C3  UNL     1       0.268  -3.307  24.781  1.00  0.00     0.054 C 
BRANCH   6   7
HETATM    7  C2  UNL     1      -0.229  -2.339  25.799  1.00  0.00    -0.035 C 
HETATM    8  C1  UNL     1      -0.020  -2.578  27.080  1.00  0.00     0.007 C 
ENDBRANCH   6   7
ENDBRANCH   5   6
ENDBRANCH   2   5
ENDBRANCH   1   2
BRANCH   1   9
HETATM    9  C6  UNL     1       1.556   0.690  22.421  1.00  0.00     0.027 C 
BRANCH   9  10
HETATM   10  C7  UNL     1       2.953   1.203  22.366  1.00  0.00     0.002 C 
BRANCH  10  11
HETATM   11  C8  UNL     1       3.017   2.591  23.027  1.00  0.00     0.005 C 
BRANCH  11  12
HETATM   12  C9  UNL     1       2.184   3.496  22.148  1.00  0.00    -0.014 C 
HETATM   13  C10 UNL     1       2.797   3.932  20.861  1.00  0.00     0.004 C 
HETATM   14  C11 UNL     1       2.573   5.370  21.282  1.00  0.00     0.001 C 
HETATM   15  C12 UNL     1       2.208   4.912  22.679  1.00  0.00     0.004 C 
ENDBRANCH  11  12
ENDBRANCH  10  11
ENDBRANCH   9  10
ENDBRANCH   1   9
TORSDOF 8
ENDMDL
MODEL 5
REMARK VINA RESULT: -5.965383407      0.928      1.415
REMARK  8 active torsions:
REMARK  status: ('A' for Active; 'I' for Inactive)
REMARK    1  A    between atoms: C2_2  and  C3_3 
REMARK    2  A    between atoms: C3_3  and  C4_4 
REMARK    3  A    between atoms: C4_4  and  N1_5 
REMARK    4  A    between atoms: N1_5  and  C5_8 
REMARK    5  A    between atoms: C5_8  and  C6_9 
REMARK    6  A    between atoms: C6_9  and  C7_10 
REMARK    7  A    between atoms: C7_10  and  C8_11 
REMARK    8  A    between atoms: C8_11  and  C9_12 
ROOT
HETATM    1  C5  UNL     1       2.859  -1.015  21.518  1.00  0.00     0.232 C 
ENDROOT
BRANCH   1   2
HETATM    2  N1  UNL     1       3.917  -0.070  21.650  1.00  0.00    -0.075 N 
ATOM      3  H12 UNL     1       4.748  -0.393  21.155  1.00  0.00     0.277 HD
ATOM      4  H11 UNL     1       4.274  -0.065  22.604  1.00  0.00     0.277 HD
BRANCH   2   5
HETATM    5  C4  UNL     1       3.568   1.270  21.232  1.00  0.00     0.236 C 
BRANCH   5   6
HETATM    6  C3  UNL     1       4.026   2.292  22.229  1.00  0.00     0.054 C 
BRANCH   6   7
HETATM    7  C2  UNL     1       2.873   3.040  22.801  1.00  0.00    -0.035 C 
HETATM    8  C1  UNL     1       2.210   3.893  22.043  1.00  0.00     0.007 C 
ENDBRANCH   6   7
ENDBRANCH   5   6
ENDBRANCH   2   5
ENDBRANCH   1   2
BRANCH   1   9
HETATM    9  C6  UNL     1       1.568  -0.461  22.007  1.00  0.00     0.027 C 
BRANCH   9  10
HETATM   10  C7  UNL     1       1.387  -0.610  23.477  1.00  0.00     0.002 C 
BRANCH  10  11
HETATM   11  C8  UNL     1       1.216  -2.099  23.827  1.00  0.00     0.005 C 
BRANCH  11  12
HETATM   12  C9  UNL     1       1.083  -2.147  25.332  1.00  0.00    -0.014 C 
HETATM   13  C10 UNL     1       1.142  -3.493  25.969  1.00  0.00     0.004 C 
HETATM   14  C11 UNL     1      -0.207  -3.215  26.600  1.00  0.00     0.001 C 
HETATM   15  C12 UNL     1      -0.365  -1.980  25.737  1.00  0.00     0.004 C 
ENDBRANCH  11  12
ENDBRANCH  10  11
ENDBRANCH   9  10
ENDBRANCH   1   9
TORSDOF 8
ENDMDL
