MODEL 1
REMARK VINA RESULT: -6.272105814      0.000      0.000
REMARK  7 active torsions:
REMARK  status: ('A' for Active; 'I' for Inactive)
REMARK    1  A    between atoms: C2_2  and  C3_3 
REMARK    2  A    between atoms: C3_3  and  C4_4 
REMARK    3  A    between atoms: C4_4  and  C5_5 
REMARK    4  A    between atoms: C5_5  and  C6_6 
REMARK    5  A    between atoms: C6_6  and  N1_7 
REMARK    6  A    between atoms: N1_7  and  C7_10 
REMARK    7  A    between atoms: C7_10  and  C8_11 
ROOT
HETATM    1  N1  UNL     1       2.843   1.007  21.537  1.00  0.00    -0.075 N 
ATOM      2  H11 UNL     1       2.503   1.121  20.582  1.00  0.00     0.277 HD
ATOM      3  H12 UNL     1       3.840   1.140  21.370  1.00  0.00     0.277 HD
ENDROOT
BRANCH   1   4
HETATM    4  C6  UNL     1       2.573  -0.295  22.026  1.00  0.00     0.232 C 
BRANCH   4   5
HETATM    5  C5  UNL     1       1.386  -0.272  22.963  1.00  0.00     0.028 C 
BRANCH   5   6
HETATM    6  C4  UNL     1       1.264  -1.699  23.487  1.00  0.00     0.005 C 
BRANCH   6   7
HETATM    7  C3  UNL     1       1.271  -1.735  24.979  1.00  0.00     0.026 C 
BRANCH   7   8
HETATM    8  C2  UNL     1      -0.012  -2.176  25.585  1.00  0.00    -0.037 C 
HETATM    9  C1  UNL     1      -0.083  -2.555  26.867  1.00  0.00     0.007 C 
ENDBRANCH   7   8
ENDBRANCH   6   7
ENDBRANCH   5   6
ENDBRANCH   4   5
ENDBRANCH   1   4
BRANCH   1  10
HETATM   10  C7  UNL     1       2.322   2.019  22.394  1.00  0.00     0.237 C 
BRANCH  10  11
HETATM   11  C8  UNL     1       3.240   3.225  22.487  1.00  0.00     0.011 C 
HETATM   12  C9  UNL     1       4.000   3.346  21.211  1.00  0.00     0.006 C 
HETATM   13  C10 UNL     1       3.447   4.552  20.498  1.00  0.00     0.000 C 
HETATM   14  C11 UNL     1       2.106   4.840  21.150  1.00  0.00     0.000 C 
HETATM   15  C12 UNL     1       2.349   4.451  22.592  1.00  0.00     0.006 C 
ENDBRANCH  10  11
ENDBRANCH   1  10
TORSDOF 7
ENDMDL
MODEL 2
REMARK VINA RESULT: -6.156308750      0.858      1.134
REMARK  7 active torsions:
REMARK  status: ('A' for Active; 'I' for Inactive)
REMARK    1  A    between atoms: C2_2  and  C3_3 
REMARK    2  A    between atoms: C3_3  and  C4_4 
REMARK    3  A    between atoms: C4_4  and  C5_5 
REMARK    4  A    between atoms: C5_5  and  C6_6 
REMARK    5  A    between atoms: C6_6  and  N1_7 
REMARK    6  A    between atoms: N1_7  and  C7_10 
REMARK    7  A    between atoms: C7_10  and  C8_11 
ROOT
HETATM    1  N1  UNL     1       3.769   0.437  21.743  1.00  0.00    -0.075 N 
ATOM      2  H11 UNL     1       4.724   0.125  21.566  1.00  0.00     0.277 HD
ATOM      3  H12 UNL     1       3.855   0.664  22.733  1.00  0.00     0.277 HD
ENDROOT
BRANCH   1   4
HETATM    4  C6  UNL     1       2.839  -0.611  21.535  1.00  0.00     0.232 C 
BRANCH   4   5
HETATM    5  C5  UNL     1       1.510  -0.272  22.171  1.00  0.00     0.028 C 
BRANCH   5   6
HETATM    6  C4  UNL     1       1.691  -0.570  23.655  1.00  0.00     0.005 C 
BRANCH   6   7
HETATM    7  C3  UNL     1       1.175  -1.926  24.007  1.00  0.00     0.026 C 
BRANCH   7   8
HETATM    8  C2  UNL     1       0.883  -2.112  25.452  1.00  0.00    -0.037 C 
HETATM    9  C1  UNL     1      -0.375  -2.220  25.899  1.00  0.00     0.007 C 
ENDBRANCH   7   8
ENDBRANCH   6   7
ENDBRANCH   5   6
ENDBRANCH   4   5
ENDBRANCH   1   4
BRANCH   1  10
HETATM   10  C7  UNL     1       3.453   1.593  20.972  1.00  0.00     0.237 C 
BRANCH  10  11
HETATM   11  C8  UNL     1       3.932   2.875  21.631  1.00  0.00     0.011 C 
HETATM   12  C9  UNL     1       3.848   3.983  20.638  1.00  0.00     0.006 C 
HETATM   13  C10 UNL     1       2.712   4.866  21.080  1.00  0.00     0.000 C 
HETATM   14  C11 UNL     1       1.891   4.033  22.048  1.00  0.00     0.000 C 
HETATM   15  C12 UNL     1       2.944   3.196  22.740  1.00  0.00     0.006 C 
ENDBRANCH  10  11
ENDBRANCH   1  10
TORSDOF 7
ENDMDL
MODEL 3
REMARK VINA RESULT: -6.137909893      1.405      6.703
REMARK  7 active torsions:
REMARK  status: ('A' for Active; 'I' for Inactive)
REMARK    1  A    between atoms: C2_2  and  C3_3 
REMARK    2  A    between atoms: C3_3  and  C4_4 
REMARK    3  A    between atoms: C4_4  and  C5_5 
REMARK    4  A    between atoms: C5_5  and  C6_6 
REMARK    5  A    between atoms: C6_6  and  N1_7 
REMARK    6  A    between atoms: N1_7  and  C7_10 
REMARK    7  A    between atoms: C7_10  and  C8_11 
ROOT
HETATM    1  N1  UNL     1       2.147  -1.406  23.200  1.00  0.00    -0.075 N 
ATOM      2  H11 UNL     1       3.107  -1.073  23.295  1.00  0.00     0.277 HD
ATOM      3  H12 UNL     1       2.337  -2.379  22.960  1.00  0.00     0.277 HD
ENDROOT
BRANCH   1   4
HETATM    4  C6  UNL     1       1.475  -0.739  22.146  1.00  0.00     0.232 C 
BRANCH   4   5
HETATM    5  C5  UNL     1       1.365   0.740  22.442  1.00  0.00     0.028 C 
BRANCH   5   6
HETATM    6  C4  UNL     1       2.779   1.287  22.274  1.00  0.00     0.005 C 
BRANCH   6   7
HETATM    7  C3  UNL     1       2.898   2.671  22.820  1.00  0.00     0.026 C 
BRANCH   7   8
HETATM    8  C2  UNL     1       2.161   3.699  22.041  1.00  0.00    -0.037 C 
HETATM    9  C1  UNL     1       2.154   4.985  22.416  1.00  0.00     0.007 C 
ENDBRANCH   7   8
ENDBRANCH   6   7
ENDBRANCH   5   6
ENDBRANCH   4   5
ENDBRANCH   1   4
BRANCH   1  10
HETATM   10  C7  UNL     1       1.441  -1.306  24.433  1.00  0.00     0.237 C 
BRANCH  10  11
HETATM   11  C8  UNL     1       0.337  -2.341  24.551  1.00  0.00     0.011 C 
HETATM   12  C9  UNL     1       0.958  -3.682  24.752  1.00  0.00     0.006 C 
HETATM   13  C10 UNL     1       0.680  -4.071  26.180  1.00  0.00     0.000 C 
HETATM   14  C11 UNL     1       0.296  -2.786  26.893  1.00  0.00     0.000 C 
HETATM   15  C12 UNL     1      -0.439  -2.017  25.816  1.00  0.00     0.006 C 
ENDBRANCH  10  11
ENDBRANCH   1  10
TORSDOF 7
ENDMDL
MODEL 4
REMARK VINA RESULT: -6.126642986      1.441      6.866
REMARK  7 active torsions:
REMARK  status: ('A' for Active; 'I' for Inactive)
REMARK    1  A    between atoms: C2_2  and  C3_3 
REMARK    2  A    between atoms: C3_3  and  C4_4 
REMARK    3  A    between atoms: C4_4  and  C5_5 
REMARK    4  A    between atoms: C5_5  and  C6_6 
REMARK    5  A    between atoms: C6_6  and  N1_7 
REMARK    6  A    between atoms: N1_7  and  C7_10 
REMARK    7  A    between atoms: C7_10  and  C8_11 
ROOT
HETATM    1  N1  UNL     1       1.851  -2.021  23.080  1.00  0.00    -0.075 N 
ATOM      2  H11 UNL     1       2.717  -2.317  23.531  1.00  0.00     0.277 HD
ATOM      3  H12 UNL     1       1.589  -2.903  22.640  1.00  0.00     0.277 HD
ENDROOT
BRANCH   1   4
HETATM    4  C6  UNL     1       2.094  -1.016  22.111  1.00  0.00     0.232 C 
BRANCH   4   5
HETATM    5  C5  UNL     1       1.349   0.251  22.465  1.00  0.00     0.028 C 
BRANCH   5   6
HETATM    6  C4  UNL     1       2.413   1.343  22.503  1.00  0.00     0.005 C 
BRANCH   6   7
HETATM    7  C3  UNL     1       1.862   2.657  22.060  1.00  0.00     0.026 C 
BRANCH   7   8
HETATM    8  C2  UNL     1       2.715   3.824  22.406  1.00  0.00    -0.037 C 
HETATM    9  C1  UNL     1       2.212   5.064  22.456  1.00  0.00     0.007 C 
ENDBRANCH   7   8
ENDBRANCH   6   7
ENDBRANCH   5   6
ENDBRANCH   4   5
ENDBRANCH   1   4
BRANCH   1  10
HETATM   10  C7  UNL     1       0.882  -1.613  24.041  1.00  0.00     0.237 C 
BRANCH  10  11
HETATM   11  C8  UNL     1       1.220  -2.094  25.441  1.00  0.00     0.011 C 
HETATM   12  C9  UNL     1      -0.020  -2.064  26.269  1.00  0.00     0.006 C 
HETATM   13  C10 UNL     1      -0.412  -3.500  26.499  1.00  0.00     0.000 C 
HETATM   14  C11 UNL     1       0.338  -4.308  25.454  1.00  0.00     0.000 C 
HETATM   15  C12 UNL     1       1.640  -3.548  25.320  1.00  0.00     0.006 C 
ENDBRANCH  10  11
ENDBRANCH   1  10
TORSDOF 7
ENDMDL
MODEL 5
REMARK VINA RESULT: -6.041613910      1.186      2.041
REMARK  7 active torsions:
REMARK  status: ('A' for Active; 'I' for Inactive)
REMARK    1  A    between atoms: C2_2  and  C3_3 
REMARK    2  A    between atoms: C3_3  and  C4_4 
REMARK    3  A    between atoms: C4_4  and  C5_5 
REMARK    4  A    between atoms: C5_5  and  C6_6 
REMARK    5  A    between atoms: C6_6  and  N1_7 
REMARK    6  A    between atoms: N1_7  and  C7_10 
REMARK    7  A    between atoms: C7_10  and  C8_11 
ROOT
HETATM    1  N1  UNL     1       4.714   0.898  21.773  1.00  0.00    -0.075 N 
ATOM      2  H11 UNL     1       5.617   1.012  21.314  1.00  0.00     0.277 HD
ATOM      3  H12 UNL     1       5.018   0.394  22.605  1.00  0.00     0.277 HD
ENDROOT
BRANCH   1   4
HETATM    4  C6  UNL     1       3.836   0.109  20.988  1.00  0.00     0.232 C 
BRANCH   4   5
HETATM    5  C5  UNL     1       3.335  -1.074  21.784  1.00  0.00     0.028 C 
BRANCH   5   6
HETATM    6  C4  UNL     1       1.814  -0.983  21.721  1.00  0.00     0.005 C 
BRANCH   6   7
HETATM    7  C3  UNL     1       1.241  -0.507  23.015  1.00  0.00     0.026 C 
BRANCH   7   8
HETATM    8  C2  UNL     1       1.414  -1.455  24.145  1.00  0.00    -0.037 C 
HETATM    9  C1  UNL     1       0.365  -1.896  24.851  1.00  0.00     0.007 C 
ENDBRANCH   7   8
ENDBRANCH   6   7
ENDBRANCH   5   6
ENDBRANCH   4   5
ENDBRANCH   1   4
BRANCH   1  10
HETATM   10  C7  UNL     1       4.142   2.158  22.111  1.00  0.00     0.237 C 
BRANCH  10  11
HETATM   11  C8  UNL     1       3.020   2.555  21.168  1.00  0.00     0.011 C 
HETATM   12  C9  UNL     1       1.967   3.263  21.950  1.00  0.00     0.006 C 
HETATM   13  C10 UNL     1       2.036   4.711  21.545  1.00  0.00     0.000 C 
HETATM   14  C11 UNL     1       3.390   4.892  20.881  1.00  0.00     0.000 C 
HETATM   15  C12 UNL     1       3.601   3.562  20.190  1.00  0.00     0.006 C 
ENDBRANCH  10  11
ENDBRANCH   1  10
TORSDOF 7
ENDMDL
