MODEL 1
REMARK VINA RESULT: -5.410270887      0.000      0.000
REMARK  7 active torsions:
REMARK  status: ('A' for Active; 'I' for Inactive)
REMARK    1  A    between atoms: C2_2  and  C3_3 
REMARK    2  A    between atoms: C3_3  and  C4_4 
REMARK    3  A    between atoms: C4_4  and  C5_5 
REMARK    4  A    between atoms: C4_4  and  N1_8 
REMARK    5  A    between atoms: C5_5  and  C6_6 
REMARK    6  A    between atoms: N1_8  and  C8_10 
REMARK    7  A    between atoms: C8_10  and  C9_11 
ROOT
HETATM    1  C4  UNL     1       3.535   1.886  21.822  1.00  0.00     0.080 C 
ENDROOT
BRANCH   1   2
HETATM    2  C3  UNL     1       2.616   1.266  22.780  1.00  0.00     0.024 C 
BRANCH   2   3
HETATM    3  C2  UNL     1       1.330   0.687  22.376  1.00  0.00    -0.002 C 
HETATM    4  C1  UNL     1       1.322  -0.741  22.997  1.00  0.00     0.005 C 
ENDBRANCH   2   3
ENDBRANCH   1   2
BRANCH   1   5
HETATM    5  C5  UNL     1       3.804   3.332  21.825  1.00  0.00     0.024 C 
BRANCH   5   6
HETATM    6  C6  UNL     1       2.844   4.297  21.261  1.00  0.00    -0.002 C 
HETATM    7  C7  UNL     1       2.314   5.104  22.489  1.00  0.00     0.005 C 
ENDBRANCH   5   6
ENDBRANCH   1   5
BRANCH   1   8
HETATM    8  N1  UNL     1       4.727   1.083  21.749  1.00  0.00    -0.397 N 
ATOM      9  H1  UNL     1       5.613   1.456  22.090  1.00  0.00     0.159 HD
BRANCH   8  10
HETATM   10  C8  UNL     1       4.673  -0.195  21.214  1.00  0.00     0.060 C 
BRANCH  10  11
HETATM   11  C9  UNL     1       4.242  -0.309  19.780  1.00  0.00     0.024 A 
HETATM   12  C10 UNL     1       3.085  -1.300  19.593  1.00  0.00     0.010 A 
HETATM   13  C11 UNL     1       4.441  -1.632  19.062  1.00  0.00     0.010 A 
ENDBRANCH  10  11
ENDBRANCH   8  10
ENDBRANCH   1   8
TORSDOF 7
ENDMDL
MODEL 2
REMARK VINA RESULT: -5.408859767      0.994      4.785
REMARK  7 active torsions:
REMARK  status: ('A' for Active; 'I' for Inactive)
REMARK    1  A    between atoms: C2_2  and  C3_3 
REMARK    2  A    between atoms: C3_3  and  C4_4 
REMARK    3  A    between atoms: C4_4  and  C5_5 
REMARK    4  A    between atoms: C4_4  and  N1_8 
REMARK    5  A    between atoms: C5_5  and  C6_6 
REMARK    6  A    between atoms: N1_8  and  C8_10 
REMARK    7  A    between atoms: C8_10  and  C9_11 
ROOT
HETATM    1  C4  UNL     1       3.307   1.128  21.283  1.00  0.00     0.080 C 
ENDROOT
BRANCH   1   2
HETATM    2  C3  UNL     1       3.761   0.848  19.919  1.00  0.00     0.024 C 
BRANCH   2   3
HETATM    3  C2  UNL     1       3.753  -0.505  19.350  1.00  0.00    -0.002 C 
HETATM    4  C1  UNL     1       5.229  -0.770  18.930  1.00  0.00     0.005 C 
ENDBRANCH   2   3
ENDBRANCH   1   2
BRANCH   1   5
HETATM    5  C5  UNL     1       2.745   0.078  22.147  1.00  0.00     0.024 C 
BRANCH   5   6
HETATM    6  C6  UNL     1       1.324   0.074  22.533  1.00  0.00    -0.002 C 
HETATM    7  C7  UNL     1       1.185  -1.103  23.551  1.00  0.00     0.005 C 
ENDBRANCH   5   6
ENDBRANCH   1   5
BRANCH   1   8
HETATM    8  N1  UNL     1       4.301   1.935  21.939  1.00  0.00    -0.397 N 
ATOM      9  H1  UNL     1       5.187   1.519  22.227  1.00  0.00     0.159 HD
BRANCH   8  10
HETATM   10  C8  UNL     1       4.058   3.280  22.178  1.00  0.00     0.060 C 
BRANCH  10  11
HETATM   11  C9  UNL     1       2.619   3.705  22.235  1.00  0.00     0.024 A 
HETATM   12  C10 UNL     1       2.266   4.725  21.144  1.00  0.00     0.010 A 
HETATM   13  C11 UNL     1       2.298   5.149  22.576  1.00  0.00     0.010 A 
ENDBRANCH  10  11
ENDBRANCH   8  10
ENDBRANCH   1   8
TORSDOF 7
ENDMDL
MODEL 3
REMARK VINA RESULT: -5.274217729      0.887      4.401
REMARK  7 active torsions:
REMARK  status: ('A' for Active; 'I' for Inactive)
REMARK    1  A    between atoms: C2_2  and  C3_3 
REMARK    2  A    between atoms: C3_3  and  C4_4 
REMARK    3  A    between atoms: C4_4  and  C5_5 
REMARK    4  A    between atoms: C4_4  and  N1_8 
REMARK    5  A    between atoms: C5_5  and  C6_6 
REMARK    6  A    between atoms: N1_8  and  C8_10 
REMARK    7  A    between atoms: C8_10  and  C9_11 
ROOT
HETATM    1  C4  UNL     1       3.633   0.670  21.589  1.00  0.00     0.080 C 
ENDROOT
BRANCH   1   2
HETATM    2  C3  UNL     1       2.369   0.616  22.327  1.00  0.00     0.024 C 
BRANCH   2   3
HETATM    3  C2  UNL     1       1.423  -0.497  22.185  1.00  0.00    -0.002 C 
HETATM    4  C1  UNL     1       1.316  -1.115  23.610  1.00  0.00     0.005 C 
ENDBRANCH   2   3
ENDBRANCH   1   2
BRANCH   1   5
HETATM    5  C5  UNL     1       3.688   0.512  20.127  1.00  0.00     0.024 C 
BRANCH   5   6
HETATM    6  C6  UNL     1       4.359  -0.639  19.500  1.00  0.00    -0.002 C 
HETATM    7  C7  UNL     1       3.205  -1.619  19.116  1.00  0.00     0.005 C 
ENDBRANCH   5   6
ENDBRANCH   1   5
BRANCH   1   8
HETATM    8  N1  UNL     1       4.395   1.792  22.071  1.00  0.00    -0.397 N 
ATOM      9  H1  UNL     1       5.406   1.818  21.933  1.00  0.00     0.159 HD
BRANCH   8  10
HETATM   10  C8  UNL     1       3.758   2.837  22.723  1.00  0.00     0.060 C 
BRANCH  10  11
HETATM   11  C9  UNL     1       3.492   4.074  21.914  1.00  0.00     0.024 A 
HETATM   12  C10 UNL     1       2.402   4.958  22.536  1.00  0.00     0.010 A 
HETATM   13  C11 UNL     1       2.134   4.237  21.255  1.00  0.00     0.010 A 
ENDBRANCH  10  11
ENDBRANCH   8  10
ENDBRANCH   1   8
TORSDOF 7
ENDMDL
MODEL 4
REMARK VINA RESULT: -5.204795849      1.257      4.950
REMARK  7 active torsions:
REMARK  status: ('A' for Active; 'I' for Inactive)
REMARK    1  A    between atoms: C2_2  and  C3_3 
REMARK    2  A    between atoms: C3_3  and  C4_4 
REMARK    3  A    between atoms: C4_4  and  C5_5 
REMARK    4  A    between atoms: C4_4  and  N1_8 
REMARK    5  A    between atoms: C5_5  and  C6_6 
REMARK    6  A    between atoms: N1_8  and  C8_10 
REMARK    7  A    between atoms: C8_10  and  C9_11 
ROOT
HETATM    1  C4  UNL     1       2.501   0.749  22.030  1.00  0.00     0.080 C 
ENDROOT
BRANCH   1   2
HETATM    2  C3  UNL     1       3.684   0.236  21.334  1.00  0.00     0.024 C 
BRANCH   2   3
HETATM    3  C2  UNL     1       3.689  -0.043  19.893  1.00  0.00    -0.002 C 
HETATM    4  C1  UNL     1       3.844   1.351  19.216  1.00  0.00     0.005 C 
ENDBRANCH   2   3
ENDBRANCH   1   2
BRANCH   1   5
HETATM    5  C5  UNL     1       1.394  -0.131  22.434  1.00  0.00     0.024 C 
BRANCH   5   6
HETATM    6  C6  UNL     1       1.628  -1.523  22.855  1.00  0.00    -0.002 C 
HETATM    7  C7  UNL     1       0.931  -1.647  24.247  1.00  0.00     0.005 C 
ENDBRANCH   5   6
ENDBRANCH   1   5
BRANCH   1   8
HETATM    8  N1  UNL     1       2.936   1.636  23.076  1.00  0.00    -0.397 N 
ATOM      9  H1  UNL     1       3.051   1.284  24.027  1.00  0.00     0.159 HD
BRANCH   8  10
HETATM   10  C8  UNL     1       3.200   2.968  22.794  1.00  0.00     0.060 C 
BRANCH  10  11
HETATM   11  C9  UNL     1       2.152   3.714  22.020  1.00  0.00     0.024 A 
HETATM   12  C10 UNL     1       2.751   4.574  20.899  1.00  0.00     0.010 A 
HETATM   13  C11 UNL     1       2.134   5.230  22.091  1.00  0.00     0.010 A 
ENDBRANCH  10  11
ENDBRANCH   8  10
ENDBRANCH   1   8
TORSDOF 7
ENDMDL
MODEL 5
REMARK VINA RESULT: -5.196919231      2.342      5.191
REMARK  7 active torsions:
REMARK  status: ('A' for Active; 'I' for Inactive)
REMARK    1  A    between atoms: C2_2  and  C3_3 
REMARK    2  A    between atoms: C3_3  and  C4_4 
REMARK    3  A    between atoms: C4_4  and  C5_5 
REMARK    4  A    between atoms: C4_4  and  N1_8 
REMARK    5  A    between atoms: C5_5  and  C6_6 
REMARK    6  A    between atoms: N1_8  and  C8_10 
REMARK    7  A    between atoms: C8_10  and  C9_11 
ROOT
HETATM    1  C4  UNL     1       1.928  -0.909  21.925  1.00  0.00     0.080 C 
ENDROOT
BRANCH   1   2
HETATM    2  C3  UNL     1       1.447   0.374  22.444  1.00  0.00     0.024 C 
BRANCH   2   3
HETATM    3  C2  UNL     1       2.135   1.640  22.171  1.00  0.00    -0.002 C 
HETATM    4  C1  UNL     1       2.992   1.912  23.442  1.00  0.00     0.005 C 
ENDBRANCH   2   3
ENDBRANCH   1   2
BRANCH   1   5
HETATM    5  C5  UNL     1       3.189  -1.021  21.175  1.00  0.00     0.024 C 
BRANCH   5   6
HETATM    6  C6  UNL     1       3.208  -1.098  19.704  1.00  0.00    -0.002 C 
HETATM    7  C7  UNL     1       3.943   0.201  19.242  1.00  0.00     0.005 C 
ENDBRANCH   5   6
ENDBRANCH   1   5
BRANCH   1   8
HETATM    8  N1  UNL     1       1.788  -1.901  22.958  1.00  0.00    -0.397 N 
ATOM      9  H1  UNL     1       2.114  -2.854  22.797  1.00  0.00     0.159 HD
BRANCH   8  10
HETATM   10  C8  UNL     1       1.211  -1.562  24.173  1.00  0.00     0.060 C 
BRANCH  10  11
HETATM   11  C9  UNL     1       0.496  -2.659  24.908  1.00  0.00     0.024 A 
HETATM   12  C10 UNL     1      -0.528  -2.119  25.916  1.00  0.00     0.010 A 
HETATM   13  C11 UNL     1       0.711  -2.795  26.405  1.00  0.00     0.010 A 
ENDBRANCH  10  11
ENDBRANCH   8  10
ENDBRANCH   1   8
TORSDOF 7
ENDMDL
