MODEL 1
REMARK VINA RESULT: -8.099496801      0.000      0.000
REMARK  5 active torsions:
REMARK  status: ('A' for Active; 'I' for Inactive)
REMARK    1  A    between atoms: C7_8  and  N1_9 
REMARK    2  A    between atoms: N2_11  and  C8_13 
REMARK    3  A    between atoms: C10_20  and  C11_21 
REMARK    4  A    between atoms: N6_24  and  C13_25 
REMARK    5  A    between atoms: C19_36  and  N8_37 
ROOT
HETATM    1  C8  UNL     1      32.177   3.957   5.081  1.00  0.00     0.152 A 
HETATM    2  N3  UNL     1      32.233   3.798   3.724  1.00  0.00    -0.291 N 
ATOM      3  H3  UNL     1      31.778   3.044   3.208  1.00  0.00     0.172 HD
HETATM    4  C9  UNL     1      32.962   4.763   3.170  1.00  0.00     0.326 A 
HETATM    5  O1  UNL     1      33.210   4.907   1.943  1.00  0.00    -0.247 OA
HETATM    6  N4  UNL     1      33.377   5.546   4.199  1.00  0.00    -0.304 N 
ATOM      7  H4  UNL     1      33.961   6.374   4.085  1.00  0.00     0.171 HD
HETATM    8  C10 UNL     1      32.929   5.104   5.380  1.00  0.00     0.101 A 
ENDROOT
BRANCH   1   9
HETATM    9  N2  UNL     1      31.482   3.192   6.001  1.00  0.00    -0.282 N 
HETATM   10  N1  UNL     1      30.478   3.258   6.643  1.00  0.00    -0.290 N 
ATOM     11  H1  UNL     1      30.302   2.448   7.239  1.00  0.00     0.187 HD
ATOM     12  H2  UNL     1      31.971   2.315   6.185  1.00  0.00     0.188 HD
BRANCH  10  13
HETATM   13  C7  UNL     1      29.494   4.265   6.719  1.00  0.00     0.123 A 
HETATM   14  S1  UNL     1      28.632   5.000   5.428  1.00  0.00    -0.070 SA
HETATM   15  C6  UNL     1      27.644   6.068   6.316  1.00  0.00     0.017 A 
HETATM   16  C5  UNL     1      28.020   5.818   7.611  1.00  0.00    -0.004 A 
HETATM   17  C20 UNL     1      26.593   7.074   5.968  1.00  0.00     0.215 C 
HETATM   18  C4  UNL     1      27.258   6.674   8.612  1.00  0.00     0.079 C 
HETATM   19  C19 UNL     1      28.965   4.896   7.815  1.00  0.00     0.145 A 
HETATM   20  C2  UNL     1      25.809   6.591   8.114  1.00  0.00     0.058 C 
HETATM   21  C1  UNL     1      25.362   5.141   8.161  1.00  0.00     0.046 C 
HETATM   22  C3  UNL     1      24.971   7.328   9.144  1.00  0.00     0.046 C 
HETATM   23  O7  UNL     1      25.615   7.187   6.903  1.00  0.00    -0.376 OA
BRANCH  19  24
HETATM   24  N8  UNL     1      29.463   4.533   9.134  1.00  0.00    -0.112 N 
HETATM   25  O5  UNL     1      30.647   4.803   9.391  1.00  0.00    -0.532 OA
HETATM   26  O6  UNL     1      28.637   3.916  10.039  1.00  0.00    -0.532 OA
ENDBRANCH  19  24
ENDBRANCH  10  13
ENDBRANCH   1   9
BRANCH   8  27
HETATM   27  C11 UNL     1      33.107   5.763   6.686  1.00  0.00     0.104 A 
HETATM   28  C12 UNL     1      34.094   5.274   7.541  1.00  0.00     0.142 A 
HETATM   29  N5  UNL     1      34.965   4.273   7.032  1.00  0.00    -0.081 NA
HETATM   30  N6  UNL     1      34.230   5.793   8.769  1.00  0.00    -0.259 N 
HETATM   31  C17 UNL     1      33.380   6.811   9.156  1.00  0.00     0.332 A 
HETATM   32  O3  UNL     1      33.482   7.334  10.321  1.00  0.00    -0.246 OA
HETATM   33  N7  UNL     1      32.446   7.278   8.355  1.00  0.00    -0.274 N 
HETATM   34  C18 UNL     1      32.264   6.785   7.099  1.00  0.00     0.265 A 
ATOM     35  H7  UNL     1      31.842   8.031   8.685  1.00  0.00     0.173 HD
HETATM   36  O4  UNL     1      31.363   7.251   6.371  1.00  0.00    -0.267 OA
BRANCH  30  37
HETATM   37  C13 UNL     1      35.213   5.389   9.697  1.00  0.00     0.233 C 
HETATM   38  C14 UNL     1      35.810   4.049   9.695  1.00  0.00     0.056 C 
HETATM   39  C15 UNL     1      34.630   3.161  10.042  1.00  0.00     0.031 C 
HETATM   40  C16 UNL     1      33.873   4.088  10.968  1.00  0.00     0.170 C 
HETATM   41  O2  UNL     1      34.537   5.319  10.965  1.00  0.00    -0.366 OA
ENDBRANCH  30  37
ENDBRANCH   8  27
TORSDOF 5
ENDMDL
MODEL 2
REMARK VINA RESULT: -7.683014462      1.743      2.246
REMARK  5 active torsions:
REMARK  status: ('A' for Active; 'I' for Inactive)
REMARK    1  A    between atoms: C7_8  and  N1_9 
REMARK    2  A    between atoms: N2_11  and  C8_13 
REMARK    3  A    between atoms: C10_20  and  C11_21 
REMARK    4  A    between atoms: N6_24  and  C13_25 
REMARK    5  A    between atoms: C19_36  and  N8_37 
ROOT
HETATM    1  C8  UNL     1      32.508   4.148   5.423  1.00  0.00     0.152 A 
HETATM    2  N3  UNL     1      32.117   4.161   4.113  1.00  0.00    -0.291 N 
ATOM      3  H3  UNL     1      31.777   3.347   3.599  1.00  0.00     0.172 HD
HETATM    4  C9  UNL     1      32.242   5.383   3.601  1.00  0.00     0.326 A 
HETATM    5  O1  UNL     1      31.966   5.734   2.422  1.00  0.00    -0.247 OA
HETATM    6  N4  UNL     1      32.722   6.156   4.608  1.00  0.00    -0.304 N 
ATOM      7  H4  UNL     1      32.923   7.151   4.516  1.00  0.00     0.171 HD
HETATM    8  C10 UNL     1      32.902   5.459   5.735  1.00  0.00     0.101 A 
ENDROOT
BRANCH   1   9
HETATM    9  N2  UNL     1      32.483   3.086   6.310  1.00  0.00    -0.282 N 
HETATM   10  N1  UNL     1      31.788   2.669   7.187  1.00  0.00    -0.290 N 
ATOM     11  H1  UNL     1      32.128   1.813   7.625  1.00  0.00     0.187 HD
ATOM     12  H2  UNL     1      33.295   2.483   6.175  1.00  0.00     0.188 HD
BRANCH  10  13
HETATM   13  C7  UNL     1      30.579   3.161   7.721  1.00  0.00     0.123 A 
HETATM   14  S1  UNL     1      30.296   3.791   9.292  1.00  0.00    -0.070 SA
HETATM   15  C6  UNL     1      28.641   4.176   9.152  1.00  0.00     0.017 A 
HETATM   16  C5  UNL     1      28.353   3.796   7.867  1.00  0.00    -0.004 A 
HETATM   17  C20 UNL     1      27.613   4.774  10.059  1.00  0.00     0.215 C 
HETATM   18  C4  UNL     1      26.898   4.047   7.500  1.00  0.00     0.079 C 
HETATM   19  C19 UNL     1      29.344   3.278   7.136  1.00  0.00     0.145 A 
HETATM   20  C2  UNL     1      26.634   5.455   8.052  1.00  0.00     0.058 C 
HETATM   21  C1  UNL     1      27.564   6.432   7.356  1.00  0.00     0.046 C 
HETATM   22  C3  UNL     1      25.228   5.820   7.611  1.00  0.00     0.046 C 
HETATM   23  O7  UNL     1      26.683   5.523   9.413  1.00  0.00    -0.376 OA
BRANCH  19  24
HETATM   24  N8  UNL     1      29.180   2.828   5.761  1.00  0.00    -0.112 N 
HETATM   25  O5  UNL     1      29.158   1.604   5.560  1.00  0.00    -0.532 OA
HETATM   26  O6  UNL     1      29.060   3.742   4.745  1.00  0.00    -0.532 OA
ENDBRANCH  19  24
ENDBRANCH  10  13
ENDBRANCH   1   9
BRANCH   8  27
HETATM   27  C11 UNL     1      33.316   5.999   7.042  1.00  0.00     0.104 A 
HETATM   28  C12 UNL     1      34.289   5.307   7.763  1.00  0.00     0.142 A 
HETATM   29  N5  UNL     1      34.926   4.211   7.119  1.00  0.00    -0.081 NA
HETATM   30  N6  UNL     1      34.631   5.720   8.990  1.00  0.00    -0.259 N 
HETATM   31  C17 UNL     1      34.005   6.836   9.512  1.00  0.00     0.332 A 
HETATM   32  O3  UNL     1      34.309   7.263  10.681  1.00  0.00    -0.246 OA
HETATM   33  N7  UNL     1      33.087   7.495   8.839  1.00  0.00    -0.274 N 
HETATM   34  C18 UNL     1      32.701   7.117   7.589  1.00  0.00     0.265 A 
ATOM     35  H7  UNL     1      32.652   8.314   9.265  1.00  0.00     0.173 HD
HETATM   36  O4  UNL     1      31.821   7.765   6.985  1.00  0.00    -0.267 OA
BRANCH  30  37
HETATM   37  C13 UNL     1      35.621   5.108   9.787  1.00  0.00     0.233 C 
HETATM   38  C14 UNL     1      35.897   3.667   9.750  1.00  0.00     0.056 C 
HETATM   39  C15 UNL     1      34.610   3.070  10.287  1.00  0.00     0.031 C 
HETATM   40  C16 UNL     1      34.219   4.147  11.276  1.00  0.00     0.170 C 
HETATM   41  O2  UNL     1      35.134   5.196  11.138  1.00  0.00    -0.366 OA
ENDBRANCH  30  37
ENDBRANCH   8  27
TORSDOF 5
ENDMDL
MODEL 3
REMARK VINA RESULT: -7.634542809      2.693      7.392
REMARK  5 active torsions:
REMARK  status: ('A' for Active; 'I' for Inactive)
REMARK    1  A    between atoms: C7_8  and  N1_9 
REMARK    2  A    between atoms: N2_11  and  C8_13 
REMARK    3  A    between atoms: C10_20  and  C11_21 
REMARK    4  A    between atoms: N6_24  and  C13_25 
REMARK    5  A    between atoms: C19_36  and  N8_37 
ROOT
HETATM    1  C8  UNL     1      30.264   5.457   8.058  1.00  0.00     0.152 A 
HETATM    2  N3  UNL     1      29.196   4.824   8.631  1.00  0.00    -0.291 N 
ATOM      3  H3  UNL     1      28.821   5.038   9.555  1.00  0.00     0.172 HD
HETATM    4  C9  UNL     1      28.713   3.891   7.814  1.00  0.00     0.326 A 
HETATM    5  O1  UNL     1      27.734   3.131   8.038  1.00  0.00    -0.247 OA
HETATM    6  N4  UNL     1      29.495   3.935   6.704  1.00  0.00    -0.304 N 
ATOM      7  H4  UNL     1      29.368   3.329   5.894  1.00  0.00     0.171 HD
HETATM    8  C10 UNL     1      30.450   4.867   6.798  1.00  0.00     0.101 A 
ENDROOT
BRANCH   1   9
HETATM    9  N2  UNL     1      31.005   6.510   8.567  1.00  0.00    -0.282 N 
HETATM   10  N1  UNL     1      32.096   6.704   9.010  1.00  0.00    -0.290 N 
ATOM     11  H1  UNL     1      32.272   7.668   9.293  1.00  0.00     0.187 HD
ATOM     12  H2  UNL     1      30.458   7.371   8.563  1.00  0.00     0.188 HD
BRANCH  10  13
HETATM   13  C7  UNL     1      33.183   5.827   9.209  1.00  0.00     0.123 A 
HETATM   14  S1  UNL     1      34.760   5.931   8.539  1.00  0.00    -0.070 SA
HETATM   15  C6  UNL     1      35.465   4.555   9.257  1.00  0.00     0.017 A 
HETATM   16  C5  UNL     1      34.436   4.047  10.007  1.00  0.00    -0.004 A 
HETATM   17  C20 UNL     1      36.816   3.913   9.213  1.00  0.00     0.215 C 
HETATM   18  C4  UNL     1      34.834   2.785  10.759  1.00  0.00     0.079 C 
HETATM   19  C19 UNL     1      33.271   4.699   9.982  1.00  0.00     0.145 A 
HETATM   20  C2  UNL     1      36.214   3.137  11.331  1.00  0.00     0.058 C 
HETATM   21  C1  UNL     1      36.064   4.322  12.267  1.00  0.00     0.046 C 
HETATM   22  C3  UNL     1      36.618   1.958  12.200  1.00  0.00     0.046 C 
HETATM   23  O7  UNL     1      37.171   3.308  10.376  1.00  0.00    -0.376 OA
BRANCH  19  24
HETATM   24  N8  UNL     1      32.094   4.272  10.725  1.00  0.00    -0.112 N 
HETATM   25  O5  UNL     1      31.772   4.941  11.720  1.00  0.00    -0.532 OA
HETATM   26  O6  UNL     1      31.387   3.166  10.323  1.00  0.00    -0.532 OA
ENDBRANCH  19  24
ENDBRANCH  10  13
ENDBRANCH   1   9
BRANCH   8  27
HETATM   27  C11 UNL     1      31.407   5.249   5.744  1.00  0.00     0.104 A 
HETATM   28  C12 UNL     1      31.017   6.218   4.821  1.00  0.00     0.142 A 
HETATM   29  N5  UNL     1      29.781   6.884   5.051  1.00  0.00    -0.081 NA
HETATM   30  N6  UNL     1      31.825   6.532   3.800  1.00  0.00    -0.259 N 
HETATM   31  C17 UNL     1      33.038   5.880   3.692  1.00  0.00     0.332 A 
HETATM   32  O3  UNL     1      33.840   6.156   2.731  1.00  0.00    -0.246 OA
HETATM   33  N7  UNL     1      33.414   4.964   4.558  1.00  0.00    -0.274 N 
HETATM   34  C18 UNL     1      32.630   4.607   5.612  1.00  0.00     0.265 A 
ATOM     35  H7  UNL     1      34.319   4.510   4.438  1.00  0.00     0.173 HD
HETATM   36  O4  UNL     1      33.019   3.729   6.410  1.00  0.00    -0.267 OA
BRANCH  30  37
HETATM   37  C13 UNL     1      31.537   7.517   2.831  1.00  0.00     0.233 C 
HETATM   38  C14 UNL     1      30.169   7.927   2.494  1.00  0.00     0.056 C 
HETATM   39  C15 UNL     1      29.587   6.667   1.882  1.00  0.00     0.031 C 
HETATM   40  C16 UNL     1      30.825   6.109   1.214  1.00  0.00     0.170 C 
HETATM   41  O2  UNL     1      31.900   6.930   1.569  1.00  0.00    -0.366 OA
ENDBRANCH  30  37
ENDBRANCH   8  27
TORSDOF 5
ENDMDL
MODEL 4
REMARK VINA RESULT: -7.598139119      2.777      4.532
REMARK  5 active torsions:
REMARK  status: ('A' for Active; 'I' for Inactive)
REMARK    1  A    between atoms: C7_8  and  N1_9 
REMARK    2  A    between atoms: N2_11  and  C8_13 
REMARK    3  A    between atoms: C10_20  and  C11_21 
REMARK    4  A    between atoms: N6_24  and  C13_25 
REMARK    5  A    between atoms: C19_36  and  N8_37 
ROOT
HETATM    1  C8  UNL     1      28.888   3.287   7.302  1.00  0.00     0.152 A 
HETATM    2  N3  UNL     1      28.264   2.804   6.186  1.00  0.00    -0.291 N 
ATOM      3  H3  UNL     1      27.315   3.047   5.898  1.00  0.00     0.172 HD
HETATM    4  C9  UNL     1      29.066   1.972   5.526  1.00  0.00     0.326 A 
HETATM    5  O1  UNL     1      28.796   1.358   4.459  1.00  0.00    -0.247 OA
HETATM    6  N4  UNL     1      30.219   1.928   6.242  1.00  0.00    -0.304 N 
ATOM      7  H4  UNL     1      31.030   1.368   5.982  1.00  0.00     0.171 HD
HETATM    8  C10 UNL     1      30.166   2.708   7.328  1.00  0.00     0.101 A 
ENDROOT
BRANCH   1   9
HETATM    9  N2  UNL     1      28.406   4.208   8.217  1.00  0.00    -0.282 N 
HETATM   10  N1  UNL     1      28.326   5.393   8.336  1.00  0.00    -0.290 N 
ATOM     11  H1  UNL     1      27.881   5.702   9.200  1.00  0.00     0.187 HD
ATOM     12  H2  UNL     1      28.002   3.736   9.026  1.00  0.00     0.188 HD
BRANCH  10  13
HETATM   13  C7  UNL     1      28.743   6.437   7.484  1.00  0.00     0.123 A 
HETATM   14  S1  UNL     1      30.223   7.307   7.525  1.00  0.00    -0.070 SA
HETATM   15  C6  UNL     1      29.976   8.352   6.201  1.00  0.00     0.017 A 
HETATM   16  C5  UNL     1      28.730   7.988   5.760  1.00  0.00    -0.004 A 
HETATM   17  C20 UNL     1      30.775   9.430   5.539  1.00  0.00     0.215 C 
HETATM   18  C4  UNL     1      28.279   8.802   4.555  1.00  0.00     0.079 C 
HETATM   19  C19 UNL     1      28.101   7.009   6.417  1.00  0.00     0.145 A 
HETATM   20  C2  UNL     1      29.527   8.826   3.661  1.00  0.00     0.058 C 
HETATM   21  C1  UNL     1      29.875   7.399   3.276  1.00  0.00     0.046 C 
HETATM   22  C3  UNL     1      29.107   9.522   2.379  1.00  0.00     0.046 C 
HETATM   23  O7  UNL     1      30.569   9.519   4.200  1.00  0.00    -0.376 OA
BRANCH  19  24
HETATM   24  N8  UNL     1      26.774   6.526   6.062  1.00  0.00    -0.112 N 
HETATM   25  O5  UNL     1      26.692   5.385   5.582  1.00  0.00    -0.532 OA
HETATM   26  O6  UNL     1      25.673   7.322   6.259  1.00  0.00    -0.532 OA
ENDBRANCH  19  24
ENDBRANCH  10  13
ENDBRANCH   1   9
BRANCH   8  27
HETATM   27  C11 UNL     1      31.268   2.972   8.270  1.00  0.00     0.104 A 
HETATM   28  C12 UNL     1      32.497   3.377   7.750  1.00  0.00     0.142 A 
HETATM   29  N5  UNL     1      32.558   3.658   6.357  1.00  0.00    -0.081 NA
HETATM   30  N6  UNL     1      33.545   3.546   8.566  1.00  0.00    -0.259 N 
HETATM   31  C17 UNL     1      33.376   3.313   9.917  1.00  0.00     0.332 A 
HETATM   32  O3  UNL     1      34.355   3.468  10.729  1.00  0.00    -0.246 OA
HETATM   33  N7  UNL     1      32.220   2.930  10.417  1.00  0.00    -0.274 N 
HETATM   34  C18 UNL     1      31.124   2.742   9.631  1.00  0.00     0.265 A 
ATOM     35  H7  UNL     1      32.144   2.770  11.421  1.00  0.00     0.173 HD
HETATM   36  O4  UNL     1      30.047   2.373  10.142  1.00  0.00    -0.267 OA
BRANCH  30  37
HETATM   37  C13 UNL     1      34.819   3.981   8.144  1.00  0.00     0.233 C 
HETATM   38  C14 UNL     1      35.697   4.807   8.980  1.00  0.00     0.056 C 
HETATM   39  C15 UNL     1      34.918   6.102   9.101  1.00  0.00     0.031 C 
HETATM   40  C16 UNL     1      34.255   6.131   7.741  1.00  0.00     0.170 C 
HETATM   41  O2  UNL     1      34.570   4.933   7.094  1.00  0.00    -0.366 OA
ENDBRANCH  30  37
ENDBRANCH   8  27
TORSDOF 5
ENDMDL
MODEL 5
REMARK VINA RESULT: -7.497676778      1.997      3.093
REMARK  5 active torsions:
REMARK  status: ('A' for Active; 'I' for Inactive)
REMARK    1  A    between atoms: C7_8  and  N1_9 
REMARK    2  A    between atoms: N2_11  and  C8_13 
REMARK    3  A    between atoms: C10_20  and  C11_21 
REMARK    4  A    between atoms: N6_24  and  C13_25 
REMARK    5  A    between atoms: C19_36  and  N8_37 
ROOT
HETATM    1  C8  UNL     1      32.268   6.799   5.526  1.00  0.00     0.152 A 
HETATM    2  N3  UNL     1      32.170   6.518   4.192  1.00  0.00    -0.291 N 
ATOM      3  H3  UNL     1      31.584   7.030   3.532  1.00  0.00     0.172 HD
HETATM    4  C9  UNL     1      32.947   5.486   3.873  1.00  0.00     0.326 A 
HETATM    5  O1  UNL     1      33.086   4.976   2.729  1.00  0.00    -0.247 OA
HETATM    6  N4  UNL     1      33.545   5.105   5.031  1.00  0.00    -0.304 N 
ATOM      7  H4  UNL     1      34.204   4.330   5.104  1.00  0.00     0.171 HD
HETATM    8  C10 UNL     1      33.171   5.868   6.065  1.00  0.00     0.101 A 
ENDROOT
BRANCH   1   9
HETATM    9  N2  UNL     1      31.657   7.822   6.230  1.00  0.00    -0.282 N 
HETATM   10  N1  UNL     1      30.628   8.024   6.801  1.00  0.00    -0.290 N 
ATOM     11  H1  UNL     1      30.549   8.954   7.213  1.00  0.00     0.187 HD
ATOM     12  H2  UNL     1      32.262   8.642   6.274  1.00  0.00     0.188 HD
BRANCH  10  13
HETATM   13  C7  UNL     1      29.503   7.198   7.001  1.00  0.00     0.123 A 
HETATM   14  S1  UNL     1      29.394   5.776   7.957  1.00  0.00    -0.070 SA
HETATM   15  C6  UNL     1      27.753   5.388   7.704  1.00  0.00     0.017 A 
HETATM   16  C5  UNL     1      27.333   6.391   6.869  1.00  0.00    -0.004 A 
HETATM   17  C20 UNL     1      26.837   4.303   8.175  1.00  0.00     0.215 C 
HETATM   18  C4  UNL     1      25.864   6.256   6.493  1.00  0.00     0.079 C 
HETATM   19  C19 UNL     1      28.228   7.316   6.511  1.00  0.00     0.145 A 
HETATM   20  C2  UNL     1      25.189   5.920   7.830  1.00  0.00     0.058 C 
HETATM   21  C1  UNL     1      25.418   7.071   8.793  1.00  0.00     0.046 C 
HETATM   22  C3  UNL     1      23.697   5.892   7.548  1.00  0.00     0.046 C 
HETATM   23  O7  UNL     1      25.549   4.705   8.331  1.00  0.00    -0.376 OA
BRANCH  19  24
HETATM   24  N8  UNL     1      27.923   8.432   5.628  1.00  0.00    -0.112 N 
HETATM   25  O5  UNL     1      26.768   8.886   5.660  1.00  0.00    -0.532 OA
HETATM   26  O6  UNL     1      28.890   8.942   4.799  1.00  0.00    -0.532 OA
ENDBRANCH  19  24
ENDBRANCH  10  13
ENDBRANCH   1   9
BRANCH   8  27
HETATM   27  C11 UNL     1      33.696   5.797   7.440  1.00  0.00     0.104 A 
HETATM   28  C12 UNL     1      33.374   4.680   8.211  1.00  0.00     0.142 A 
HETATM   29  N5  UNL     1      32.689   3.614   7.566  1.00  0.00    -0.081 NA
HETATM   30  N6  UNL     1      33.762   4.618   9.491  1.00  0.00    -0.259 N 
HETATM   31  C17 UNL     1      34.482   5.674  10.017  1.00  0.00     0.332 A 
HETATM   32  O3  UNL     1      34.873   5.649  11.237  1.00  0.00    -0.246 OA
HETATM   33  N7  UNL     1      34.790   6.731   9.296  1.00  0.00    -0.274 N 
HETATM   34  C18 UNL     1      34.418   6.845   7.992  1.00  0.00     0.265 A 
ATOM     35  H7  UNL     1      35.323   7.486   9.728  1.00  0.00     0.173 HD
HETATM   36  O4  UNL     1      34.725   7.867   7.343  1.00  0.00    -0.267 OA
BRANCH  30  37
HETATM   37  C13 UNL     1      33.512   3.523  10.345  1.00  0.00     0.233 C 
HETATM   38  C14 UNL     1      32.343   2.648  10.199  1.00  0.00     0.056 C 
HETATM   39  C15 UNL     1      31.189   3.584  10.500  1.00  0.00     0.031 C 
HETATM   40  C16 UNL     1      31.843   4.476  11.533  1.00  0.00     0.170 C 
HETATM   41  O2  UNL     1      33.187   4.100  11.623  1.00  0.00    -0.366 OA
ENDBRANCH  30  37
ENDBRANCH   8  27
TORSDOF 5
ENDMDL
