MODEL 1
REMARK VINA RESULT: -3.904647001      0.000      0.000
REMARK  1 active torsions:
REMARK  status: ('A' for Active; 'I' for Inactive)
REMARK    1  A    between atoms: C2_2  and  N1_4 
ROOT
HETATM    1  N1  UNL     1      12.224  -2.875  13.272  1.00  0.00    -0.362 N 
HETATM    2  C4  UNL     1      12.099  -1.992  12.242  1.00  0.00     0.091 A 
HETATM    3  C5  UNL     1      12.277  -2.722  11.093  1.00  0.00     0.019 A 
HETATM    4  C6  UNL     1      12.507  -4.036  11.407  1.00  0.00     0.019 A 
HETATM    5  C7  UNL     1      12.468  -4.106  12.792  1.00  0.00     0.091 A 
ENDROOT
BRANCH   1   6
HETATM    6  C2  UNL     1      12.104  -2.503  14.673  1.00  0.00     0.080 C 
HETATM    7  C1  UNL     1      11.245  -3.543  15.348  1.00  0.00     0.032 C 
HETATM    8  C3  UNL     1      11.461  -1.129  14.701  1.00  0.00     0.032 C 
ENDBRANCH   1   6
TORSDOF 1
ENDMDL
MODEL 2
REMARK VINA RESULT: -3.890768885      0.051      1.303
REMARK  1 active torsions:
REMARK  status: ('A' for Active; 'I' for Inactive)
REMARK    1  A    between atoms: C2_2  and  N1_4 
ROOT
HETATM    1  N1  UNL     1      12.210  -2.836  13.302  1.00  0.00    -0.362 N 
HETATM    2  C4  UNL     1      12.464  -4.099  12.858  1.00  0.00     0.091 A 
HETATM    3  C5  UNL     1      12.505  -4.019  11.489  1.00  0.00     0.019 A 
HETATM    4  C6  UNL     1      12.281  -2.727  11.091  1.00  0.00     0.019 A 
HETATM    5  C7  UNL     1      12.098  -1.998  12.258  1.00  0.00     0.091 A 
ENDROOT
BRANCH   1   6
HETATM    6  C2  UNL     1      12.087  -2.485  14.708  1.00  0.00     0.080 C 
HETATM    7  C1  UNL     1      11.231  -3.538  15.367  1.00  0.00     0.032 C 
HETATM    8  C3  UNL     1      11.438  -1.115  14.756  1.00  0.00     0.032 C 
ENDBRANCH   1   6
TORSDOF 1
ENDMDL
MODEL 3
REMARK VINA RESULT: -3.866656600      1.053      1.873
REMARK  1 active torsions:
REMARK  status: ('A' for Active; 'I' for Inactive)
REMARK    1  A    between atoms: C2_2  and  N1_4 
ROOT
HETATM    1  N1  UNL     1      12.502  -3.250  13.114  1.00  0.00    -0.362 N 
HETATM    2  C4  UNL     1      12.581  -4.214  12.154  1.00  0.00     0.091 A 
HETATM    3  C5  UNL     1      12.324  -3.584  10.962  1.00  0.00     0.019 A 
HETATM    4  C6  UNL     1      12.089  -2.251  11.181  1.00  0.00     0.019 A 
HETATM    5  C7  UNL     1      12.207  -2.067  12.551  1.00  0.00     0.091 A 
ENDROOT
BRANCH   1   6
HETATM    6  C2  UNL     1      12.711  -3.505  14.531  1.00  0.00     0.080 C 
HETATM    7  C1  UNL     1      13.409  -4.836  14.656  1.00  0.00     0.032 C 
HETATM    8  C3  UNL     1      11.338  -3.520  15.175  1.00  0.00     0.032 C 
ENDBRANCH   1   6
TORSDOF 1
ENDMDL
MODEL 4
REMARK VINA RESULT: -3.855817291      1.057      1.403
REMARK  1 active torsions:
REMARK  status: ('A' for Active; 'I' for Inactive)
REMARK    1  A    between atoms: C2_2  and  N1_4 
ROOT
HETATM    1  N1  UNL     1      12.501  -3.281  13.116  1.00  0.00    -0.362 N 
HETATM    2  C4  UNL     1      12.208  -2.062  12.582  1.00  0.00     0.091 A 
HETATM    3  C5  UNL     1      12.094  -2.259  11.229  1.00  0.00     0.019 A 
HETATM    4  C6  UNL     1      12.313  -3.579  10.930  1.00  0.00     0.019 A 
HETATM    5  C7  UNL     1      12.568  -4.203  12.143  1.00  0.00     0.091 A 
ENDROOT
BRANCH   1   6
HETATM    6  C2  UNL     1      12.705  -3.510  14.539  1.00  0.00     0.080 C 
HETATM    7  C1  UNL     1      13.411  -4.834  14.689  1.00  0.00     0.032 C 
HETATM    8  C3  UNL     1      11.329  -3.523  15.176  1.00  0.00     0.032 C 
ENDBRANCH   1   6
TORSDOF 1
ENDMDL
MODEL 5
REMARK VINA RESULT: -3.777304918      0.836      3.599
REMARK  1 active torsions:
REMARK  status: ('A' for Active; 'I' for Inactive)
REMARK    1  A    between atoms: C2_2  and  N1_4 
ROOT
HETATM    1  N1  UNL     1      12.309  -2.911  12.926  1.00  0.00    -0.362 N 
HETATM    2  C4  UNL     1      12.236  -4.029  13.702  1.00  0.00     0.091 A 
HETATM    3  C5  UNL     1      11.858  -3.600  14.950  1.00  0.00     0.019 A 
HETATM    4  C6  UNL     1      11.699  -2.238  14.946  1.00  0.00     0.019 A 
HETATM    5  C7  UNL     1      11.991  -1.827  13.653  1.00  0.00     0.091 A 
ENDROOT
BRANCH   1   6
HETATM    6  C2  UNL     1      12.682  -2.929  11.520  1.00  0.00     0.080 C 
HETATM    7  C1  UNL     1      11.846  -1.888  10.815  1.00  0.00     0.032 C 
HETATM    8  C3  UNL     1      12.392  -4.328  11.013  1.00  0.00     0.032 C 
ENDBRANCH   1   6
TORSDOF 1
ENDMDL
