MODEL 1
REMARK VINA RESULT: -9.710971840      0.000      0.000
REMARK  10 active torsions:
REMARK  status: ('A' for Active; 'I' for Inactive)
REMARK    1  A    between atoms: C2_2  and  C3_3 
REMARK    2  A    between atoms: C4_5  and  N1_6 
REMARK    3  A    between atoms: C5_8  and  C6_9 
REMARK    4  A    between atoms: C6_9  and  C8_12 
REMARK    5  A    between atoms: C8_12  and  C9_14 
REMARK    6  A    between atoms: C9_14  and  S1_17 
REMARK    7  A    between atoms: S1_17  and  C11_18 
REMARK    8  A    between atoms: C16_24  and  N4_25 
REMARK    9  A    between atoms: N4_25  and  N5_26 
REMARK   10  A    between atoms: C17_29  and  N6_30 
ROOT
HETATM    1  C6  UNL     1     -25.318  -5.096   7.829  1.00  0.00     0.202 C 
HETATM    2  C7  UNL     1     -24.146  -5.048   6.934  1.00  0.00     0.077 C 
HETATM    3  N2  UNL     1     -23.227  -5.010   6.213  1.00  0.00    -0.196 NA
ENDROOT
BRANCH   1   4
HETATM    4  C5  UNL     1     -26.181  -6.239   7.481  1.00  0.00     0.090 C 
HETATM    5  N1  UNL     1     -25.768  -7.478   7.567  1.00  0.00    -0.346 N 
ATOM      6  H1  UNL     1     -24.825  -7.706   7.880  1.00  0.00     0.167 HD
BRANCH   5   7
HETATM    7  C4  UNL     1     -26.709  -8.505   7.197  1.00  0.00     0.194 A 
HETATM    8  O1  UNL     1     -27.938  -8.374   6.790  1.00  0.00    -0.288 OA
HETATM    9  C3  UNL     1     -28.505  -9.531   6.542  1.00  0.00     0.114 A 
HETATM   10  C17 UNL     1     -27.534 -10.496   6.821  1.00  0.00     0.183 A 
HETATM   11  C16 UNL     1     -26.383  -9.842   7.241  1.00  0.00     0.217 A 
BRANCH   9  12
HETATM   12  C2  UNL     1     -29.852  -9.809   6.074  1.00  0.00     0.030 C 
HETATM   13  C1  UNL     1     -30.310  -9.201   5.003  1.00  0.00     0.014 C 
ENDBRANCH   9  12
BRANCH  10  14
HETATM   14  N6  UNL     1     -27.717 -11.896   6.691  1.00  0.00    -0.109 N 
HETATM   15  O4  UNL     1     -27.634 -12.628   7.695  1.00  0.00    -0.532 OA
HETATM   16  O5  UNL     1     -27.986 -12.458   5.459  1.00  0.00    -0.532 OA
ENDBRANCH  10  14
BRANCH  11  17
HETATM   17  N4  UNL     1     -25.188 -10.408   7.616  1.00  0.00    -0.326 NA
BRANCH  17  18
HETATM   18  N5  UNL     1     -24.218 -10.872   7.930  1.00  0.00    -0.280 N 
ATOM     19  H52 UNL     1     -24.824 -10.185   7.481  1.00  0.00     0.191 HD
ATOM     20  H51 UNL     1     -23.339 -11.300   8.219  1.00  0.00     0.191 HD
ENDBRANCH  17  18
ENDBRANCH  11  17
ENDBRANCH   5   7
ENDBRANCH   1   4
BRANCH   1  21
HETATM   21  C8  UNL     1     -24.916  -5.128   9.247  1.00  0.00     0.176 C 
HETATM   22  O2  UNL     1     -24.981  -6.139   9.889  1.00  0.00    -0.294 OA
BRANCH  21  23
HETATM   23  C9  UNL     1     -24.421  -3.828   9.852  1.00  0.00     0.227 C 
HETATM   24  C10 UNL     1     -25.247  -2.766   9.272  1.00  0.00     0.082 C 
HETATM   25  N3  UNL     1     -25.911  -1.928   8.774  1.00  0.00    -0.196 NA
BRANCH  23  26
HETATM   26  S1  UNL     1     -24.576  -3.867  11.638  1.00  0.00    -0.110 SA
BRANCH  26  27
HETATM   27  C11 UNL     1     -23.098  -3.188  12.412  1.00  0.00     0.184 C 
HETATM   28  C12 UNL     1     -23.171  -3.296  13.865  1.00  0.00     0.043 C 
HETATM   29  C13 UNL     1     -23.071  -2.031  14.669  1.00  0.00     0.005 C 
HETATM   30  C14 UNL     1     -21.978  -1.202  13.981  1.00  0.00     0.026 C 
HETATM   31  C15 UNL     1     -22.509  -0.919  12.620  1.00  0.00     0.169 C 
HETATM   32  O3  UNL     1     -22.926  -1.944  11.867  1.00  0.00    -0.376 OA
ENDBRANCH  26  27
ENDBRANCH  23  26
ENDBRANCH  21  23
ENDBRANCH   1  21
TORSDOF 10
ENDMDL
MODEL 2
REMARK VINA RESULT: -9.404172052      1.161      1.558
REMARK  10 active torsions:
REMARK  status: ('A' for Active; 'I' for Inactive)
REMARK    1  A    between atoms: C2_2  and  C3_3 
REMARK    2  A    between atoms: C4_5  and  N1_6 
REMARK    3  A    between atoms: C5_8  and  C6_9 
REMARK    4  A    between atoms: C6_9  and  C8_12 
REMARK    5  A    between atoms: C8_12  and  C9_14 
REMARK    6  A    between atoms: C9_14  and  S1_17 
REMARK    7  A    between atoms: S1_17  and  C11_18 
REMARK    8  A    between atoms: C16_24  and  N4_25 
REMARK    9  A    between atoms: N4_25  and  N5_26 
REMARK   10  A    between atoms: C17_29  and  N6_30 
ROOT
HETATM    1  C6  UNL     1     -24.973  -4.678   7.764  1.00  0.00     0.202 C 
HETATM    2  C7  UNL     1     -23.985  -4.465   6.690  1.00  0.00     0.077 C 
HETATM    3  N2  UNL     1     -23.214  -4.298   5.827  1.00  0.00    -0.196 NA
ENDROOT
BRANCH   1   4
HETATM    4  C5  UNL     1     -25.788  -5.874   7.482  1.00  0.00     0.090 C 
HETATM    5  N1  UNL     1     -25.321  -7.087   7.629  1.00  0.00    -0.346 N 
ATOM      6  H1  UNL     1     -24.367  -7.258   7.947  1.00  0.00     0.167 HD
BRANCH   5   7
HETATM    7  C4  UNL     1     -26.218  -8.172   7.320  1.00  0.00     0.194 A 
HETATM    8  O1  UNL     1     -27.453  -8.116   6.914  1.00  0.00    -0.288 OA
HETATM    9  C3  UNL     1     -27.971  -9.308   6.731  1.00  0.00     0.114 A 
HETATM   10  C17 UNL     1     -26.958 -10.214   7.054  1.00  0.00     0.183 A 
HETATM   11  C16 UNL     1     -25.835  -9.490   7.432  1.00  0.00     0.217 A 
BRANCH   9  12
HETATM   12  C2  UNL     1     -29.307  -9.668   6.287  1.00  0.00     0.030 C 
HETATM   13  C1  UNL     1     -30.293  -8.811   6.426  1.00  0.00     0.014 C 
ENDBRANCH   9  12
BRANCH  10  14
HETATM   14  N6  UNL     1     -27.080 -11.625   6.999  1.00  0.00    -0.109 N 
HETATM   15  O4  UNL     1     -27.332 -12.184   5.915  1.00  0.00    -0.532 OA
HETATM   16  O5  UNL     1     -26.922 -12.389   8.139  1.00  0.00    -0.532 OA
ENDBRANCH  10  14
BRANCH  11  17
HETATM   17  N4  UNL     1     -24.614  -9.984   7.828  1.00  0.00    -0.326 NA
BRANCH  17  18
HETATM   18  N5  UNL     1     -23.618 -10.377   8.155  1.00  0.00    -0.280 N 
ATOM     19  H52 UNL     1     -24.297  -9.670   7.874  1.00  0.00     0.191 HD
ATOM     20  H51 UNL     1     -22.714 -10.744   8.453  1.00  0.00     0.191 HD
ENDBRANCH  17  18
ENDBRANCH  11  17
ENDBRANCH   5   7
ENDBRANCH   1   4
BRANCH   1  21
HETATM   21  C8  UNL     1     -24.327  -4.758   9.087  1.00  0.00     0.176 C 
HETATM   22  O2  UNL     1     -23.657  -5.705   9.396  1.00  0.00    -0.294 OA
BRANCH  21  23
HETATM   23  C9  UNL     1     -24.548  -3.594  10.033  1.00  0.00     0.227 C 
HETATM   24  C10 UNL     1     -25.630  -3.999  10.934  1.00  0.00     0.082 C 
HETATM   25  N3  UNL     1     -26.518  -4.341  11.631  1.00  0.00    -0.196 NA
BRANCH  23  26
HETATM   26  S1  UNL     1     -23.048  -3.232  10.947  1.00  0.00    -0.110 SA
BRANCH  26  27
HETATM   27  C11 UNL     1     -23.415  -2.195  12.373  1.00  0.00     0.184 C 
HETATM   28  C12 UNL     1     -22.619  -0.973  12.352  1.00  0.00     0.043 C 
HETATM   29  C13 UNL     1     -21.722  -0.699  13.525  1.00  0.00     0.005 C 
HETATM   30  C14 UNL     1     -22.541  -1.100  14.760  1.00  0.00     0.026 C 
HETATM   31  C15 UNL     1     -22.776  -2.562  14.607  1.00  0.00     0.169 C 
HETATM   32  O3  UNL     1     -23.314  -3.011  13.467  1.00  0.00    -0.376 OA
ENDBRANCH  26  27
ENDBRANCH  23  26
ENDBRANCH  21  23
ENDBRANCH   1  21
TORSDOF 10
ENDMDL
MODEL 3
REMARK VINA RESULT: -9.191068709      1.048      1.264
REMARK  10 active torsions:
REMARK  status: ('A' for Active; 'I' for Inactive)
REMARK    1  A    between atoms: C2_2  and  C3_3 
REMARK    2  A    between atoms: C4_5  and  N1_6 
REMARK    3  A    between atoms: C5_8  and  C6_9 
REMARK    4  A    between atoms: C6_9  and  C8_12 
REMARK    5  A    between atoms: C8_12  and  C9_14 
REMARK    6  A    between atoms: C9_14  and  S1_17 
REMARK    7  A    between atoms: S1_17  and  C11_18 
REMARK    8  A    between atoms: C16_24  and  N4_25 
REMARK    9  A    between atoms: N4_25  and  N5_26 
REMARK   10  A    between atoms: C17_29  and  N6_30 
ROOT
HETATM    1  C6  UNL     1     -24.895  -4.849   7.555  1.00  0.00     0.202 C 
HETATM    2  C7  UNL     1     -23.906  -4.658   6.477  1.00  0.00     0.077 C 
HETATM    3  N2  UNL     1     -23.132  -4.512   5.613  1.00  0.00    -0.196 NA
ENDROOT
BRANCH   1   4
HETATM    4  C5  UNL     1     -25.526  -6.176   7.442  1.00  0.00     0.090 C 
HETATM    5  N1  UNL     1     -24.849  -7.286   7.589  1.00  0.00    -0.346 N 
ATOM      6  H1  UNL     1     -23.848  -7.279   7.789  1.00  0.00     0.167 HD
BRANCH   5   7
HETATM    7  C4  UNL     1     -25.582  -8.519   7.455  1.00  0.00     0.194 A 
HETATM    8  O1  UNL     1     -26.775  -8.708   6.971  1.00  0.00    -0.288 OA
HETATM    9  C3  UNL     1     -27.132  -9.970   7.005  1.00  0.00     0.114 A 
HETATM   10  C17 UNL     1     -26.051 -10.653   7.569  1.00  0.00     0.183 A 
HETATM   11  C16 UNL     1     -25.058  -9.727   7.858  1.00  0.00     0.217 A 
BRANCH   9  12
HETATM   12  C2  UNL     1     -28.372 -10.584   6.563  1.00  0.00     0.030 C 
HETATM   13  C1  UNL     1     -29.388  -9.826   6.216  1.00  0.00     0.014 C 
ENDBRANCH   9  12
BRANCH  10  14
HETATM   14  N6  UNL     1     -26.002 -12.052   7.798  1.00  0.00    -0.109 N 
HETATM   15  O4  UNL     1     -25.081 -12.536   8.482  1.00  0.00    -0.532 OA
HETATM   16  O5  UNL     1     -26.968 -12.884   7.268  1.00  0.00    -0.532 OA
ENDBRANCH  10  14
BRANCH  11  17
HETATM   17  N4  UNL     1     -23.827  -9.968   8.422  1.00  0.00    -0.326 NA
BRANCH  17  18
HETATM   18  N5  UNL     1     -22.820 -10.158   8.875  1.00  0.00    -0.280 N 
ATOM     19  H52 UNL     1     -23.494  -9.733   8.237  1.00  0.00     0.191 HD
ATOM     20  H51 UNL     1     -21.908 -10.336   9.293  1.00  0.00     0.191 HD
ENDBRANCH  17  18
ENDBRANCH  11  17
ENDBRANCH   5   7
ENDBRANCH   1   4
BRANCH   1  21
HETATM   21  C8  UNL     1     -24.295  -4.641   8.885  1.00  0.00     0.176 C 
HETATM   22  O2  UNL     1     -23.829  -5.556   9.507  1.00  0.00    -0.294 OA
BRANCH  21  23
HETATM   23  C9  UNL     1     -24.295  -3.225   9.428  1.00  0.00     0.227 C 
HETATM   24  C10 UNL     1     -25.271  -2.480   8.628  1.00  0.00     0.082 C 
HETATM   25  N3  UNL     1     -26.046  -1.899   7.955  1.00  0.00    -0.196 NA
BRANCH  23  26
HETATM   26  S1  UNL     1     -24.740  -3.217  11.165  1.00  0.00    -0.110 SA
BRANCH  26  27
HETATM   27  C11 UNL     1     -23.277  -2.972  12.187  1.00  0.00     0.184 C 
HETATM   28  C12 UNL     1     -23.520  -3.397  13.561  1.00  0.00     0.043 C 
HETATM   29  C13 UNL     1     -23.341  -2.382  14.652  1.00  0.00     0.005 C 
HETATM   30  C14 UNL     1     -22.079  -1.597  14.269  1.00  0.00     0.026 C 
HETATM   31  C15 UNL     1     -22.417  -0.931  12.982  1.00  0.00     0.169 C 
HETATM   32  O3  UNL     1     -22.882  -1.679  11.974  1.00  0.00    -0.376 OA
ENDBRANCH  26  27
ENDBRANCH  23  26
ENDBRANCH  21  23
ENDBRANCH   1  21
TORSDOF 10
ENDMDL
MODEL 4
REMARK VINA RESULT: -9.094356955      1.610      2.769
REMARK  10 active torsions:
REMARK  status: ('A' for Active; 'I' for Inactive)
REMARK    1  A    between atoms: C2_2  and  C3_3 
REMARK    2  A    between atoms: C4_5  and  N1_6 
REMARK    3  A    between atoms: C5_8  and  C6_9 
REMARK    4  A    between atoms: C6_9  and  C8_12 
REMARK    5  A    between atoms: C8_12  and  C9_14 
REMARK    6  A    between atoms: C9_14  and  S1_17 
REMARK    7  A    between atoms: S1_17  and  C11_18 
REMARK    8  A    between atoms: C16_24  and  N4_25 
REMARK    9  A    between atoms: N4_25  and  N5_26 
REMARK   10  A    between atoms: C17_29  and  N6_30 
ROOT
HETATM    1  C6  UNL     1     -25.167  -5.331   7.389  1.00  0.00     0.202 C 
HETATM    2  C7  UNL     1     -24.044  -4.827   6.576  1.00  0.00     0.077 C 
HETATM    3  N2  UNL     1     -23.158  -4.438   5.920  1.00  0.00    -0.196 NA
ENDROOT
BRANCH   1   4
HETATM    4  C5  UNL     1     -25.178  -6.805   7.390  1.00  0.00     0.090 C 
HETATM    5  N1  UNL     1     -26.291  -7.494   7.388  1.00  0.00    -0.346 N 
ATOM      6  H1  UNL     1     -27.203  -7.038   7.385  1.00  0.00     0.167 HD
BRANCH   5   7
HETATM    7  C4  UNL     1     -26.166  -8.930   7.389  1.00  0.00     0.194 A 
HETATM    8  O1  UNL     1     -25.168  -9.660   7.793  1.00  0.00    -0.288 OA
HETATM    9  C3  UNL     1     -25.398 -10.944   7.645  1.00  0.00     0.114 A 
HETATM   10  C17 UNL     1     -26.677 -11.036   7.089  1.00  0.00     0.183 A 
HETATM   11  C16 UNL     1     -27.171  -9.750   6.924  1.00  0.00     0.217 A 
BRANCH   9  12
HETATM   12  C2  UNL     1     -24.543 -12.072   7.973  1.00  0.00     0.030 C 
HETATM   13  C1  UNL     1     -23.468 -11.884   8.705  1.00  0.00     0.014 C 
ENDBRANCH   9  12
BRANCH  10  14
HETATM   14  N6  UNL     1     -27.334 -12.248   6.758  1.00  0.00    -0.109 N 
HETATM   15  O4  UNL     1     -27.827 -12.397   5.625  1.00  0.00    -0.532 OA
HETATM   16  O5  UNL     1     -27.434 -13.268   7.684  1.00  0.00    -0.532 OA
ENDBRANCH  10  14
BRANCH  11  17
HETATM   17  N4  UNL     1     -28.391  -9.381   6.410  1.00  0.00    -0.326 NA
BRANCH  17  18
HETATM   18  N5  UNL     1     -29.388  -9.089   5.989  1.00  0.00    -0.280 N 
ATOM     19  H52 UNL     1     -28.742  -9.516   6.654  1.00  0.00     0.191 HD
ATOM     20  H51 UNL     1     -30.291  -8.820   5.599  1.00  0.00     0.191 HD
ENDBRANCH  17  18
ENDBRANCH  11  17
ENDBRANCH   5   7
ENDBRANCH   1   4
BRANCH   1  21
HETATM   21  C8  UNL     1     -25.134  -4.784   8.757  1.00  0.00     0.176 C 
HETATM   22  O2  UNL     1     -25.709  -5.329   9.659  1.00  0.00    -0.294 OA
BRANCH  21  23
HETATM   23  C9  UNL     1     -24.343  -3.507   8.970  1.00  0.00     0.227 C 
HETATM   24  C10 UNL     1     -25.331  -2.448   9.198  1.00  0.00     0.082 C 
HETATM   25  N3  UNL     1     -26.147  -1.611   9.356  1.00  0.00    -0.196 NA
BRANCH  23  26
HETATM   26  S1  UNL     1     -23.241  -3.676  10.374  1.00  0.00    -0.110 SA
BRANCH  26  27
HETATM   27  C11 UNL     1     -23.794  -2.634  11.736  1.00  0.00     0.184 C 
HETATM   28  C12 UNL     1     -22.890  -1.506  11.933  1.00  0.00     0.043 C 
HETATM   29  C13 UNL     1     -22.239  -1.355  13.278  1.00  0.00     0.005 C 
HETATM   30  C14 UNL     1     -23.337  -1.689  14.297  1.00  0.00     0.026 C 
HETATM   31  C15 UNL     1     -23.682  -3.113  14.037  1.00  0.00     0.169 C 
HETATM   32  O3  UNL     1     -24.010  -3.478  12.792  1.00  0.00    -0.376 OA
ENDBRANCH  26  27
ENDBRANCH  23  26
ENDBRANCH  21  23
ENDBRANCH   1  21
TORSDOF 10
ENDMDL
MODEL 5
REMARK VINA RESULT: -9.073085296      1.638      2.680
REMARK  10 active torsions:
REMARK  status: ('A' for Active; 'I' for Inactive)
REMARK    1  A    between atoms: C2_2  and  C3_3 
REMARK    2  A    between atoms: C4_5  and  N1_6 
REMARK    3  A    between atoms: C5_8  and  C6_9 
REMARK    4  A    between atoms: C6_9  and  C8_12 
REMARK    5  A    between atoms: C8_12  and  C9_14 
REMARK    6  A    between atoms: C9_14  and  S1_17 
REMARK    7  A    between atoms: S1_17  and  C11_18 
REMARK    8  A    between atoms: C16_24  and  N4_25 
REMARK    9  A    between atoms: N4_25  and  N5_26 
REMARK   10  A    between atoms: C17_29  and  N6_30 
ROOT
HETATM    1  C6  UNL     1     -24.885  -5.291   7.330  1.00  0.00     0.202 C 
HETATM    2  C7  UNL     1     -23.778  -4.835   6.468  1.00  0.00     0.077 C 
HETATM    3  N2  UNL     1     -22.906  -4.483   5.774  1.00  0.00    -0.196 NA
ENDROOT
BRANCH   1   4
HETATM    4  C5  UNL     1     -24.950  -6.764   7.343  1.00  0.00     0.090 C 
HETATM    5  N1  UNL     1     -26.086  -7.412   7.399  1.00  0.00    -0.346 N 
ATOM      6  H1  UNL     1     -26.980  -6.922   7.436  1.00  0.00     0.167 HD
BRANCH   5   7
HETATM    7  C4  UNL     1     -26.014  -8.851   7.405  1.00  0.00     0.194 A 
HETATM    8  O1  UNL     1     -25.032  -9.615   7.785  1.00  0.00    -0.288 OA
HETATM    9  C3  UNL     1     -25.313 -10.890   7.651  1.00  0.00     0.114 A 
HETATM   10  C17 UNL     1     -26.610 -10.939   7.133  1.00  0.00     0.183 A 
HETATM   11  C16 UNL     1     -27.061  -9.636   6.974  1.00  0.00     0.217 A 
BRANCH   9  12
HETATM   12  C2  UNL     1     -24.491 -12.047   7.961  1.00  0.00     0.030 C 
HETATM   13  C1  UNL     1     -23.460 -11.918   8.765  1.00  0.00     0.014 C 
ENDBRANCH   9  12
BRANCH  10  14
HETATM   14  N6  UNL     1     -27.321 -12.127   6.829  1.00  0.00    -0.109 N 
HETATM   15  O4  UNL     1     -27.792 -12.293   5.688  1.00  0.00    -0.532 OA
HETATM   16  O5  UNL     1     -27.498 -13.105   7.788  1.00  0.00    -0.532 OA
ENDBRANCH  10  14
BRANCH  11  17
HETATM   17  N4  UNL     1     -28.282  -9.225   6.494  1.00  0.00    -0.326 NA
BRANCH  17  18
HETATM   18  N5  UNL     1     -29.280  -8.890   6.111  1.00  0.00    -0.280 N 
ATOM     19  H52 UNL     1     -28.605  -9.534   6.524  1.00  0.00     0.191 HD
ATOM     20  H51 UNL     1     -30.185  -8.578   5.761  1.00  0.00     0.191 HD
ENDBRANCH  17  18
ENDBRANCH  11  17
ENDBRANCH   5   7
ENDBRANCH   1   4
BRANCH   1  21
HETATM   21  C8  UNL     1     -24.776  -4.738   8.691  1.00  0.00     0.176 C 
HETATM   22  O2  UNL     1     -24.909  -5.435   9.659  1.00  0.00    -0.294 OA
BRANCH  21  23
HETATM   23  C9  UNL     1     -24.490  -3.253   8.811  1.00  0.00     0.227 C 
HETATM   24  C10 UNL     1     -25.299  -2.596   7.781  1.00  0.00     0.082 C 
HETATM   25  N3  UNL     1     -25.944  -2.095   6.930  1.00  0.00    -0.196 NA
BRANCH  23  26
HETATM   26  S1  UNL     1     -24.918  -2.659  10.448  1.00  0.00    -0.110 SA
BRANCH  26  27
HETATM   27  C11 UNL     1     -23.537  -2.890  11.581  1.00  0.00     0.184 C 
HETATM   28  C12 UNL     1     -23.966  -3.572  12.798  1.00  0.00     0.043 C 
HETATM   29  C13 UNL     1     -23.747  -2.873  14.108  1.00  0.00     0.005 C 
HETATM   30  C14 UNL     1     -22.356  -2.234  13.996  1.00  0.00     0.026 C 
HETATM   31  C15 UNL     1     -22.474  -1.248  12.888  1.00  0.00     0.169 C 
HETATM   32  O3  UNL     1     -22.945  -1.662  11.706  1.00  0.00    -0.376 OA
ENDBRANCH  26  27
ENDBRANCH  23  26
ENDBRANCH  21  23
ENDBRANCH   1  21
TORSDOF 10
ENDMDL
