MODEL 1
REMARK VINA RESULT: -5.754425026      0.000      0.000
REMARK  4 active torsions:
REMARK  status: ('A' for Active; 'I' for Inactive)
REMARK    1  A    between atoms: C2_2  and  N1_3 
REMARK    2  A    between atoms: N4_8  and  C4_10 
REMARK    3  A    between atoms: C4_10  and  N5_12 
REMARK    4  A    between atoms: N5_12  and  N6_14 
ROOT
HETATM    1  C1  UNL     1      20.765  35.982  43.413  1.00  0.00     0.089 C 
HETATM    2  C2  UNL     1      20.436  34.562  43.121  1.00  0.00     0.081 C 
HETATM    3  N4  UNL     1      21.192  33.861  42.360  1.00  0.00    -0.322 N 
ATOM      4  H4  UNL     1      20.958  32.889  42.163  1.00  0.00     0.169 HD
ENDROOT
BRANCH   3   5
HETATM    5  C4  UNL     1      22.356  34.443  41.794  1.00  0.00     0.193 C 
HETATM    6  S1  UNL     1      23.636  34.714  42.768  1.00  0.00    -0.039 SA
BRANCH   5   7
HETATM    7  N5  UNL     1      22.350  34.760  40.413  1.00  0.00    -0.262 N 
ATOM      8  H5  UNL     1      22.987  34.285  39.774  1.00  0.00     0.191 HD
BRANCH   7   9
HETATM    9  N6  UNL     1      21.571  35.614  39.992  1.00  0.00    -0.247 N 
HETATM   10  N7  UNL     1      20.476  36.184  39.850  1.00  0.00    -0.331 N 
ATOM     11  H72 UNL     1      19.899  35.573  40.429  1.00  0.00     0.178 HD
ATOM     12  H71 UNL     1      19.830  36.891  39.500  1.00  0.00     0.178 HD
ATOM     13  H6  UNL     1      22.185  36.196  39.423  1.00  0.00     0.207 HD
ENDBRANCH   7   9
ENDBRANCH   5   7
ENDBRANCH   3   5
BRANCH   2  14
HETATM   14  N1  UNL     1      19.284  33.926  43.660  1.00  0.00    -0.323 N 
HETATM   15  C3  UNL     1      19.361  33.035  44.581  1.00  0.00     0.202 C 
HETATM   16  N2  UNL     1      18.186  32.432  45.083  1.00  0.00    -0.066 NA
HETATM   17  N3  UNL     1      20.644  32.685  45.066  1.00  0.00    -0.066 NA
ATOM     18  H1  UNL     1      18.365  34.187  43.304  1.00  0.00     0.169 HD
ENDBRANCH   2  14
TORSDOF 4
ENDMDL
MODEL 2
REMARK VINA RESULT: -5.674139600      3.674      5.589
REMARK  4 active torsions:
REMARK  status: ('A' for Active; 'I' for Inactive)
REMARK    1  A    between atoms: C2_2  and  N1_3 
REMARK    2  A    between atoms: N4_8  and  C4_10 
REMARK    3  A    between atoms: C4_10  and  N5_12 
REMARK    4  A    between atoms: N5_12  and  N6_14 
ROOT
HETATM    1  C1  UNL     1      23.988  37.599  40.907  1.00  0.00     0.089 C 
HETATM    2  C2  UNL     1      24.420  36.250  40.457  1.00  0.00     0.081 C 
HETATM    3  N4  UNL     1      23.606  35.261  40.492  1.00  0.00    -0.322 N 
ATOM      4  H4  UNL     1      23.911  34.338  40.184  1.00  0.00     0.169 HD
ENDROOT
BRANCH   3   5
HETATM    5  C4  UNL     1      22.281  35.454  40.961  1.00  0.00     0.193 C 
HETATM    6  S1  UNL     1      22.015  35.388  42.570  1.00  0.00    -0.039 SA
BRANCH   5   7
HETATM    7  N5  UNL     1      21.256  35.694  40.014  1.00  0.00    -0.262 N 
ATOM      8  H5  UNL     1      21.052  35.004  39.292  1.00  0.00     0.191 HD
BRANCH   7   9
HETATM    9  N6  UNL     1      20.614  36.742  40.070  1.00  0.00    -0.247 N 
HETATM   10  N7  UNL     1      20.446  37.971  40.137  1.00  0.00    -0.331 N 
ATOM     11  H72 UNL     1      21.422  38.267  40.157  1.00  0.00     0.178 HD
ATOM     12  H71 UNL     1      19.913  38.840  40.184  1.00  0.00     0.178 HD
ATOM     13  H6  UNL     1      19.653  36.400  40.049  1.00  0.00     0.207 HD
ENDBRANCH   7   9
ENDBRANCH   5   7
ENDBRANCH   3   5
BRANCH   2  14
HETATM   14  N1  UNL     1      25.734  35.997  39.978  1.00  0.00    -0.323 N 
HETATM   15  C3  UNL     1      26.626  35.415  40.695  1.00  0.00     0.202 C 
HETATM   16  N2  UNL     1      27.919  35.188  40.171  1.00  0.00    -0.066 NA
HETATM   17  N3  UNL     1      26.272  35.018  42.007  1.00  0.00    -0.066 NA
ATOM     18  H1  UNL     1      25.977  36.287  39.031  1.00  0.00     0.169 HD
ENDBRANCH   2  14
TORSDOF 4
ENDMDL
MODEL 3
REMARK VINA RESULT: -5.628890191      0.824      1.083
REMARK  4 active torsions:
REMARK  status: ('A' for Active; 'I' for Inactive)
REMARK    1  A    between atoms: C2_2  and  N1_3 
REMARK    2  A    between atoms: N4_8  and  C4_10 
REMARK    3  A    between atoms: C4_10  and  N5_12 
REMARK    4  A    between atoms: N5_12  and  N6_14 
ROOT
HETATM    1  C1  UNL     1      20.717  35.916  43.271  1.00  0.00     0.089 C 
HETATM    2  C2  UNL     1      20.846  34.483  43.642  1.00  0.00     0.081 C 
HETATM    3  N4  UNL     1      21.824  33.782  43.200  1.00  0.00    -0.322 N 
ATOM      4  H4  UNL     1      21.905  32.799  43.457  1.00  0.00     0.169 HD
ENDROOT
BRANCH   3   5
HETATM    5  C4  UNL     1      22.792  34.379  42.351  1.00  0.00     0.193 C 
HETATM    6  S1  UNL     1      23.937  35.323  43.030  1.00  0.00    -0.039 SA
BRANCH   5   7
HETATM    7  N5  UNL     1      22.719  34.127  40.959  1.00  0.00    -0.262 N 
ATOM      8  H5  UNL     1      23.113  33.271  40.570  1.00  0.00     0.191 HD
BRANCH   7   9
HETATM    9  N6  UNL     1      22.176  34.950  40.223  1.00  0.00    -0.247 N 
HETATM   10  N7  UNL     1      21.247  35.656  39.797  1.00  0.00    -0.331 N 
ATOM     11  H72 UNL     1      20.517  35.377  40.452  1.00  0.00     0.178 HD
ATOM     12  H71 UNL     1      20.796  36.339  39.186  1.00  0.00     0.178 HD
ATOM     13  H6  UNL     1      22.935  35.199  39.590  1.00  0.00     0.207 HD
ENDBRANCH   7   9
ENDBRANCH   5   7
ENDBRANCH   3   5
BRANCH   2  14
HETATM   14  N1  UNL     1      19.908  33.832  44.488  1.00  0.00    -0.323 N 
HETATM   15  C3  UNL     1      19.153  32.881  44.072  1.00  0.00     0.202 C 
HETATM   16  N2  UNL     1      18.235  32.267  44.954  1.00  0.00    -0.066 NA
HETATM   17  N3  UNL     1      19.273  32.477  42.721  1.00  0.00    -0.066 NA
ATOM     18  H1  UNL     1      19.831  34.131  45.461  1.00  0.00     0.169 HD
ENDBRANCH   2  14
TORSDOF 4
ENDMDL
MODEL 4
REMARK VINA RESULT: -5.620339786      1.281      1.414
REMARK  4 active torsions:
REMARK  status: ('A' for Active; 'I' for Inactive)
REMARK    1  A    between atoms: C2_2  and  N1_3 
REMARK    2  A    between atoms: N4_8  and  C4_10 
REMARK    3  A    between atoms: C4_10  and  N5_12 
REMARK    4  A    between atoms: N5_12  and  N6_14 
ROOT
HETATM    1  C1  UNL     1      20.685  35.995  43.245  1.00  0.00     0.089 C 
HETATM    2  C2  UNL     1      21.143  34.598  43.465  1.00  0.00     0.081 C 
HETATM    3  N4  UNL     1      22.092  34.106  42.758  1.00  0.00    -0.322 N 
ATOM      4  H4  UNL     1      22.400  33.146  42.913  1.00  0.00     0.169 HD
ENDROOT
BRANCH   3   5
HETATM    5  C4  UNL     1      22.713  34.900  41.760  1.00  0.00     0.193 C 
HETATM    6  S1  UNL     1      23.820  36.003  42.230  1.00  0.00    -0.039 SA
BRANCH   5   7
HETATM    7  N5  UNL     1      22.345  34.698  40.408  1.00  0.00    -0.262 N 
ATOM      8  H5  UNL     1      22.747  33.928  39.874  1.00  0.00     0.191 HD
BRANCH   7   9
HETATM    9  N6  UNL     1      21.535  35.461  39.881  1.00  0.00    -0.247 N 
HETATM   10  N7  UNL     1      20.450  36.051  39.746  1.00  0.00    -0.331 N 
ATOM     11  H72 UNL     1      19.954  35.666  40.550  1.00  0.00     0.178 HD
ATOM     12  H71 UNL     1      19.778  36.683  39.309  1.00  0.00     0.178 HD
ATOM     13  H6  UNL     1      22.068  35.819  39.089  1.00  0.00     0.207 HD
ENDBRANCH   7   9
ENDBRANCH   5   7
ENDBRANCH   3   5
BRANCH   2  14
HETATM   14  N1  UNL     1      20.559  33.755  44.450  1.00  0.00    -0.323 N 
HETATM   15  C3  UNL     1      21.101  33.563  45.597  1.00  0.00     0.202 C 
HETATM   16  N2  UNL     1      20.480  32.715  46.541  1.00  0.00    -0.066 NA
HETATM   17  N3  UNL     1      22.324  34.221  45.876  1.00  0.00    -0.066 NA
ATOM     18  H1  UNL     1      19.678  33.288  44.238  1.00  0.00     0.169 HD
ENDBRANCH   2  14
TORSDOF 4
ENDMDL
MODEL 5
REMARK VINA RESULT: -5.595919374      1.739      2.140
REMARK  4 active torsions:
REMARK  status: ('A' for Active; 'I' for Inactive)
REMARK    1  A    between atoms: C2_2  and  N1_3 
REMARK    2  A    between atoms: N4_8  and  C4_10 
REMARK    3  A    between atoms: C4_10  and  N5_12 
REMARK    4  A    between atoms: N5_12  and  N6_14 
ROOT
HETATM    1  C1  UNL     1      21.361  35.919  43.572  1.00  0.00     0.089 C 
HETATM    2  C2  UNL     1      20.332  35.091  42.892  1.00  0.00     0.081 C 
HETATM    3  N4  UNL     1      20.277  35.042  41.612  1.00  0.00    -0.322 N 
ATOM      4  H4  UNL     1      19.567  34.473  41.152  1.00  0.00     0.169 HD
ENDROOT
BRANCH   3   5
HETATM    5  C4  UNL     1      21.207  35.782  40.838  1.00  0.00     0.193 C 
HETATM    6  S1  UNL     1      20.927  37.374  40.608  1.00  0.00    -0.039 SA
BRANCH   5   7
HETATM    7  N5  UNL     1      22.331  35.107  40.303  1.00  0.00    -0.262 N 
ATOM      8  H5  UNL     1      22.772  35.441  39.446  1.00  0.00     0.191 HD
BRANCH   7   9
HETATM    9  N6  UNL     1      22.773  34.115  40.881  1.00  0.00    -0.247 N 
HETATM   10  N7  UNL     1      23.450  33.492  41.716  1.00  0.00    -0.331 N 
ATOM     11  H72 UNL     1      23.889  34.281  42.190  1.00  0.00     0.178 HD
ATOM     12  H71 UNL     1      23.816  32.669  42.195  1.00  0.00     0.178 HD
ATOM     13  H6  UNL     1      22.311  33.357  40.378  1.00  0.00     0.207 HD
ENDBRANCH   7   9
ENDBRANCH   5   7
ENDBRANCH   3   5
BRANCH   2  14
HETATM   14  N1  UNL     1      19.374  34.328  43.615  1.00  0.00    -0.323 N 
HETATM   15  C3  UNL     1      19.527  33.074  43.843  1.00  0.00     0.202 C 
HETATM   16  N2  UNL     1      18.545  32.361  44.566  1.00  0.00    -0.066 NA
HETATM   17  N3  UNL     1      20.695  32.444  43.350  1.00  0.00    -0.066 NA
ATOM     18  H1  UNL     1      18.537  34.793  43.965  1.00  0.00     0.169 HD
ENDBRANCH   2  14
TORSDOF 4
ENDMDL
