MODEL 1
REMARK VINA RESULT: -6.831958693      0.000      0.000
REMARK  9 active torsions:
REMARK  status: ('A' for Active; 'I' for Inactive)
REMARK    1  A    between atoms: C2_2  and  C3_3 
REMARK       I    between atoms: C3_3  and  N1_5 
REMARK    2  A    between atoms: N1_5  and  C4_7 
REMARK    3  A    between atoms: C7_12  and  N3_13 
REMARK       I    between atoms: N3_13  and  C8_15 
REMARK    4  A    between atoms: C8_15  and  C9_17 
REMARK    5  A    between atoms: C9_17  and  C10_18 
REMARK    6  A    between atoms: C10_18  and  S1_19 
REMARK    7  A    between atoms: S1_19  and  C11_22 
REMARK    8  A    between atoms: C14_25  and  O5_26 
REMARK    9  A    between atoms: O5_26  and  C15_27 
ROOT
HETATM    1  N3  UNL     1       2.354  50.279  24.595  1.00  0.00    -0.320 N 
ATOM      2  H3  UNL     1       1.532  49.850  24.171  1.00  0.00     0.169 HD
HETATM    3  C8  UNL     1       2.221  51.343  25.563  1.00  0.00     0.223 C 
HETATM    4  O2  UNL     1       3.259  51.837  26.054  1.00  0.00    -0.273 OA
ENDROOT
BRANCH   3   5
HETATM    5  C9  UNL     1       0.895  51.829  25.958  1.00  0.00     0.118 C 
BRANCH   5   6
HETATM    6  C10 UNL     1       0.177  52.494  24.848  1.00  0.00     0.155 C 
BRANCH   6   7
HETATM    7  S1  UNL     1      -1.087  51.496  24.174  1.00  0.00     0.176 S 
HETATM    8  O3  UNL     1      -0.847  50.057  24.629  1.00  0.00    -0.223 OA
HETATM    9  O4  UNL     1      -2.457  51.857  24.571  1.00  0.00    -0.223 OA
BRANCH   7  10
HETATM   10  C11 UNL     1      -0.976  51.544  22.408  1.00  0.00     0.059 A 
HETATM   11  C12 UNL     1      -1.469  52.629  21.720  1.00  0.00     0.026 A 
HETATM   12  C13 UNL     1      -1.386  52.676  20.322  1.00  0.00     0.038 A 
HETATM   13  C14 UNL     1      -0.814  51.640  19.642  1.00  0.00     0.075 A 
HETATM   14  C16 UNL     1      -0.305  50.525  20.326  1.00  0.00     0.038 A 
HETATM   15  C17 UNL     1      -0.405  50.518  21.688  1.00  0.00     0.026 A 
BRANCH  13  16
HETATM   16  O5  UNL     1      -0.717  51.656  18.282  1.00  0.00    -0.290 OA
BRANCH  16  17
HETATM   17  C15 UNL     1      -1.590  51.080  17.376  1.00  0.00     0.505 C 
HETATM   18  F1  UNL     1      -2.885  51.372  17.826  1.00  0.00    -0.184 F 
HETATM   19  F2  UNL     1      -1.400  49.694  17.458  1.00  0.00    -0.184 F 
ENDBRANCH  16  17
ENDBRANCH  13  16
ENDBRANCH   7  10
ENDBRANCH   6   7
ENDBRANCH   5   6
ENDBRANCH   3   5
BRANCH   1  20
HETATM   20  C7  UNL     1       3.669  49.848  24.250  1.00  0.00     0.102 A 
HETATM   21  C5  UNL     1       4.383  48.792  24.743  1.00  0.00     0.041 A 
HETATM   22  N2  UNL     1       5.582  48.592  24.269  1.00  0.00    -0.338 N 
HETATM   23  C6  UNL     1       3.759  47.903  25.810  1.00  0.00     0.071 C 
HETATM   24  C4  UNL     1       6.049  49.422  23.334  1.00  0.00     0.153 A 
ATOM     25  H2  UNL     1       6.152  47.816  24.606  1.00  0.00     0.168 HD
HETATM   26  S2  UNL     1       4.761  50.517  23.115  1.00  0.00    -0.034 SA
BRANCH  24  27
HETATM   27  N1  UNL     1       7.228  49.380  22.740  1.00  0.00    -0.307 N 
HETATM   28  C3  UNL     1       7.400  48.363  21.767  1.00  0.00     0.223 C 
HETATM   29  O1  UNL     1       7.753  47.210  22.115  1.00  0.00    -0.273 OA
ATOM     30  H1  UNL     1       7.970  50.041  22.967  1.00  0.00     0.171 HD
BRANCH  28  31
HETATM   31  C2  UNL     1       7.178  48.608  20.322  1.00  0.00     0.099 C 
HETATM   32  C1  UNL     1       5.770  48.238  19.915  1.00  0.00     0.014 C 
ENDBRANCH  28  31
ENDBRANCH  24  27
ENDBRANCH   1  20
TORSDOF 9
ENDMDL
MODEL 2
REMARK VINA RESULT: -6.828130269      3.356      7.016
REMARK  9 active torsions:
REMARK  status: ('A' for Active; 'I' for Inactive)
REMARK    1  A    between atoms: C2_2  and  C3_3 
REMARK       I    between atoms: C3_3  and  N1_5 
REMARK    2  A    between atoms: N1_5  and  C4_7 
REMARK    3  A    between atoms: C7_12  and  N3_13 
REMARK       I    between atoms: N3_13  and  C8_15 
REMARK    4  A    between atoms: C8_15  and  C9_17 
REMARK    5  A    between atoms: C9_17  and  C10_18 
REMARK    6  A    between atoms: C10_18  and  S1_19 
REMARK    7  A    between atoms: S1_19  and  C11_22 
REMARK    8  A    between atoms: C14_25  and  O5_26 
REMARK    9  A    between atoms: O5_26  and  C15_27 
ROOT
HETATM    1  N3  UNL     1      -0.260  51.051  25.478  1.00  0.00    -0.320 N 
ATOM      2  H3  UNL     1      -0.812  50.384  26.017  1.00  0.00     0.169 HD
HETATM    3  C8  UNL     1       0.877  51.720  26.066  1.00  0.00     0.223 C 
HETATM    4  O2  UNL     1       1.523  52.528  25.365  1.00  0.00    -0.273 OA
ENDROOT
BRANCH   3   5
HETATM    5  C9  UNL     1       1.263  51.453  27.455  1.00  0.00     0.118 C 
BRANCH   5   6
HETATM    6  C10 UNL     1       2.643  50.929  27.574  1.00  0.00     0.155 C 
BRANCH   6   7
HETATM    7  S1  UNL     1       2.799  49.304  26.956  1.00  0.00     0.176 S 
HETATM    8  O3  UNL     1       3.476  48.454  28.030  1.00  0.00    -0.223 OA
HETATM    9  O4  UNL     1       1.536  48.638  26.603  1.00  0.00    -0.223 OA
BRANCH   7  10
HETATM   10  C11 UNL     1       3.846  49.330  25.529  1.00  0.00     0.059 A 
HETATM   11  C12 UNL     1       4.316  48.149  25.003  1.00  0.00     0.026 A 
HETATM   12  C13 UNL     1       5.145  48.159  23.874  1.00  0.00     0.038 A 
HETATM   13  C14 UNL     1       5.488  49.347  23.295  1.00  0.00     0.075 A 
HETATM   14  C16 UNL     1       5.018  50.562  23.817  1.00  0.00     0.038 A 
HETATM   15  C17 UNL     1       4.213  50.509  24.918  1.00  0.00     0.026 A 
BRANCH  13  16
HETATM   16  O5  UNL     1       6.293  49.390  22.196  1.00  0.00    -0.290 OA
BRANCH  16  17
HETATM   17  C15 UNL     1       5.993  48.939  20.922  1.00  0.00     0.505 C 
HETATM   18  F1  UNL     1       7.157  49.097  20.158  1.00  0.00    -0.184 F 
HETATM   19  F2  UNL     1       5.013  49.799  20.410  1.00  0.00    -0.184 F 
ENDBRANCH  16  17
ENDBRANCH  13  16
ENDBRANCH   7  10
ENDBRANCH   6   7
ENDBRANCH   5   6
ENDBRANCH   3   5
BRANCH   1  20
HETATM   20  C7  UNL     1      -0.586  51.351  24.123  1.00  0.00     0.102 A 
HETATM   21  C5  UNL     1      -0.282  50.649  22.991  1.00  0.00     0.041 A 
HETATM   22  N2  UNL     1      -0.693  51.125  21.848  1.00  0.00    -0.338 N 
HETATM   23  C6  UNL     1       0.513  49.355  23.106  1.00  0.00     0.071 C 
HETATM   24  C4  UNL     1      -1.384  52.266  21.840  1.00  0.00     0.153 A 
ATOM     25  H2  UNL     1      -0.490  50.635  20.977  1.00  0.00     0.168 HD
HETATM   26  S2  UNL     1      -1.459  52.680  23.492  1.00  0.00    -0.034 SA
BRANCH  24  27
HETATM   27  N1  UNL     1      -1.879  52.898  20.791  1.00  0.00    -0.307 N 
HETATM   28  C3  UNL     1      -1.411  52.465  19.524  1.00  0.00     0.223 C 
HETATM   29  O1  UNL     1      -0.343  52.927  19.054  1.00  0.00    -0.273 OA
ATOM     30  H1  UNL     1      -2.558  53.653  20.887  1.00  0.00     0.171 HD
BRANCH  28  31
HETATM   31  C2  UNL     1      -2.148  51.467  18.711  1.00  0.00     0.099 C 
HETATM   32  C1  UNL     1      -1.244  50.331  18.290  1.00  0.00     0.014 C 
ENDBRANCH  28  31
ENDBRANCH  24  27
ENDBRANCH   1  20
TORSDOF 9
ENDMDL
MODEL 3
REMARK VINA RESULT: -6.748271689      3.542      7.031
REMARK  9 active torsions:
REMARK  status: ('A' for Active; 'I' for Inactive)
REMARK    1  A    between atoms: C2_2  and  C3_3 
REMARK       I    between atoms: C3_3  and  N1_5 
REMARK    2  A    between atoms: N1_5  and  C4_7 
REMARK    3  A    between atoms: C7_12  and  N3_13 
REMARK       I    between atoms: N3_13  and  C8_15 
REMARK    4  A    between atoms: C8_15  and  C9_17 
REMARK    5  A    between atoms: C9_17  and  C10_18 
REMARK    6  A    between atoms: C10_18  and  S1_19 
REMARK    7  A    between atoms: S1_19  and  C11_22 
REMARK    8  A    between atoms: C14_25  and  O5_26 
REMARK    9  A    between atoms: O5_26  and  C15_27 
ROOT
HETATM    1  N3  UNL     1       2.404  49.260  22.754  1.00  0.00    -0.320 N 
ATOM      2  H3  UNL     1       2.687  48.284  22.840  1.00  0.00     0.169 HD
HETATM    3  C8  UNL     1       3.012  50.285  23.571  1.00  0.00     0.223 C 
HETATM    4  O2  UNL     1       2.632  51.466  23.428  1.00  0.00    -0.273 OA
ENDROOT
BRANCH   3   5
HETATM    5  C9  UNL     1       4.052  49.941  24.545  1.00  0.00     0.118 C 
BRANCH   5   6
HETATM    6  C10 UNL     1       3.782  50.497  25.890  1.00  0.00     0.155 C 
BRANCH   6   7
HETATM    7  S1  UNL     1       3.039  49.334  26.960  1.00  0.00     0.176 S 
HETATM    8  O3  UNL     1       3.317  47.938  26.406  1.00  0.00    -0.223 OA
HETATM    9  O4  UNL     1       3.521  49.357  28.350  1.00  0.00    -0.223 OA
BRANCH   7  10
HETATM   10  C11 UNL     1       1.288  49.591  26.961  1.00  0.00     0.059 A 
HETATM   11  C12 UNL     1       0.684  50.190  28.043  1.00  0.00     0.026 A 
HETATM   12  C13 UNL     1      -0.701  50.397  28.053  1.00  0.00     0.038 A 
HETATM   13  C14 UNL     1      -1.453  50.003  26.984  1.00  0.00     0.075 A 
HETATM   14  C16 UNL     1      -0.856  49.391  25.871  1.00  0.00     0.038 A 
HETATM   15  C17 UNL     1       0.497  49.207  25.900  1.00  0.00     0.026 A 
BRANCH  13  16
HETATM   16  O5  UNL     1      -2.804  50.191  26.963  1.00  0.00    -0.290 OA
BRANCH  16  17
HETATM   17  C15 UNL     1      -3.577  50.583  25.884  1.00  0.00     0.505 C 
HETATM   18  F1  UNL     1      -3.732  49.453  25.071  1.00  0.00    -0.184 F 
HETATM   19  F2  UNL     1      -2.827  51.533  25.176  1.00  0.00    -0.184 F 
ENDBRANCH  16  17
ENDBRANCH  13  16
ENDBRANCH   7  10
ENDBRANCH   6   7
ENDBRANCH   5   6
ENDBRANCH   3   5
BRANCH   1  20
HETATM   20  C7  UNL     1       1.398  49.655  21.824  1.00  0.00     0.102 A 
HETATM   21  C5  UNL     1       1.545  50.149  20.558  1.00  0.00     0.041 A 
HETATM   22  N2  UNL     1       0.465  50.443  19.888  1.00  0.00    -0.338 N 
HETATM   23  C6  UNL     1       2.945  50.333  19.987  1.00  0.00     0.071 C 
HETATM   24  C4  UNL     1      -0.721  50.250  20.467  1.00  0.00     0.153 A 
ATOM     25  H2  UNL     1       0.526  50.814  18.940  1.00  0.00     0.168 HD
HETATM   26  S2  UNL     1      -0.303  49.634  22.001  1.00  0.00    -0.034 SA
BRANCH  24  27
HETATM   27  N1  UNL     1      -1.914  50.487  19.953  1.00  0.00    -0.307 N 
HETATM   28  C3  UNL     1      -1.951  51.372  18.845  1.00  0.00     0.223 C 
HETATM   29  O1  UNL     1      -2.000  52.612  19.030  1.00  0.00    -0.273 OA
ATOM     30  H1  UNL     1      -2.759  50.058  20.329  1.00  0.00     0.171 HD
BRANCH  28  31
HETATM   31  C2  UNL     1      -1.936  50.884  17.445  1.00  0.00     0.099 C 
HETATM   32  C1  UNL     1      -2.919  51.649  16.588  1.00  0.00     0.014 C 
ENDBRANCH  28  31
ENDBRANCH  24  27
ENDBRANCH   1  20
TORSDOF 9
ENDMDL
MODEL 4
REMARK VINA RESULT: -6.742859979      3.039      5.754
REMARK  9 active torsions:
REMARK  status: ('A' for Active; 'I' for Inactive)
REMARK    1  A    between atoms: C2_2  and  C3_3 
REMARK       I    between atoms: C3_3  and  N1_5 
REMARK    2  A    between atoms: N1_5  and  C4_7 
REMARK    3  A    between atoms: C7_12  and  N3_13 
REMARK       I    between atoms: N3_13  and  C8_15 
REMARK    4  A    between atoms: C8_15  and  C9_17 
REMARK    5  A    between atoms: C9_17  and  C10_18 
REMARK    6  A    between atoms: C10_18  and  S1_19 
REMARK    7  A    between atoms: S1_19  and  C11_22 
REMARK    8  A    between atoms: C14_25  and  O5_26 
REMARK    9  A    between atoms: O5_26  and  C15_27 
ROOT
HETATM    1  N3  UNL     1       3.923  50.210  21.131  1.00  0.00    -0.320 N 
ATOM      2  H3  UNL     1       4.297  50.928  20.510  1.00  0.00     0.169 HD
HETATM    3  C8  UNL     1       3.388  48.977  20.604  1.00  0.00     0.223 C 
HETATM    4  O2  UNL     1       2.942  48.129  21.406  1.00  0.00    -0.273 OA
ENDROOT
BRANCH   3   5
HETATM    5  C9  UNL     1       3.371  48.729  19.159  1.00  0.00     0.118 C 
BRANCH   5   6
HETATM    6  C10 UNL     1       2.481  49.660  18.430  1.00  0.00     0.155 C 
BRANCH   6   7
HETATM    7  S1  UNL     1       0.797  49.219  18.562  1.00  0.00     0.176 S 
HETATM    8  O3  UNL     1       0.139  49.452  17.203  1.00  0.00    -0.223 OA
HETATM    9  O4  UNL     1       0.537  47.820  18.938  1.00  0.00    -0.223 OA
BRANCH   7  10
HETATM   10  C11 UNL     1       0.016  50.280  19.744  1.00  0.00     0.059 A 
HETATM   11  C12 UNL     1      -0.215  49.828  21.023  1.00  0.00     0.026 A 
HETATM   12  C13 UNL     1      -0.833  50.660  21.965  1.00  0.00     0.038 A 
HETATM   13  C14 UNL     1      -1.206  51.924  21.611  1.00  0.00     0.075 A 
HETATM   14  C16 UNL     1      -0.979  52.404  20.312  1.00  0.00     0.038 A 
HETATM   15  C17 UNL     1      -0.374  51.561  19.423  1.00  0.00     0.026 A 
BRANCH  13  16
HETATM   16  O5  UNL     1      -1.809  52.759  22.506  1.00  0.00    -0.290 OA
BRANCH  16  17
HETATM   17  C15 UNL     1      -1.469  52.947  23.834  1.00  0.00     0.505 C 
HETATM   18  F1  UNL     1      -2.403  52.229  24.592  1.00  0.00    -0.184 F 
HETATM   19  F2  UNL     1      -1.641  54.312  24.104  1.00  0.00    -0.184 F 
ENDBRANCH  16  17
ENDBRANCH  13  16
ENDBRANCH   7  10
ENDBRANCH   6   7
ENDBRANCH   5   6
ENDBRANCH   3   5
BRANCH   1  20
HETATM   20  C7  UNL     1       3.913  50.395  22.545  1.00  0.00     0.102 A 
HETATM   21  C5  UNL     1       4.871  50.062  23.461  1.00  0.00     0.041 A 
HETATM   22  N2  UNL     1       4.636  50.332  24.716  1.00  0.00    -0.338 N 
HETATM   23  C6  UNL     1       6.158  49.400  22.988  1.00  0.00     0.071 C 
HETATM   24  C4  UNL     1       3.481  50.914  25.041  1.00  0.00     0.153 A 
ATOM     25  H2  UNL     1       5.322  50.103  25.434  1.00  0.00     0.168 HD
HETATM   26  S2  UNL     1       2.702  51.088  23.534  1.00  0.00    -0.034 SA
BRANCH  24  27
HETATM   27  N1  UNL     1       3.067  51.261  26.246  1.00  0.00    -0.307 N 
HETATM   28  C3  UNL     1       1.670  51.456  26.394  1.00  0.00     0.223 C 
HETATM   29  O1  UNL     1       1.153  52.563  26.110  1.00  0.00    -0.273 OA
ATOM     30  H1  UNL     1       3.714  51.382  27.024  1.00  0.00     0.171 HD
BRANCH  28  31
HETATM   31  C2  UNL     1       0.772  50.381  26.882  1.00  0.00     0.099 C 
HETATM   32  C1  UNL     1      -0.232  49.985  25.823  1.00  0.00     0.014 C 
ENDBRANCH  28  31
ENDBRANCH  24  27
ENDBRANCH   1  20
TORSDOF 9
ENDMDL
MODEL 5
REMARK VINA RESULT: -6.722862491      1.708      2.242
REMARK  9 active torsions:
REMARK  status: ('A' for Active; 'I' for Inactive)
REMARK    1  A    between atoms: C2_2  and  C3_3 
REMARK       I    between atoms: C3_3  and  N1_5 
REMARK    2  A    between atoms: N1_5  and  C4_7 
REMARK    3  A    between atoms: C7_12  and  N3_13 
REMARK       I    between atoms: N3_13  and  C8_15 
REMARK    4  A    between atoms: C8_15  and  C9_17 
REMARK    5  A    between atoms: C9_17  and  C10_18 
REMARK    6  A    between atoms: C10_18  and  S1_19 
REMARK    7  A    between atoms: S1_19  and  C11_22 
REMARK    8  A    between atoms: C14_25  and  O5_26 
REMARK    9  A    between atoms: O5_26  and  C15_27 
ROOT
HETATM    1  N3  UNL     1       2.483  49.313  25.128  1.00  0.00    -0.320 N 
ATOM      2  H3  UNL     1       1.746  48.655  24.874  1.00  0.00     0.169 HD
HETATM    3  C8  UNL     1       2.407  50.081  26.349  1.00  0.00     0.223 C 
HETATM    4  O2  UNL     1       3.334  50.874  26.615  1.00  0.00    -0.273 OA
ENDROOT
BRANCH   3   5
HETATM    5  C9  UNL     1       1.263  49.928  27.254  1.00  0.00     0.118 C 
BRANCH   5   6
HETATM    6  C10 UNL     1       0.148  50.845  26.926  1.00  0.00     0.155 C 
BRANCH   6   7
HETATM    7  S1  UNL     1      -1.092  50.077  25.967  1.00  0.00     0.176 S 
HETATM    8  O3  UNL     1      -0.672  48.628  25.724  1.00  0.00    -0.223 OA
HETATM    9  O4  UNL     1      -2.432  50.047  26.574  1.00  0.00    -0.223 OA
BRANCH   7  10
HETATM   10  C11 UNL     1      -1.195  50.893  24.400  1.00  0.00     0.059 A 
HETATM   11  C12 UNL     1      -1.456  52.244  24.347  1.00  0.00     0.026 A 
HETATM   12  C13 UNL     1      -1.540  52.899  23.112  1.00  0.00     0.038 A 
HETATM   13  C14 UNL     1      -1.362  52.193  21.957  1.00  0.00     0.075 A 
HETATM   14  C16 UNL     1      -1.096  50.816  21.990  1.00  0.00     0.038 A 
HETATM   15  C17 UNL     1      -1.022  50.214  23.214  1.00  0.00     0.026 A 
BRANCH  13  16
HETATM   16  O5  UNL     1      -1.438  52.802  20.739  1.00  0.00    -0.290 OA
BRANCH  16  17
HETATM   17  C15 UNL     1      -1.012  52.295  19.524  1.00  0.00     0.505 C 
HETATM   18  F1  UNL     1      -0.012  53.159  19.059  1.00  0.00    -0.184 F 
HETATM   19  F2  UNL     1      -2.103  52.377  18.649  1.00  0.00    -0.184 F 
ENDBRANCH  16  17
ENDBRANCH  13  16
ENDBRANCH   7  10
ENDBRANCH   6   7
ENDBRANCH   5   6
ENDBRANCH   3   5
BRANCH   1  20
HETATM   20  C7  UNL     1       3.620  49.504  24.287  1.00  0.00     0.102 A 
HETATM   21  C5  UNL     1       3.765  50.343  23.219  1.00  0.00     0.041 A 
HETATM   22  N2  UNL     1       4.912  50.345  22.596  1.00  0.00    -0.338 N 
HETATM   23  C6  UNL     1       2.600  51.231  22.802  1.00  0.00     0.071 C 
HETATM   24  C4  UNL     1       5.878  49.533  23.029  1.00  0.00     0.153 A 
ATOM     25  H2  UNL     1       5.067  50.954  21.793  1.00  0.00     0.168 HD
HETATM   26  S2  UNL     1       5.151  48.745  24.354  1.00  0.00    -0.034 SA
BRANCH  24  27
HETATM   27  N1  UNL     1       7.094  49.396  22.532  1.00  0.00    -0.307 N 
HETATM   28  C3  UNL     1       7.264  48.360  21.578  1.00  0.00     0.223 C 
HETATM   29  O1  UNL     1       7.496  47.186  21.955  1.00  0.00    -0.273 OA
ATOM     30  H1  UNL     1       7.865  49.998  22.818  1.00  0.00     0.171 HD
BRANCH  28  31
HETATM   31  C2  UNL     1       7.180  48.612  20.119  1.00  0.00     0.099 C 
HETATM   32  C1  UNL     1       8.254  47.855  19.371  1.00  0.00     0.014 C 
ENDBRANCH  28  31
ENDBRANCH  24  27
ENDBRANCH   1  20
TORSDOF 9
ENDMDL
