MODEL 1
REMARK VINA RESULT: -5.732641449      0.000      0.000
REMARK  13 active torsions:
REMARK  status: ('A' for Active; 'I' for Inactive)
REMARK    1  A    between atoms: C2_2  and  O1_5 
REMARK    2  A    between atoms: O1_5  and  C5_6 
REMARK       I    between atoms: C5_6  and  N1_8 
REMARK    3  A    between atoms: N1_8  and  C6_10 
REMARK    4  A    between atoms: C6_10  and  N2_11 
REMARK    5  A    between atoms: C6_10  and  C12_20 
REMARK       I    between atoms: N2_11  and  C7_13 
REMARK    6  A    between atoms: C7_13  and  O4_15 
REMARK    7  A    between atoms: O4_15  and  C8_16 
REMARK    8  A    between atoms: C12_20  and  C13_22 
REMARK    9  A    between atoms: C14_24  and  C15_25 
REMARK   10  A    between atoms: C15_25  and  N3_26 
REMARK   11  A    between atoms: N3_26  and  C16_27 
REMARK   12  A    between atoms: N3_26  and  C18_31 
REMARK   13  A    between atoms: C16_27  and  C17_28 
ROOT
HETATM    1  C6  UNL     1       1.192  48.842  22.440  1.00  0.00     0.264 C 
ENDROOT
BRANCH   1   2
HETATM    2  N1  UNL     1       2.077  48.936  21.228  1.00  0.00    -0.309 N 
HETATM    3  C5  UNL     1       2.515  47.754  20.579  1.00  0.00     0.363 C 
HETATM    4  O2  UNL     1       2.180  46.607  20.996  1.00  0.00    -0.238 OA
ATOM      5  H1  UNL     1       2.362  49.849  20.872  1.00  0.00     0.167 HD
BRANCH   3   6
HETATM    6  O1  UNL     1       3.329  47.811  19.463  1.00  0.00    -0.294 OA
BRANCH   6   7
HETATM    7  C2  UNL     1       2.907  48.103  18.157  1.00  0.00     0.061 C 
HETATM    8  C1  UNL     1       3.071  49.609  17.954  1.00  0.00     0.046 C 
HETATM    9  C3  UNL     1       3.778  47.422  17.118  1.00  0.00     0.046 C 
HETATM   10  C4  UNL     1       1.470  47.741  17.877  1.00  0.00     0.046 C 
ENDBRANCH   6   7
ENDBRANCH   3   6
ENDBRANCH   1   2
BRANCH   1  11
HETATM   11  N2  UNL     1       0.214  49.857  22.199  1.00  0.00    -0.309 N 
HETATM   12  C7  UNL     1      -0.745  49.688  21.175  1.00  0.00     0.363 C 
HETATM   13  O3  UNL     1      -0.782  48.651  20.455  1.00  0.00    -0.238 OA
ATOM     14  H2  UNL     1       0.209  50.704  22.766  1.00  0.00     0.167 HD
BRANCH  12  15
HETATM   15  O4  UNL     1      -1.670  50.675  20.939  1.00  0.00    -0.294 OA
BRANCH  15  16
HETATM   16  C8  UNL     1      -1.460  51.852  20.225  1.00  0.00     0.061 C 
HETATM   17  C9  UNL     1      -1.826  53.096  21.010  1.00  0.00     0.046 C 
HETATM   18  C10 UNL     1      -0.073  52.026  19.676  1.00  0.00     0.046 C 
HETATM   19  C11 UNL     1      -2.412  51.798  19.025  1.00  0.00     0.046 C 
ENDBRANCH  15  16
ENDBRANCH  12  15
ENDBRANCH   1  11
BRANCH   1  20
HETATM   20  C12 UNL     1       2.000  49.113  23.634  1.00  0.00     0.200 C 
HETATM   21  O5  UNL     1       2.110  48.144  24.450  1.00  0.00    -0.291 OA
BRANCH  20  22
HETATM   22  C13 UNL     1       2.668  50.339  23.969  1.00  0.00     0.230 A 
HETATM   23  O6  UNL     1       2.478  51.592  23.443  1.00  0.00    -0.362 OA
HETATM   24  C14 UNL     1       2.270  51.361  24.924  1.00  0.00     0.197 A 
BRANCH  24  25
HETATM   25  C15 UNL     1       0.933  51.890  25.245  1.00  0.00     0.098 C 
BRANCH  25  26
HETATM   26  N3  UNL     1       0.144  51.091  26.055  1.00  0.00    -0.361 N 
BRANCH  26  27
HETATM   27  C16 UNL     1      -0.855  50.228  25.684  1.00  0.00     0.133 C 
BRANCH  27  28
HETATM   28  C17 UNL     1      -2.124  50.798  25.188  1.00  0.00     0.392 C 
HETATM   29  F1  UNL     1      -3.149  49.822  25.190  1.00  0.00    -0.208 F 
HETATM   30  F2  UNL     1      -2.011  51.421  23.980  1.00  0.00    -0.208 F 
ENDBRANCH  27  28
ENDBRANCH  26  27
BRANCH  26  31
HETATM   31  C18 UNL     1       0.547  51.025  27.452  1.00  0.00     0.088 A 
HETATM   32  C19 UNL     1       1.050  49.761  27.987  1.00  0.00     0.028 A 
HETATM   33  C20 UNL     1      -0.280  50.353  28.453  1.00  0.00     0.028 A 
ENDBRANCH  26  31
ENDBRANCH  25  26
ENDBRANCH  24  25
ENDBRANCH  20  22
ENDBRANCH   1  20
TORSDOF 13
ENDMDL
MODEL 2
REMARK VINA RESULT: -5.724990529      2.575      4.962
REMARK  13 active torsions:
REMARK  status: ('A' for Active; 'I' for Inactive)
REMARK    1  A    between atoms: C2_2  and  O1_5 
REMARK    2  A    between atoms: O1_5  and  C5_6 
REMARK       I    between atoms: C5_6  and  N1_8 
REMARK    3  A    between atoms: N1_8  and  C6_10 
REMARK    4  A    between atoms: C6_10  and  N2_11 
REMARK    5  A    between atoms: C6_10  and  C12_20 
REMARK       I    between atoms: N2_11  and  C7_13 
REMARK    6  A    between atoms: C7_13  and  O4_15 
REMARK    7  A    between atoms: O4_15  and  C8_16 
REMARK    8  A    between atoms: C12_20  and  C13_22 
REMARK    9  A    between atoms: C14_24  and  C15_25 
REMARK   10  A    between atoms: C15_25  and  N3_26 
REMARK   11  A    between atoms: N3_26  and  C16_27 
REMARK   12  A    between atoms: N3_26  and  C18_31 
REMARK   13  A    between atoms: C16_27  and  C17_28 
ROOT
HETATM    1  C6  UNL     1       0.112  51.574  22.900  1.00  0.00     0.264 C 
ENDROOT
BRANCH   1   2
HETATM    2  N1  UNL     1      -0.583  50.964  21.714  1.00  0.00    -0.309 N 
HETATM    3  C5  UNL     1      -1.390  51.773  20.874  1.00  0.00     0.363 C 
HETATM    4  O2  UNL     1      -1.544  53.010  21.096  1.00  0.00    -0.238 OA
ATOM      5  H1  UNL     1      -0.475  49.970  21.514  1.00  0.00     0.167 HD
BRANCH   3   6
HETATM    6  O1  UNL     1      -2.040  51.239  19.778  1.00  0.00    -0.294 OA
BRANCH   6   7
HETATM    7  C2  UNL     1      -1.445  50.925  18.546  1.00  0.00     0.061 C 
HETATM    8  C1  UNL     1      -2.436  51.317  17.451  1.00  0.00     0.046 C 
HETATM    9  C3  UNL     1      -0.184  51.733  18.307  1.00  0.00     0.046 C 
HETATM   10  C4  UNL     1      -1.108  49.465  18.378  1.00  0.00     0.046 C 
ENDBRANCH   6   7
ENDBRANCH   3   6
ENDBRANCH   1   2
BRANCH   1  11
HETATM   11  N2  UNL     1       1.137  50.620  23.192  1.00  0.00    -0.309 N 
HETATM   12  C7  UNL     1       2.120  50.317  22.224  1.00  0.00     0.363 C 
HETATM   13  O3  UNL     1       2.139  50.873  21.089  1.00  0.00    -0.238 OA
ATOM     14  H2  UNL     1       1.158  50.158  24.101  1.00  0.00     0.167 HD
BRANCH  12  15
HETATM   15  O4  UNL     1       3.091  49.389  22.507  1.00  0.00    -0.294 OA
BRANCH  15  16
HETATM   16  C8  UNL     1       4.458  49.631  22.619  1.00  0.00     0.061 C 
HETATM   17  C9  UNL     1       5.231  49.261  21.368  1.00  0.00     0.046 C 
HETATM   18  C10 UNL     1       4.828  51.032  23.012  1.00  0.00     0.046 C 
HETATM   19  C11 UNL     1       4.964  48.706  23.733  1.00  0.00     0.046 C 
ENDBRANCH  15  16
ENDBRANCH  12  15
ENDBRANCH   1  11
BRANCH   1  20
HETATM   20  C12 UNL     1      -0.856  51.711  23.993  1.00  0.00     0.200 C 
HETATM   21  O5  UNL     1      -0.991  52.887  24.458  1.00  0.00    -0.291 OA
BRANCH  20  22
HETATM   22  C13 UNL     1      -1.653  50.672  24.581  1.00  0.00     0.230 A 
HETATM   23  O6  UNL     1      -1.635  49.325  24.321  1.00  0.00    -0.362 OA
HETATM   24  C14 UNL     1      -1.343  49.822  25.720  1.00  0.00     0.197 A 
BRANCH  24  25
HETATM   25  C15 UNL     1      -0.068  49.204  26.124  1.00  0.00     0.098 C 
BRANCH  25  26
HETATM   26  N3  UNL     1       0.850  50.049  26.726  1.00  0.00    -0.361 N 
BRANCH  26  27
HETATM   27  C16 UNL     1       0.624  51.000  27.688  1.00  0.00     0.133 C 
BRANCH  27  28
HETATM   28  C17 UNL     1      -0.072  50.593  28.925  1.00  0.00     0.392 C 
HETATM   29  F1  UNL     1       0.469  49.390  29.435  1.00  0.00    -0.208 F 
HETATM   30  F2  UNL     1      -1.429  50.532  28.796  1.00  0.00    -0.208 F 
ENDBRANCH  27  28
ENDBRANCH  26  27
BRANCH  26  31
HETATM   31  C18 UNL     1       2.247  49.767  26.432  1.00  0.00     0.088 A 
HETATM   32  C19 UNL     1       3.231  49.860  27.510  1.00  0.00     0.028 A 
HETATM   33  C20 UNL     1       3.236  50.839  26.336  1.00  0.00     0.028 A 
ENDBRANCH  26  31
ENDBRANCH  25  26
ENDBRANCH  24  25
ENDBRANCH  20  22
ENDBRANCH   1  20
TORSDOF 13
ENDMDL
MODEL 3
REMARK VINA RESULT: -5.724004871      1.277      2.086
REMARK  13 active torsions:
REMARK  status: ('A' for Active; 'I' for Inactive)
REMARK    1  A    between atoms: C2_2  and  O1_5 
REMARK    2  A    between atoms: O1_5  and  C5_6 
REMARK       I    between atoms: C5_6  and  N1_8 
REMARK    3  A    between atoms: N1_8  and  C6_10 
REMARK    4  A    between atoms: C6_10  and  N2_11 
REMARK    5  A    between atoms: C6_10  and  C12_20 
REMARK       I    between atoms: N2_11  and  C7_13 
REMARK    6  A    between atoms: C7_13  and  O4_15 
REMARK    7  A    between atoms: O4_15  and  C8_16 
REMARK    8  A    between atoms: C12_20  and  C13_22 
REMARK    9  A    between atoms: C14_24  and  C15_25 
REMARK   10  A    between atoms: C15_25  and  N3_26 
REMARK   11  A    between atoms: N3_26  and  C16_27 
REMARK   12  A    between atoms: N3_26  and  C18_31 
REMARK   13  A    between atoms: C16_27  and  C17_28 
ROOT
HETATM    1  C6  UNL     1       1.286  48.833  22.418  1.00  0.00     0.264 C 
ENDROOT
BRANCH   1   2
HETATM    2  N1  UNL     1       2.168  48.923  21.204  1.00  0.00    -0.309 N 
HETATM    3  C5  UNL     1       2.585  47.740  20.543  1.00  0.00     0.363 C 
HETATM    4  O2  UNL     1       2.233  46.594  20.952  1.00  0.00    -0.238 OA
ATOM      5  H1  UNL     1       2.466  49.834  20.855  1.00  0.00     0.167 HD
BRANCH   3   6
HETATM    6  O1  UNL     1       3.396  47.793  19.425  1.00  0.00    -0.294 OA
BRANCH   6   7
HETATM    7  C2  UNL     1       2.999  48.213  18.146  1.00  0.00     0.061 C 
HETATM    8  C1  UNL     1       4.012  47.649  17.150  1.00  0.00     0.046 C 
HETATM    9  C3  UNL     1       1.644  47.647  17.762  1.00  0.00     0.046 C 
HETATM   10  C4  UNL     1       2.950  49.710  17.974  1.00  0.00     0.046 C 
ENDBRANCH   6   7
ENDBRANCH   3   6
ENDBRANCH   1   2
BRANCH   1  11
HETATM   11  N2  UNL     1       0.317  49.858  22.184  1.00  0.00    -0.309 N 
HETATM   12  C7  UNL     1      -0.685  49.677  21.204  1.00  0.00     0.363 C 
HETATM   13  O3  UNL     1      -0.769  48.620  20.518  1.00  0.00    -0.238 OA
ATOM     14  H2  UNL     1       0.349  50.722  22.726  1.00  0.00     0.167 HD
BRANCH  12  15
HETATM   15  O4  UNL     1      -1.601  50.673  20.975  1.00  0.00    -0.294 OA
BRANCH  15  16
HETATM   16  C8  UNL     1      -1.410  51.807  20.188  1.00  0.00     0.061 C 
HETATM   17  C9  UNL     1      -1.822  53.089  20.885  1.00  0.00     0.046 C 
HETATM   18  C10 UNL     1      -0.019  51.984  19.651  1.00  0.00     0.046 C 
HETATM   19  C11 UNL     1      -2.339  51.649  18.980  1.00  0.00     0.046 C 
ENDBRANCH  15  16
ENDBRANCH  12  15
ENDBRANCH   1  11
BRANCH   1  20
HETATM   20  C12 UNL     1       2.099  49.090  23.611  1.00  0.00     0.200 C 
HETATM   21  O5  UNL     1       2.392  48.064  24.304  1.00  0.00    -0.291 OA
BRANCH  20  22
HETATM   22  C13 UNL     1       2.591  50.359  24.067  1.00  0.00     0.230 A 
HETATM   23  O6  UNL     1       2.238  51.617  23.650  1.00  0.00    -0.362 OA
HETATM   24  C14 UNL     1       2.049  51.227  25.100  1.00  0.00     0.197 A 
BRANCH  24  25
HETATM   25  C15 UNL     1       0.649  51.541  25.436  1.00  0.00     0.098 C 
BRANCH  25  26
HETATM   26  N3  UNL     1      -0.141  50.465  25.805  1.00  0.00    -0.361 N 
BRANCH  26  27
HETATM   27  C16 UNL     1      -0.022  49.663  26.912  1.00  0.00     0.133 C 
BRANCH  27  28
HETATM   28  C17 UNL     1      -0.212  50.275  28.242  1.00  0.00     0.392 C 
HETATM   29  F1  UNL     1       0.555  49.601  29.221  1.00  0.00    -0.208 F 
HETATM   30  F2  UNL     1      -1.520  50.397  28.609  1.00  0.00    -0.208 F 
ENDBRANCH  27  28
ENDBRANCH  26  27
BRANCH  26  31
HETATM   31  C18 UNL     1      -1.349  50.276  25.015  1.00  0.00     0.088 A 
HETATM   32  C19 UNL     1      -2.061  51.451  24.516  1.00  0.00     0.028 A 
HETATM   33  C20 UNL     1      -2.673  50.536  25.576  1.00  0.00     0.028 A 
ENDBRANCH  26  31
ENDBRANCH  25  26
ENDBRANCH  24  25
ENDBRANCH  20  22
ENDBRANCH   1  20
TORSDOF 13
ENDMDL
MODEL 4
REMARK VINA RESULT: -5.635303244      1.430      2.243
REMARK  13 active torsions:
REMARK  status: ('A' for Active; 'I' for Inactive)
REMARK    1  A    between atoms: C2_2  and  O1_5 
REMARK    2  A    between atoms: O1_5  and  C5_6 
REMARK       I    between atoms: C5_6  and  N1_8 
REMARK    3  A    between atoms: N1_8  and  C6_10 
REMARK    4  A    between atoms: C6_10  and  N2_11 
REMARK    5  A    between atoms: C6_10  and  C12_20 
REMARK       I    between atoms: N2_11  and  C7_13 
REMARK    6  A    between atoms: C7_13  and  O4_15 
REMARK    7  A    between atoms: O4_15  and  C8_16 
REMARK    8  A    between atoms: C12_20  and  C13_22 
REMARK    9  A    between atoms: C14_24  and  C15_25 
REMARK   10  A    between atoms: C15_25  and  N3_26 
REMARK   11  A    between atoms: N3_26  and  C16_27 
REMARK   12  A    between atoms: N3_26  and  C18_31 
REMARK   13  A    between atoms: C16_27  and  C17_28 
ROOT
HETATM    1  C6  UNL     1       1.305  48.294  22.449  1.00  0.00     0.264 C 
ENDROOT
BRANCH   1   2
HETATM    2  N1  UNL     1       2.419  48.266  21.437  1.00  0.00    -0.309 N 
HETATM    3  C5  UNL     1       2.917  47.024  20.968  1.00  0.00     0.363 C 
HETATM    4  O2  UNL     1       2.447  45.924  21.382  1.00  0.00    -0.238 OA
ATOM      5  H1  UNL     1       2.815  49.139  21.090  1.00  0.00     0.167 HD
BRANCH   3   6
HETATM    6  O1  UNL     1       3.939  46.969  20.040  1.00  0.00    -0.294 OA
BRANCH   6   7
HETATM    7  C2  UNL     1       3.778  46.824  18.653  1.00  0.00     0.061 C 
HETATM    8  C1  UNL     1       4.924  47.580  17.982  1.00  0.00     0.046 C 
HETATM    9  C3  UNL     1       3.895  45.375  18.221  1.00  0.00     0.046 C 
HETATM   10  C4  UNL     1       2.477  47.370  18.122  1.00  0.00     0.046 C 
ENDBRANCH   6   7
ENDBRANCH   3   6
ENDBRANCH   1   2
BRANCH   1  11
HETATM   11  N2  UNL     1       0.372  49.208  21.868  1.00  0.00    -0.309 N 
HETATM   12  C7  UNL     1      -0.455  48.795  20.799  1.00  0.00     0.363 C 
HETATM   13  O3  UNL     1      -0.410  47.622  20.331  1.00  0.00    -0.238 OA
ATOM     14  H2  UNL     1       0.303  50.161  22.226  1.00  0.00     0.167 HD
BRANCH  12  15
HETATM   15  O4  UNL     1      -1.337  49.684  20.237  1.00  0.00    -0.294 OA
BRANCH  15  16
HETATM   16  C8  UNL     1      -1.091  50.515  19.147  1.00  0.00     0.061 C 
HETATM   17  C9  UNL     1       0.179  51.331  19.297  1.00  0.00     0.046 C 
HETATM   18  C10 UNL     1      -1.059  49.825  17.813  1.00  0.00     0.046 C 
HETATM   19  C11 UNL     1      -2.250  51.517  19.105  1.00  0.00     0.046 C 
ENDBRANCH  15  16
ENDBRANCH  12  15
ENDBRANCH   1  11
BRANCH   1  20
HETATM   20  C12 UNL     1       1.842  48.774  23.726  1.00  0.00     0.200 C 
HETATM   21  O5  UNL     1       1.517  48.089  24.747  1.00  0.00    -0.291 OA
BRANCH  20  22
HETATM   22  C13 UNL     1       2.683  49.919  23.938  1.00  0.00     0.230 A 
HETATM   23  O6  UNL     1       2.874  51.006  23.123  1.00  0.00    -0.362 OA
HETATM   24  C14 UNL     1       2.339  51.204  24.525  1.00  0.00     0.197 A 
BRANCH  24  25
HETATM   25  C15 UNL     1       1.113  52.010  24.392  1.00  0.00     0.098 C 
BRANCH  25  26
HETATM   26  N3  UNL     1      -0.034  51.461  24.942  1.00  0.00    -0.361 N 
BRANCH  26  27
HETATM   27  C16 UNL     1      -0.174  50.811  26.142  1.00  0.00     0.133 C 
BRANCH  27  28
HETATM   28  C17 UNL     1      -1.402  50.025  26.373  1.00  0.00     0.392 C 
HETATM   29  F1  UNL     1      -1.669  49.903  27.757  1.00  0.00    -0.208 F 
HETATM   30  F2  UNL     1      -1.407  48.816  25.740  1.00  0.00    -0.208 F 
ENDBRANCH  27  28
ENDBRANCH  26  27
BRANCH  26  31
HETATM   31  C18 UNL     1      -1.273  51.771  24.244  1.00  0.00     0.088 A 
HETATM   32  C19 UNL     1      -1.220  52.117  22.824  1.00  0.00     0.028 A 
HETATM   33  C20 UNL     1      -1.620  53.145  23.883  1.00  0.00     0.028 A 
ENDBRANCH  26  31
ENDBRANCH  25  26
ENDBRANCH  24  25
ENDBRANCH  20  22
ENDBRANCH   1  20
TORSDOF 13
ENDMDL
MODEL 5
REMARK VINA RESULT: -5.620190899      3.202      6.179
REMARK  13 active torsions:
REMARK  status: ('A' for Active; 'I' for Inactive)
REMARK    1  A    between atoms: C2_2  and  O1_5 
REMARK    2  A    between atoms: O1_5  and  C5_6 
REMARK       I    between atoms: C5_6  and  N1_8 
REMARK    3  A    between atoms: N1_8  and  C6_10 
REMARK    4  A    between atoms: C6_10  and  N2_11 
REMARK    5  A    between atoms: C6_10  and  C12_20 
REMARK       I    between atoms: N2_11  and  C7_13 
REMARK    6  A    between atoms: C7_13  and  O4_15 
REMARK    7  A    between atoms: O4_15  and  C8_16 
REMARK    8  A    between atoms: C12_20  and  C13_22 
REMARK    9  A    between atoms: C14_24  and  C15_25 
REMARK   10  A    between atoms: C15_25  and  N3_26 
REMARK   11  A    between atoms: N3_26  and  C16_27 
REMARK   12  A    between atoms: N3_26  and  C18_31 
REMARK   13  A    between atoms: C16_27  and  C17_28 
ROOT
HETATM    1  C6  UNL     1       2.328  50.418  21.317  1.00  0.00     0.264 C 
ENDROOT
BRANCH   1   2
HETATM    2  N1  UNL     1       3.319  49.507  21.988  1.00  0.00    -0.309 N 
HETATM    3  C5  UNL     1       4.569  50.019  22.421  1.00  0.00     0.363 C 
HETATM    4  O2  UNL     1       4.880  51.235  22.255  1.00  0.00    -0.238 OA
ATOM      5  H1  UNL     1       3.093  48.523  22.132  1.00  0.00     0.167 HD
BRANCH   3   6
HETATM    6  O1  UNL     1       5.498  49.205  23.039  1.00  0.00    -0.294 OA
BRANCH   6   7
HETATM    7  C2  UNL     1       6.338  48.283  22.394  1.00  0.00     0.061 C 
HETATM    8  C1  UNL     1       7.639  48.219  23.193  1.00  0.00     0.046 C 
HETATM    9  C3  UNL     1       5.750  46.885  22.398  1.00  0.00     0.046 C 
HETATM   10  C4  UNL     1       6.675  48.648  20.970  1.00  0.00     0.046 C 
ENDBRANCH   6   7
ENDBRANCH   3   6
ENDBRANCH   1   2
BRANCH   1  11
HETATM   11  N2  UNL     1       1.132  50.194  22.068  1.00  0.00    -0.309 N 
HETATM   12  C7  UNL     1       0.954  50.820  23.322  1.00  0.00     0.363 C 
HETATM   13  O3  UNL     1       1.822  51.594  23.814  1.00  0.00    -0.238 OA
ATOM     14  H2  UNL     1       0.405  49.581  21.698  1.00  0.00     0.167 HD
BRANCH  12  15
HETATM   15  O4  UNL     1      -0.190  50.587  24.044  1.00  0.00    -0.294 OA
BRANCH  15  16
HETATM   16  C8  UNL     1      -0.300  49.797  25.186  1.00  0.00     0.061 C 
HETATM   17  C9  UNL     1       0.525  48.527  25.112  1.00  0.00     0.046 C 
HETATM   18  C10 UNL     1       0.017  50.496  26.477  1.00  0.00     0.046 C 
HETATM   19  C11 UNL     1      -1.767  49.361  25.263  1.00  0.00     0.046 C 
ENDBRANCH  15  16
ENDBRANCH  12  15
ENDBRANCH   1  11
BRANCH   1  20
HETATM   20  C12 UNL     1       2.193  50.014  19.914  1.00  0.00     0.200 C 
HETATM   21  O5  UNL     1       2.626  50.853  19.061  1.00  0.00    -0.291 OA
BRANCH  20  22
HETATM   22  C13 UNL     1       1.635  48.790  19.413  1.00  0.00     0.230 A 
HETATM   23  O6  UNL     1       0.861  47.867  20.070  1.00  0.00    -0.362 OA
HETATM   24  C14 UNL     1       0.319  48.559  18.838  1.00  0.00     0.197 A 
BRANCH  24  25
HETATM   25  C15 UNL     1      -0.993  49.115  19.216  1.00  0.00     0.098 C 
BRANCH  25  26
HETATM   26  N3  UNL     1      -1.146  50.479  19.034  1.00  0.00    -0.361 N 
BRANCH  26  27
HETATM   27  C16 UNL     1      -0.957  51.210  17.889  1.00  0.00     0.133 C 
BRANCH  27  28
HETATM   28  C17 UNL     1      -1.746  50.853  16.693  1.00  0.00     0.392 C 
HETATM   29  F1  UNL     1      -1.114  51.319  15.516  1.00  0.00    -0.208 F 
HETATM   30  F2  UNL     1      -3.053  51.238  16.762  1.00  0.00    -0.208 F 
ENDBRANCH  27  28
ENDBRANCH  26  27
BRANCH  26  31
HETATM   31  C18 UNL     1      -1.756  51.194  20.145  1.00  0.00     0.088 A 
HETATM   32  C19 UNL     1      -2.487  52.432  19.878  1.00  0.00     0.028 A 
HETATM   33  C20 UNL     1      -1.176  52.432  20.664  1.00  0.00     0.028 A 
ENDBRANCH  26  31
ENDBRANCH  25  26
ENDBRANCH  24  25
ENDBRANCH  20  22
ENDBRANCH   1  20
TORSDOF 13
ENDMDL
