MODEL 1
REMARK VINA RESULT: -4.822933573      0.000      0.000
REMARK  5 active torsions:
REMARK  status: ('A' for Active; 'I' for Inactive)
REMARK    1  A    between atoms: N1_1  and  C1_5 
REMARK    2  A    between atoms: C1_5  and  C2_6 
REMARK    3  A    between atoms: C2_6  and  N2_7 
REMARK    4  A    between atoms: C2_6  and  C4_11 
REMARK    5  A    between atoms: N2_7  and  C3_9 
ROOT
HETATM    1  C2  UNL     1      18.520  14.881  18.564  1.00  0.00     0.149 C 
ENDROOT
BRANCH   1   2
HETATM    2  C1  UNL     1      18.059  13.492  18.206  1.00  0.00     0.257 C 
BRANCH   2   3
HETATM    3  N1  UNL     1      18.282  12.560  19.266  1.00  0.00    -0.077 N 
ATOM      4  H13 UNL     1      19.274  12.342  19.363  1.00  0.00     0.274 HD
ATOM      5  H12 UNL     1      18.120  12.990  20.176  1.00  0.00     0.274 HD
ATOM      6  H11 UNL     1      17.727  11.711  19.155  1.00  0.00     0.274 HD
ENDBRANCH   2   3
ENDBRANCH   1   2
BRANCH   1   7
HETATM    7  N2  UNL     1      17.419  15.816  18.577  1.00  0.00    -0.359 N 
ATOM      8  H2  UNL     1      17.631  16.814  18.597  1.00  0.00     0.162 HD
BRANCH   7   9
HETATM    9  C3  UNL     1      16.057  15.415  18.563  1.00  0.00     0.348 C 
HETATM   10  O1  UNL     1      15.207  16.258  18.992  1.00  0.00    -0.284 OA
ENDBRANCH   7   9
ENDBRANCH   1   7
BRANCH   1  11
HETATM   11  C4  UNL     1      19.650  15.313  17.703  1.00  0.00     0.271 C 
HETATM   12  N3  UNL     1      20.924  15.249  18.386  1.00  0.00    -0.059 N 
HETATM   13  C5  UNL     1      21.870  15.987  17.569  1.00  0.00     0.244 C 
ATOM     14  H32 UNL     1      20.881  15.579  19.350  1.00  0.00     0.278 HD
ATOM     15  H31 UNL     1      21.225  14.296  18.590  1.00  0.00     0.278 HD
HETATM   16  C6  UNL     1      21.378  17.436  17.650  1.00  0.00     0.103 C 
HETATM   17  S1  UNL     1      19.585  17.122  17.373  1.00  0.00    -0.133 SA
ENDBRANCH   1  11
TORSDOF 5
ENDMDL
MODEL 2
REMARK VINA RESULT: -4.671823286      3.570      4.512
REMARK  5 active torsions:
REMARK  status: ('A' for Active; 'I' for Inactive)
REMARK    1  A    between atoms: N1_1  and  C1_5 
REMARK    2  A    between atoms: C1_5  and  C2_6 
REMARK    3  A    between atoms: C2_6  and  N2_7 
REMARK    4  A    between atoms: C2_6  and  C4_11 
REMARK    5  A    between atoms: N2_7  and  C3_9 
ROOT
HETATM    1  C2  UNL     1      20.925  17.908  17.167  1.00  0.00     0.149 C 
ENDROOT
BRANCH   1   2
HETATM    2  C1  UNL     1      19.859  16.845  17.178  1.00  0.00     0.257 C 
BRANCH   2   3
HETATM    3  N1  UNL     1      18.719  17.233  17.948  1.00  0.00    -0.077 N 
ATOM      4  H13 UNL     1      18.314  18.101  17.597  1.00  0.00     0.274 HD
ATOM      5  H12 UNL     1      17.931  16.607  17.781  1.00  0.00     0.274 HD
ATOM      6  H11 UNL     1      18.932  17.300  18.944  1.00  0.00     0.274 HD
ENDBRANCH   2   3
ENDBRANCH   1   2
BRANCH   1   7
HETATM    7  N2  UNL     1      21.048  18.522  15.865  1.00  0.00    -0.359 N 
ATOM      8  H2  UNL     1      21.779  18.186  15.238  1.00  0.00     0.162 HD
BRANCH   7   9
HETATM    9  C3  UNL     1      20.201  19.570  15.416  1.00  0.00     0.348 C 
HETATM   10  O1  UNL     1      19.406  19.295  14.462  1.00  0.00    -0.284 OA
ENDBRANCH   7   9
ENDBRANCH   1   7
BRANCH   1  11
HETATM   11  C4  UNL     1      22.211  17.387  17.696  1.00  0.00     0.271 C 
HETATM   12  N3  UNL     1      23.185  17.150  16.653  1.00  0.00    -0.059 N 
HETATM   13  C5  UNL     1      24.246  16.357  17.247  1.00  0.00     0.244 C 
ATOM     14  H32 UNL     1      22.784  16.726  15.817  1.00  0.00     0.278 HD
ATOM     15  H31 UNL     1      23.521  18.007  16.212  1.00  0.00     0.278 HD
HETATM   16  C6  UNL     1      23.574  15.016  17.560  1.00  0.00     0.103 C 
HETATM   17  S1  UNL     1      22.028  15.666  18.322  1.00  0.00    -0.133 SA
ENDBRANCH   1  11
TORSDOF 5
ENDMDL
MODEL 3
REMARK VINA RESULT: -4.511199817     10.557     11.453
REMARK  5 active torsions:
REMARK  status: ('A' for Active; 'I' for Inactive)
REMARK    1  A    between atoms: N1_1  and  C1_5 
REMARK    2  A    between atoms: C1_5  and  C2_6 
REMARK    3  A    between atoms: C2_6  and  N2_7 
REMARK    4  A    between atoms: C2_6  and  C4_11 
REMARK    5  A    between atoms: N2_7  and  C3_9 
ROOT
HETATM    1  C2  UNL     1      18.033   5.724  15.559  1.00  0.00     0.149 C 
ENDROOT
BRANCH   1   2
HETATM    2  C1  UNL     1      18.649   4.536  14.869  1.00  0.00     0.257 C 
BRANCH   2   3
HETATM    3  N1  UNL     1      19.619   4.922  13.893  1.00  0.00    -0.077 N 
ATOM      4  H13 UNL     1      20.322   4.194  13.763  1.00  0.00     0.274 HD
ATOM      5  H12 UNL     1      19.217   4.929  12.956  1.00  0.00     0.274 HD
ATOM      6  H11 UNL     1      20.053   5.818  14.116  1.00  0.00     0.274 HD
ENDBRANCH   2   3
ENDBRANCH   1   2
BRANCH   1   7
HETATM    7  N2  UNL     1      18.250   5.677  16.987  1.00  0.00    -0.359 N 
ATOM      8  H2  UNL     1      17.891   6.443  17.557  1.00  0.00     0.162 HD
BRANCH   7   9
HETATM    9  C3  UNL     1      18.938   4.617  17.635  1.00  0.00     0.348 C 
HETATM   10  O1  UNL     1      19.410   4.862  18.790  1.00  0.00    -0.284 OA
ENDBRANCH   7   9
ENDBRANCH   1   7
BRANCH   1  11
HETATM   11  C4  UNL     1      16.605   5.884  15.186  1.00  0.00     0.271 C 
HETATM   12  N3  UNL     1      15.750   6.088  16.335  1.00  0.00    -0.059 N 
HETATM   13  C5  UNL     1      14.385   5.906  15.875  1.00  0.00     0.244 C 
ATOM     14  H32 UNL     1      15.991   5.493  17.127  1.00  0.00     0.278 HD
ATOM     15  H31 UNL     1      15.903   6.985  16.797  1.00  0.00     0.278 HD
HETATM   16  C6  UNL     1      14.314   4.419  15.509  1.00  0.00     0.103 C 
HETATM   17  S1  UNL     1      15.894   4.303  14.569  1.00  0.00    -0.133 SA
ENDBRANCH   1  11
TORSDOF 5
ENDMDL
MODEL 4
REMARK VINA RESULT: -4.492330645      2.816      4.302
REMARK  5 active torsions:
REMARK  status: ('A' for Active; 'I' for Inactive)
REMARK    1  A    between atoms: N1_1  and  C1_5 
REMARK    2  A    between atoms: C1_5  and  C2_6 
REMARK    3  A    between atoms: C2_6  and  N2_7 
REMARK    4  A    between atoms: C2_6  and  C4_11 
REMARK    5  A    between atoms: N2_7  and  C3_9 
ROOT
HETATM    1  C2  UNL     1      21.787  15.977  17.539  1.00  0.00     0.149 C 
ENDROOT
BRANCH   1   2
HETATM    2  C1  UNL     1      22.075  17.451  17.650  1.00  0.00     0.257 C 
BRANCH   2   3
HETATM    3  N1  UNL     1      21.043  18.248  17.064  1.00  0.00    -0.077 N 
ATOM      4  H13 UNL     1      20.624  17.777  16.262  1.00  0.00     0.274 HD
ATOM      5  H12 UNL     1      20.225  18.296  17.670  1.00  0.00     0.274 HD
ATOM      6  H11 UNL     1      21.373  19.180  16.814  1.00  0.00     0.274 HD
ENDBRANCH   2   3
ENDBRANCH   1   2
BRANCH   1   7
HETATM    7  N2  UNL     1      20.590  15.616  18.263  1.00  0.00    -0.359 N 
ATOM      8  H2  UNL     1      20.611  15.653  19.282  1.00  0.00     0.162 HD
BRANCH   7   9
HETATM    9  C3  UNL     1      19.387  15.211  17.625  1.00  0.00     0.348 C 
HETATM   10  O1  UNL     1      18.643  14.402  18.265  1.00  0.00    -0.284 OA
ENDBRANCH   7   9
ENDBRANCH   1   7
BRANCH   1  11
HETATM   11  C4  UNL     1      22.971  15.166  17.918  1.00  0.00     0.271 C 
HETATM   12  N3  UNL     1      22.851  14.591  19.240  1.00  0.00    -0.059 N 
HETATM   13  C5  UNL     1      24.171  14.112  19.608  1.00  0.00     0.244 C 
ATOM     14  H32 UNL     1      22.451  15.234  19.924  1.00  0.00     0.278 HD
ATOM     15  H31 UNL     1      22.130  13.872  19.304  1.00  0.00     0.278 HD
HETATM   16  C6  UNL     1      25.006  15.391  19.737  1.00  0.00     0.103 C 
HETATM   17  S1  UNL     1      24.448  16.228  18.194  1.00  0.00    -0.133 SA
ENDBRANCH   1  11
TORSDOF 5
ENDMDL
MODEL 5
REMARK VINA RESULT: -4.482345984      3.899      5.020
REMARK  5 active torsions:
REMARK  status: ('A' for Active; 'I' for Inactive)
REMARK    1  A    between atoms: N1_1  and  C1_5 
REMARK    2  A    between atoms: C1_5  and  C2_6 
REMARK    3  A    between atoms: C2_6  and  N2_7 
REMARK    4  A    between atoms: C2_6  and  C4_11 
REMARK    5  A    between atoms: N2_7  and  C3_9 
ROOT
HETATM    1  C2  UNL     1      22.946  15.725  18.450  1.00  0.00     0.149 C 
ENDROOT
BRANCH   1   2
HETATM    2  C1  UNL     1      24.067  14.915  17.854  1.00  0.00     0.257 C 
BRANCH   2   3
HETATM    3  N1  UNL     1      24.376  15.324  16.519  1.00  0.00    -0.077 N 
ATOM      4  H13 UNL     1      25.381  15.294  16.348  1.00  0.00     0.274 HD
ATOM      5  H12 UNL     1      24.075  14.626  15.840  1.00  0.00     0.274 HD
ATOM      6  H11 UNL     1      23.991  16.243  16.300  1.00  0.00     0.274 HD
ENDBRANCH   2   3
ENDBRANCH   1   2
BRANCH   1   7
HETATM    7  N2  UNL     1      22.221  14.971  19.447  1.00  0.00    -0.359 N 
ATOM      8  H2  UNL     1      21.206  15.066  19.483  1.00  0.00     0.162 HD
BRANCH   7   9
HETATM    9  C3  UNL     1      22.852  14.104  20.378  1.00  0.00     0.348 C 
HETATM   10  O1  UNL     1      22.302  12.974  20.573  1.00  0.00    -0.284 OA
ENDBRANCH   7   9
ENDBRANCH   1   7
BRANCH   1  11
HETATM   11  C4  UNL     1      22.073  16.297  17.395  1.00  0.00     0.271 C 
HETATM   12  N3  UNL     1      21.903  17.728  17.530  1.00  0.00    -0.059 N 
HETATM   13  C5  UNL     1      20.800  18.099  16.662  1.00  0.00     0.244 C 
ATOM     14  H32 UNL     1      21.775  18.028  18.496  1.00  0.00     0.278 HD
ATOM     15  H31 UNL     1      22.757  18.255  17.344  1.00  0.00     0.278 HD
HETATM   16  C6  UNL     1      19.581  17.429  17.306  1.00  0.00     0.103 C 
HETATM   17  S1  UNL     1      20.323  15.772  17.616  1.00  0.00    -0.133 SA
ENDBRANCH   1  11
TORSDOF 5
ENDMDL
