MODEL 1
REMARK VINA RESULT: -3.448469917      0.000      0.000
REMARK  2 active torsions:
REMARK  status: ('A' for Active; 'I' for Inactive)
REMARK    1  A    between atoms: C2_2  and  C3_3 
REMARK    2  A    between atoms: C5_5  and  C6_6 
ROOT
HETATM    1  C3  UNL     1     -38.698 -26.283 -46.214  1.00  0.00     0.017 A 
HETATM    2  C4  UNL     1     -37.631 -25.349 -45.678  1.00  0.00     0.019 A 
HETATM    3  C5  UNL     1     -38.018 -25.401 -47.192  1.00  0.00     0.032 A 
ENDROOT
BRANCH   3   4
HETATM    4  C6  UNL     1     -37.012 -26.055 -48.074  1.00  0.00     0.058 C 
HETATM    5  N1  UNL     1     -36.677 -25.560 -49.195  1.00  0.00    -0.411 N 
ATOM      6  H12 UNL     1     -37.119 -24.687 -49.485  1.00  0.00     0.155 HD
ATOM      7  H11 UNL     1     -35.988 -26.008 -49.800  1.00  0.00     0.155 HD
ENDBRANCH   3   4
BRANCH   1   8
HETATM    8  C2  UNL     1     -40.067 -25.981 -45.715  1.00  0.00    -0.032 C 
HETATM    9  C1  UNL     1     -41.057 -25.608 -46.506  1.00  0.00     0.007 C 
ENDBRANCH   1   8
TORSDOF 2
ENDMDL
MODEL 2
REMARK VINA RESULT: -3.382979104     11.534     11.924
REMARK  2 active torsions:
REMARK  status: ('A' for Active; 'I' for Inactive)
REMARK    1  A    between atoms: C2_2  and  C3_3 
REMARK    2  A    between atoms: C5_5  and  C6_6 
ROOT
HETATM    1  C3  UNL     1     -30.354 -26.557 -37.893  1.00  0.00     0.017 A 
HETATM    2  C4  UNL     1     -30.009 -25.168 -37.391  1.00  0.00     0.019 A 
HETATM    3  C5  UNL     1     -30.138 -25.504 -38.913  1.00  0.00     0.032 A 
ENDROOT
BRANCH   3   4
HETATM    4  C6  UNL     1     -28.847 -25.565 -39.654  1.00  0.00     0.058 C 
HETATM    5  N1  UNL     1     -28.695 -25.014 -40.788  1.00  0.00    -0.411 N 
ATOM      6  H12 UNL     1     -29.491 -24.519 -41.190  1.00  0.00     0.155 HD
ATOM      7  H11 UNL     1     -27.811 -25.056 -41.295  1.00  0.00     0.155 HD
ENDBRANCH   3   4
BRANCH   1   8
HETATM    8  C2  UNL     1     -31.722 -27.009 -37.519  1.00  0.00    -0.032 C 
HETATM    9  C1  UNL     1     -32.047 -27.388 -36.298  1.00  0.00     0.007 C 
ENDBRANCH   1   8
TORSDOF 2
ENDMDL
MODEL 3
REMARK VINA RESULT: -3.355511588     10.944     11.946
REMARK  2 active torsions:
REMARK  status: ('A' for Active; 'I' for Inactive)
REMARK    1  A    between atoms: C2_2  and  C3_3 
REMARK    2  A    between atoms: C5_5  and  C6_6 
ROOT
HETATM    1  C3  UNL     1     -31.877 -26.688 -36.734  1.00  0.00     0.017 A 
HETATM    2  C4  UNL     1     -32.595 -26.574 -38.065  1.00  0.00     0.019 A 
HETATM    3  C5  UNL     1     -31.161 -27.183 -37.933  1.00  0.00     0.032 A 
ENDROOT
BRANCH   3   4
HETATM    4  C6  UNL     1     -30.061 -26.317 -38.442  1.00  0.00     0.058 C 
HETATM    5  N1  UNL     1     -29.162 -26.760 -39.223  1.00  0.00    -0.411 N 
ATOM      6  H12 UNL     1     -29.209 -27.741 -39.499  1.00  0.00     0.155 HD
ATOM      7  H11 UNL     1     -28.409 -26.167 -39.572  1.00  0.00     0.155 HD
ENDBRANCH   3   4
BRANCH   1   8
HETATM    8  C2  UNL     1     -32.531 -27.623 -35.777  1.00  0.00    -0.032 C 
HETATM    9  C1  UNL     1     -33.699 -27.376 -35.213  1.00  0.00     0.007 C 
ENDBRANCH   1   8
TORSDOF 2
ENDMDL
MODEL 4
REMARK VINA RESULT: -3.188489731      2.325      3.683
REMARK  2 active torsions:
REMARK  status: ('A' for Active; 'I' for Inactive)
REMARK    1  A    between atoms: C2_2  and  C3_3 
REMARK    2  A    between atoms: C5_5  and  C6_6 
ROOT
HETATM    1  C3  UNL     1     -38.718 -25.350 -46.711  1.00  0.00     0.017 A 
HETATM    2  C4  UNL     1     -38.785 -26.081 -45.383  1.00  0.00     0.019 A 
HETATM    3  C5  UNL     1     -39.953 -26.116 -46.422  1.00  0.00     0.032 A 
ENDROOT
BRANCH   3   4
HETATM    4  C6  UNL     1     -41.149 -25.312 -46.048  1.00  0.00     0.058 C 
HETATM    5  N1  UNL     1     -41.907 -24.786 -46.922  1.00  0.00    -0.411 N 
ATOM      6  H12 UNL     1     -41.674 -24.928 -47.905  1.00  0.00     0.155 HD
ATOM      7  H11 UNL     1     -42.726 -24.235 -46.666  1.00  0.00     0.155 HD
ENDBRANCH   3   4
BRANCH   1   8
HETATM    8  C2  UNL     1     -37.674 -25.876 -47.634  1.00  0.00    -0.032 C 
HETATM    9  C1  UNL     1     -36.439 -25.413 -47.663  1.00  0.00     0.007 C 
ENDBRANCH   1   8
TORSDOF 2
ENDMDL
MODEL 5
REMARK VINA RESULT: -3.183023266      3.283      4.157
REMARK  2 active torsions:
REMARK  status: ('A' for Active; 'I' for Inactive)
REMARK    1  A    between atoms: C2_2  and  C3_3 
REMARK    2  A    between atoms: C5_5  and  C6_6 
ROOT
HETATM    1  C3  UNL     1     -40.033 -26.269 -45.337  1.00  0.00     0.017 A 
HETATM    2  C4  UNL     1     -38.950 -26.367 -44.280  1.00  0.00     0.019 A 
HETATM    3  C5  UNL     1     -39.602 -27.628 -44.933  1.00  0.00     0.032 A 
ENDROOT
BRANCH   3   4
HETATM    4  C6  UNL     1     -40.540 -28.377 -44.051  1.00  0.00     0.058 C 
HETATM    5  N1  UNL     1     -40.736 -29.626 -44.182  1.00  0.00    -0.411 N 
ATOM      6  H12 UNL     1     -40.228 -30.115 -44.919  1.00  0.00     0.155 HD
ATOM      7  H11 UNL     1     -41.379 -30.138 -43.578  1.00  0.00     0.155 HD
ENDBRANCH   3   4
BRANCH   1   8
HETATM    8  C2  UNL     1     -39.574 -25.655 -46.613  1.00  0.00    -0.032 C 
HETATM    9  C1  UNL     1     -38.302 -25.443 -46.894  1.00  0.00     0.007 C 
ENDBRANCH   1   8
TORSDOF 2
ENDMDL
