MODEL 1
REMARK VINA RESULT: -5.722584800      0.000      0.000
REMARK  9 active torsions:
REMARK  status: ('A' for Active; 'I' for Inactive)
REMARK    1  A    between atoms: C2_2  and  C4_4 
REMARK    2  A    between atoms: C11_12  and  O2_13 
REMARK    3  A    between atoms: C12_16  and  C13_17 
REMARK    4  A    between atoms: C13_17  and  O3_18 
REMARK    5  A    between atoms: C14_20  and  O4_21 
REMARK    6  A    between atoms: C15_23  and  C17_25 
REMARK    7  A    between atoms: C17_25  and  C18_26 
REMARK    8  A    between atoms: C18_26  and  C19_27 
REMARK    9  A    between atoms: C19_27  and  C20_28 
ROOT
HETATM    1  C4  UNL     1       8.273  27.817   0.414  1.00  0.00     0.022 C 
HETATM    2  C5  UNL     1       7.883  26.558   1.073  1.00  0.00     0.011 C 
HETATM    3  C6  UNL     1       8.375  26.758   2.450  1.00  0.00     0.018 C 
HETATM    4  C7  UNL     1       8.255  28.289   2.776  1.00  0.00     0.028 C 
HETATM    5  C8  UNL     1       9.128  28.479   3.970  1.00  0.00     0.031 A 
HETATM    6  C9  UNL     1       8.741  29.188   5.115  1.00  0.00     0.035 A 
HETATM    7  C10 UNL     1       9.749  29.170   6.061  1.00  0.00     0.164 A 
HETATM    8  O1  UNL     1      10.706  28.496   5.553  1.00  0.00    -0.299 OA
HETATM    9  C11 UNL     1      10.394  28.064   4.326  1.00  0.00     0.191 A 
HETATM   10  S1  UNL     1       7.152  29.959   5.350  1.00  0.00    -0.118 SA
HETATM   11  C12 UNL     1       6.200  29.444   3.898  1.00  0.00     0.106 C 
HETATM   12  C14 UNL     1       6.866  28.309   3.281  1.00  0.00     0.148 C 
HETATM   13  C15 UNL     1       8.639  28.861   1.484  1.00  0.00    -0.022 C 
HETATM   14  C16 UNL     1      10.175  28.987   1.370  1.00  0.00     0.017 C 
ENDROOT
BRANCH  12  15
HETATM   15  O4  UNL     1       5.907  27.612   2.554  1.00  0.00    -0.393 OA
ATOM     16  H4  UNL     1       5.284  28.121   2.048  1.00  0.00     0.210 HD
ENDBRANCH  12  15
BRANCH  13  17
HETATM   17  C17 UNL     1       8.186  30.187   1.027  1.00  0.00     0.011 C 
BRANCH  17  18
HETATM   18  C18 UNL     1       9.203  31.142   0.461  1.00  0.00     0.001 C 
BRANCH  18  19
HETATM   19  C19 UNL     1       8.658  31.781  -0.834  1.00  0.00    -0.000 C 
BRANCH  19  20
HETATM   20  C20 UNL     1       7.172  31.861  -0.858  1.00  0.00    -0.005 C 
HETATM   21  C21 UNL     1       6.646  31.821  -2.270  1.00  0.00     0.005 C 
ENDBRANCH  19  20
ENDBRANCH  18  19
ENDBRANCH  17  18
ENDBRANCH  13  17
BRANCH   9  22
HETATM   22  O2  UNL     1      11.329  27.324   3.671  1.00  0.00    -0.340 OA
ATOM     23  H2  UNL     1      12.115  27.567   3.196  1.00  0.00     0.220 HD
ENDBRANCH   9  22
BRANCH  11  24
HETATM   24  C13 UNL     1       4.869  28.916   4.475  1.00  0.00     0.182 C 
BRANCH  24  25
HETATM   25  O3  UNL     1       3.867  29.213   3.554  1.00  0.00    -0.400 OA
ATOM     26  H3  UNL     1       3.036  29.164   4.012  1.00  0.00     0.209 HD
ENDBRANCH  24  25
ENDBRANCH  11  24
BRANCH   1  27
HETATM   27  C2  UNL     1       7.439  28.170  -0.703  1.00  0.00    -0.088 C 
HETATM   28  C1  UNL     1       6.101  28.325  -0.711  1.00  0.00     0.014 C 
HETATM   29  C3  UNL     1       8.010  28.329  -2.103  1.00  0.00     0.043 C 
ENDBRANCH   1  27
TORSDOF 9
ENDMDL
MODEL 2
REMARK VINA RESULT: -5.511410659      2.589      6.027
REMARK  9 active torsions:
REMARK  status: ('A' for Active; 'I' for Inactive)
REMARK    1  A    between atoms: C2_2  and  C4_4 
REMARK    2  A    between atoms: C11_12  and  O2_13 
REMARK    3  A    between atoms: C12_16  and  C13_17 
REMARK    4  A    between atoms: C13_17  and  O3_18 
REMARK    5  A    between atoms: C14_20  and  O4_21 
REMARK    6  A    between atoms: C15_23  and  C17_25 
REMARK    7  A    between atoms: C17_25  and  C18_26 
REMARK    8  A    between atoms: C18_26  and  C19_27 
REMARK    9  A    between atoms: C19_27  and  C20_28 
ROOT
HETATM    1  C4  UNL     1       7.438  29.210   5.726  1.00  0.00     0.022 C 
HETATM    2  C5  UNL     1       7.719  30.420   4.933  1.00  0.00     0.011 C 
HETATM    3  C6  UNL     1       8.636  29.908   3.895  1.00  0.00     0.018 C 
HETATM    4  C7  UNL     1       8.221  28.426   3.588  1.00  0.00     0.028 C 
HETATM    5  C8  UNL     1       9.400  27.855   2.876  1.00  0.00     0.031 A 
HETATM    6  C9  UNL     1       9.312  27.109   1.692  1.00  0.00     0.035 A 
HETATM    7  C10 UNL     1      10.570  26.739   1.257  1.00  0.00     0.164 A 
HETATM    8  O1  UNL     1      11.398  27.217   2.102  1.00  0.00    -0.299 OA
HETATM    9  C11 UNL     1      10.764  27.883   3.074  1.00  0.00     0.191 A 
HETATM   10  S1  UNL     1       7.797  26.736   0.831  1.00  0.00    -0.118 SA
HETATM   11  C12 UNL     1       6.540  27.676   1.736  1.00  0.00     0.106 C 
HETATM   12  C14 UNL     1       7.203  28.683   2.547  1.00  0.00     0.148 C 
HETATM   13  C15 UNL     1       7.880  27.966   4.935  1.00  0.00    -0.022 C 
HETATM   14  C16 UNL     1       9.139  27.477   5.687  1.00  0.00     0.017 C 
ENDROOT
BRANCH  12  15
HETATM   15  O4  UNL     1       6.279  29.694   2.786  1.00  0.00    -0.393 OA
ATOM     16  H4  UNL     1       5.441  29.638   2.342  1.00  0.00     0.210 HD
ENDBRANCH  12  15
BRANCH  13  17
HETATM   17  C17 UNL     1       6.923  26.876   5.193  1.00  0.00     0.011 C 
BRANCH  17  18
HETATM   18  C18 UNL     1       7.358  25.721   6.056  1.00  0.00     0.001 C 
BRANCH  18  19
HETATM   19  C19 UNL     1       7.031  26.019   7.535  1.00  0.00    -0.000 C 
BRANCH  19  20
HETATM   20  C20 UNL     1       8.170  25.727   8.449  1.00  0.00    -0.005 C 
HETATM   21  C21 UNL     1       8.571  26.952   9.230  1.00  0.00     0.005 C 
ENDBRANCH  19  20
ENDBRANCH  18  19
ENDBRANCH  17  18
ENDBRANCH  13  17
BRANCH   9  22
HETATM   22  O2  UNL     1      11.533  28.451   4.042  1.00  0.00    -0.340 OA
ATOM     23  H2  UNL     1      12.425  28.285   4.327  1.00  0.00     0.220 HD
ENDBRANCH   9  22
BRANCH  11  24
HETATM   24  C13 UNL     1       5.759  28.432   0.640  1.00  0.00     0.182 C 
BRANCH  24  25
HETATM   25  O3  UNL     1       5.755  27.632  -0.499  1.00  0.00    -0.400 OA
ATOM     26  H3  UNL     1       5.305  28.113  -1.184  1.00  0.00     0.209 HD
ENDBRANCH  24  25
ENDBRANCH  11  24
BRANCH   1  27
HETATM   27  C2  UNL     1       6.167  29.240   6.398  1.00  0.00    -0.088 C 
HETATM   28  C1  UNL     1       4.957  29.482   5.855  1.00  0.00     0.014 C 
HETATM   29  C3  UNL     1       6.060  29.080   7.906  1.00  0.00     0.043 C 
ENDBRANCH   1  27
TORSDOF 9
ENDMDL
MODEL 3
REMARK VINA RESULT: -5.384123258      2.413      5.993
REMARK  9 active torsions:
REMARK  status: ('A' for Active; 'I' for Inactive)
REMARK    1  A    between atoms: C2_2  and  C4_4 
REMARK    2  A    between atoms: C11_12  and  O2_13 
REMARK    3  A    between atoms: C12_16  and  C13_17 
REMARK    4  A    between atoms: C13_17  and  O3_18 
REMARK    5  A    between atoms: C14_20  and  O4_21 
REMARK    6  A    between atoms: C15_23  and  C17_25 
REMARK    7  A    between atoms: C17_25  and  C18_26 
REMARK    8  A    between atoms: C18_26  and  C19_27 
REMARK    9  A    between atoms: C19_27  and  C20_28 
ROOT
HETATM    1  C4  UNL     1       6.202  28.062   3.988  1.00  0.00     0.022 C 
HETATM    2  C5  UNL     1       5.521  27.226   2.983  1.00  0.00     0.011 C 
HETATM    3  C6  UNL     1       5.444  28.134   1.821  1.00  0.00     0.018 C 
HETATM    4  C7  UNL     1       6.716  29.052   1.854  1.00  0.00     0.028 C 
HETATM    5  C8  UNL     1       6.378  30.180   0.939  1.00  0.00     0.031 A 
HETATM    6  C9  UNL     1       7.237  30.664  -0.056  1.00  0.00     0.035 A 
HETATM    7  C10 UNL     1       6.638  31.693  -0.757  1.00  0.00     0.164 A 
HETATM    8  O1  UNL     1       5.480  31.851  -0.245  1.00  0.00    -0.299 OA
HETATM    9  C11 UNL     1       5.274  30.986   0.756  1.00  0.00     0.191 A 
HETATM   10  S1  UNL     1       8.856  30.010  -0.413  1.00  0.00    -0.118 SA
HETATM   11  C12 UNL     1       8.979  28.550   0.652  1.00  0.00     0.106 C 
HETATM   12  C14 UNL     1       7.646  28.184   1.100  1.00  0.00     0.148 C 
HETATM   13  C15 UNL     1       6.835  29.281   3.294  1.00  0.00    -0.022 C 
HETATM   14  C16 UNL     1       5.947  30.465   3.740  1.00  0.00     0.017 C 
ENDROOT
BRANCH  12  15
HETATM   15  O4  UNL     1       7.678  26.834   1.432  1.00  0.00    -0.393 OA
ATOM     16  H4  UNL     1       8.279  26.564   2.116  1.00  0.00     0.210 HD
ENDBRANCH  12  15
BRANCH  13  17
HETATM   17  C17 UNL     1       8.116  29.590   3.956  1.00  0.00     0.011 C 
BRANCH  17  18
HETATM   18  C18 UNL     1       8.151  30.686   4.987  1.00  0.00     0.001 C 
BRANCH  18  19
HETATM   19  C19 UNL     1       9.183  30.342   6.083  1.00  0.00    -0.000 C 
BRANCH  19  20
HETATM   20  C20 UNL     1      10.003  29.145   5.748  1.00  0.00    -0.005 C 
HETATM   21  C21 UNL     1      10.056  28.180   6.905  1.00  0.00     0.005 C 
ENDBRANCH  19  20
ENDBRANCH  18  19
ENDBRANCH  17  18
ENDBRANCH  13  17
BRANCH   9  22
HETATM   22  O2  UNL     1       4.071  31.043   1.388  1.00  0.00    -0.340 OA
ATOM     23  H2  UNL     1       3.753  31.580   2.105  1.00  0.00     0.220 HD
ENDBRANCH   9  22
BRANCH  11  24
HETATM   24  C13 UNL     1       9.455  27.423  -0.289  1.00  0.00     0.182 C 
BRANCH  24  25
HETATM   25  O3  UNL     1       8.520  27.311  -1.314  1.00  0.00    -0.400 OA
ATOM     26  H3  UNL     1       8.989  27.385  -2.137  1.00  0.00     0.209 HD
ENDBRANCH  24  25
ENDBRANCH  11  24
BRANCH   1  27
HETATM   27  C2  UNL     1       6.938  27.308   4.967  1.00  0.00    -0.088 C 
HETATM   28  C1  UNL     1       7.855  26.347   4.742  1.00  0.00     0.014 C 
HETATM   29  C3  UNL     1       6.675  27.466   6.455  1.00  0.00     0.043 C 
ENDBRANCH   1  27
TORSDOF 9
ENDMDL
MODEL 4
REMARK VINA RESULT: -5.180005623      1.608      1.895
REMARK  9 active torsions:
REMARK  status: ('A' for Active; 'I' for Inactive)
REMARK    1  A    between atoms: C2_2  and  C4_4 
REMARK    2  A    between atoms: C11_12  and  O2_13 
REMARK    3  A    between atoms: C12_16  and  C13_17 
REMARK    4  A    between atoms: C13_17  and  O3_18 
REMARK    5  A    between atoms: C14_20  and  O4_21 
REMARK    6  A    between atoms: C15_23  and  C17_25 
REMARK    7  A    between atoms: C17_25  and  C18_26 
REMARK    8  A    between atoms: C18_26  and  C19_27 
REMARK    9  A    between atoms: C19_27  and  C20_28 
ROOT
HETATM    1  C4  UNL     1       9.875  26.974  -0.683  1.00  0.00     0.022 C 
HETATM    2  C5  UNL     1       9.287  25.749  -0.113  1.00  0.00     0.011 C 
HETATM    3  C6  UNL     1       9.301  26.039   1.335  1.00  0.00     0.018 C 
HETATM    4  C7  UNL     1       9.083  27.584   1.508  1.00  0.00     0.028 C 
HETATM    5  C8  UNL     1       9.517  27.860   2.908  1.00  0.00     0.031 A 
HETATM    6  C9  UNL     1       8.777  28.628   3.817  1.00  0.00     0.035 A 
HETATM    7  C10 UNL     1       9.418  28.684   5.040  1.00  0.00     0.164 A 
HETATM    8  O1  UNL     1      10.488  27.999   4.917  1.00  0.00    -0.299 OA
HETATM    9  C11 UNL     1      10.595  27.490   3.684  1.00  0.00     0.191 A 
HETATM   10  S1  UNL     1       7.200  29.382   3.470  1.00  0.00    -0.118 SA
HETATM   11  C12 UNL     1       6.776  28.764   1.821  1.00  0.00     0.106 C 
HETATM   12  C14 UNL     1       7.606  27.608   1.527  1.00  0.00     0.148 C 
HETATM   13  C15 UNL     1       9.871  28.086   0.381  1.00  0.00    -0.022 C 
HETATM   14  C16 UNL     1      11.360  28.233   0.769  1.00  0.00     0.017 C 
ENDROOT
BRANCH  12  15
HETATM   15  O4  UNL     1       6.937  26.852   0.571  1.00  0.00    -0.393 OA
ATOM     16  H4  UNL     1       6.055  27.116   0.341  1.00  0.00     0.210 HD
ENDBRANCH  12  15
BRANCH  13  17
HETATM   17  C17 UNL     1       9.596  29.373  -0.281  1.00  0.00     0.011 C 
BRANCH  17  18
HETATM   18  C18 UNL     1       9.277  30.572   0.573  1.00  0.00     0.001 C 
BRANCH  18  19
HETATM   19  C19 UNL     1       8.567  31.647  -0.277  1.00  0.00    -0.000 C 
BRANCH  19  20
HETATM   20  C20 UNL     1       7.859  31.077  -1.456  1.00  0.00    -0.005 C 
HETATM   21  C21 UNL     1       6.382  30.937  -1.190  1.00  0.00     0.005 C 
ENDBRANCH  19  20
ENDBRANCH  18  19
ENDBRANCH  17  18
ENDBRANCH  13  17
BRANCH   9  22
HETATM   22  O2  UNL     1      11.692  26.731   3.419  1.00  0.00    -0.340 OA
ATOM     23  H2  UNL     1      11.955  25.867   3.715  1.00  0.00     0.220 HD
ENDBRANCH   9  22
BRANCH  11  24
HETATM   24  C13 UNL     1       5.329  28.247   1.961  1.00  0.00     0.182 C 
BRANCH  24  25
HETATM   25  O3  UNL     1       4.690  28.454   0.741  1.00  0.00    -0.400 OA
ATOM     26  H3  UNL     1       5.189  27.993   0.077  1.00  0.00     0.209 HD
ENDBRANCH  24  25
ENDBRANCH  11  24
BRANCH   1  27
HETATM   27  C2  UNL     1       9.455  27.245  -2.032  1.00  0.00    -0.088 C 
HETATM   28  C1  UNL     1       8.217  27.111  -2.547  1.00  0.00     0.014 C 
HETATM   29  C3  UNL     1      10.447  27.652  -3.108  1.00  0.00     0.043 C 
ENDBRANCH   1  27
TORSDOF 9
ENDMDL
MODEL 5
REMARK VINA RESULT: -5.145430647      2.797      4.398
REMARK  9 active torsions:
REMARK  status: ('A' for Active; 'I' for Inactive)
REMARK    1  A    between atoms: C2_2  and  C4_4 
REMARK    2  A    between atoms: C11_12  and  O2_13 
REMARK    3  A    between atoms: C12_16  and  C13_17 
REMARK    4  A    between atoms: C13_17  and  O3_18 
REMARK    5  A    between atoms: C14_20  and  O4_21 
REMARK    6  A    between atoms: C15_23  and  C17_25 
REMARK    7  A    between atoms: C17_25  and  C18_26 
REMARK    8  A    between atoms: C18_26  and  C19_27 
REMARK    9  A    between atoms: C19_27  and  C20_28 
ROOT
HETATM    1  C4  UNL     1       9.859  28.010   2.059  1.00  0.00     0.022 C 
HETATM    2  C5  UNL     1      11.136  27.937   2.793  1.00  0.00     0.011 C 
HETATM    3  C6  UNL     1      10.736  28.333   4.158  1.00  0.00     0.018 C 
HETATM    4  C7  UNL     1       9.270  27.821   4.387  1.00  0.00     0.028 C 
HETATM    5  C8  UNL     1       8.794  28.590   5.572  1.00  0.00     0.031 A 
HETATM    6  C9  UNL     1       8.140  28.011   6.668  1.00  0.00     0.035 A 
HETATM    7  C10 UNL     1       7.845  28.969   7.620  1.00  0.00     0.164 A 
HETATM    8  O1  UNL     1       8.282  30.077   7.161  1.00  0.00    -0.299 OA
HETATM    9  C11 UNL     1       8.850  29.912   5.961  1.00  0.00     0.191 A 
HETATM   10  S1  UNL     1       7.786  26.274   6.844  1.00  0.00    -0.118 SA
HETATM   11  C12 UNL     1       8.612  25.516   5.421  1.00  0.00     0.106 C 
HETATM   12  C14 UNL     1       9.574  26.461   4.881  1.00  0.00     0.148 C 
HETATM   13  C15 UNL     1       8.696  28.075   3.064  1.00  0.00    -0.022 C 
HETATM   14  C16 UNL     1       8.190  29.531   2.952  1.00  0.00     0.017 C 
ENDROOT
BRANCH  12  15
HETATM   15  O4  UNL     1      10.534  25.727   4.193  1.00  0.00    -0.393 OA
ATOM     16  H4  UNL     1      11.006  25.060   4.677  1.00  0.00     0.210 HD
ENDBRANCH  12  15
BRANCH  13  17
HETATM   17  C17 UNL     1       7.559  27.311   2.522  1.00  0.00     0.011 C 
BRANCH  17  18
HETATM   18  C18 UNL     1       6.347  28.063   2.037  1.00  0.00     0.001 C 
BRANCH  18  19
HETATM   19  C19 UNL     1       5.127  27.712   2.915  1.00  0.00    -0.000 C 
BRANCH  19  20
HETATM   20  C20 UNL     1       4.517  28.907   3.561  1.00  0.00    -0.005 C 
HETATM   21  C21 UNL     1       5.091  29.135   4.936  1.00  0.00     0.005 C 
ENDBRANCH  19  20
ENDBRANCH  18  19
ENDBRANCH  17  18
ENDBRANCH  13  17
BRANCH   9  22
HETATM   22  O2  UNL     1       9.365  31.019   5.360  1.00  0.00    -0.340 OA
ATOM     23  H2  UNL     1       9.714  31.166   4.488  1.00  0.00     0.220 HD
ENDBRANCH   9  22
BRANCH  11  24
HETATM   24  C13 UNL     1       9.427  24.350   6.021  1.00  0.00     0.182 C 
BRANCH  24  25
HETATM   25  O3  UNL     1       9.796  24.719   7.312  1.00  0.00    -0.400 OA
ATOM     26  H3  UNL     1      10.574  25.261   7.242  1.00  0.00     0.209 HD
ENDBRANCH  24  25
ENDBRANCH  11  24
BRANCH   1  27
HETATM   27  C2  UNL     1       9.797  27.139   0.917  1.00  0.00    -0.088 C 
HETATM   28  C1  UNL     1      10.204  25.856   0.840  1.00  0.00     0.014 C 
HETATM   29  C3  UNL     1       9.315  27.635  -0.436  1.00  0.00     0.043 C 
ENDBRANCH   1  27
TORSDOF 9
ENDMDL
