MODEL 1
REMARK VINA RESULT: -8.459365807      0.000      0.000
REMARK  9 active torsions:
REMARK  status: ('A' for Active; 'I' for Inactive)
REMARK    1  A    between atoms: C2_2  and  C23_32 
REMARK    2  A    between atoms: C3_3  and  C4_4 
REMARK    3  A    between atoms: C5_5  and  C6_6 
REMARK    4  A    between atoms: C7_7  and  O1_9 
REMARK    5  A    between atoms: C10_12  and  C11_13 
REMARK    6  A    between atoms: C11_13  and  C12_14 
REMARK    7  A    between atoms: C14_19  and  C15_20 
REMARK    8  A    between atoms: N2_21  and  O2_23 
REMARK    9  A    between atoms: C23_32  and  O3_33 
ROOT
HETATM    1  C6  UNL     1       5.906  28.753   4.511  1.00  0.00     0.054 C 
HETATM    2  C7  UNL     1       6.616  28.654   3.225  1.00  0.00     0.063 C 
HETATM    3  C8  UNL     1       5.836  27.664   2.345  1.00  0.00     0.046 C 
HETATM    4  C9  UNL     1       8.036  28.264   3.204  1.00  0.00     0.047 C 
HETATM    5  C10 UNL     1       8.486  27.356   4.334  1.00  0.00     0.024 C 
HETATM    6  C13 UNL     1       7.584  27.376   5.495  1.00  0.00    -0.054 C 
HETATM    7  C14 UNL     1       8.219  26.714   6.677  1.00  0.00    -0.013 C 
HETATM    8  C16 UNL     1       8.370  27.169   7.878  1.00  0.00    -0.072 C 
HETATM    9  C17 UNL     1       9.039  26.315   8.871  1.00  0.00     0.044 C 
HETATM   10  C18 UNL     1       7.937  28.474   8.465  1.00  0.00     0.034 C 
HETATM   11  C19 UNL     1       6.537  28.838   8.222  1.00  0.00     0.005 C 
HETATM   12  C20 UNL     1       5.951  28.440   6.908  1.00  0.00     0.015 C 
HETATM   13  C21 UNL     1       6.848  28.636   5.734  1.00  0.00    -0.010 C 
HETATM   14  C22 UNL     1       7.607  29.912   5.746  1.00  0.00     0.021 C 
ENDROOT
BRANCH   1  15
HETATM   15  C5  UNL     1       5.168  30.017   4.635  1.00  0.00    -0.018 C 
HETATM   16  C4  UNL     1       3.938  30.027   5.102  1.00  0.00    -0.003 C 
BRANCH  16  17
HETATM   17  C3  UNL     1       3.158  31.248   5.247  1.00  0.00     0.004 C 
HETATM   18  C2  UNL     1       2.894  31.713   6.446  1.00  0.00    -0.061 C 
HETATM   19  C1  UNL     1       3.390  30.996   7.658  1.00  0.00     0.045 C 
BRANCH  18  20
HETATM   20  C23 UNL     1       2.100  32.958   6.593  1.00  0.00     0.198 C 
BRANCH  20  21
HETATM   21  O3  UNL     1       2.110  33.740   5.447  1.00  0.00    -0.397 OA
ATOM     22  H3  UNL     1       2.356  33.251   4.670  1.00  0.00     0.209 HD
ENDBRANCH  20  21
ENDBRANCH  18  20
ENDBRANCH  16  17
ENDBRANCH   1  15
BRANCH   2  23
HETATM   23  O1  UNL     1       6.510  29.887   2.531  1.00  0.00    -0.390 OA
ATOM     24  H1  UNL     1       7.084  29.874   1.774  1.00  0.00     0.210 HD
ENDBRANCH   2  23
BRANCH   5  25
HETATM   25  C11 UNL     1       9.942  27.608   4.562  1.00  0.00     0.053 C 
BRANCH  25  26
HETATM   26  C12 UNL     1      10.744  27.288   3.317  1.00  0.00     0.053 C 
HETATM   27  N1  UNL     1      11.636  28.091   2.891  1.00  0.00    -0.411 N 
ATOM     28  H12 UNL     1      11.801  28.956   3.406  1.00  0.00     0.155 HD
ATOM     29  H11 UNL     1      12.176  27.876   2.053  1.00  0.00     0.155 HD
ENDBRANCH  25  26
ENDBRANCH   5  25
BRANCH   7  30
HETATM   30  C15 UNL     1       8.649  25.388   6.356  1.00  0.00     0.125 C 
HETATM   31  N2  UNL     1       9.797  24.893   6.498  1.00  0.00    -0.280 N 
ATOM     32  H2  UNL     1      10.508  25.511   6.889  1.00  0.00     0.193 HD
BRANCH  31  33
HETATM   33  O2  UNL     1      10.203  23.624   6.188  1.00  0.00    -0.290 OA
ATOM     34  H2  UNL     1       9.980  23.116   5.417  1.00  0.00     0.244 HD
ENDBRANCH  31  33
ENDBRANCH   7  30
TORSDOF 9
ENDMDL
MODEL 2
REMARK VINA RESULT: -8.096392606      0.714      1.113
REMARK  9 active torsions:
REMARK  status: ('A' for Active; 'I' for Inactive)
REMARK    1  A    between atoms: C2_2  and  C23_32 
REMARK    2  A    between atoms: C3_3  and  C4_4 
REMARK    3  A    between atoms: C5_5  and  C6_6 
REMARK    4  A    between atoms: C7_7  and  O1_9 
REMARK    5  A    between atoms: C10_12  and  C11_13 
REMARK    6  A    between atoms: C11_13  and  C12_14 
REMARK    7  A    between atoms: C14_19  and  C15_20 
REMARK    8  A    between atoms: N2_21  and  O2_23 
REMARK    9  A    between atoms: C23_32  and  O3_33 
ROOT
HETATM    1  C6  UNL     1       5.857  28.831   4.844  1.00  0.00     0.054 C 
HETATM    2  C7  UNL     1       6.512  28.765   3.527  1.00  0.00     0.063 C 
HETATM    3  C8  UNL     1       5.672  27.829   2.643  1.00  0.00     0.046 C 
HETATM    4  C9  UNL     1       7.920  28.342   3.433  1.00  0.00     0.047 C 
HETATM    5  C10 UNL     1       8.391  27.380   4.507  1.00  0.00     0.024 C 
HETATM    6  C13 UNL     1       7.538  27.376   5.705  1.00  0.00    -0.054 C 
HETATM    7  C14 UNL     1       8.202  26.653   6.834  1.00  0.00    -0.013 C 
HETATM    8  C16 UNL     1       8.414  27.056   8.044  1.00  0.00    -0.072 C 
HETATM    9  C17 UNL     1       9.099  26.148   8.975  1.00  0.00     0.044 C 
HETATM   10  C18 UNL     1       8.038  28.347   8.697  1.00  0.00     0.034 C 
HETATM   11  C19 UNL     1       6.640  28.755   8.526  1.00  0.00     0.005 C 
HETATM   12  C20 UNL     1       5.991  28.423   7.223  1.00  0.00     0.015 C 
HETATM   13  C21 UNL     1       6.844  28.643   6.022  1.00  0.00    -0.010 C 
HETATM   14  C22 UNL     1       7.636  29.899   6.051  1.00  0.00     0.021 C 
ENDROOT
BRANCH   1  15
HETATM   15  C5  UNL     1       5.158  30.107   5.047  1.00  0.00    -0.018 C 
HETATM   16  C4  UNL     1       3.844  30.144   5.096  1.00  0.00    -0.003 C 
BRANCH  16  17
HETATM   17  C3  UNL     1       3.097  31.379   5.294  1.00  0.00     0.004 C 
HETATM   18  C2  UNL     1       2.864  32.169   4.272  1.00  0.00    -0.061 C 
HETATM   19  C1  UNL     1       3.361  31.808   2.912  1.00  0.00     0.045 C 
BRANCH  18  20
HETATM   20  C23 UNL     1       2.102  33.427   4.474  1.00  0.00     0.198 C 
BRANCH  20  21
HETATM   21  O3  UNL     1       1.757  33.638   5.801  1.00  0.00    -0.397 OA
ATOM     22  H3  UNL     1       1.346  34.483   5.944  1.00  0.00     0.209 HD
ENDBRANCH  20  21
ENDBRANCH  18  20
ENDBRANCH  16  17
ENDBRANCH   1  15
BRANCH   2  23
HETATM   23  O1  UNL     1       6.411  30.026   2.886  1.00  0.00    -0.390 OA
ATOM     24  H1  UNL     1       6.736  30.704   3.467  1.00  0.00     0.210 HD
ENDBRANCH   2  23
BRANCH   5  25
HETATM   25  C11 UNL     1       9.861  27.586   4.684  1.00  0.00     0.053 C 
BRANCH  25  26
HETATM   26  C12 UNL     1      10.603  27.303   3.395  1.00  0.00     0.053 C 
HETATM   27  N1  UNL     1      11.506  28.096   2.973  1.00  0.00    -0.411 N 
ATOM     28  H12 UNL     1      11.720  28.928   3.522  1.00  0.00     0.155 HD
ATOM     29  H11 UNL     1      12.006  27.905   2.104  1.00  0.00     0.155 HD
ENDBRANCH  25  26
ENDBRANCH   5  25
BRANCH   7  30
HETATM   30  C15 UNL     1       8.585  25.331   6.445  1.00  0.00     0.125 C 
HETATM   31  N2  UNL     1       9.731  24.813   6.490  1.00  0.00    -0.280 N 
ATOM     32  H2  UNL     1      10.479  25.408   6.847  1.00  0.00     0.193 HD
BRANCH  31  33
HETATM   33  O2  UNL     1      10.091  23.547   6.116  1.00  0.00    -0.290 OA
ATOM     34  H2  UNL     1       9.827  22.727   6.517  1.00  0.00     0.244 HD
ENDBRANCH  31  33
ENDBRANCH   7  30
TORSDOF 9
ENDMDL
MODEL 3
REMARK VINA RESULT: -7.901852223      3.650      6.938
REMARK  9 active torsions:
REMARK  status: ('A' for Active; 'I' for Inactive)
REMARK    1  A    between atoms: C2_2  and  C23_32 
REMARK    2  A    between atoms: C3_3  and  C4_4 
REMARK    3  A    between atoms: C5_5  and  C6_6 
REMARK    4  A    between atoms: C7_7  and  O1_9 
REMARK    5  A    between atoms: C10_12  and  C11_13 
REMARK    6  A    between atoms: C11_13  and  C12_14 
REMARK    7  A    between atoms: C14_19  and  C15_20 
REMARK    8  A    between atoms: N2_21  and  O2_23 
REMARK    9  A    between atoms: C23_32  and  O3_33 
ROOT
HETATM    1  C6  UNL     1       7.021  27.594   3.092  1.00  0.00     0.054 C 
HETATM    2  C7  UNL     1       5.898  28.513   2.844  1.00  0.00     0.063 C 
HETATM    3  C8  UNL     1       4.632  27.658   2.676  1.00  0.00     0.046 C 
HETATM    4  C9  UNL     1       5.964  29.458   1.715  1.00  0.00     0.047 C 
HETATM    5  C10 UNL     1       6.782  29.001   0.522  1.00  0.00     0.024 C 
HETATM    6  C13 UNL     1       7.735  27.927   0.842  1.00  0.00    -0.054 C 
HETATM    7  C14 UNL     1       8.711  27.727  -0.274  1.00  0.00    -0.013 C 
HETATM    8  C16 UNL     1      10.003  27.706  -0.228  1.00  0.00    -0.072 C 
HETATM    9  C17 UNL     1      10.746  27.495  -1.479  1.00  0.00     0.044 C 
HETATM   10  C18 UNL     1      10.917  27.843   0.948  1.00  0.00     0.034 C 
HETATM   11  C19 UNL     1      10.600  26.985   2.094  1.00  0.00     0.005 C 
HETATM   12  C20 UNL     1       9.156  26.723   2.366  1.00  0.00     0.015 C 
HETATM   13  C21 UNL     1       8.263  27.907   2.222  1.00  0.00    -0.010 C 
HETATM   14  C22 UNL     1       8.813  29.163   2.792  1.00  0.00     0.021 C 
ENDROOT
BRANCH   1  15
HETATM   15  C5  UNL     1       7.445  27.612   4.498  1.00  0.00    -0.018 C 
HETATM   16  C4  UNL     1       7.260  26.556   5.261  1.00  0.00    -0.003 C 
BRANCH  16  17
HETATM   17  C3  UNL     1       7.658  26.515   6.661  1.00  0.00     0.004 C 
HETATM   18  C2  UNL     1       8.699  25.799   7.021  1.00  0.00    -0.061 C 
HETATM   19  C1  UNL     1       9.472  25.030   6.002  1.00  0.00     0.045 C 
BRANCH  18  20
HETATM   20  C23 UNL     1       9.104  25.757   8.448  1.00  0.00     0.198 C 
BRANCH  20  21
HETATM   21  O3  UNL     1       9.855  24.633   8.761  1.00  0.00    -0.397 OA
ATOM     22  H3  UNL     1      10.379  24.326   8.030  1.00  0.00     0.209 HD
ENDBRANCH  20  21
ENDBRANCH  18  20
ENDBRANCH  16  17
ENDBRANCH   1  15
BRANCH   2  23
HETATM   23  O1  UNL     1       5.645  29.276   4.013  1.00  0.00    -0.390 OA
ATOM     24  H1  UNL     1       5.506  28.692   4.749  1.00  0.00     0.210 HD
ENDBRANCH   2  23
BRANCH   5  25
HETATM   25  C11 UNL     1       7.298  30.224  -0.166  1.00  0.00     0.053 C 
BRANCH  25  26
HETATM   26  C12 UNL     1       6.202  31.259  -0.315  1.00  0.00     0.053 C 
HETATM   27  N1  UNL     1       6.466  32.435  -0.729  1.00  0.00    -0.411 N 
ATOM     28  H12 UNL     1       7.433  32.666  -0.957  1.00  0.00     0.155 HD
ATOM     29  H11 UNL     1       5.728  33.132  -0.829  1.00  0.00     0.155 HD
ENDBRANCH  25  26
ENDBRANCH   5  25
BRANCH   7  30
HETATM   30  C15 UNL     1       8.037  27.494  -1.514  1.00  0.00     0.125 C 
HETATM   31  N2  UNL     1       7.503  26.428  -1.914  1.00  0.00    -0.280 N 
ATOM     32  H2  UNL     1       7.555  25.632  -1.278  1.00  0.00     0.193 HD
BRANCH  31  33
HETATM   33  O2  UNL     1       6.860  26.210  -3.102  1.00  0.00    -0.290 OA
ATOM     34  H2  UNL     1       6.304  26.815  -3.580  1.00  0.00     0.244 HD
ENDBRANCH  31  33
ENDBRANCH   7  30
TORSDOF 9
ENDMDL
MODEL 4
REMARK VINA RESULT: -7.692912855      2.926      5.877
REMARK  9 active torsions:
REMARK  status: ('A' for Active; 'I' for Inactive)
REMARK    1  A    between atoms: C2_2  and  C23_32 
REMARK    2  A    between atoms: C3_3  and  C4_4 
REMARK    3  A    between atoms: C5_5  and  C6_6 
REMARK    4  A    between atoms: C7_7  and  O1_9 
REMARK    5  A    between atoms: C10_12  and  C11_13 
REMARK    6  A    between atoms: C11_13  and  C12_14 
REMARK    7  A    between atoms: C14_19  and  C15_20 
REMARK    8  A    between atoms: N2_21  and  O2_23 
REMARK    9  A    between atoms: C23_32  and  O3_33 
ROOT
HETATM    1  C6  UNL     1       6.651  28.314   5.028  1.00  0.00     0.054 C 
HETATM    2  C7  UNL     1       5.880  29.456   4.509  1.00  0.00     0.063 C 
HETATM    3  C8  UNL     1       4.402  29.036   4.477  1.00  0.00     0.046 C 
HETATM    4  C9  UNL     1       6.220  30.030   3.196  1.00  0.00     0.047 C 
HETATM    5  C10 UNL     1       6.818  29.064   2.191  1.00  0.00     0.024 C 
HETATM    6  C13 UNL     1       7.379  27.852   2.806  1.00  0.00    -0.054 C 
HETATM    7  C14 UNL     1       8.211  27.089   1.824  1.00  0.00    -0.013 C 
HETATM    8  C16 UNL     1       9.428  26.668   1.945  1.00  0.00    -0.072 C 
HETATM    9  C17 UNL     1      10.032  25.937   0.821  1.00  0.00     0.044 C 
HETATM   10  C18 UNL     1      10.365  26.784   3.104  1.00  0.00     0.034 C 
HETATM   11  C19 UNL     1       9.816  26.373   4.400  1.00  0.00     0.005 C 
HETATM   12  C20 UNL     1       8.371  26.660   4.646  1.00  0.00     0.015 C 
HETATM   13  C21 UNL     1       7.906  27.996   4.179  1.00  0.00    -0.010 C 
HETATM   14  C22 UNL     1       8.846  29.108   4.467  1.00  0.00     0.021 C 
ENDROOT
BRANCH   1  15
HETATM   15  C5  UNL     1       7.091  28.533   6.412  1.00  0.00    -0.018 C 
HETATM   16  C4  UNL     1       6.999  27.566   7.299  1.00  0.00    -0.003 C 
BRANCH  16  17
HETATM   17  C3  UNL     1       7.418  27.723   8.685  1.00  0.00     0.004 C 
HETATM   18  C2  UNL     1       8.424  27.015   9.144  1.00  0.00    -0.061 C 
HETATM   19  C1  UNL     1       9.137  26.053   8.254  1.00  0.00     0.045 C 
BRANCH  18  20
HETATM   20  C23 UNL     1       8.852  27.176  10.557  1.00  0.00     0.198 C 
BRANCH  20  21
HETATM   21  O3  UNL     1       9.826  26.262  10.931  1.00  0.00    -0.397 OA
ATOM     22  H3  UNL     1      10.681  26.469  10.571  1.00  0.00     0.209 HD
ENDBRANCH  20  21
ENDBRANCH  18  20
ENDBRANCH  16  17
ENDBRANCH   1  15
BRANCH   2  23
HETATM   23  O1  UNL     1       5.916  30.517   5.451  1.00  0.00    -0.390 OA
ATOM     24  H1  UNL     1       6.249  31.302   5.031  1.00  0.00     0.210 HD
ENDBRANCH   2  23
BRANCH   5  25
HETATM   25  C11 UNL     1       7.684  29.856   1.264  1.00  0.00     0.053 C 
BRANCH  25  26
HETATM   26  C12 UNL     1       6.855  30.509   0.179  1.00  0.00     0.053 C 
HETATM   27  N1  UNL     1       7.349  31.420  -0.562  1.00  0.00    -0.411 N 
ATOM     28  H12 UNL     1       8.317  31.701  -0.409  1.00  0.00     0.155 HD
ATOM     29  H11 UNL     1       6.790  31.860  -1.293  1.00  0.00     0.155 HD
ENDBRANCH  25  26
ENDBRANCH   5  25
BRANCH   7  30
HETATM   30  C15 UNL     1       7.468  26.793   0.638  1.00  0.00     0.125 C 
HETATM   31  N2  UNL     1       7.752  27.102  -0.549  1.00  0.00    -0.280 N 
ATOM     32  H2  UNL     1       8.616  27.627  -0.682  1.00  0.00     0.193 HD
BRANCH  31  33
HETATM   33  O2  UNL     1       7.037  26.816  -1.680  1.00  0.00    -0.290 OA
ATOM     34  H2  UNL     1       6.838  25.959  -2.039  1.00  0.00     0.244 HD
ENDBRANCH  31  33
ENDBRANCH   7  30
TORSDOF 9
ENDMDL
MODEL 5
REMARK VINA RESULT: -7.677013251      2.766      4.244
REMARK  9 active torsions:
REMARK  status: ('A' for Active; 'I' for Inactive)
REMARK    1  A    between atoms: C2_2  and  C23_32 
REMARK    2  A    between atoms: C3_3  and  C4_4 
REMARK    3  A    between atoms: C5_5  and  C6_6 
REMARK    4  A    between atoms: C7_7  and  O1_9 
REMARK    5  A    between atoms: C10_12  and  C11_13 
REMARK    6  A    between atoms: C11_13  and  C12_14 
REMARK    7  A    between atoms: C14_19  and  C15_20 
REMARK    8  A    between atoms: N2_21  and  O2_23 
REMARK    9  A    between atoms: C23_32  and  O3_33 
ROOT
HETATM    1  C6  UNL     1       6.465  28.781   4.389  1.00  0.00     0.054 C 
HETATM    2  C7  UNL     1       5.738  29.615   3.418  1.00  0.00     0.063 C 
HETATM    3  C8  UNL     1       4.505  28.819   2.961  1.00  0.00     0.046 C 
HETATM    4  C9  UNL     1       6.433  30.110   2.218  1.00  0.00     0.047 C 
HETATM    5  C10 UNL     1       7.554  29.231   1.697  1.00  0.00     0.024 C 
HETATM    6  C13 UNL     1       8.070  28.285   2.698  1.00  0.00    -0.054 C 
HETATM    7  C14 UNL     1       9.352  27.666   2.239  1.00  0.00    -0.013 C 
HETATM    8  C16 UNL     1      10.486  27.597   2.857  1.00  0.00    -0.072 C 
HETATM    9  C17 UNL     1      11.611  26.932   2.183  1.00  0.00     0.044 C 
HETATM   10  C18 UNL     1      10.860  28.082   4.220  1.00  0.00     0.034 C 
HETATM   11  C19 UNL     1       9.950  27.686   5.300  1.00  0.00     0.005 C 
HETATM   12  C20 UNL     1       8.497  27.606   4.967  1.00  0.00     0.015 C 
HETATM   13  C21 UNL     1       7.986  28.713   4.111  1.00  0.00    -0.010 C 
HETATM   14  C22 UNL     1       8.495  30.059   4.478  1.00  0.00     0.021 C 
ENDROOT
BRANCH   1  15
HETATM   15  C5  UNL     1       6.284  29.258   5.767  1.00  0.00    -0.018 C 
HETATM   16  C4  UNL     1       5.459  28.637   6.582  1.00  0.00    -0.003 C 
BRANCH  16  17
HETATM   17  C3  UNL     1       5.239  29.064   7.957  1.00  0.00     0.004 C 
HETATM   18  C2  UNL     1       4.297  29.939   8.224  1.00  0.00    -0.061 C 
HETATM   19  C1  UNL     1       3.453  30.495   7.126  1.00  0.00     0.045 C 
BRANCH  18  20
HETATM   20  C23 UNL     1       4.072  30.374   9.625  1.00  0.00     0.198 C 
BRANCH  20  21
HETATM   21  O3  UNL     1       3.921  31.748   9.744  1.00  0.00    -0.397 OA
ATOM     22  H3  UNL     1       3.867  32.035  10.648  1.00  0.00     0.209 HD
ENDBRANCH  20  21
ENDBRANCH  18  20
ENDBRANCH  16  17
ENDBRANCH   1  15
BRANCH   2  23
HETATM   23  O1  UNL     1       5.191  30.744   4.081  1.00  0.00    -0.390 OA
ATOM     24  H1  UNL     1       5.124  30.563   5.011  1.00  0.00     0.210 HD
ENDBRANCH   2  23
BRANCH   5  25
HETATM   25  C11 UNL     1       8.530  30.117   0.990  1.00  0.00     0.053 C 
BRANCH  25  26
HETATM   26  C12 UNL     1       7.931  30.662  -0.290  1.00  0.00     0.053 C 
HETATM   27  N1  UNL     1       7.973  31.908  -0.551  1.00  0.00    -0.411 N 
ATOM     28  H12 UNL     1       8.418  32.533   0.120  1.00  0.00     0.155 HD
ATOM     29  H11 UNL     1       7.569  32.275  -1.414  1.00  0.00     0.155 HD
ENDBRANCH  25  26
ENDBRANCH   5  25
BRANCH   7  30
HETATM   30  C15 UNL     1       9.200  27.056   0.955  1.00  0.00     0.125 C 
HETATM   31  N2  UNL     1       8.386  26.158   0.617  1.00  0.00    -0.280 N 
ATOM     32  H2  UNL     1       7.757  25.824   1.347  1.00  0.00     0.193 HD
BRANCH  31  33
HETATM   33  O2  UNL     1       8.246  25.578  -0.614  1.00  0.00    -0.290 OA
ATOM     34  H2  UNL     1       7.488  25.118  -0.956  1.00  0.00     0.244 HD
ENDBRANCH  31  33
ENDBRANCH   7  30
TORSDOF 9
ENDMDL
