MODEL 1
REMARK VINA RESULT: -6.446824919      0.000      0.000
REMARK  7 active torsions:
REMARK  status: ('A' for Active; 'I' for Inactive)
REMARK    1  A    between atoms: C3_3  and  C4_4 
REMARK    2  A    between atoms: C4_4  and  O1_5 
REMARK    3  A    between atoms: C4_4  and  C5_7 
REMARK    4  A    between atoms: C5_7  and  C6_8 
REMARK    5  A    between atoms: C6_8  and  N1_9 
REMARK    6  A    between atoms: C8_15  and  N2_16 
REMARK    7  A    between atoms: N2_16  and  C9_18 
ROOT
HETATM    1  C1  UNL     1       7.062  28.470   4.018  1.00  0.00     0.052 C 
HETATM    2  C2  UNL     1       7.655  28.519   5.426  1.00  0.00    -0.019 A 
HETATM    3  C3  UNL     1       8.972  28.325   5.645  1.00  0.00    -0.014 A 
HETATM    4  C7  UNL     1       9.421  28.412   6.940  1.00  0.00     0.062 A 
HETATM    5  S1  UNL     1       8.025  28.755   7.816  1.00  0.00    -0.083 SA
HETATM    6  C8  UNL     1       6.865  28.785   6.506  1.00  0.00     0.081 A 
ENDROOT
BRANCH   6   7
HETATM    7  N2  UNL     1       5.469  29.001   6.685  1.00  0.00    -0.347 N 
ATOM      8  H2  UNL     1       4.874  28.184   6.549  1.00  0.00     0.167 HD
BRANCH   7   9
HETATM    9  C9  UNL     1       4.794  30.207   7.031  1.00  0.00     0.086 A 
HETATM   10  C10 UNL     1       4.562  30.542   8.337  1.00  0.00     0.104 A 
HETATM   11 CL1  UNL     1       5.065  29.626   9.777  1.00  0.00    -0.074 Cl
HETATM   12  S2  UNL     1       3.703  32.004   8.237  1.00  0.00    -0.062 SA
HETATM   13  C11 UNL     1       3.647  32.172   6.547  1.00  0.00     0.100 A 
HETATM   14 CL2  UNL     1       2.900  33.485   5.614  1.00  0.00    -0.074 Cl
HETATM   15  C12 UNL     1       4.307  31.071   6.092  1.00  0.00     0.091 A 
HETATM   16 CL3  UNL     1       4.495  30.833   4.327  1.00  0.00    -0.079 Cl
ENDBRANCH   7   9
ENDBRANCH   6   7
BRANCH   3  17
HETATM   17  C4  UNL     1       9.967  28.057   4.519  1.00  0.00     0.154 C 
BRANCH  17  18
HETATM   18  O1  UNL     1      11.252  28.439   4.902  1.00  0.00    -0.391 OA
ATOM     19  H1  UNL     1      11.735  27.692   5.236  1.00  0.00     0.210 HD
ENDBRANCH  17  18
BRANCH  17  20
HETATM   20  C5  UNL     1       9.977  26.618   4.135  1.00  0.00     0.064 C 
BRANCH  20  21
HETATM   21  C6  UNL     1      10.919  26.345   3.020  1.00  0.00     0.232 C 
BRANCH  21  22
HETATM   22  N1  UNL     1      12.275  26.217   3.530  1.00  0.00    -0.079 N 
ATOM     23  H13 UNL     1      12.788  27.097   3.475  1.00  0.00     0.274 HD
ATOM     24  H12 UNL     1      12.291  26.097   4.543  1.00  0.00     0.274 HD
ATOM     25  H11 UNL     1      12.761  25.460   3.049  1.00  0.00     0.274 HD
ENDBRANCH  21  22
ENDBRANCH  20  21
ENDBRANCH  17  20
ENDBRANCH   3  17
TORSDOF 7
ENDMDL
MODEL 2
REMARK VINA RESULT: -6.402051459      3.782      7.586
REMARK  7 active torsions:
REMARK  status: ('A' for Active; 'I' for Inactive)
REMARK    1  A    between atoms: C3_3  and  C4_4 
REMARK    2  A    between atoms: C4_4  and  O1_5 
REMARK    3  A    between atoms: C4_4  and  C5_7 
REMARK    4  A    between atoms: C5_7  and  C6_8 
REMARK    5  A    between atoms: C6_8  and  N1_9 
REMARK    6  A    between atoms: C8_15  and  N2_16 
REMARK    7  A    between atoms: N2_16  and  C9_18 
ROOT
HETATM    1  C1  UNL     1       4.114  30.745   7.283  1.00  0.00     0.052 C 
HETATM    2  C2  UNL     1       4.338  30.936   5.784  1.00  0.00    -0.019 A 
HETATM    3  C3  UNL     1       3.778  31.961   5.110  1.00  0.00    -0.014 A 
HETATM    4  C7  UNL     1       4.054  32.068   3.769  1.00  0.00     0.062 A 
HETATM    5  S1  UNL     1       5.072  30.760   3.474  1.00  0.00    -0.083 SA
HETATM    6  C8  UNL     1       5.137  30.078   5.084  1.00  0.00     0.081 A 
ENDROOT
BRANCH   6   7
HETATM    7  N2  UNL     1       5.853  28.893   5.417  1.00  0.00    -0.347 N 
ATOM      8  H2  UNL     1       5.370  28.016   5.221  1.00  0.00     0.167 HD
BRANCH   7   9
HETATM    9  C9  UNL     1       7.152  28.770   5.985  1.00  0.00     0.086 A 
HETATM   10  C10 UNL     1       8.279  28.935   5.226  1.00  0.00     0.104 A 
HETATM   11 CL1  UNL     1       8.346  29.358   3.498  1.00  0.00    -0.074 Cl
HETATM   12  S2  UNL     1       9.551  28.646   6.313  1.00  0.00    -0.062 SA
HETATM   13  C11 UNL     1       8.644  28.319   7.713  1.00  0.00     0.100 A 
HETATM   14 CL2  UNL     1       9.256  27.915   9.329  1.00  0.00    -0.074 Cl
HETATM   15  C12 UNL     1       7.353  28.444   7.296  1.00  0.00     0.091 A 
HETATM   16 CL3  UNL     1       6.027  28.181   8.471  1.00  0.00    -0.079 Cl
ENDBRANCH   7   9
ENDBRANCH   6   7
BRANCH   3  17
HETATM   17  C4  UNL     1       2.895  33.009   5.783  1.00  0.00     0.154 C 
BRANCH  17  18
HETATM   18  O1  UNL     1       3.676  34.016   6.346  1.00  0.00    -0.391 OA
ATOM     19  H1  UNL     1       3.462  34.858   5.960  1.00  0.00     0.210 HD
ENDBRANCH  17  18
BRANCH  17  20
HETATM   20  C5  UNL     1       1.936  33.612   4.818  1.00  0.00     0.064 C 
BRANCH  20  21
HETATM   21  C6  UNL     1       1.183  34.745   5.413  1.00  0.00     0.232 C 
BRANCH  21  22
HETATM   22  N1  UNL     1       0.965  35.781   4.416  1.00  0.00    -0.079 N 
ATOM     23  H13 UNL     1       1.607  35.692   3.628  1.00  0.00     0.274 HD
ATOM     24  H12 UNL     1       0.089  35.646   3.912  1.00  0.00     0.274 HD
ATOM     25  H11 UNL     1       1.017  36.703   4.850  1.00  0.00     0.274 HD
ENDBRANCH  21  22
ENDBRANCH  20  21
ENDBRANCH  17  20
ENDBRANCH   3  17
TORSDOF 7
ENDMDL
MODEL 3
REMARK VINA RESULT: -6.386117188      1.064      1.082
REMARK  7 active torsions:
REMARK  status: ('A' for Active; 'I' for Inactive)
REMARK    1  A    between atoms: C3_3  and  C4_4 
REMARK    2  A    between atoms: C4_4  and  O1_5 
REMARK    3  A    between atoms: C4_4  and  C5_7 
REMARK    4  A    between atoms: C5_7  and  C6_8 
REMARK    5  A    between atoms: C6_8  and  N1_9 
REMARK    6  A    between atoms: C8_15  and  N2_16 
REMARK    7  A    between atoms: N2_16  and  C9_18 
ROOT
HETATM    1  C1  UNL     1       6.352  27.878   3.784  1.00  0.00     0.052 C 
HETATM    2  C2  UNL     1       7.327  28.405   4.837  1.00  0.00    -0.019 A 
HETATM    3  C3  UNL     1       8.657  28.433   4.616  1.00  0.00    -0.014 A 
HETATM    4  C7  UNL     1       9.455  28.948   5.608  1.00  0.00     0.062 A 
HETATM    5  S1  UNL     1       8.358  29.375   6.811  1.00  0.00    -0.083 SA
HETATM    6  C8  UNL     1       6.871  28.888   6.029  1.00  0.00     0.081 A 
ENDROOT
BRANCH   6   7
HETATM    7  N2  UNL     1       5.586  28.990   6.632  1.00  0.00    -0.347 N 
ATOM      8  H2  UNL     1       5.113  28.106   6.819  1.00  0.00     0.167 HD
BRANCH   7   9
HETATM    9  C9  UNL     1       4.872  30.164   7.011  1.00  0.00     0.086 A 
HETATM   10  C10 UNL     1       4.625  30.452   8.326  1.00  0.00     0.104 A 
HETATM   11 CL1  UNL     1       5.151  29.508   9.740  1.00  0.00    -0.074 Cl
HETATM   12  S2  UNL     1       3.722  31.889   8.266  1.00  0.00    -0.062 SA
HETATM   13  C11 UNL     1       3.667  32.106   6.581  1.00  0.00     0.100 A 
HETATM   14 CL2  UNL     1       2.884  33.424   5.685  1.00  0.00    -0.074 Cl
HETATM   15  C12 UNL     1       4.363  31.040   6.096  1.00  0.00     0.091 A 
HETATM   16 CL3  UNL     1       4.565  30.862   4.326  1.00  0.00    -0.079 Cl
ENDBRANCH   7   9
ENDBRANCH   6   7
BRANCH   3  17
HETATM   17  C4  UNL     1       9.290  27.957   3.311  1.00  0.00     0.154 C 
BRANCH  17  18
HETATM   18  O1  UNL     1       9.619  29.045   2.504  1.00  0.00    -0.391 OA
ATOM     19  H1  UNL     1      10.459  28.903   2.082  1.00  0.00     0.210 HD
ENDBRANCH  17  18
BRANCH  17  20
HETATM   20  C5  UNL     1      10.511  27.145   3.564  1.00  0.00     0.064 C 
BRANCH  20  21
HETATM   21  C6  UNL     1      11.335  26.980   2.339  1.00  0.00     0.232 C 
BRANCH  21  22
HETATM   22  N1  UNL     1      12.441  27.923   2.349  1.00  0.00    -0.079 N 
ATOM     23  H13 UNL     1      12.477  28.477   1.493  1.00  0.00     0.274 HD
ATOM     24  H12 UNL     1      12.290  28.682   3.013  1.00  0.00     0.274 HD
ATOM     25  H11 UNL     1      13.319  27.433   2.524  1.00  0.00     0.274 HD
ENDBRANCH  21  22
ENDBRANCH  20  21
ENDBRANCH  17  20
ENDBRANCH   3  17
TORSDOF 7
ENDMDL
MODEL 4
REMARK VINA RESULT: -6.170796368      3.851      7.409
REMARK  7 active torsions:
REMARK  status: ('A' for Active; 'I' for Inactive)
REMARK    1  A    between atoms: C3_3  and  C4_4 
REMARK    2  A    between atoms: C4_4  and  O1_5 
REMARK    3  A    between atoms: C4_4  and  C5_7 
REMARK    4  A    between atoms: C5_7  and  C6_8 
REMARK    5  A    between atoms: C6_8  and  N1_9 
REMARK    6  A    between atoms: C8_15  and  N2_16 
REMARK    7  A    between atoms: N2_16  and  C9_18 
ROOT
HETATM    1  C1  UNL     1       4.128  30.661   7.400  1.00  0.00     0.052 C 
HETATM    2  C2  UNL     1       4.396  30.834   5.906  1.00  0.00    -0.019 A 
HETATM    3  C3  UNL     1       3.882  31.868   5.211  1.00  0.00    -0.014 A 
HETATM    4  C7  UNL     1       4.197  31.958   3.877  1.00  0.00     0.062 A 
HETATM    5  S1  UNL     1       5.187  30.621   3.618  1.00  0.00    -0.083 SA
HETATM    6  C8  UNL     1       5.191  29.950   5.234  1.00  0.00     0.081 A 
ENDROOT
BRANCH   6   7
HETATM    7  N2  UNL     1       5.865  28.749   5.594  1.00  0.00    -0.347 N 
ATOM      8  H2  UNL     1       5.271  27.930   5.720  1.00  0.00     0.167 HD
BRANCH   7   9
HETATM    9  C9  UNL     1       7.259  28.540   5.801  1.00  0.00     0.086 A 
HETATM   10  C10 UNL     1       7.817  28.655   7.045  1.00  0.00     0.104 A 
HETATM   11 CL1  UNL     1       6.966  29.017   8.566  1.00  0.00    -0.074 Cl
HETATM   12  S2  UNL     1       9.471  28.373   6.778  1.00  0.00    -0.062 SA
HETATM   13  C11 UNL     1       9.435  28.114   5.099  1.00  0.00     0.100 A 
HETATM   14 CL2  UNL     1      10.805  27.745   4.032  1.00  0.00    -0.074 Cl
HETATM   15  C12 UNL     1       8.118  28.256   4.779  1.00  0.00     0.091 A 
HETATM   16 CL3  UNL     1       7.609  28.060   3.074  1.00  0.00    -0.079 Cl
ENDBRANCH   7   9
ENDBRANCH   6   7
BRANCH   3  17
HETATM   17  C4  UNL     1       3.009  32.944   5.852  1.00  0.00     0.154 C 
BRANCH  17  18
HETATM   18  O1  UNL     1       3.800  33.967   6.374  1.00  0.00    -0.391 OA
ATOM     19  H1  UNL     1       3.879  33.877   7.317  1.00  0.00     0.210 HD
ENDBRANCH  17  18
BRANCH  17  20
HETATM   20  C5  UNL     1       2.046  33.518   4.873  1.00  0.00     0.064 C 
BRANCH  20  21
HETATM   21  C6  UNL     1       1.193  34.570   5.480  1.00  0.00     0.232 C 
BRANCH  21  22
HETATM   22  N1  UNL     1       0.997  35.662   4.539  1.00  0.00    -0.079 N 
ATOM     23  H13 UNL     1       1.797  36.295   4.518  1.00  0.00     0.274 HD
ATOM     24  H12 UNL     1       1.033  35.342   3.572  1.00  0.00     0.274 HD
ATOM     25  H11 UNL     1       0.127  36.152   4.746  1.00  0.00     0.274 HD
ENDBRANCH  21  22
ENDBRANCH  20  21
ENDBRANCH  17  20
ENDBRANCH   3  17
TORSDOF 7
ENDMDL
MODEL 5
REMARK VINA RESULT: -6.117609994      1.763      2.201
REMARK  7 active torsions:
REMARK  status: ('A' for Active; 'I' for Inactive)
REMARK    1  A    between atoms: C3_3  and  C4_4 
REMARK    2  A    between atoms: C4_4  and  O1_5 
REMARK    3  A    between atoms: C4_4  and  C5_7 
REMARK    4  A    between atoms: C5_7  and  C6_8 
REMARK    5  A    between atoms: C6_8  and  N1_9 
REMARK    6  A    between atoms: C8_15  and  N2_16 
REMARK    7  A    between atoms: N2_16  and  C9_18 
ROOT
HETATM    1  C1  UNL     1       7.453  27.151   3.302  1.00  0.00     0.052 C 
HETATM    2  C2  UNL     1       8.299  27.877   4.348  1.00  0.00    -0.019 A 
HETATM    3  C3  UNL     1       9.644  27.925   4.259  1.00  0.00    -0.014 A 
HETATM    4  C7  UNL     1      10.320  28.622   5.230  1.00  0.00     0.062 A 
HETATM    5  S1  UNL     1       9.093  29.188   6.234  1.00  0.00    -0.083 SA
HETATM    6  C8  UNL     1       7.708  28.522   5.396  1.00  0.00     0.081 A 
ENDROOT
BRANCH   6   7
HETATM    7  N2  UNL     1       6.365  28.665   5.844  1.00  0.00    -0.347 N 
ATOM      8  H2  UNL     1       5.644  28.444   5.156  1.00  0.00     0.167 HD
BRANCH   7   9
HETATM    9  C9  UNL     1       5.893  29.074   7.124  1.00  0.00     0.086 A 
HETATM   10  C10 UNL     1       6.265  28.413   8.263  1.00  0.00     0.104 A 
HETATM   11 CL1  UNL     1       7.378  27.029   8.375  1.00  0.00    -0.074 Cl
HETATM   12  S2  UNL     1       5.425  29.221   9.498  1.00  0.00    -0.062 SA
HETATM   13  C11 UNL     1       4.614  30.383   8.559  1.00  0.00     0.100 A 
HETATM   14 CL2  UNL     1       3.503  31.648   9.125  1.00  0.00    -0.074 Cl
HETATM   15  C12 UNL     1       5.021  30.112   7.288  1.00  0.00     0.091 A 
HETATM   16 CL3  UNL     1       4.402  31.115   5.940  1.00  0.00    -0.079 Cl
ENDBRANCH   7   9
ENDBRANCH   6   7
BRANCH   3  17
HETATM   17  C4  UNL     1      10.421  27.276   3.117  1.00  0.00     0.154 C 
BRANCH  17  18
HETATM   18  O1  UNL     1      11.534  28.048   2.785  1.00  0.00    -0.391 OA
ATOM     19  H1  UNL     1      11.937  28.403   3.568  1.00  0.00     0.210 HD
ENDBRANCH  17  18
BRANCH  17  20
HETATM   20  C5  UNL     1      10.866  25.901   3.475  1.00  0.00     0.064 C 
BRANCH  20  21
HETATM   21  C6  UNL     1      12.184  25.568   2.878  1.00  0.00     0.232 C 
BRANCH  21  22
HETATM   22  N1  UNL     1      13.246  25.814   3.840  1.00  0.00    -0.079 N 
ATOM     23  H13 UNL     1      13.780  26.654   3.612  1.00  0.00     0.274 HD
ATOM     24  H12 UNL     1      12.880  26.110   4.744  1.00  0.00     0.274 HD
ATOM     25  H11 UNL     1      13.844  24.992   3.921  1.00  0.00     0.274 HD
ENDBRANCH  21  22
ENDBRANCH  20  21
ENDBRANCH  17  20
ENDBRANCH   3  17
TORSDOF 7
ENDMDL
