MODEL 1
REMARK VINA RESULT: -6.157337088      0.000      0.000
REMARK  1 active torsions:
REMARK  status: ('A' for Active; 'I' for Inactive)
REMARK    1  A    between atoms: C5_5  and  C6_6 
ROOT
HETATM    1  C1  UNL     1       8.674  -3.934  33.395  1.00  0.00     0.031 C 
HETATM    2  C2  UNL     1       7.522  -3.342  32.624  1.00  0.00     0.072 C 
HETATM    3  C3  UNL     1       8.053  -2.358  31.633  1.00  0.00     0.025 C 
HETATM    4  C4  UNL     1       8.374  -2.938  30.297  1.00  0.00     0.010 C 
HETATM    5  C5  UNL     1       7.189  -3.778  29.864  1.00  0.00     0.034 C 
HETATM    6  C10 UNL     1       7.107  -4.923  30.843  1.00  0.00     0.120 C 
HETATM    7  N2  UNL     1       6.675  -4.349  32.105  1.00  0.00    -0.417 N 
ATOM      8  H2  UNL     1       5.825  -4.649  32.580  1.00  0.00     0.153 HD
ENDROOT
BRANCH   5   9
HETATM    9  C6  UNL     1       7.257  -4.203  28.443  1.00  0.00     0.191 C 
HETATM   10  C7  UNL     1       8.374  -3.641  27.638  1.00  0.00     0.035 C 
HETATM   11  C8  UNL     1       8.644  -4.786  26.654  1.00  0.00     0.029 C 
HETATM   12  C9  UNL     1       7.520  -5.801  26.910  1.00  0.00     0.233 C 
HETATM   13  N1  UNL     1       7.382  -5.646  28.371  1.00  0.00    -0.070 N 
ATOM     14  H12 UNL     1       8.120  -6.061  28.938  1.00  0.00     0.277 HD
ATOM     15  H11 UNL     1       6.635  -6.184  28.811  1.00  0.00     0.277 HD
ENDBRANCH   5   9
TORSDOF 1
ENDMDL
MODEL 2
REMARK VINA RESULT: -5.415984205      1.359      4.879
REMARK  1 active torsions:
REMARK  status: ('A' for Active; 'I' for Inactive)
REMARK    1  A    between atoms: C5_5  and  C6_6 
ROOT
HETATM    1  C1  UNL     1       9.315  -5.280  26.377  1.00  0.00     0.031 C 
HETATM    2  C2  UNL     1       8.005  -4.603  26.692  1.00  0.00     0.072 C 
HETATM    3  C3  UNL     1       7.154  -5.538  27.490  1.00  0.00     0.025 C 
HETATM    4  C4  UNL     1       7.327  -5.422  28.967  1.00  0.00     0.010 C 
HETATM    5  C5  UNL     1       7.256  -3.951  29.325  1.00  0.00     0.034 C 
HETATM    6  C10 UNL     1       8.456  -3.304  28.680  1.00  0.00     0.120 C 
HETATM    7  N2  UNL     1       8.208  -3.320  27.250  1.00  0.00    -0.417 N 
ATOM      8  H2  UNL     1       8.181  -2.469  26.690  1.00  0.00     0.153 HD
ENDROOT
BRANCH   5   9
HETATM    9  C6  UNL     1       7.148  -3.705  30.785  1.00  0.00     0.191 C 
HETATM   10  C7  UNL     1       7.067  -4.910  31.654  1.00  0.00     0.035 C 
HETATM   11  C8  UNL     1       7.769  -4.415  32.925  1.00  0.00     0.029 C 
HETATM   12  C9  UNL     1       8.012  -2.918  32.685  1.00  0.00     0.233 C 
HETATM   13  N1  UNL     1       8.300  -2.949  31.238  1.00  0.00    -0.070 N 
ATOM     14  H12 UNL     1       9.213  -3.316  30.969  1.00  0.00     0.277 HD
ATOM     15  H11 UNL     1       8.447  -2.044  30.790  1.00  0.00     0.277 HD
ENDBRANCH   5   9
TORSDOF 1
ENDMDL
MODEL 3
REMARK VINA RESULT: -5.273389688      2.862      6.538
REMARK  1 active torsions:
REMARK  status: ('A' for Active; 'I' for Inactive)
REMARK    1  A    between atoms: C5_5  and  C6_6 
ROOT
HETATM    1  C1  UNL     1       7.593  -4.529  21.814  1.00  0.00     0.031 C 
HETATM    2  C2  UNL     1       8.636  -5.308  22.574  1.00  0.00     0.072 C 
HETATM    3  C3  UNL     1       9.491  -4.355  23.344  1.00  0.00     0.025 C 
HETATM    4  C4  UNL     1       9.006  -4.066  24.724  1.00  0.00     0.010 C 
HETATM    5  C5  UNL     1       8.686  -5.392  25.386  1.00  0.00     0.034 C 
HETATM    6  C10 UNL     1       7.528  -5.976  24.615  1.00  0.00     0.120 C 
HETATM    7  N2  UNL     1       8.055  -6.360  23.319  1.00  0.00    -0.417 N 
ATOM      8  H2  UNL     1       8.010  -7.318  22.971  1.00  0.00     0.153 HD
ENDROOT
BRANCH   5   9
HETATM    9  C6  UNL     1       8.444  -5.278  26.846  1.00  0.00     0.191 C 
HETATM   10  C7  UNL     1       8.351  -3.898  27.395  1.00  0.00     0.035 C 
HETATM   11  C8  UNL     1       7.361  -4.097  28.549  1.00  0.00     0.029 C 
HETATM   12  C9  UNL     1       7.142  -5.615  28.625  1.00  0.00     0.233 C 
HETATM   13  N1  UNL     1       7.201  -5.941  27.187  1.00  0.00    -0.070 N 
ATOM     14  H12 UNL     1       6.385  -5.678  26.634  1.00  0.00     0.277 HD
ATOM     15  H11 UNL     1       7.139  -6.931  26.948  1.00  0.00     0.277 HD
ENDBRANCH   5   9
TORSDOF 1
ENDMDL
MODEL 4
REMARK VINA RESULT: -5.056659050      3.100      6.804
REMARK  1 active torsions:
REMARK  status: ('A' for Active; 'I' for Inactive)
REMARK    1  A    between atoms: C5_5  and  C6_6 
ROOT
HETATM    1  C1  UNL     1      10.073  -4.736  21.731  1.00  0.00     0.031 C 
HETATM    2  C2  UNL     1       8.681  -4.648  22.303  1.00  0.00     0.072 C 
HETATM    3  C3  UNL     1       8.282  -5.991  22.823  1.00  0.00     0.025 C 
HETATM    4  C4  UNL     1       8.627  -6.225  24.255  1.00  0.00     0.010 C 
HETATM    5  C5  UNL     1       8.164  -5.017  25.044  1.00  0.00     0.034 C 
HETATM    6  C10 UNL     1       9.002  -3.857  24.564  1.00  0.00     0.120 C 
HETATM    7  N2  UNL     1       8.562  -3.570  23.211  1.00  0.00    -0.417 N 
ATOM      8  H2  UNL     1       8.194  -2.660  22.936  1.00  0.00     0.153 HD
ENDROOT
BRANCH   5   9
HETATM    9  C6  UNL     1       8.203  -5.223  26.514  1.00  0.00     0.191 C 
HETATM   10  C7  UNL     1       8.136  -3.998  27.355  1.00  0.00     0.035 C 
HETATM   11  C8  UNL     1       7.402  -4.523  28.595  1.00  0.00     0.029 C 
HETATM   12  C9  UNL     1       7.293  -6.039  28.379  1.00  0.00     0.233 C 
HETATM   13  N1  UNL     1       7.091  -6.061  26.918  1.00  0.00    -0.070 N 
ATOM     14  H12 UNL     1       6.169  -5.775  26.587  1.00  0.00     0.277 HD
ATOM     15  H11 UNL     1       7.043  -6.984  26.485  1.00  0.00     0.277 HD
ENDBRANCH   5   9
TORSDOF 1
ENDMDL
MODEL 5
REMARK VINA RESULT: -5.006864779      3.965      5.557
REMARK  1 active torsions:
REMARK  status: ('A' for Active; 'I' for Inactive)
REMARK    1  A    between atoms: C5_5  and  C6_6 
ROOT
HETATM    1  C1  UNL     1       0.822  -3.573  34.492  1.00  0.00     0.031 C 
HETATM    2  C2  UNL     1       2.185  -3.328  35.090  1.00  0.00     0.072 C 
HETATM    3  C3  UNL     1       2.944  -4.615  35.115  1.00  0.00     0.025 C 
HETATM    4  C4  UNL     1       3.760  -4.875  33.894  1.00  0.00     0.010 C 
HETATM    5  C5  UNL     1       4.549  -3.617  33.592  1.00  0.00     0.034 C 
HETATM    6  C10 UNL     1       3.533  -2.560  33.237  1.00  0.00     0.120 C 
HETATM    7  N2  UNL     1       2.834  -2.237  34.468  1.00  0.00    -0.417 N 
ATOM      8  H2  UNL     1       2.814  -1.294  34.855  1.00  0.00     0.153 HD
ENDROOT
BRANCH   5   9
HETATM    9  C6  UNL     1       5.600  -3.815  32.562  1.00  0.00     0.191 C 
HETATM   10  C7  UNL     1       6.789  -2.924  32.651  1.00  0.00     0.035 C 
HETATM   11  C8  UNL     1       7.893  -3.839  32.107  1.00  0.00     0.029 C 
HETATM   12  C9  UNL     1       7.159  -5.092  31.607  1.00  0.00     0.233 C 
HETATM   13  N1  UNL     1       6.098  -5.175  32.629  1.00  0.00    -0.070 N 
ATOM     14  H12 UNL     1       6.387  -5.502  33.551  1.00  0.00     0.277 HD
ATOM     15  H11 UNL     1       5.407  -5.913  32.500  1.00  0.00     0.277 HD
ENDBRANCH   5   9
TORSDOF 1
ENDMDL
