MODEL 1
REMARK VINA RESULT: -6.785435306      0.000      0.000
REMARK  13 active torsions:
REMARK  status: ('A' for Active; 'I' for Inactive)
REMARK    1  A    between atoms: N1_1  and  C1_5 
REMARK    2  A    between atoms: C1_5  and  C2_6 
REMARK    3  A    between atoms: C2_6  and  C3_7 
REMARK    4  A    between atoms: C3_7  and  N2_8 
REMARK    5  A    between atoms: N2_8  and  C4_10 
REMARK    6  A    between atoms: C4_10  and  C5_11 
REMARK    7  A    between atoms: C5_11  and  C6_12 
REMARK    8  A    between atoms: C6_12  and  C7_13 
REMARK    9  A    between atoms: C7_13  and  N3_14 
REMARK   10  A    between atoms: N3_14  and  C8_16 
REMARK   11  A    between atoms: C11_19  and  S1_20 
REMARK   12  A    between atoms: S1_20  and  N4_23 
REMARK   13  A    between atoms: N4_23  and  C12_25 
ROOT
HETATM    1  C8  UNL     1       8.731  31.762  16.042  1.00  0.00     0.028 A 
HETATM    2  C9  UNL     1       9.477  32.890  16.261  1.00  0.00     0.030 A 
HETATM    3  C10 UNL     1      10.818  32.941  15.946  1.00  0.00     0.027 A 
HETATM    4  C11 UNL     1      11.453  31.850  15.396  1.00  0.00     0.080 A 
HETATM    5  C17 UNL     1      10.723  30.695  15.163  1.00  0.00     0.027 A 
HETATM    6  C18 UNL     1       9.384  30.677  15.490  1.00  0.00     0.030 A 
ENDROOT
BRANCH   1   7
HETATM    7  N3  UNL     1       7.354  31.663  16.335  1.00  0.00    -0.390 N 
ATOM      8  H3  UNL     1       7.020  31.882  17.274  1.00  0.00     0.159 HD
BRANCH   7   9
HETATM    9  C7  UNL     1       6.398  31.248  15.302  1.00  0.00     0.120 C 
BRANCH   9  10
HETATM   10  C6  UNL     1       6.362  32.244  14.184  1.00  0.00     0.025 C 
BRANCH  10  11
HETATM   11  C5  UNL     1       6.860  31.724  12.890  1.00  0.00     0.046 C 
BRANCH  11  12
HETATM   12  C4  UNL     1       6.860  30.257  12.715  1.00  0.00     0.060 C 
BRANCH  12  13
HETATM   13  N2  UNL     1       7.927  29.576  12.194  1.00  0.00    -0.382 N 
ATOM     14  H2  UNL     1       7.745  28.600  11.957  1.00  0.00     0.163 HD
BRANCH  13  15
HETATM   15  C3  UNL     1       9.208  30.008  11.942  1.00  0.00     0.061 C 
BRANCH  15  16
HETATM   16  C2  UNL     1      10.291  29.006  11.838  1.00  0.00     0.072 C 
BRANCH  16  17
HETATM   17  C1  UNL     1      11.273  29.294  10.754  1.00  0.00     0.234 C 
BRANCH  17  18
HETATM   18  N1  UNL     1      11.120  28.348   9.638  1.00  0.00    -0.079 N 
ATOM     19  H13 UNL     1      11.948  27.763   9.524  1.00  0.00     0.274 HD
ATOM     20  H12 UNL     1      10.443  27.618   9.854  1.00  0.00     0.274 HD
ATOM     21  H11 UNL     1      10.883  28.836   8.774  1.00  0.00     0.274 HD
ENDBRANCH  17  18
ENDBRANCH  16  17
ENDBRANCH  15  16
ENDBRANCH  13  15
ENDBRANCH  12  13
ENDBRANCH  11  12
ENDBRANCH  10  11
ENDBRANCH   9  10
ENDBRANCH   7   9
ENDBRANCH   1   7
BRANCH   4  22
HETATM   22  S1  UNL     1      13.148  31.977  15.022  1.00  0.00     0.264 S 
HETATM   23  O1  UNL     1      13.886  30.984  15.876  1.00  0.00    -0.200 OA
HETATM   24  O2  UNL     1      13.332  31.545  13.573  1.00  0.00    -0.200 OA
BRANCH  22  25
HETATM   25  N4  UNL     1      13.741  33.566  15.141  1.00  0.00    -0.266 N 
ATOM     26  H4  UNL     1      13.227  34.188  15.766  1.00  0.00     0.180 HD
BRANCH  25  27
HETATM   27  C12 UNL     1      14.741  34.077  14.550  1.00  0.00     0.114 A 
HETATM   28  C13 UNL     1      14.904  35.374  14.182  1.00  0.00     0.049 A 
HETATM   29  C14 UNL     1      16.035  35.841  13.548  1.00  0.00     0.005 A 
HETATM   30  C15 UNL     1      17.051  34.953  13.272  1.00  0.00     0.017 A 
HETATM   31  C16 UNL     1      16.871  33.648  13.650  1.00  0.00     0.089 A 
HETATM   32  N5  UNL     1      15.761  33.210  14.267  1.00  0.00    -0.352 N 
ATOM     33  H5  UNL     1      15.678  32.227  14.527  1.00  0.00     0.166 HD
ENDBRANCH  25  27
ENDBRANCH  22  25
ENDBRANCH   4  22
TORSDOF 13
ENDMDL
MODEL 2
REMARK VINA RESULT: -6.783877152      2.564      7.771
REMARK  13 active torsions:
REMARK  status: ('A' for Active; 'I' for Inactive)
REMARK    1  A    between atoms: N1_1  and  C1_5 
REMARK    2  A    between atoms: C1_5  and  C2_6 
REMARK    3  A    between atoms: C2_6  and  C3_7 
REMARK    4  A    between atoms: C3_7  and  N2_8 
REMARK    5  A    between atoms: N2_8  and  C4_10 
REMARK    6  A    between atoms: C4_10  and  C5_11 
REMARK    7  A    between atoms: C5_11  and  C6_12 
REMARK    8  A    between atoms: C6_12  and  C7_13 
REMARK    9  A    between atoms: C7_13  and  N3_14 
REMARK   10  A    between atoms: N3_14  and  C8_16 
REMARK   11  A    between atoms: C11_19  and  S1_20 
REMARK   12  A    between atoms: S1_20  and  N4_23 
REMARK   13  A    between atoms: N4_23  and  C12_25 
ROOT
HETATM    1  C8  UNL     1      12.799  30.570  16.171  1.00  0.00     0.028 A 
HETATM    2  C9  UNL     1      13.267  30.771  14.899  1.00  0.00     0.030 A 
HETATM    3  C10 UNL     1      12.504  30.465  13.793  1.00  0.00     0.027 A 
HETATM    4  C11 UNL     1      11.237  29.945  13.935  1.00  0.00     0.080 A 
HETATM    5  C17 UNL     1      10.737  29.731  15.209  1.00  0.00     0.027 A 
HETATM    6  C18 UNL     1      11.526  30.047  16.295  1.00  0.00     0.030 A 
ENDROOT
BRANCH   1   7
HETATM    7  N3  UNL     1      13.536  30.877  17.335  1.00  0.00    -0.390 N 
ATOM      8  H3  UNL     1      13.367  30.351  18.193  1.00  0.00     0.159 HD
BRANCH   7   9
HETATM    9  C7  UNL     1      14.542  31.945  17.322  1.00  0.00     0.120 C 
BRANCH   9  10
HETATM   10  C6  UNL     1      15.906  31.391  17.594  1.00  0.00     0.025 C 
BRANCH  10  11
HETATM   11  C5  UNL     1      16.890  31.640  16.516  1.00  0.00     0.046 C 
BRANCH  11  12
HETATM   12  C4  UNL     1      17.212  33.052  16.219  1.00  0.00     0.060 C 
BRANCH  12  13
HETATM   13  N2  UNL     1      17.132  33.577  14.957  1.00  0.00    -0.382 N 
ATOM     14  H2  UNL     1      17.922  34.160  14.680  1.00  0.00     0.163 HD
BRANCH  13  15
HETATM   15  C3  UNL     1      16.148  33.437  14.007  1.00  0.00     0.061 C 
BRANCH  15  16
HETATM   16  C2  UNL     1      14.855  34.123  14.214  1.00  0.00     0.072 C 
BRANCH  16  17
HETATM   17  C1  UNL     1      14.958  35.610  14.226  1.00  0.00     0.234 C 
BRANCH  17  18
HETATM   18  N1  UNL     1      15.173  36.135  12.868  1.00  0.00    -0.079 N 
ATOM     19  H13 UNL     1      15.753  36.974  12.877  1.00  0.00     0.274 HD
ATOM     20  H12 UNL     1      15.787  35.529  12.324  1.00  0.00     0.274 HD
ATOM     21  H11 UNL     1      14.286  36.296  12.392  1.00  0.00     0.274 HD
ENDBRANCH  17  18
ENDBRANCH  16  17
ENDBRANCH  15  16
ENDBRANCH  13  15
ENDBRANCH  12  13
ENDBRANCH  11  12
ENDBRANCH  10  11
ENDBRANCH   9  10
ENDBRANCH   7   9
ENDBRANCH   1   7
BRANCH   4  22
HETATM   22  S1  UNL     1      10.324  29.578  12.499  1.00  0.00     0.264 S 
HETATM   23  O1  UNL     1      11.298  29.328  11.381  1.00  0.00    -0.200 OA
HETATM   24  O2  UNL     1       9.583  28.271  12.747  1.00  0.00    -0.200 OA
BRANCH  22  25
HETATM   25  N4  UNL     1       9.146  30.751  12.139  1.00  0.00    -0.266 N 
ATOM     26  H4  UNL     1       9.284  31.270  11.272  1.00  0.00     0.180 HD
BRANCH  25  27
HETATM   27  C12 UNL     1       8.117  31.063  12.813  1.00  0.00     0.114 A 
HETATM   28  C13 UNL     1       6.892  30.479  12.761  1.00  0.00     0.049 A 
HETATM   29  C14 UNL     1       5.831  30.883  13.542  1.00  0.00     0.005 A 
HETATM   30  C15 UNL     1       6.017  31.929  14.418  1.00  0.00     0.017 A 
HETATM   31  C16 UNL     1       7.259  32.507  14.459  1.00  0.00     0.089 A 
HETATM   32  N5  UNL     1       8.283  32.100  13.690  1.00  0.00    -0.352 N 
ATOM     33  H5  UNL     1       9.187  32.566  13.760  1.00  0.00     0.166 HD
ENDBRANCH  25  27
ENDBRANCH  22  25
ENDBRANCH   4  22
TORSDOF 13
ENDMDL
MODEL 3
REMARK VINA RESULT: -6.714295042      2.467      7.272
REMARK  13 active torsions:
REMARK  status: ('A' for Active; 'I' for Inactive)
REMARK    1  A    between atoms: N1_1  and  C1_5 
REMARK    2  A    between atoms: C1_5  and  C2_6 
REMARK    3  A    between atoms: C2_6  and  C3_7 
REMARK    4  A    between atoms: C3_7  and  N2_8 
REMARK    5  A    between atoms: N2_8  and  C4_10 
REMARK    6  A    between atoms: C4_10  and  C5_11 
REMARK    7  A    between atoms: C5_11  and  C6_12 
REMARK    8  A    between atoms: C6_12  and  C7_13 
REMARK    9  A    between atoms: C7_13  and  N3_14 
REMARK   10  A    between atoms: N3_14  and  C8_16 
REMARK   11  A    between atoms: C11_19  and  S1_20 
REMARK   12  A    between atoms: S1_20  and  N4_23 
REMARK   13  A    between atoms: N4_23  and  C12_25 
ROOT
HETATM    1  C8  UNL     1      12.799  30.517  16.138  1.00  0.00     0.028 A 
HETATM    2  C9  UNL     1      13.274  30.667  14.862  1.00  0.00     0.030 A 
HETATM    3  C10 UNL     1      12.496  30.371  13.764  1.00  0.00     0.027 A 
HETATM    4  C11 UNL     1      11.206  29.916  13.918  1.00  0.00     0.080 A 
HETATM    5  C17 UNL     1      10.698  29.755  15.198  1.00  0.00     0.027 A 
HETATM    6  C18 UNL     1      11.504  30.058  16.275  1.00  0.00     0.030 A 
ENDROOT
BRANCH   1   7
HETATM    7  N3  UNL     1      13.552  30.816  17.295  1.00  0.00    -0.390 N 
ATOM      8  H3  UNL     1      14.522  30.507  17.361  1.00  0.00     0.159 HD
BRANCH   7   9
HETATM    9  C7  UNL     1      12.950  31.566  18.404  1.00  0.00     0.120 C 
BRANCH   9  10
HETATM   10  C6  UNL     1      13.356  33.006  18.349  1.00  0.00     0.025 C 
BRANCH  10  11
HETATM   11  C5  UNL     1      12.439  33.868  17.569  1.00  0.00     0.046 C 
BRANCH  11  12
HETATM   12  C4  UNL     1      12.989  34.497  16.350  1.00  0.00     0.060 C 
BRANCH  12  13
HETATM   13  N2  UNL     1      14.184  34.120  15.800  1.00  0.00    -0.382 N 
ATOM     14  H2  UNL     1      14.903  33.847  16.471  1.00  0.00     0.163 HD
BRANCH  13  15
HETATM   15  C3  UNL     1      14.563  34.052  14.480  1.00  0.00     0.061 C 
BRANCH  15  16
HETATM   16  C2  UNL     1      16.003  34.085  14.148  1.00  0.00     0.072 C 
BRANCH  16  17
HETATM   17  C1  UNL     1      16.431  35.331  13.452  1.00  0.00     0.234 C 
BRANCH  17  18
HETATM   18  N1  UNL     1      15.271  36.064  12.920  1.00  0.00    -0.079 N 
ATOM     19  H13 UNL     1      14.831  35.564  12.148  1.00  0.00     0.274 HD
ATOM     20  H12 UNL     1      14.489  36.055  13.575  1.00  0.00     0.274 HD
ATOM     21  H11 UNL     1      15.527  37.014  12.655  1.00  0.00     0.274 HD
ENDBRANCH  17  18
ENDBRANCH  16  17
ENDBRANCH  15  16
ENDBRANCH  13  15
ENDBRANCH  12  13
ENDBRANCH  11  12
ENDBRANCH  10  11
ENDBRANCH   9  10
ENDBRANCH   7   9
ENDBRANCH   1   7
BRANCH   4  22
HETATM   22  S1  UNL     1      10.274  29.560  12.492  1.00  0.00     0.264 S 
HETATM   23  O1  UNL     1      11.234  29.277  11.370  1.00  0.00    -0.200 OA
HETATM   24  O2  UNL     1       9.503  28.273  12.756  1.00  0.00    -0.200 OA
BRANCH  22  25
HETATM   25  N4  UNL     1       9.123  30.758  12.130  1.00  0.00    -0.266 N 
ATOM     26  H4  UNL     1       9.285  31.287  11.273  1.00  0.00     0.180 HD
BRANCH  25  27
HETATM   27  C12 UNL     1       8.088  31.078  12.792  1.00  0.00     0.114 A 
HETATM   28  C13 UNL     1       6.860  30.501  12.727  1.00  0.00     0.049 A 
HETATM   29  C14 UNL     1       5.792  30.913  13.494  1.00  0.00     0.005 A 
HETATM   30  C15 UNL     1       5.974  31.960  14.370  1.00  0.00     0.017 A 
HETATM   31  C16 UNL     1       7.219  32.531  14.424  1.00  0.00     0.089 A 
HETATM   32  N5  UNL     1       8.249  32.116  13.668  1.00  0.00    -0.352 N 
ATOM     33  H5  UNL     1       9.156  32.578  13.747  1.00  0.00     0.166 HD
ENDBRANCH  25  27
ENDBRANCH  22  25
ENDBRANCH   4  22
TORSDOF 13
ENDMDL
MODEL 4
REMARK VINA RESULT: -6.626554447      0.933      1.656
REMARK  13 active torsions:
REMARK  status: ('A' for Active; 'I' for Inactive)
REMARK    1  A    between atoms: N1_1  and  C1_5 
REMARK    2  A    between atoms: C1_5  and  C2_6 
REMARK    3  A    between atoms: C2_6  and  C3_7 
REMARK    4  A    between atoms: C3_7  and  N2_8 
REMARK    5  A    between atoms: N2_8  and  C4_10 
REMARK    6  A    between atoms: C4_10  and  C5_11 
REMARK    7  A    between atoms: C5_11  and  C6_12 
REMARK    8  A    between atoms: C6_12  and  C7_13 
REMARK    9  A    between atoms: C7_13  and  N3_14 
REMARK   10  A    between atoms: N3_14  and  C8_16 
REMARK   11  A    between atoms: C11_19  and  S1_20 
REMARK   12  A    between atoms: S1_20  and  N4_23 
REMARK   13  A    between atoms: N4_23  and  C12_25 
ROOT
HETATM    1  C8  UNL     1       8.955  31.632  15.511  1.00  0.00     0.028 A 
HETATM    2  C9  UNL     1       9.727  30.543  15.202  1.00  0.00     0.030 A 
HETATM    3  C10 UNL     1      11.103  30.595  15.259  1.00  0.00     0.027 A 
HETATM    4  C11 UNL     1      11.748  31.753  15.634  1.00  0.00     0.080 A 
HETATM    5  C17 UNL     1      10.992  32.870  15.953  1.00  0.00     0.027 A 
HETATM    6  C18 UNL     1       9.618  32.785  15.883  1.00  0.00     0.030 A 
ENDROOT
BRANCH   1   7
HETATM    7  N3  UNL     1       7.543  31.626  15.478  1.00  0.00    -0.390 N 
ATOM      8  H3  UNL     1       7.024  31.074  16.160  1.00  0.00     0.159 HD
BRANCH   7   9
HETATM    9  C7  UNL     1       6.817  32.410  14.471  1.00  0.00     0.120 C 
BRANCH   9  10
HETATM   10  C6  UNL     1       7.150  31.935  13.091  1.00  0.00     0.025 C 
BRANCH  10  11
HETATM   11  C5  UNL     1       6.632  30.584  12.771  1.00  0.00     0.046 C 
BRANCH  11  12
HETATM   12  C4  UNL     1       7.609  29.597  12.265  1.00  0.00     0.060 C 
BRANCH  12  13
HETATM   13  N2  UNL     1       8.870  29.947  11.862  1.00  0.00    -0.382 N 
ATOM     14  H2  UNL     1       8.964  30.901  11.514  1.00  0.00     0.163 HD
BRANCH  13  15
HETATM   15  C3  UNL     1      10.028  29.206  11.855  1.00  0.00     0.061 C 
BRANCH  15  16
HETATM   16  C2  UNL     1      11.287  29.855  11.432  1.00  0.00     0.072 C 
BRANCH  16  17
HETATM   17  C1  UNL     1      12.052  29.077  10.417  1.00  0.00     0.234 C 
BRANCH  17  18
HETATM   18  N1  UNL     1      11.150  28.278   9.574  1.00  0.00    -0.079 N 
ATOM     19  H13 UNL     1      10.181  28.351   9.884  1.00  0.00     0.274 HD
ATOM     20  H12 UNL     1      11.045  28.685   8.644  1.00  0.00     0.274 HD
ATOM     21  H11 UNL     1      11.457  27.307   9.526  1.00  0.00     0.274 HD
ENDBRANCH  17  18
ENDBRANCH  16  17
ENDBRANCH  15  16
ENDBRANCH  13  15
ENDBRANCH  12  13
ENDBRANCH  11  12
ENDBRANCH  10  11
ENDBRANCH   9  10
ENDBRANCH   7   9
ENDBRANCH   1   7
BRANCH   4  22
HETATM   22  S1  UNL     1      13.487  31.755  15.687  1.00  0.00     0.264 S 
HETATM   23  O1  UNL     1      13.911  32.401  16.977  1.00  0.00    -0.200 OA
HETATM   24  O2  UNL     1      13.947  30.304  15.741  1.00  0.00    -0.200 OA
BRANCH  22  25
HETATM   25  N4  UNL     1      14.196  32.445  14.303  1.00  0.00    -0.266 N 
ATOM     26  H4  UNL     1      14.017  31.963  13.423  1.00  0.00     0.180 HD
BRANCH  25  27
HETATM   27  C12 UNL     1      14.921  33.484  14.228  1.00  0.00     0.114 A 
HETATM   28  C13 UNL     1      16.162  33.584  13.686  1.00  0.00     0.049 A 
HETATM   29  C14 UNL     1      16.873  34.763  13.641  1.00  0.00     0.005 A 
HETATM   30  C15 UNL     1      16.302  35.898  14.173  1.00  0.00     0.017 A 
HETATM   31  C16 UNL     1      15.050  35.782  14.716  1.00  0.00     0.089 A 
HETATM   32  N5  UNL     1      14.370  34.623  14.750  1.00  0.00    -0.352 N 
ATOM     33  H5  UNL     1      13.440  34.592  15.168  1.00  0.00     0.166 HD
ENDBRANCH  25  27
ENDBRANCH  22  25
ENDBRANCH   4  22
TORSDOF 13
ENDMDL
MODEL 5
REMARK VINA RESULT: -6.622216055      2.513      7.267
REMARK  13 active torsions:
REMARK  status: ('A' for Active; 'I' for Inactive)
REMARK    1  A    between atoms: N1_1  and  C1_5 
REMARK    2  A    between atoms: C1_5  and  C2_6 
REMARK    3  A    between atoms: C2_6  and  C3_7 
REMARK    4  A    between atoms: C3_7  and  N2_8 
REMARK    5  A    between atoms: N2_8  and  C4_10 
REMARK    6  A    between atoms: C4_10  and  C5_11 
REMARK    7  A    between atoms: C5_11  and  C6_12 
REMARK    8  A    between atoms: C6_12  and  C7_13 
REMARK    9  A    between atoms: C7_13  and  N3_14 
REMARK   10  A    between atoms: N3_14  and  C8_16 
REMARK   11  A    between atoms: C11_19  and  S1_20 
REMARK   12  A    between atoms: S1_20  and  N4_23 
REMARK   13  A    between atoms: N4_23  and  C12_25 
ROOT
HETATM    1  C8  UNL     1      12.780  30.534  16.059  1.00  0.00     0.028 A 
HETATM    2  C9  UNL     1      11.535  29.974  16.171  1.00  0.00     0.030 A 
HETATM    3  C10 UNL     1      10.762  29.705  15.062  1.00  0.00     0.027 A 
HETATM    4  C11 UNL     1      11.223  29.993  13.797  1.00  0.00     0.080 A 
HETATM    5  C17 UNL     1      12.479  30.560  13.653  1.00  0.00     0.027 A 
HETATM    6  C18 UNL     1      13.227  30.817  14.783  1.00  0.00     0.030 A 
ENDROOT
BRANCH   1   7
HETATM    7  N3  UNL     1      13.615  30.819  17.161  1.00  0.00    -0.390 N 
ATOM      8  H3  UNL     1      14.620  30.663  17.087  1.00  0.00     0.159 HD
BRANCH   7   9
HETATM    9  C7  UNL     1      13.048  31.337  18.412  1.00  0.00     0.120 C 
BRANCH   9  10
HETATM   10  C6  UNL     1      13.169  32.828  18.470  1.00  0.00     0.025 C 
BRANCH  10  11
HETATM   11  C5  UNL     1      12.018  33.554  17.885  1.00  0.00     0.046 C 
BRANCH  11  12
HETATM   12  C4  UNL     1      12.244  34.231  16.590  1.00  0.00     0.060 C 
BRANCH  12  13
HETATM   13  N2  UNL     1      13.060  35.323  16.462  1.00  0.00    -0.382 N 
ATOM     14  H2  UNL     1      12.763  36.149  16.981  1.00  0.00     0.163 HD
BRANCH  13  15
HETATM   15  C3  UNL     1      14.219  35.475  15.737  1.00  0.00     0.061 C 
BRANCH  15  16
HETATM   16  C2  UNL     1      14.558  34.464  14.714  1.00  0.00     0.072 C 
BRANCH  16  17
HETATM   17  C1  UNL     1      15.627  34.899  13.771  1.00  0.00     0.234 C 
BRANCH  17  18
HETATM   18  N1  UNL     1      15.209  36.086  13.009  1.00  0.00    -0.079 N 
ATOM     19  H13 UNL     1      14.448  35.871  12.365  1.00  0.00     0.274 HD
ATOM     20  H12 UNL     1      14.724  36.760  13.601  1.00  0.00     0.274 HD
ATOM     21  H11 UNL     1      16.001  36.510  12.527  1.00  0.00     0.274 HD
ENDBRANCH  17  18
ENDBRANCH  16  17
ENDBRANCH  15  16
ENDBRANCH  13  15
ENDBRANCH  12  13
ENDBRANCH  11  12
ENDBRANCH  10  11
ENDBRANCH   9  10
ENDBRANCH   7   9
ENDBRANCH   1   7
BRANCH   4  22
HETATM   22  S1  UNL     1      10.200  29.630  12.437  1.00  0.00     0.264 S 
HETATM   23  O1  UNL     1      11.083  29.358  11.251  1.00  0.00    -0.200 OA
HETATM   24  O2  UNL     1       9.461  28.336  12.751  1.00  0.00    -0.200 OA
BRANCH  22  25
HETATM   25  N4  UNL     1       9.015  30.818  12.158  1.00  0.00    -0.266 N 
ATOM     26  H4  UNL     1       9.117  31.355  11.297  1.00  0.00     0.180 HD
BRANCH  25  27
HETATM   27  C12 UNL     1       8.021  31.121  12.886  1.00  0.00     0.114 A 
HETATM   28  C13 UNL     1       6.773  30.584  12.839  1.00  0.00     0.049 A 
HETATM   29  C14 UNL     1       5.754  30.973  13.680  1.00  0.00     0.005 A 
HETATM   30  C15 UNL     1       6.006  31.954  14.614  1.00  0.00     0.017 A 
HETATM   31  C16 UNL     1       7.269  32.485  14.648  1.00  0.00     0.089 A 
HETATM   32  N5  UNL     1       8.252  32.093  13.820  1.00  0.00    -0.352 N 
ATOM     33  H5  UNL     1       9.175  32.522  13.888  1.00  0.00     0.166 HD
ENDBRANCH  25  27
ENDBRANCH  22  25
ENDBRANCH   4  22
TORSDOF 13
ENDMDL
