MODEL 1
REMARK VINA RESULT: -4.297006832      0.000      0.000
REMARK  1 active torsions:
REMARK  status: ('A' for Active; 'I' for Inactive)
REMARK    1  A    between atoms: C9_12  and  O1_13 
ROOT
HETATM    1  N1  UNL     1      10.556  -4.987   7.415  1.00  0.00    -0.197 NA
HETATM    2  C1  UNL     1       9.823  -4.216   6.978  1.00  0.00     0.065 C 
HETATM    3  C2  UNL     1       8.892  -3.268   6.448  1.00  0.00     0.115 C 
HETATM    4  C3  UNL     1       9.306  -2.601   5.138  1.00  0.00     0.100 C 
HETATM    5  C4  UNL     1       8.445  -1.428   5.634  1.00  0.00     0.256 C 
HETATM    6  F1  UNL     1       8.907  -0.198   5.300  1.00  0.00    -0.205 F 
HETATM    7  F2  UNL     1       7.108  -1.671   5.456  1.00  0.00    -0.205 F 
HETATM    8  C5  UNL     1       8.842  -1.909   7.039  1.00  0.00     0.068 C 
HETATM    9  C6  UNL     1       7.774  -1.647   8.057  1.00  0.00     0.019 C 
HETATM   10  C7  UNL     1       8.410  -0.882   9.169  1.00  0.00     0.004 C 
HETATM   11  C8  UNL     1       9.880  -0.805   8.905  1.00  0.00     0.033 C 
HETATM   12  C9  UNL     1      10.097  -1.266   7.472  1.00  0.00     0.134 C 
ENDROOT
BRANCH  12  13
HETATM   13  O1  UNL     1      11.229  -2.046   7.384  1.00  0.00    -0.395 OA
ATOM     14  H1  UNL     1      11.908  -1.722   6.805  1.00  0.00     0.210 HD
ENDBRANCH  12  13
TORSDOF 1
ENDMDL
MODEL 2
REMARK VINA RESULT: -3.740512615      1.901      3.410
REMARK  1 active torsions:
REMARK  status: ('A' for Active; 'I' for Inactive)
REMARK    1  A    between atoms: C9_12  and  O1_13 
ROOT
HETATM    1  N1  UNL     1      10.918  -0.362   8.417  1.00  0.00    -0.197 NA
HETATM    2  C1  UNL     1       9.839  -0.525   8.056  1.00  0.00     0.065 C 
HETATM    3  C2  UNL     1       8.498  -0.709   7.592  1.00  0.00     0.115 C 
HETATM    4  C3  UNL     1       7.574  -1.476   8.534  1.00  0.00     0.100 C 
HETATM    5  C4  UNL     1       6.846  -1.891   7.246  1.00  0.00     0.256 C 
HETATM    6  F1  UNL     1       6.333  -3.146   7.258  1.00  0.00    -0.205 F 
HETATM    7  F2  UNL     1       6.047  -0.886   6.769  1.00  0.00    -0.205 F 
HETATM    8  C5  UNL     1       8.229  -1.765   6.586  1.00  0.00     0.068 C 
HETATM    9  C6  UNL     1       8.143  -1.337   5.153  1.00  0.00     0.019 C 
HETATM   10  C7  UNL     1       8.900  -2.343   4.351  1.00  0.00     0.004 C 
HETATM   11  C8  UNL     1       9.564  -3.292   5.296  1.00  0.00     0.033 C 
HETATM   12  C9  UNL     1       8.963  -3.042   6.671  1.00  0.00     0.134 C 
ENDROOT
BRANCH  12  13
HETATM   13  O1  UNL     1       9.938  -3.108   7.641  1.00  0.00    -0.395 OA
ATOM     14  H1  UNL     1      10.752  -3.522   7.380  1.00  0.00     0.210 HD
ENDBRANCH  12  13
TORSDOF 1
ENDMDL
MODEL 3
REMARK VINA RESULT: -3.694599567      2.783      3.430
REMARK  1 active torsions:
REMARK  status: ('A' for Active; 'I' for Inactive)
REMARK    1  A    between atoms: C9_12  and  O1_13 
ROOT
HETATM    1  N1  UNL     1       7.466  -0.438   3.932  1.00  0.00    -0.197 NA
HETATM    2  C1  UNL     1       8.206  -1.075   4.538  1.00  0.00     0.065 C 
HETATM    3  C2  UNL     1       9.142  -1.848   5.295  1.00  0.00     0.115 C 
HETATM    4  C3  UNL     1       8.997  -3.363   5.172  1.00  0.00     0.100 C 
HETATM    5  C4  UNL     1       9.597  -3.387   6.587  1.00  0.00     0.256 C 
HETATM    6  F1  UNL     1       9.113  -4.363   7.396  1.00  0.00    -0.205 F 
HETATM    7  F2  UNL     1      10.953  -3.198   6.566  1.00  0.00    -0.205 F 
HETATM    8  C5  UNL     1       8.918  -2.018   6.751  1.00  0.00     0.068 C 
HETATM    9  C6  UNL     1       9.677  -1.109   7.669  1.00  0.00     0.019 C 
HETATM   10  C7  UNL     1       8.721  -0.651   8.718  1.00  0.00     0.004 C 
HETATM   11  C8  UNL     1       7.358  -1.155   8.363  1.00  0.00     0.033 C 
HETATM   12  C9  UNL     1       7.540  -2.177   7.252  1.00  0.00     0.134 C 
ENDROOT
BRANCH  12  13
HETATM   13  O1  UNL     1       6.543  -2.047   6.311  1.00  0.00    -0.395 OA
ATOM     14  H1  UNL     1       6.834  -1.866   5.425  1.00  0.00     0.210 HD
ENDBRANCH  12  13
TORSDOF 1
ENDMDL
MODEL 4
REMARK VINA RESULT: -3.257103795      2.494      3.701
REMARK  1 active torsions:
REMARK  status: ('A' for Active; 'I' for Inactive)
REMARK    1  A    between atoms: C9_12  and  O1_13 
ROOT
HETATM    1  N1  UNL     1       5.413  -2.711   7.286  1.00  0.00    -0.197 NA
HETATM    2  C1  UNL     1       6.471  -2.418   7.628  1.00  0.00     0.065 C 
HETATM    3  C2  UNL     1       7.791  -2.077   8.062  1.00  0.00     0.115 C 
HETATM    4  C3  UNL     1       8.053  -0.586   8.262  1.00  0.00     0.100 C 
HETATM    5  C4  UNL     1       9.508  -0.947   7.923  1.00  0.00     0.256 C 
HETATM    6  F1  UNL     1      10.184  -0.001   7.226  1.00  0.00    -0.205 F 
HETATM    7  F2  UNL     1      10.148  -1.526   8.988  1.00  0.00    -0.205 F 
HETATM    8  C5  UNL     1       8.889  -2.062   7.065  1.00  0.00     0.068 C 
HETATM    9  C6  UNL     1       9.760  -3.279   6.991  1.00  0.00     0.019 C 
HETATM   10  C7  UNL     1       9.967  -3.579   5.544  1.00  0.00     0.004 C 
HETATM   11  C8  UNL     1       9.114  -2.647   4.745  1.00  0.00     0.033 C 
HETATM   12  C9  UNL     1       8.614  -1.574   5.700  1.00  0.00     0.134 C 
ENDROOT
BRANCH  12  13
HETATM   13  O1  UNL     1       7.300  -1.264   5.429  1.00  0.00    -0.395 OA
ATOM     14  H1  UNL     1       6.746  -1.995   5.184  1.00  0.00     0.210 HD
ENDBRANCH  12  13
TORSDOF 1
ENDMDL
MODEL 5
REMARK VINA RESULT: -2.692803086      2.528      3.193
REMARK  1 active torsions:
REMARK  status: ('A' for Active; 'I' for Inactive)
REMARK    1  A    between atoms: C9_12  and  O1_13 
ROOT
HETATM    1  N1  UNL     1       8.835  -0.537   3.645  1.00  0.00    -0.197 NA
HETATM    2  C1  UNL     1       8.281  -1.100   4.481  1.00  0.00     0.065 C 
HETATM    3  C2  UNL     1       7.595  -1.821   5.508  1.00  0.00     0.115 C 
HETATM    4  C3  UNL     1       6.678  -0.987   6.399  1.00  0.00     0.100 C 
HETATM    5  C4  UNL     1       6.986  -2.052   7.463  1.00  0.00     0.256 C 
HETATM    6  F1  UNL     1       7.066  -1.584   8.733  1.00  0.00    -0.205 F 
HETATM    7  F2  UNL     1       6.266  -3.199   7.256  1.00  0.00    -0.205 F 
HETATM    8  C5  UNL     1       8.335  -2.189   6.739  1.00  0.00     0.068 C 
HETATM    9  C6  UNL     1       8.887  -3.580   6.814  1.00  0.00     0.019 C 
HETATM   10  C7  UNL     1      10.269  -3.472   7.368  1.00  0.00     0.004 C 
HETATM   11  C8  UNL     1      10.612  -2.022   7.492  1.00  0.00     0.033 C 
HETATM   12  C9  UNL     1       9.321  -1.242   7.295  1.00  0.00     0.134 C 
ENDROOT
BRANCH  12  13
HETATM   13  O1  UNL     1       9.552  -0.111   6.544  1.00  0.00    -0.395 OA
ATOM     14  H1  UNL     1       9.968   0.609   7.002  1.00  0.00     0.210 HD
ENDBRANCH  12  13
TORSDOF 1
ENDMDL
