MODEL 1
REMARK VINA RESULT: -5.191748861      0.000      0.000
REMARK  2 active torsions:
REMARK  status: ('A' for Active; 'I' for Inactive)
REMARK    1  A    between atoms: C2_2  and  C4_4 
REMARK    2  A    between atoms: C7_10  and  N2_11 
ROOT
HETATM    1  C4  UNL     1      50.645 -51.391  18.278  1.00  0.00     0.219 C 
HETATM    2  N1  UNL     1      51.923 -50.720  18.122  1.00  0.00    -0.069 N 
ATOM      3  H11 UNL     1      52.457 -50.632  18.986  1.00  0.00     0.277 HD
ATOM      4  H12 UNL     1      51.849 -49.720  17.935  1.00  0.00     0.277 HD
HETATM    5  C5  UNL     1      52.608 -51.480  17.067  1.00  0.00     0.235 C 
HETATM    6  C6  UNL     1      52.277 -52.898  17.520  1.00  0.00     0.062 C 
HETATM    7  C7  UNL     1      50.760 -52.742  17.673  1.00  0.00     0.216 C 
ENDROOT
BRANCH   7   8
HETATM    8  N2  UNL     1      50.312 -53.808  18.533  1.00  0.00    -0.073 N 
ATOM      9  H23 UNL     1      50.659 -54.707  18.201  1.00  0.00     0.274 HD
ATOM     10  H22 UNL     1      50.785 -53.764  19.436  1.00  0.00     0.274 HD
ATOM     11  H21 UNL     1      49.300 -53.839  18.660  1.00  0.00     0.274 HD
ENDBRANCH   7   8
BRANCH   1  12
HETATM   12  C2  UNL     1      49.607 -50.526  17.603  1.00  0.00     0.010 C 
HETATM   13  C1  UNL     1      48.218 -50.777  18.078  1.00  0.00     0.011 C 
HETATM   14  C3  UNL     1      49.939 -49.061  17.773  1.00  0.00     0.011 C 
ENDBRANCH   1  12
TORSDOF 2
ENDMDL
MODEL 2
REMARK VINA RESULT: -4.946316556      1.566      2.320
REMARK  2 active torsions:
REMARK  status: ('A' for Active; 'I' for Inactive)
REMARK    1  A    between atoms: C2_2  and  C4_4 
REMARK    2  A    between atoms: C7_10  and  N2_11 
ROOT
HETATM    1  C4  UNL     1      50.950 -51.099  16.569  1.00  0.00     0.219 C 
HETATM    2  N1  UNL     1      50.041 -52.036  17.204  1.00  0.00    -0.069 N 
ATOM      3  H11 UNL     1      49.579 -52.674  16.555  1.00  0.00     0.277 HD
ATOM      4  H12 UNL     1      49.190 -51.610  17.568  1.00  0.00     0.277 HD
HETATM    5  C5  UNL     1      50.861 -52.707  18.222  1.00  0.00     0.235 C 
HETATM    6  C6  UNL     1      52.130 -52.946  17.411  1.00  0.00     0.062 C 
HETATM    7  C7  UNL     1      52.338 -51.520  16.887  1.00  0.00     0.216 C 
ENDROOT
BRANCH   7   8
HETATM    8  N2  UNL     1      53.198 -51.616  15.734  1.00  0.00    -0.073 N 
ATOM      9  H23 UNL     1      52.756 -51.189  14.920  1.00  0.00     0.274 HD
ATOM     10  H22 UNL     1      54.005 -50.999  15.836  1.00  0.00     0.274 HD
ATOM     11  H21 UNL     1      53.499 -52.567  15.520  1.00  0.00     0.274 HD
ENDBRANCH   7   8
BRANCH   1  12
HETATM   12  C2  UNL     1      50.611 -49.726  17.102  1.00  0.00     0.010 C 
HETATM   13  C1  UNL     1      49.353 -49.688  17.899  1.00  0.00     0.011 C 
HETATM   14  C3  UNL     1      51.748 -49.180  17.933  1.00  0.00     0.011 C 
ENDBRANCH   1  12
TORSDOF 2
ENDMDL
MODEL 3
REMARK VINA RESULT: -4.832167748      1.009      2.405
REMARK  2 active torsions:
REMARK  status: ('A' for Active; 'I' for Inactive)
REMARK    1  A    between atoms: C2_2  and  C4_4 
REMARK    2  A    between atoms: C7_10  and  N2_11 
ROOT
HETATM    1  C4  UNL     1      50.379 -51.339  17.176  1.00  0.00     0.219 C 
HETATM    2  N1  UNL     1      49.889 -52.684  17.421  1.00  0.00    -0.069 N 
ATOM      3  H11 UNL     1      49.670 -53.209  16.574  1.00  0.00     0.277 HD
ATOM      4  H12 UNL     1      48.952 -52.720  17.821  1.00  0.00     0.277 HD
HETATM    5  C5  UNL     1      50.926 -53.302  18.260  1.00  0.00     0.235 C 
HETATM    6  C6  UNL     1      52.171 -52.814  17.527  1.00  0.00     0.062 C 
HETATM    7  C7  UNL     1      51.833 -51.320  17.472  1.00  0.00     0.216 C 
ENDROOT
BRANCH   7   8
HETATM    8  N2  UNL     1      52.636 -50.745  16.422  1.00  0.00    -0.073 N 
ATOM      9  H23 UNL     1      52.198 -50.893  15.513  1.00  0.00     0.274 HD
ATOM     10  H22 UNL     1      52.606 -49.725  16.464  1.00  0.00     0.274 HD
ATOM     11  H21 UNL     1      53.602 -51.074  16.411  1.00  0.00     0.274 HD
ENDBRANCH   7   8
BRANCH   1  12
HETATM   12  C2  UNL     1      49.581 -50.411  18.062  1.00  0.00     0.010 C 
HETATM   13  C1  UNL     1      49.868 -48.968  17.830  1.00  0.00     0.011 C 
HETATM   14  C3  UNL     1      48.100 -50.661  17.902  1.00  0.00     0.011 C 
ENDBRANCH   1  12
TORSDOF 2
ENDMDL
MODEL 4
REMARK VINA RESULT: -4.603065953      1.811      2.621
REMARK  2 active torsions:
REMARK  status: ('A' for Active; 'I' for Inactive)
REMARK    1  A    between atoms: C2_2  and  C4_4 
REMARK    2  A    between atoms: C7_10  and  N2_11 
ROOT
HETATM    1  C4  UNL     1      50.472 -50.615  16.874  1.00  0.00     0.219 C 
HETATM    2  N1  UNL     1      50.761 -51.357  15.661  1.00  0.00    -0.069 N 
ATOM      3  H11 UNL     1      50.706 -50.801  14.808  1.00  0.00     0.277 HD
ATOM      4  H12 UNL     1      50.041 -52.031  15.403  1.00  0.00     0.277 HD
HETATM    5  C5  UNL     1      52.083 -51.954  15.905  1.00  0.00     0.235 C 
HETATM    6  C6  UNL     1      52.790 -50.757  16.532  1.00  0.00     0.062 C 
HETATM    7  C7  UNL     1      51.749 -50.411  17.603  1.00  0.00     0.216 C 
ENDROOT
BRANCH   7   8
HETATM    8  N2  UNL     1      51.987 -49.044  17.996  1.00  0.00    -0.073 N 
ATOM      9  H23 UNL     1      52.515 -48.551  17.276  1.00  0.00     0.274 HD
ATOM     10  H22 UNL     1      51.120 -48.508  17.972  1.00  0.00     0.274 HD
ATOM     11  H21 UNL     1      52.443 -48.948  18.904  1.00  0.00     0.274 HD
ENDBRANCH   7   8
BRANCH   1  12
HETATM   12  C2  UNL     1      49.465 -51.424  17.658  1.00  0.00     0.010 C 
HETATM   13  C1  UNL     1      50.048 -52.124  18.836  1.00  0.00     0.011 C 
HETATM   14  C3  UNL     1      48.315 -50.555  18.108  1.00  0.00     0.011 C 
ENDBRANCH   1  12
TORSDOF 2
ENDMDL
MODEL 5
REMARK VINA RESULT: -4.538690429      1.671      2.611
REMARK  2 active torsions:
REMARK  status: ('A' for Active; 'I' for Inactive)
REMARK    1  A    between atoms: C2_2  and  C4_4 
REMARK    2  A    between atoms: C7_10  and  N2_11 
ROOT
HETATM    1  C4  UNL     1      51.433 -51.564  16.568  1.00  0.00     0.219 C 
HETATM    2  N1  UNL     1      49.992 -51.392  16.548  1.00  0.00    -0.069 N 
ATOM      3  H11 UNL     1      49.522 -51.890  15.792  1.00  0.00     0.277 HD
ATOM      4  H12 UNL     1      49.688 -50.458  16.273  1.00  0.00     0.277 HD
HETATM    5  C5  UNL     1      49.557 -51.794  17.893  1.00  0.00     0.235 C 
HETATM    6  C6  UNL     1      50.407 -53.048  18.070  1.00  0.00     0.062 C 
HETATM    7  C7  UNL     1      51.772 -52.452  17.708  1.00  0.00     0.216 C 
ENDROOT
BRANCH   7   8
HETATM    8  N2  UNL     1      52.633 -53.554  17.356  1.00  0.00    -0.073 N 
ATOM      9  H23 UNL     1      52.949 -53.467  16.390  1.00  0.00     0.274 HD
ATOM     10  H22 UNL     1      53.529 -53.477  17.838  1.00  0.00     0.274 HD
ATOM     11  H21 UNL     1      52.217 -54.471  17.517  1.00  0.00     0.274 HD
ENDBRANCH   7   8
BRANCH   1  12
HETATM   12  C2  UNL     1      52.041 -50.186  16.689  1.00  0.00     0.010 C 
HETATM   13  C1  UNL     1      51.044 -49.083  16.602  1.00  0.00     0.011 C 
HETATM   14  C3  UNL     1      52.821 -50.058  17.976  1.00  0.00     0.011 C 
ENDBRANCH   1  12
TORSDOF 2
ENDMDL
