MODEL 1
REMARK VINA RESULT: -5.781620504      0.000      0.000
REMARK  4 active torsions:
REMARK  status: ('A' for Active; 'I' for Inactive)
REMARK    1  A    between atoms: C4_6  and  O1_7 
REMARK    2  A    between atoms: C4_6  and  C5_9 
REMARK    3  A    between atoms: C5_9  and  S1_10 
REMARK    4  A    between atoms: S1_10  and  N2_11 
ROOT
HETATM    1  N1  UNL     1       5.630   0.467  16.316  1.00  0.00    -0.193 NA
HETATM    2  C1  UNL     1       5.866   0.747  17.414  1.00  0.00     0.115 C 
HETATM    3  C2  UNL     1       6.186   1.089  18.795  1.00  0.00     0.229 C 
HETATM    4 CL1  UNL     1       5.574  -0.213  19.845  1.00  0.00    -0.072 Cl
HETATM    5  C3  UNL     1       7.694   1.208  18.967  1.00  0.00     0.112 C 
HETATM    6  C4  UNL     1       7.724   2.013  20.276  1.00  0.00     0.096 C 
HETATM    7  C6  UNL     1       6.549   2.920  20.035  1.00  0.00     0.210 C 
HETATM    8  O3  UNL     1       5.646   2.271  19.213  1.00  0.00    -0.349 OA
ENDROOT
BRANCH   6   9
HETATM    9  O1  UNL     1       7.490   1.098  21.291  1.00  0.00    -0.387 OA
ATOM     10  H1  UNL     1       7.316   1.613  22.071  1.00  0.00     0.210 HD
ENDBRANCH   6   9
BRANCH   6  11
HETATM   11  C5  UNL     1       9.037   2.714  20.443  1.00  0.00     0.169 C 
BRANCH  11  12
HETATM   12  S1  UNL     1       9.139   3.417  22.064  1.00  0.00     0.088 S 
HETATM   13  O2  UNL     1      10.112   4.585  21.994  1.00  0.00    -0.238 OA
HETATM   14  S2  UNL     1       9.823   2.313  23.182  1.00  0.00     0.029 SA
BRANCH  12  15
HETATM   15  N2  UNL     1       7.643   4.023  22.612  1.00  0.00    -0.351 N 
ATOM     16  H22 UNL     1       6.758   3.541  22.452  1.00  0.00     0.166 HD
ATOM     17  H21 UNL     1       7.737   4.908  23.110  1.00  0.00     0.166 HD
ENDBRANCH  12  15
ENDBRANCH  11  12
ENDBRANCH   6  11
TORSDOF 4
ENDMDL
MODEL 2
REMARK VINA RESULT: -5.672371394      2.201      2.569
REMARK  4 active torsions:
REMARK  status: ('A' for Active; 'I' for Inactive)
REMARK    1  A    between atoms: C4_6  and  O1_7 
REMARK    2  A    between atoms: C4_6  and  C5_9 
REMARK    3  A    between atoms: C5_9  and  S1_10 
REMARK    4  A    between atoms: S1_10  and  N2_11 
ROOT
HETATM    1  N1  UNL     1       5.879   1.023  17.430  1.00  0.00    -0.193 NA
HETATM    2  C1  UNL     1       6.659   1.342  18.224  1.00  0.00     0.115 C 
HETATM    3  C2  UNL     1       7.625   1.753  19.237  1.00  0.00     0.229 C 
HETATM    4 CL1  UNL     1       8.267   3.348  18.776  1.00  0.00    -0.072 Cl
HETATM    5  C3  UNL     1       6.943   1.858  20.594  1.00  0.00     0.112 C 
HETATM    6  C4  UNL     1       8.189   1.808  21.493  1.00  0.00     0.096 C 
HETATM    7  C6  UNL     1       9.009   0.808  20.725  1.00  0.00     0.210 C 
HETATM    8  O3  UNL     1       8.673   0.891  19.386  1.00  0.00    -0.349 OA
ENDROOT
BRANCH   6   9
HETATM    9  O1  UNL     1       8.735   3.082  21.457  1.00  0.00    -0.387 OA
ATOM     10  H1  UNL     1       7.999   3.682  21.487  1.00  0.00     0.210 HD
ENDBRANCH   6   9
BRANCH   6  11
HETATM   11  C5  UNL     1       7.828   1.389  22.885  1.00  0.00     0.169 C 
BRANCH  11  12
HETATM   12  S1  UNL     1       8.143   2.718  24.011  1.00  0.00     0.088 S 
HETATM   13  O2  UNL     1       9.642   2.983  23.995  1.00  0.00    -0.238 OA
HETATM   14  S2  UNL     1       7.769   2.273  25.623  1.00  0.00     0.029 SA
BRANCH  12  15
HETATM   15  N2  UNL     1       7.358   4.162  23.558  1.00  0.00    -0.351 N 
ATOM     16  H22 UNL     1       6.438   4.177  23.118  1.00  0.00     0.166 HD
ATOM     17  H21 UNL     1       7.908   4.993  23.777  1.00  0.00     0.166 HD
ENDBRANCH  12  15
ENDBRANCH  11  12
ENDBRANCH   6  11
TORSDOF 4
ENDMDL
MODEL 3
REMARK VINA RESULT: -5.587070194      2.112      2.327
REMARK  4 active torsions:
REMARK  status: ('A' for Active; 'I' for Inactive)
REMARK    1  A    between atoms: C4_6  and  O1_7 
REMARK    2  A    between atoms: C4_6  and  C5_9 
REMARK    3  A    between atoms: C5_9  and  S1_10 
REMARK    4  A    between atoms: S1_10  and  N2_11 
ROOT
HETATM    1  N1  UNL     1       5.133  -1.131  19.027  1.00  0.00    -0.193 NA
HETATM    2  C1  UNL     1       5.811  -0.226  19.277  1.00  0.00     0.115 C 
HETATM    3  C2  UNL     1       6.656   0.913  19.614  1.00  0.00     0.229 C 
HETATM    4 CL1  UNL     1       5.746   2.403  19.264  1.00  0.00    -0.072 Cl
HETATM    5  C3  UNL     1       7.014   0.877  21.093  1.00  0.00     0.112 C 
HETATM    6  C4  UNL     1       8.227   1.819  21.071  1.00  0.00     0.096 C 
HETATM    7  C6  UNL     1       8.838   1.405  19.760  1.00  0.00     0.210 C 
HETATM    8  O3  UNL     1       7.833   0.953  18.924  1.00  0.00    -0.349 OA
ENDROOT
BRANCH   6   9
HETATM    9  O1  UNL     1       7.710   3.105  21.032  1.00  0.00    -0.387 OA
ATOM     10  H1  UNL     1       7.950   3.507  21.860  1.00  0.00     0.210 HD
ENDBRANCH   6   9
BRANCH   6  11
HETATM   11  C5  UNL     1       9.099   1.599  22.269  1.00  0.00     0.169 C 
BRANCH  11  12
HETATM   12  S1  UNL     1       8.418   2.440  23.669  1.00  0.00     0.088 S 
HETATM   13  O2  UNL     1       9.560   2.707  24.639  1.00  0.00    -0.238 OA
HETATM   14  S2  UNL     1       7.311   1.446  24.519  1.00  0.00     0.029 SA
BRANCH  12  15
HETATM   15  N2  UNL     1       7.728   3.944  23.258  1.00  0.00    -0.351 N 
ATOM     16  H22 UNL     1       8.143   4.575  22.573  1.00  0.00     0.166 HD
ATOM     17  H21 UNL     1       6.866   4.133  23.771  1.00  0.00     0.166 HD
ENDBRANCH  12  15
ENDBRANCH  11  12
ENDBRANCH   6  11
TORSDOF 4
ENDMDL
MODEL 4
REMARK VINA RESULT: -5.532005715      3.390      4.054
REMARK  4 active torsions:
REMARK  status: ('A' for Active; 'I' for Inactive)
REMARK    1  A    between atoms: C4_6  and  O1_7 
REMARK    2  A    between atoms: C4_6  and  C5_9 
REMARK    3  A    between atoms: C5_9  and  S1_10 
REMARK    4  A    between atoms: S1_10  and  N2_11 
ROOT
HETATM    1  N1  UNL     1       7.861   2.688  18.433  1.00  0.00    -0.193 NA
HETATM    2  C1  UNL     1       8.297   2.592  19.501  1.00  0.00     0.115 C 
HETATM    3  C2  UNL     1       8.828   2.486  20.855  1.00  0.00     0.229 C 
HETATM    4 CL1  UNL     1      10.080   3.735  21.059  1.00  0.00    -0.072 Cl
HETATM    5  C3  UNL     1       7.717   2.715  21.870  1.00  0.00     0.112 C 
HETATM    6  C4  UNL     1       8.386   2.089  23.104  1.00  0.00     0.096 C 
HETATM    7  C6  UNL     1       9.081   0.928  22.446  1.00  0.00     0.210 C 
HETATM    8  O3  UNL     1       9.380   1.270  21.140  1.00  0.00    -0.349 OA
ENDROOT
BRANCH   6   9
HETATM    9  O1  UNL     1       9.276   3.040  23.579  1.00  0.00    -0.387 OA
ATOM     10  H1  UNL     1      10.107   2.591  23.684  1.00  0.00     0.210 HD
ENDBRANCH   6   9
BRANCH   6  11
HETATM   11  C5  UNL     1       7.365   1.710  24.133  1.00  0.00     0.169 C 
BRANCH  11  12
HETATM   12  S1  UNL     1       7.229   2.994  25.342  1.00  0.00     0.088 S 
HETATM   13  O2  UNL     1       8.493   2.959  26.189  1.00  0.00    -0.238 OA
HETATM   14  S2  UNL     1       5.936   2.697  26.428  1.00  0.00     0.029 SA
BRANCH  12  15
HETATM   15  N2  UNL     1       7.119   4.546  24.643  1.00  0.00    -0.351 N 
ATOM     16  H22 UNL     1       6.784   4.702  23.693  1.00  0.00     0.166 HD
ATOM     17  H21 UNL     1       7.422   5.285  25.278  1.00  0.00     0.166 HD
ENDBRANCH  12  15
ENDBRANCH  11  12
ENDBRANCH   6  11
TORSDOF 4
ENDMDL
MODEL 5
REMARK VINA RESULT: -5.459524526      2.047      2.454
REMARK  4 active torsions:
REMARK  status: ('A' for Active; 'I' for Inactive)
REMARK    1  A    between atoms: C4_6  and  O1_7 
REMARK    2  A    between atoms: C4_6  and  C5_9 
REMARK    3  A    between atoms: C5_9  and  S1_10 
REMARK    4  A    between atoms: S1_10  and  N2_11 
ROOT
HETATM    1  N1  UNL     1       5.250   0.300  17.129  1.00  0.00    -0.193 NA
HETATM    2  C1  UNL     1       6.087   0.839  17.720  1.00  0.00     0.115 C 
HETATM    3  C2  UNL     1       7.125   1.535  18.471  1.00  0.00     0.229 C 
HETATM    4 CL1  UNL     1       7.956   2.654  17.363  1.00  0.00    -0.072 Cl
HETATM    5  C3  UNL     1       6.501   2.327  19.612  1.00  0.00     0.112 C 
HETATM    6  C4  UNL     1       7.754   2.529  20.478  1.00  0.00     0.096 C 
HETATM    7  C6  UNL     1       8.416   1.194  20.271  1.00  0.00     0.210 C 
HETATM    8  O3  UNL     1       8.056   0.707  19.028  1.00  0.00    -0.349 OA
ENDROOT
BRANCH   6   9
HETATM    9  O1  UNL     1       8.460   3.568  19.891  1.00  0.00    -0.387 OA
ATOM     10  H1  UNL     1       9.220   3.711  20.443  1.00  0.00     0.210 HD
ENDBRANCH   6   9
BRANCH   6  11
HETATM   11  C5  UNL     1       7.381   2.833  21.897  1.00  0.00     0.169 C 
BRANCH  11  12
HETATM   12  S1  UNL     1       8.719   2.405  22.973  1.00  0.00     0.088 S 
HETATM   13  O2  UNL     1       8.864   0.890  22.940  1.00  0.00    -0.238 OA
HETATM   14  S2  UNL     1       8.363   2.800  24.602  1.00  0.00     0.029 SA
BRANCH  12  15
HETATM   15  N2  UNL     1      10.204   3.077  22.473  1.00  0.00    -0.351 N 
ATOM     16  H22 UNL     1      10.273   3.791  21.749  1.00  0.00     0.166 HD
ATOM     17  H21 UNL     1      11.001   2.686  22.976  1.00  0.00     0.166 HD
ENDBRANCH  12  15
ENDBRANCH  11  12
ENDBRANCH   6  11
TORSDOF 4
ENDMDL
