MODEL 1
REMARK VINA RESULT: -6.030280231      0.000      0.000
REMARK  4 active torsions:
REMARK  status: ('A' for Active; 'I' for Inactive)
REMARK    1  A    between atoms: N1_1  and  N2_4 
REMARK    2  A    between atoms: N2_4  and  N3_5 
REMARK    3  A    between atoms: N4_8  and  C3_9 
REMARK    4  A    between atoms: N6_16  and  O1_17 
ROOT
HETATM    1  N3  UNL     1       9.241   2.668  23.354  1.00  0.00    -0.309 N 
HETATM    2  C1  UNL     1       7.839   2.779  23.204  1.00  0.00     0.160 C 
HETATM    3  C2  UNL     1       7.552   3.327  21.803  1.00  0.00     0.162 C 
HETATM    4  N4  UNL     1       8.285   2.467  20.848  1.00  0.00    -0.212 N 
HETATM    5  C7  UNL     1       9.714   2.312  21.036  1.00  0.00     0.162 C 
HETATM    6  C8  UNL     1      10.058   3.112  22.309  1.00  0.00     0.160 C 
ENDROOT
BRANCH   4   7
HETATM    7  C3  UNL     1       7.528   1.860  19.819  1.00  0.00     0.706 A 
HETATM    8  N5  UNL     1       7.517   2.387  18.562  1.00  0.00    -0.198 N 
HETATM    9  C4  UNL     1       6.814   1.845  17.556  1.00  0.00     0.131 A 
ATOM     10  H5  UNL     1       8.064   3.228  18.379  1.00  0.00     0.183 HD
HETATM   11  C5  UNL     1       6.072   0.711  17.802  1.00  0.00     0.068 A 
HETATM   12 CL1  UNL     1       5.140  -0.022  16.497  1.00  0.00    -0.081 Cl
HETATM   13  C6  UNL     1       6.096   0.197  19.065  1.00  0.00     0.167 A 
HETATM   14  N6  UNL     1       6.817   0.762  20.076  1.00  0.00    -0.062 N 
BRANCH  14  15
HETATM   15  O1  UNL     1       6.780   0.167  21.338  1.00  0.00    -0.270 OA
ATOM     16  H1  UNL     1       6.303   0.543  22.069  1.00  0.00     0.245 HD
ENDBRANCH  14  15
ENDBRANCH   4   7
BRANCH   1  17
HETATM   17  N2  UNL     1       9.738   2.700  24.625  1.00  0.00    -0.032 NA
BRANCH  17  18
HETATM   18  N1  UNL     1       8.670   2.718  25.532  1.00  0.00    -0.329 N 
ATOM     19  H12 UNL     1       7.715   2.433  25.311  1.00  0.00     0.174 HD
ATOM     20  H11 UNL     1       9.005   3.059  26.433  1.00  0.00     0.174 HD
ENDBRANCH  17  18
ENDBRANCH   1  17
TORSDOF 4
ENDMDL
MODEL 2
REMARK VINA RESULT: -6.025857565      1.239      1.778
REMARK  4 active torsions:
REMARK  status: ('A' for Active; 'I' for Inactive)
REMARK    1  A    between atoms: N1_1  and  N2_4 
REMARK    2  A    between atoms: N2_4  and  N3_5 
REMARK    3  A    between atoms: N4_8  and  C3_9 
REMARK    4  A    between atoms: N6_16  and  O1_17 
ROOT
HETATM    1  N3  UNL     1       9.006   2.548  23.395  1.00  0.00    -0.309 N 
HETATM    2  C1  UNL     1       7.655   2.871  23.132  1.00  0.00     0.160 C 
HETATM    3  C2  UNL     1       7.525   3.195  21.640  1.00  0.00     0.162 C 
HETATM    4  N4  UNL     1       8.123   2.061  20.902  1.00  0.00    -0.212 N 
HETATM    5  C7  UNL     1       9.492   1.697  21.213  1.00  0.00     0.162 C 
HETATM    6  C8  UNL     1       9.929   2.644  22.349  1.00  0.00     0.160 C 
ENDROOT
BRANCH   4   7
HETATM    7  C3  UNL     1       7.307   1.417  19.943  1.00  0.00     0.706 A 
HETATM    8  N5  UNL     1       6.499   0.380  20.303  1.00  0.00    -0.198 N 
HETATM    9  C4  UNL     1       5.709  -0.260  19.428  1.00  0.00     0.131 A 
ATOM     10  H5  UNL     1       6.495   0.078  21.277  1.00  0.00     0.183 HD
HETATM   11  C5  UNL     1       5.714   0.146  18.111  1.00  0.00     0.068 A 
HETATM   12 CL1  UNL     1       4.684  -0.678  16.941  1.00  0.00    -0.081 Cl
HETATM   13  C6  UNL     1       6.528   1.185  17.770  1.00  0.00     0.167 A 
HETATM   14  N6  UNL     1       7.325   1.825  18.674  1.00  0.00    -0.062 N 
BRANCH  14  15
HETATM   15  O1  UNL     1       8.126   2.878  18.232  1.00  0.00    -0.270 OA
ATOM     16  H1  UNL     1       9.071   2.881  18.332  1.00  0.00     0.245 HD
ENDBRANCH  14  15
ENDBRANCH   4   7
BRANCH   1  17
HETATM   17  N2  UNL     1       9.453   2.725  24.673  1.00  0.00    -0.032 NA
BRANCH  17  18
HETATM   18  N1  UNL     1      10.853   2.805  24.660  1.00  0.00    -0.329 N 
ATOM     19  H12 UNL     1      11.455   2.340  23.980  1.00  0.00     0.174 HD
ATOM     20  H11 UNL     1      11.159   3.397  25.432  1.00  0.00     0.174 HD
ENDBRANCH  17  18
ENDBRANCH   1  17
TORSDOF 4
ENDMDL
MODEL 3
REMARK VINA RESULT: -5.868901786      3.040      4.335
REMARK  4 active torsions:
REMARK  status: ('A' for Active; 'I' for Inactive)
REMARK    1  A    between atoms: N1_1  and  N2_4 
REMARK    2  A    between atoms: N2_4  and  N3_5 
REMARK    3  A    between atoms: N4_8  and  C3_9 
REMARK    4  A    between atoms: N6_16  and  O1_17 
ROOT
HETATM    1  N3  UNL     1       8.024   0.796  27.051  1.00  0.00    -0.309 N 
HETATM    2  C1  UNL     1       7.112   0.255  26.115  1.00  0.00     0.160 C 
HETATM    3  C2  UNL     1       6.583   1.402  25.248  1.00  0.00     0.162 C 
HETATM    4  N4  UNL     1       7.764   2.125  24.728  1.00  0.00    -0.212 N 
HETATM    5  C7  UNL     1       8.725   2.631  25.688  1.00  0.00     0.162 C 
HETATM    6  C8  UNL     1       8.212   2.181  27.071  1.00  0.00     0.160 C 
ENDROOT
BRANCH   4   7
HETATM    7  C3  UNL     1       7.863   2.267  23.324  1.00  0.00     0.706 A 
HETATM    8  N5  UNL     1       8.349   1.252  22.555  1.00  0.00    -0.198 N 
HETATM    9  C4  UNL     1       8.460   1.342  21.222  1.00  0.00     0.131 A 
ATOM     10  H5  UNL     1       8.640   0.388  23.013  1.00  0.00     0.183 HD
HETATM   11  C5  UNL     1       8.069   2.509  20.602  1.00  0.00     0.068 A 
HETATM   12 CL1  UNL     1       8.204   2.654  18.850  1.00  0.00    -0.081 Cl
HETATM   13  C6  UNL     1       7.584   3.513  21.387  1.00  0.00     0.167 A 
HETATM   14  N6  UNL     1       7.478   3.403  22.742  1.00  0.00    -0.062 N 
BRANCH  14  15
HETATM   15  O1  UNL     1       6.971   4.485  23.464  1.00  0.00    -0.270 OA
ATOM     16  H1  UNL     1       6.636   4.400  24.349  1.00  0.00     0.245 HD
ENDBRANCH  14  15
ENDBRANCH   4   7
BRANCH   1  17
HETATM   17  N2  UNL     1       8.218   0.098  28.208  1.00  0.00    -0.032 NA
BRANCH  17  18
HETATM   18  N1  UNL     1       7.156  -0.800  28.384  1.00  0.00    -0.329 N 
ATOM     19  H12 UNL     1       6.496  -1.069  27.654  1.00  0.00     0.174 HD
ATOM     20  H11 UNL     1       7.157  -1.131  29.348  1.00  0.00     0.174 HD
ENDBRANCH  17  18
ENDBRANCH   1  17
TORSDOF 4
ENDMDL
MODEL 4
REMARK VINA RESULT: -5.804107896      1.819      2.583
REMARK  4 active torsions:
REMARK  status: ('A' for Active; 'I' for Inactive)
REMARK    1  A    between atoms: N1_1  and  N2_4 
REMARK    2  A    between atoms: N2_4  and  N3_5 
REMARK    3  A    between atoms: N4_8  and  C3_9 
REMARK    4  A    between atoms: N6_16  and  O1_17 
ROOT
HETATM    1  N3  UNL     1       9.317   3.342  21.931  1.00  0.00    -0.309 N 
HETATM    2  C1  UNL     1       9.678   2.050  21.482  1.00  0.00     0.160 C 
HETATM    3  C2  UNL     1       8.427   1.167  21.519  1.00  0.00     0.162 C 
HETATM    4  N4  UNL     1       7.371   1.889  20.776  1.00  0.00    -0.212 N 
HETATM    5  C7  UNL     1       7.041   3.234  21.205  1.00  0.00     0.162 C 
HETATM    6  C8  UNL     1       8.005   3.552  22.366  1.00  0.00     0.160 C 
ENDROOT
BRANCH   4   7
HETATM    7  C3  UNL     1       6.761   1.205  19.699  1.00  0.00     0.706 A 
HETATM    8  N5  UNL     1       5.935   0.145  19.927  1.00  0.00    -0.198 N 
HETATM    9  C4  UNL     1       5.336  -0.533  18.937  1.00  0.00     0.131 A 
ATOM     10  H5  UNL     1       5.767  -0.146  20.890  1.00  0.00     0.183 HD
HETATM   11  C5  UNL     1       5.565  -0.144  17.635  1.00  0.00     0.068 A 
HETATM   12 CL1  UNL     1       4.789  -1.017  16.315  1.00  0.00    -0.081 Cl
HETATM   13  C6  UNL     1       6.393   0.919  17.426  1.00  0.00     0.167 A 
HETATM   14  N6  UNL     1       6.994   1.597  18.446  1.00  0.00    -0.062 N 
BRANCH  14  15
HETATM   15  O1  UNL     1       7.827   2.672  18.135  1.00  0.00    -0.270 OA
ATOM     16  H1  UNL     1       8.736   2.712  18.407  1.00  0.00     0.245 HD
ENDBRANCH  14  15
ENDBRANCH   4   7
BRANCH   1  17
HETATM   17  N2  UNL     1      10.308   4.119  22.458  1.00  0.00    -0.032 NA
BRANCH  17  18
HETATM   18  N1  UNL     1      10.451   5.271  21.672  1.00  0.00    -0.329 N 
ATOM     19  H12 UNL     1      11.223   5.934  21.748  1.00  0.00     0.174 HD
ATOM     20  H11 UNL     1       9.666   5.331  21.025  1.00  0.00     0.174 HD
ENDBRANCH  17  18
ENDBRANCH   1  17
TORSDOF 4
ENDMDL
MODEL 5
REMARK VINA RESULT: -5.770263914      2.327      3.342
REMARK  4 active torsions:
REMARK  status: ('A' for Active; 'I' for Inactive)
REMARK    1  A    between atoms: N1_1  and  N2_4 
REMARK    2  A    between atoms: N2_4  and  N3_5 
REMARK    3  A    between atoms: N4_8  and  C3_9 
REMARK    4  A    between atoms: N6_16  and  O1_17 
ROOT
HETATM    1  N3  UNL     1       6.780   2.431  25.921  1.00  0.00    -0.309 N 
HETATM    2  C1  UNL     1       7.480   3.455  25.242  1.00  0.00     0.160 C 
HETATM    3  C2  UNL     1       8.490   2.796  24.297  1.00  0.00     0.162 C 
HETATM    4  N4  UNL     1       7.739   1.813  23.486  1.00  0.00    -0.212 N 
HETATM    5  C7  UNL     1       6.979   0.796  24.187  1.00  0.00     0.162 C 
HETATM    6  C8  UNL     1       7.153   1.104  25.688  1.00  0.00     0.160 C 
ENDROOT
BRANCH   4   7
HETATM    7  C3  UNL     1       7.824   1.942  22.080  1.00  0.00     0.706 A 
HETATM    8  N5  UNL     1       7.079   2.875  21.422  1.00  0.00    -0.198 N 
HETATM    9  C4  UNL     1       7.127   3.033  20.091  1.00  0.00     0.131 A 
ATOM     10  H5  UNL     1       6.459   3.477  21.964  1.00  0.00     0.183 HD
HETATM   11  C5  UNL     1       7.963   2.219  19.357  1.00  0.00     0.068 A 
HETATM   12 CL1  UNL     1       8.045   2.406  17.607  1.00  0.00    -0.081 Cl
HETATM   13  C6  UNL     1       8.701   1.292  20.033  1.00  0.00     0.167 A 
HETATM   14  N6  UNL     1       8.639   1.146  21.388  1.00  0.00    -0.062 N 
BRANCH  14  15
HETATM   15  O1  UNL     1       9.431   0.169  21.992  1.00  0.00    -0.270 OA
ATOM     16  H1  UNL     1       9.208  -0.755  21.975  1.00  0.00     0.245 HD
ENDBRANCH  14  15
ENDBRANCH   4   7
BRANCH   1  17
HETATM   17  N2  UNL     1       6.228   2.748  27.129  1.00  0.00    -0.032 NA
BRANCH  17  18
HETATM   18  N1  UNL     1       4.833   2.786  26.997  1.00  0.00    -0.329 N 
ATOM     19  H12 UNL     1       4.334   2.837  26.109  1.00  0.00     0.174 HD
ATOM     20  H11 UNL     1       4.411   2.753  27.925  1.00  0.00     0.174 HD
ENDBRANCH  17  18
ENDBRANCH   1  17
TORSDOF 4
ENDMDL
