MODEL 1
REMARK VINA RESULT: -6.380858357      0.000      0.000
REMARK  5 active torsions:
REMARK  status: ('A' for Active; 'I' for Inactive)
REMARK    1  A    between atoms: C3_5  and  N2_6 
REMARK    2  A    between atoms: N2_6  and  N3_8 
REMARK    3  A    between atoms: C6_15  and  C7_16 
REMARK    4  A    between atoms: C8_17  and  O1_18 
REMARK    5  A    between atoms: C8_17  and  O2_20 
ROOT
HETATM    1  C1  UNL     1       7.947   2.966  18.201  1.00  0.00     0.044 C 
HETATM    2  C2  UNL     1       7.451   2.003  18.933  1.00  0.00     0.053 A 
HETATM    3  N1  UNL     1       6.589   1.122  18.337  1.00  0.00    -0.190 N 
ATOM      4  H1  UNL     1       6.377   1.254  17.348  1.00  0.00     0.184 HD
HETATM    5  C3  UNL     1       6.013   0.107  18.968  1.00  0.00     0.699 A 
HETATM    6  N4  UNL     1       6.308  -0.040  20.255  1.00  0.00    -0.179 N 
ATOM      7  H4  UNL     1       5.883  -0.809  20.772  1.00  0.00     0.185 HD
HETATM    8  C5  UNL     1       7.163   0.804  20.912  1.00  0.00     0.132 A 
HETATM    9 CL1  UNL     1       7.428   0.473  22.605  1.00  0.00    -0.063 Cl
HETATM   10  C6  UNL     1       7.777   1.862  20.296  1.00  0.00     0.034 A 
ENDROOT
BRANCH  10  11
HETATM   11  C7  UNL     1       8.609   2.713  20.835  1.00  0.00     0.080 C 
HETATM   12  C8  UNL     1       8.633   3.583  21.946  1.00  0.00     0.178 C 
BRANCH  12  13
HETATM   13  O1  UNL     1       9.769   4.289  22.078  1.00  0.00    -0.341 OA
ATOM     14  H1  UNL     1       9.802   4.844  22.848  1.00  0.00     0.220 HD
ENDBRANCH  12  13
BRANCH  12  15
HETATM   15  O2  UNL     1       7.788   3.906  22.950  1.00  0.00    -0.336 OA
HETATM   16  C9  UNL     1       7.788   3.326  24.240  1.00  0.00     0.212 C 
ENDBRANCH  12  15
ENDBRANCH  10  11
BRANCH   5  17
HETATM   17  N2  UNL     1       5.141  -0.794  18.289  1.00  0.00    -0.135 N 
HETATM   18  C4  UNL     1       4.451  -1.819  19.019  1.00  0.00     0.197 C 
BRANCH  17  19
HETATM   19  N3  UNL     1       4.956  -0.697  16.912  1.00  0.00    -0.329 N 
ATOM     20  H32 UNL     1       5.763  -0.781  16.293  1.00  0.00     0.177 HD
ATOM     21  H31 UNL     1       4.026  -0.536  16.524  1.00  0.00     0.177 HD
ENDBRANCH  17  19
ENDBRANCH   5  17
TORSDOF 5
ENDMDL
MODEL 2
REMARK VINA RESULT: -5.744370960      1.558      2.322
REMARK  5 active torsions:
REMARK  status: ('A' for Active; 'I' for Inactive)
REMARK    1  A    between atoms: C3_5  and  N2_6 
REMARK    2  A    between atoms: N2_6  and  N3_8 
REMARK    3  A    between atoms: C6_15  and  C7_16 
REMARK    4  A    between atoms: C8_17  and  O1_18 
REMARK    5  A    between atoms: C8_17  and  O2_20 
ROOT
HETATM    1  C1  UNL     1       7.663   0.500  22.402  1.00  0.00     0.044 C 
HETATM    2  C2  UNL     1       7.370   0.735  21.149  1.00  0.00     0.053 A 
HETATM    3  N1  UNL     1       6.466  -0.089  20.535  1.00  0.00    -0.190 N 
ATOM      4  H1  UNL     1       6.057  -0.845  21.084  1.00  0.00     0.184 HD
HETATM    5  C3  UNL     1       6.088   0.037  19.271  1.00  0.00     0.699 A 
HETATM    6  N4  UNL     1       6.637   1.032  18.581  1.00  0.00    -0.179 N 
ATOM      7  H4  UNL     1       6.371   1.158  17.604  1.00  0.00     0.185 HD
HETATM    8  C5  UNL     1       7.546   1.893  19.133  1.00  0.00     0.132 A 
HETATM    9 CL1  UNL     1       8.176   3.134  18.081  1.00  0.00    -0.063 Cl
HETATM   10  C6  UNL     1       7.961   1.796  20.435  1.00  0.00     0.034 A 
ENDROOT
BRANCH  10  11
HETATM   11  C7  UNL     1       8.814   2.571  21.050  1.00  0.00     0.080 C 
HETATM   12  C8  UNL     1       8.802   3.481  22.128  1.00  0.00     0.178 C 
BRANCH  12  13
HETATM   13  O1  UNL     1       9.988   4.060  22.384  1.00  0.00    -0.341 OA
ATOM     14  H1  UNL     1      10.079   4.942  22.044  1.00  0.00     0.220 HD
ENDBRANCH  12  13
BRANCH  12  15
HETATM   15  O2  UNL     1       7.883   3.943  23.005  1.00  0.00    -0.336 OA
HETATM   16  C9  UNL     1       7.699   3.468  24.325  1.00  0.00     0.212 C 
ENDBRANCH  12  15
ENDBRANCH  10  11
BRANCH   5  17
HETATM   17  N2  UNL     1       5.123  -0.837  18.690  1.00  0.00    -0.135 N 
HETATM   18  C4  UNL     1       4.852  -0.781  17.281  1.00  0.00     0.197 C 
BRANCH  17  19
HETATM   19  N3  UNL     1       4.426  -1.747  19.482  1.00  0.00    -0.329 N 
ATOM     20  H32 UNL     1       4.811  -2.017  20.387  1.00  0.00     0.177 HD
ATOM     21  H31 UNL     1       3.544  -2.145  19.159  1.00  0.00     0.177 HD
ENDBRANCH  17  19
ENDBRANCH   5  17
TORSDOF 5
ENDMDL
MODEL 3
REMARK VINA RESULT: -5.371525976      3.405      5.148
REMARK  5 active torsions:
REMARK  status: ('A' for Active; 'I' for Inactive)
REMARK    1  A    between atoms: C3_5  and  N2_6 
REMARK    2  A    between atoms: N2_6  and  N3_8 
REMARK    3  A    between atoms: C6_15  and  C7_16 
REMARK    4  A    between atoms: C8_17  and  O1_18 
REMARK    5  A    between atoms: C8_17  and  O2_20 
ROOT
HETATM    1  C1  UNL     1       9.061   3.815  20.617  1.00  0.00     0.044 C 
HETATM    2  C2  UNL     1       8.378   2.774  21.017  1.00  0.00     0.053 A 
HETATM    3  N1  UNL     1       8.254   2.566  22.364  1.00  0.00    -0.190 N 
ATOM      4  H1  UNL     1       8.695   3.235  22.995  1.00  0.00     0.184 HD
HETATM    5  C3  UNL     1       7.595   1.548  22.898  1.00  0.00     0.699 A 
HETATM    6  N4  UNL     1       7.030   0.692  22.052  1.00  0.00    -0.179 N 
ATOM      7  H4  UNL     1       6.516  -0.104  22.429  1.00  0.00     0.185 HD
HETATM    8  C5  UNL     1       7.115   0.841  20.694  1.00  0.00     0.132 A 
HETATM    9 CL1  UNL     1       6.326  -0.381  19.731  1.00  0.00    -0.063 Cl
HETATM   10  C6  UNL     1       7.785   1.879  20.104  1.00  0.00     0.034 A 
ENDROOT
BRANCH  10  11
HETATM   11  C7  UNL     1       7.914   2.109  18.824  1.00  0.00     0.080 C 
HETATM   12  C8  UNL     1       7.118   2.002  17.664  1.00  0.00     0.178 C 
BRANCH  12  13
HETATM   13  O1  UNL     1       7.735   2.372  16.528  1.00  0.00    -0.341 OA
ATOM     14  H1  UNL     1       7.760   3.309  16.379  1.00  0.00     0.220 HD
ENDBRANCH  12  13
BRANCH  12  15
HETATM   15  O2  UNL     1       5.855   1.615  17.379  1.00  0.00    -0.336 OA
HETATM   16  C9  UNL     1       5.496   0.437  16.684  1.00  0.00     0.212 C 
ENDBRANCH  12  15
ENDBRANCH  10  11
BRANCH   5  17
HETATM   17  N2  UNL     1       7.478   1.395  24.311  1.00  0.00    -0.135 N 
HETATM   18  C4  UNL     1       6.756   0.281  24.861  1.00  0.00     0.197 C 
BRANCH  17  19
HETATM   19  N3  UNL     1       8.052   2.325  25.174  1.00  0.00    -0.329 N 
ATOM     20  H32 UNL     1       7.452   2.994  25.657  1.00  0.00     0.177 HD
ATOM     21  H31 UNL     1       9.062   2.346  25.316  1.00  0.00     0.177 HD
ENDBRANCH  17  19
ENDBRANCH   5  17
TORSDOF 5
ENDMDL
MODEL 4
REMARK VINA RESULT: -5.321390157      4.476      6.159
REMARK  5 active torsions:
REMARK  status: ('A' for Active; 'I' for Inactive)
REMARK    1  A    between atoms: C3_5  and  N2_6 
REMARK    2  A    between atoms: N2_6  and  N3_8 
REMARK    3  A    between atoms: C6_15  and  C7_16 
REMARK    4  A    between atoms: C8_17  and  O1_18 
REMARK    5  A    between atoms: C8_17  and  O2_20 
ROOT
HETATM    1  C1  UNL     1       6.708   0.291  25.110  1.00  0.00     0.044 C 
HETATM    2  C2  UNL     1       7.087   1.460  24.665  1.00  0.00     0.053 A 
HETATM    3  N1  UNL     1       7.913   1.496  23.574  1.00  0.00    -0.190 N 
ATOM      4  H1  UNL     1       8.192   0.609  23.155  1.00  0.00     0.184 HD
HETATM    5  C3  UNL     1       8.374   2.614  23.030  1.00  0.00     0.699 A 
HETATM    6  N4  UNL     1       7.995   3.754  23.597  1.00  0.00    -0.179 N 
ATOM      7  H4  UNL     1       8.331   4.633  23.206  1.00  0.00     0.185 HD
HETATM    8  C5  UNL     1       7.169   3.790  24.689  1.00  0.00     0.132 A 
HETATM    9 CL1  UNL     1       6.782   5.372  25.314  1.00  0.00    -0.063 Cl
HETATM   10  C6  UNL     1       6.673   2.659  25.279  1.00  0.00     0.034 A 
ENDROOT
BRANCH  10  11
HETATM   11  C7  UNL     1       5.877   2.593  26.313  1.00  0.00     0.080 C 
HETATM   12  C8  UNL     1       4.611   3.094  26.684  1.00  0.00     0.178 C 
BRANCH  12  13
HETATM   13  O1  UNL     1       4.207   2.734  27.915  1.00  0.00    -0.341 OA
ATOM     14  H1  UNL     1       3.889   3.451  28.452  1.00  0.00     0.220 HD
ENDBRANCH  12  13
BRANCH  12  15
HETATM   15  O2  UNL     1       3.661   3.866  26.111  1.00  0.00    -0.336 OA
HETATM   16  C9  UNL     1       2.879   4.835  26.781  1.00  0.00     0.212 C 
ENDBRANCH  12  15
ENDBRANCH  10  11
BRANCH   5  17
HETATM   17  N2  UNL     1       9.214   2.590  21.878  1.00  0.00    -0.135 N 
HETATM   18  C4  UNL     1       8.972   1.643  20.826  1.00  0.00     0.197 C 
BRANCH  17  19
HETATM   19  N3  UNL     1      10.282   3.477  21.763  1.00  0.00    -0.329 N 
ATOM     20  H32 UNL     1      10.750   3.806  22.607  1.00  0.00     0.177 HD
ATOM     21  H31 UNL     1      10.589   3.801  20.846  1.00  0.00     0.177 HD
ENDBRANCH  17  19
ENDBRANCH   5  17
TORSDOF 5
ENDMDL
MODEL 5
REMARK VINA RESULT: -5.306369045      2.057      2.787
REMARK  5 active torsions:
REMARK  status: ('A' for Active; 'I' for Inactive)
REMARK    1  A    between atoms: C3_5  and  N2_6 
REMARK    2  A    between atoms: N2_6  and  N3_8 
REMARK    3  A    between atoms: C6_15  and  C7_16 
REMARK    4  A    between atoms: C8_17  and  O1_18 
REMARK    5  A    between atoms: C8_17  and  O2_20 
ROOT
HETATM    1  C1  UNL     1      10.128   3.314  21.246  1.00  0.00     0.044 C 
HETATM    2  C2  UNL     1       9.144   2.460  21.351  1.00  0.00     0.053 A 
HETATM    3  N1  UNL     1       8.451   2.136  20.216  1.00  0.00    -0.190 N 
ATOM      4  H1  UNL     1       8.737   2.571  19.339  1.00  0.00     0.184 HD
HETATM    5  C3  UNL     1       7.430   1.290  20.187  1.00  0.00     0.699 A 
HETATM    6  N4  UNL     1       7.080   0.738  21.344  1.00  0.00    -0.179 N 
ATOM      7  H4  UNL     1       6.298   0.083  21.360  1.00  0.00     0.185 HD
HETATM    8  C5  UNL     1       7.731   1.017  22.516  1.00  0.00     0.132 A 
HETATM    9 CL1  UNL     1       7.132   0.213  23.944  1.00  0.00    -0.063 Cl
HETATM   10  C6  UNL     1       8.789   1.883  22.586  1.00  0.00     0.034 A 
ENDROOT
BRANCH  10  11
HETATM   11  C7  UNL     1       9.475   2.205  23.651  1.00  0.00     0.080 C 
HETATM   12  C8  UNL     1       9.229   2.807  24.903  1.00  0.00     0.178 C 
BRANCH  12  13
HETATM   13  O1  UNL     1      10.314   2.929  25.687  1.00  0.00    -0.341 OA
ATOM     14  H1  UNL     1      10.142   2.839  26.617  1.00  0.00     0.220 HD
ENDBRANCH  12  13
BRANCH  12  15
HETATM   15  O2  UNL     1       8.154   3.311  25.549  1.00  0.00    -0.336 OA
HETATM   16  C9  UNL     1       7.166   4.142  24.971  1.00  0.00     0.212 C 
ENDBRANCH  12  15
ENDBRANCH  10  11
BRANCH   5  17
HETATM   17  N2  UNL     1       6.760   0.972  18.970  1.00  0.00    -0.135 N 
HETATM   18  C4  UNL     1       6.923   1.809  17.815  1.00  0.00     0.197 C 
BRANCH  17  19
HETATM   19  N3  UNL     1       5.933  -0.146  18.888  1.00  0.00    -0.329 N 
ATOM     20  H32 UNL     1       4.922  -0.016  18.841  1.00  0.00     0.177 HD
ATOM     21  H31 UNL     1       6.331  -1.086  18.882  1.00  0.00     0.177 HD
ENDBRANCH  17  19
ENDBRANCH   5  17
TORSDOF 5
ENDMDL
