MODEL 1
REMARK VINA RESULT: -5.583696868      0.000      0.000
REMARK  14 active torsions:
REMARK  status: ('A' for Active; 'I' for Inactive)
REMARK    1  A    between atoms: C2_2  and  C3_3 
REMARK    2  A    between atoms: C3_3  and  C4_4 
REMARK    3  A    between atoms: C4_4  and  C5_5 
REMARK    4  A    between atoms: C5_5  and  C6_6 
REMARK    5  A    between atoms: C6_6  and  C7_7 
REMARK    6  A    between atoms: C7_7  and  C8_8 
REMARK    7  A    between atoms: C8_8  and  C9_9 
REMARK    8  A    between atoms: C9_9  and  C10_10 
REMARK    9  A    between atoms: C10_10  and  N1_11 
REMARK   10  A    between atoms: N1_11  and  C11_13 
REMARK   11  A    between atoms: C11_13  and  C12_14 
REMARK   12  A    between atoms: C12_14  and  N2_15 
REMARK   13  A    between atoms: N2_15  and  C13_17 
REMARK   14  A    between atoms: C13_17  and  C14_18 
ROOT
HETATM    1  C10 UNL     1       4.139   0.512   6.854  1.00  0.00     0.129 C 
ENDROOT
BRANCH   1   2
HETATM    2  C9  UNL     1       5.271   0.887   5.885  1.00  0.00     0.020 C 
BRANCH   2   3
HETATM    3  C8  UNL     1       4.695   1.236   4.535  1.00  0.00     0.002 C 
BRANCH   3   4
HETATM    4  C7  UNL     1       4.871   0.056   3.609  1.00  0.00     0.000 C 
BRANCH   4   5
HETATM    5  C6  UNL     1       6.121  -0.719   3.857  1.00  0.00     0.000 C 
BRANCH   5   6
HETATM    6  C5  UNL     1       7.105  -0.508   2.738  1.00  0.00     0.000 C 
BRANCH   6   7
HETATM    7  C4  UNL     1       8.105   0.521   3.125  1.00  0.00     0.004 C 
BRANCH   7   8
HETATM    8  C3  UNL     1       9.457   0.173   2.539  1.00  0.00     0.026 C 
BRANCH   8   9
HETATM    9  C2  UNL     1       9.259  -0.588   1.297  1.00  0.00    -0.037 C 
HETATM   10  C1  UNL     1       9.749  -0.124   0.163  1.00  0.00     0.007 C 
ENDBRANCH   8   9
ENDBRANCH   7   8
ENDBRANCH   6   7
ENDBRANCH   5   6
ENDBRANCH   4   5
ENDBRANCH   3   4
ENDBRANCH   2   3
ENDBRANCH   1   2
BRANCH   1  11
HETATM   11  N1  UNL     1       4.753  -0.313   7.861  1.00  0.00    -0.356 N 
ATOM     12  H1  UNL     1       5.597  -0.848   7.655  1.00  0.00     0.169 HD
BRANCH  11  13
HETATM   13  C11 UNL     1       4.210  -0.359   9.030  1.00  0.00    -0.029 C 
BRANCH  13  14
HETATM   14  C12 UNL     1       3.439  -0.337  10.079  1.00  0.00     0.159 C 
BRANCH  14  15
HETATM   15  N2  UNL     1       2.368  -1.228  10.172  1.00  0.00    -0.388 N 
ATOM     16  H2  UNL     1       2.159  -1.680  11.061  1.00  0.00     0.159 HD
BRANCH  15  17
HETATM   17  C13 UNL     1       1.554  -1.511   9.013  1.00  0.00     0.146 C 
BRANCH  17  18
HETATM   18  C14 UNL     1       0.573  -0.416   8.896  1.00  0.00    -0.018 C 
HETATM   19  C15 UNL     1       0.591   0.394   7.862  1.00  0.00     0.008 C 
ENDBRANCH  17  18
ENDBRANCH  15  17
ENDBRANCH  14  15
ENDBRANCH  13  14
ENDBRANCH  11  13
ENDBRANCH   1  11
TORSDOF 14
ENDMDL
MODEL 2
REMARK VINA RESULT: -5.490910145      1.020      1.528
REMARK  14 active torsions:
REMARK  status: ('A' for Active; 'I' for Inactive)
REMARK    1  A    between atoms: C2_2  and  C3_3 
REMARK    2  A    between atoms: C3_3  and  C4_4 
REMARK    3  A    between atoms: C4_4  and  C5_5 
REMARK    4  A    between atoms: C5_5  and  C6_6 
REMARK    5  A    between atoms: C6_6  and  C7_7 
REMARK    6  A    between atoms: C7_7  and  C8_8 
REMARK    7  A    between atoms: C8_8  and  C9_9 
REMARK    8  A    between atoms: C9_9  and  C10_10 
REMARK    9  A    between atoms: C10_10  and  N1_11 
REMARK   10  A    between atoms: N1_11  and  C11_13 
REMARK   11  A    between atoms: C11_13  and  C12_14 
REMARK   12  A    between atoms: C12_14  and  N2_15 
REMARK   13  A    between atoms: N2_15  and  C13_17 
REMARK   14  A    between atoms: C13_17  and  C14_18 
ROOT
HETATM    1  C10 UNL     1       5.775  -0.213   6.569  1.00  0.00     0.129 C 
ENDROOT
BRANCH   1   2
HETATM    2  C9  UNL     1       5.877  -1.318   5.505  1.00  0.00     0.020 C 
BRANCH   2   3
HETATM    3  C8  UNL     1       4.925  -1.026   4.372  1.00  0.00     0.002 C 
BRANCH   3   4
HETATM    4  C7  UNL     1       5.561  -0.014   3.449  1.00  0.00     0.000 C 
BRANCH   4   5
HETATM    5  C6  UNL     1       6.908  -0.416   2.954  1.00  0.00     0.000 C 
BRANCH   5   6
HETATM    6  C5  UNL     1       7.905   0.690   3.174  1.00  0.00     0.000 C 
BRANCH   6   7
HETATM    7  C4  UNL     1       9.205   0.338   2.547  1.00  0.00     0.004 C 
BRANCH   7   8
HETATM    8  C3  UNL     1       8.994  -0.702   1.468  1.00  0.00     0.026 C 
BRANCH   8   9
HETATM    9  C2  UNL     1       9.649  -0.251   0.233  1.00  0.00    -0.037 C 
HETATM   10  C1  UNL     1       9.965   1.021   0.090  1.00  0.00     0.007 C 
ENDBRANCH   8   9
ENDBRANCH   7   8
ENDBRANCH   6   7
ENDBRANCH   5   6
ENDBRANCH   4   5
ENDBRANCH   3   4
ENDBRANCH   2   3
ENDBRANCH   1   2
BRANCH   1  11
HETATM   11  N1  UNL     1       4.386  -0.172   6.946  1.00  0.00    -0.356 N 
ATOM     12  H1  UNL     1       3.651  -0.183   6.238  1.00  0.00     0.169 HD
BRANCH  11  13
HETATM   13  C11 UNL     1       4.094  -0.118   8.201  1.00  0.00    -0.029 C 
BRANCH  13  14
HETATM   14  C12 UNL     1       3.764  -0.328   9.443  1.00  0.00     0.159 C 
BRANCH  14  15
HETATM   15  N2  UNL     1       2.515   0.088   9.908  1.00  0.00    -0.388 N 
ATOM     16  H2  UNL     1       2.246  -0.097  10.874  1.00  0.00     0.159 HD
BRANCH  15  17
HETATM   17  C13 UNL     1       1.602   0.778   9.027  1.00  0.00     0.146 C 
BRANCH  17  18
HETATM   18  C14 UNL     1       0.452  -0.119   8.808  1.00  0.00    -0.018 C 
HETATM   19  C15 UNL     1       0.016  -0.898   9.771  1.00  0.00     0.008 C 
ENDBRANCH  17  18
ENDBRANCH  15  17
ENDBRANCH  14  15
ENDBRANCH  13  14
ENDBRANCH  11  13
ENDBRANCH   1  11
TORSDOF 14
ENDMDL
MODEL 3
REMARK VINA RESULT: -5.488250830      1.521      1.885
REMARK  14 active torsions:
REMARK  status: ('A' for Active; 'I' for Inactive)
REMARK    1  A    between atoms: C2_2  and  C3_3 
REMARK    2  A    between atoms: C3_3  and  C4_4 
REMARK    3  A    between atoms: C4_4  and  C5_5 
REMARK    4  A    between atoms: C5_5  and  C6_6 
REMARK    5  A    between atoms: C6_6  and  C7_7 
REMARK    6  A    between atoms: C7_7  and  C8_8 
REMARK    7  A    between atoms: C8_8  and  C9_9 
REMARK    8  A    between atoms: C9_9  and  C10_10 
REMARK    9  A    between atoms: C10_10  and  N1_11 
REMARK   10  A    between atoms: N1_11  and  C11_13 
REMARK   11  A    between atoms: C11_13  and  C12_14 
REMARK   12  A    between atoms: C12_14  and  N2_15 
REMARK   13  A    between atoms: N2_15  and  C13_17 
REMARK   14  A    between atoms: C13_17  and  C14_18 
ROOT
HETATM    1  C10 UNL     1       4.174  -0.555   6.360  1.00  0.00     0.129 C 
ENDROOT
BRANCH   1   2
HETATM    2  C9  UNL     1       5.586  -0.146   6.805  1.00  0.00     0.020 C 
BRANCH   2   3
HETATM    3  C8  UNL     1       6.025   1.084   6.049  1.00  0.00     0.002 C 
BRANCH   3   4
HETATM    4  C7  UNL     1       5.182   1.218   4.804  1.00  0.00     0.000 C 
BRANCH   4   5
HETATM    5  C6  UNL     1       5.972   1.197   3.540  1.00  0.00     0.000 C 
BRANCH   5   6
HETATM    6  C5  UNL     1       6.283  -0.218   3.134  1.00  0.00     0.000 C 
BRANCH   6   7
HETATM    7  C4  UNL     1       7.682  -0.313   2.641  1.00  0.00     0.004 C 
BRANCH   7   8
HETATM    8  C3  UNL     1       8.460   0.917   3.057  1.00  0.00     0.026 C 
BRANCH   8   9
HETATM    9  C2  UNL     1       9.794   0.870   2.444  1.00  0.00    -0.037 C 
HETATM   10  C1  UNL     1      10.211  -0.244   1.873  1.00  0.00     0.007 C 
ENDBRANCH   8   9
ENDBRANCH   7   8
ENDBRANCH   6   7
ENDBRANCH   5   6
ENDBRANCH   4   5
ENDBRANCH   3   4
ENDBRANCH   2   3
ENDBRANCH   1   2
BRANCH   1  11
HETATM   11  N1  UNL     1       3.429  -0.749   7.577  1.00  0.00    -0.356 N 
ATOM     12  H1  UNL     1       3.338  -1.678   7.991  1.00  0.00     0.169 HD
BRANCH  11  13
HETATM   13  C11 UNL     1       2.881   0.279   8.131  1.00  0.00    -0.029 C 
BRANCH  13  14
HETATM   14  C12 UNL     1       2.565   1.345   8.806  1.00  0.00     0.159 C 
BRANCH  14  15
HETATM   15  N2  UNL     1       1.556   1.282   9.770  1.00  0.00    -0.388 N 
ATOM     16  H2  UNL     1       0.757   1.912   9.710  1.00  0.00     0.159 HD
BRANCH  15  17
HETATM   17  C13 UNL     1       1.640   0.329  10.851  1.00  0.00     0.146 C 
BRANCH  17  18
HETATM   18  C14 UNL     1       0.312  -0.300  10.976  1.00  0.00    -0.018 C 
HETATM   19  C15 UNL     1      -0.198  -0.993   9.984  1.00  0.00     0.008 C 
ENDBRANCH  17  18
ENDBRANCH  15  17
ENDBRANCH  14  15
ENDBRANCH  13  14
ENDBRANCH  11  13
ENDBRANCH   1  11
TORSDOF 14
ENDMDL
MODEL 4
REMARK VINA RESULT: -5.449663726      1.968      8.804
REMARK  14 active torsions:
REMARK  status: ('A' for Active; 'I' for Inactive)
REMARK    1  A    between atoms: C2_2  and  C3_3 
REMARK    2  A    between atoms: C3_3  and  C4_4 
REMARK    3  A    between atoms: C4_4  and  C5_5 
REMARK    4  A    between atoms: C5_5  and  C6_6 
REMARK    5  A    between atoms: C6_6  and  C7_7 
REMARK    6  A    between atoms: C7_7  and  C8_8 
REMARK    7  A    between atoms: C8_8  and  C9_9 
REMARK    8  A    between atoms: C9_9  and  C10_10 
REMARK    9  A    between atoms: C10_10  and  N1_11 
REMARK   10  A    between atoms: N1_11  and  C11_13 
REMARK   11  A    between atoms: C11_13  and  C12_14 
REMARK   12  A    between atoms: C12_14  and  N2_15 
REMARK   13  A    between atoms: N2_15  and  C13_17 
REMARK   14  A    between atoms: C13_17  and  C14_18 
ROOT
HETATM    1  C10 UNL     1       5.239   0.965   6.040  1.00  0.00     0.129 C 
ENDROOT
BRANCH   1   2
HETATM    2  C9  UNL     1       4.067   0.601   6.963  1.00  0.00     0.020 C 
BRANCH   2   3
HETATM    3  C8  UNL     1       4.418  -0.617   7.781  1.00  0.00     0.002 C 
BRANCH   3   4
HETATM    4  C7  UNL     1       3.598  -0.607   9.049  1.00  0.00     0.000 C 
BRANCH   4   5
HETATM    5  C6  UNL     1       2.722  -1.803   9.206  1.00  0.00     0.000 C 
BRANCH   5   6
HETATM    6  C5  UNL     1       1.457  -1.639   8.407  1.00  0.00     0.000 C 
BRANCH   6   7
HETATM    7  C4  UNL     1       0.706  -0.447   8.878  1.00  0.00     0.004 C 
BRANCH   7   8
HETATM    8  C3  UNL     1      -0.295  -0.852   9.938  1.00  0.00     0.026 C 
BRANCH   8   9
HETATM    9  C2  UNL     1       0.064  -0.205  11.208  1.00  0.00    -0.037 C 
HETATM   10  C1  UNL     1       0.898   0.817  11.206  1.00  0.00     0.007 C 
ENDBRANCH   8   9
ENDBRANCH   7   8
ENDBRANCH   6   7
ENDBRANCH   5   6
ENDBRANCH   4   5
ENDBRANCH   3   4
ENDBRANCH   2   3
ENDBRANCH   1   2
BRANCH   1  11
HETATM   11  N1  UNL     1       4.734   0.812   4.700  1.00  0.00    -0.356 N 
ATOM     12  H1  UNL     1       3.760   1.022   4.481  1.00  0.00     0.169 HD
BRANCH  11  13
HETATM   13  C11 UNL     1       5.544   0.403   3.783  1.00  0.00    -0.029 C 
BRANCH  13  14
HETATM   14  C12 UNL     1       6.475  -0.146   3.058  1.00  0.00     0.159 C 
BRANCH  14  15
HETATM   15  N2  UNL     1       7.812   0.200   3.266  1.00  0.00    -0.388 N 
ATOM     16  H2  UNL     1       8.350  -0.271   3.992  1.00  0.00     0.159 HD
BRANCH  15  17
HETATM   17  C13 UNL     1       8.434   1.221   2.456  1.00  0.00     0.146 C 
BRANCH  17  18
HETATM   18  C14 UNL     1       9.871   0.898   2.385  1.00  0.00    -0.018 C 
HETATM   19  C15 UNL     1      10.276  -0.270   1.944  1.00  0.00     0.008 C 
ENDBRANCH  17  18
ENDBRANCH  15  17
ENDBRANCH  14  15
ENDBRANCH  13  14
ENDBRANCH  11  13
ENDBRANCH   1  11
TORSDOF 14
ENDMDL
MODEL 5
REMARK VINA RESULT: -5.449371734      1.323      1.655
REMARK  14 active torsions:
REMARK  status: ('A' for Active; 'I' for Inactive)
REMARK    1  A    between atoms: C2_2  and  C3_3 
REMARK    2  A    between atoms: C3_3  and  C4_4 
REMARK    3  A    between atoms: C4_4  and  C5_5 
REMARK    4  A    between atoms: C5_5  and  C6_6 
REMARK    5  A    between atoms: C6_6  and  C7_7 
REMARK    6  A    between atoms: C7_7  and  C8_8 
REMARK    7  A    between atoms: C8_8  and  C9_9 
REMARK    8  A    between atoms: C9_9  and  C10_10 
REMARK    9  A    between atoms: C10_10  and  N1_11 
REMARK   10  A    between atoms: N1_11  and  C11_13 
REMARK   11  A    between atoms: C11_13  and  C12_14 
REMARK   12  A    between atoms: C12_14  and  N2_15 
REMARK   13  A    between atoms: N2_15  and  C13_17 
REMARK   14  A    between atoms: C13_17  and  C14_18 
ROOT
HETATM    1  C10 UNL     1       4.825  -0.560   6.504  1.00  0.00     0.129 C 
ENDROOT
BRANCH   1   2
HETATM    2  C9  UNL     1       4.174   0.563   5.681  1.00  0.00     0.020 C 
BRANCH   2   3
HETATM    3  C8  UNL     1       5.156   1.082   4.660  1.00  0.00     0.002 C 
BRANCH   3   4
HETATM    4  C7  UNL     1       5.131   0.176   3.453  1.00  0.00     0.000 C 
BRANCH   4   5
HETATM    5  C6  UNL     1       6.477  -0.332   3.057  1.00  0.00     0.000 C 
BRANCH   5   6
HETATM    6  C5  UNL     1       7.560   0.563   3.597  1.00  0.00     0.000 C 
BRANCH   6   7
HETATM    7  C4  UNL     1       8.315   1.182   2.478  1.00  0.00     0.004 C 
BRANCH   7   8
HETATM    8  C3  UNL     1       9.801   0.975   2.680  1.00  0.00     0.026 C 
BRANCH   8   9
HETATM    9  C2  UNL     1      10.225  -0.216   1.931  1.00  0.00    -0.037 C 
HETATM   10  C1  UNL     1       9.577  -0.562   0.835  1.00  0.00     0.007 C 
ENDBRANCH   8   9
ENDBRANCH   7   8
ENDBRANCH   6   7
ENDBRANCH   5   6
ENDBRANCH   4   5
ENDBRANCH   3   4
ENDBRANCH   2   3
ENDBRANCH   1   2
BRANCH   1  11
HETATM   11  N1  UNL     1       4.129  -0.563   7.765  1.00  0.00    -0.356 N 
ATOM     12  H1  UNL     1       4.602  -0.279   8.624  1.00  0.00     0.169 HD
BRANCH  11  13
HETATM   13  C11 UNL     1       2.893  -0.933   7.782  1.00  0.00    -0.029 C 
BRANCH  13  14
HETATM   14  C12 UNL     1       1.604  -1.064   7.900  1.00  0.00     0.159 C 
BRANCH  14  15
HETATM   15  N2  UNL     1       1.068  -1.632   9.058  1.00  0.00    -0.388 N 
ATOM     16  H2  UNL     1       1.397  -2.543   9.376  1.00  0.00     0.159 HD
BRANCH  15  17
HETATM   17  C13 UNL     1       0.048  -0.935   9.806  1.00  0.00     0.146 C 
BRANCH  17  18
HETATM   18  C14 UNL     1       0.632  -0.593  11.116  1.00  0.00    -0.018 C 
HETATM   19  C15 UNL     1       1.226   0.563  11.305  1.00  0.00     0.008 C 
ENDBRANCH  17  18
ENDBRANCH  15  17
ENDBRANCH  14  15
ENDBRANCH  13  14
ENDBRANCH  11  13
ENDBRANCH   1  11
TORSDOF 14
ENDMDL
