MODEL 1
REMARK VINA RESULT: -6.311944470      0.000      0.000
REMARK  13 active torsions:
REMARK  status: ('A' for Active; 'I' for Inactive)
REMARK    1  A    between atoms: C4_4  and  C5_5 
REMARK    2  A    between atoms: C5_5  and  C6_6 
REMARK    3  A    between atoms: C6_6  and  C7_7 
REMARK    4  A    between atoms: C9_9  and  C10_10 
REMARK    5  A    between atoms: C10_10  and  C11_11 
REMARK    6  A    between atoms: C11_11  and  C12_12 
REMARK    7  A    between atoms: C14_14  and  O1_15 
REMARK    8  A    between atoms: C14_14  and  S1_17 
REMARK    9  A    between atoms: S1_17  and  C15_18 
REMARK   10  A    between atoms: C15_18  and  C16_19 
REMARK   11  A    between atoms: C16_19  and  O2_20 
REMARK   12  A    between atoms: O2_20  and  C17_21 
REMARK   13  A    between atoms: C17_21  and  N1_22 
ROOT
HETATM    1  C12 UNL     1     -11.920  24.134   6.849  1.00  0.00    -0.043 C 
HETATM    2  C13 UNL     1     -10.831  24.909   7.472  1.00  0.00     0.047 C 
HETATM    3  C14 UNL     1     -12.660  24.709   5.932  1.00  0.00     0.104 C 
ENDROOT
BRANCH   3   4
HETATM    4  O1  UNL     1     -12.393  26.024   5.581  1.00  0.00    -0.354 OA
ATOM      5  H1  UNL     1     -13.061  26.523   5.124  1.00  0.00     0.218 HD
ENDBRANCH   3   4
BRANCH   3   6
HETATM    6  S1  UNL     1     -13.974  23.790   5.173  1.00  0.00    -0.103 SA
BRANCH   6   7
HETATM    7  C15 UNL     1     -15.586  24.201   5.906  1.00  0.00     0.107 C 
BRANCH   7   8
HETATM    8  C16 UNL     1     -16.032  25.534   5.416  1.00  0.00     0.180 C 
BRANCH   8   9
HETATM    9  O2  UNL     1     -16.340  26.447   6.388  1.00  0.00    -0.362 OA
BRANCH   9  10
HETATM   10  C17 UNL     1     -15.684  27.640   6.211  1.00  0.00     0.440 C 
BRANCH  10  11
HETATM   11  N1  UNL     1     -16.266  28.674   7.067  1.00  0.00     0.115 N 
HETATM   12  C18 UNL     1     -17.623  28.961   6.709  1.00  0.00     0.301 C 
HETATM   13  C19 UNL     1     -17.789  30.449   6.545  1.00  0.00     0.198 C 
HETATM   14  O3  UNL     1     -16.924  30.858   5.527  1.00  0.00    -0.388 OA
HETATM   15  C20 UNL     1     -15.600  30.764   5.943  1.00  0.00     0.198 C 
HETATM   16  C21 UNL     1     -15.400  29.816   7.080  1.00  0.00     0.301 C 
ENDBRANCH  10  11
ENDBRANCH   9  10
ENDBRANCH   8   9
ENDBRANCH   7   8
ENDBRANCH   6   7
ENDBRANCH   3   6
BRANCH   1  17
HETATM   17  C11 UNL     1     -12.206  22.718   7.228  1.00  0.00     0.041 C 
BRANCH  17  18
HETATM   18  C10 UNL     1     -13.069  22.655   8.495  1.00  0.00     0.032 C 
BRANCH  18  19
HETATM   19  C9  UNL     1     -12.393  21.770   9.448  1.00  0.00    -0.024 C 
HETATM   20  C7  UNL     1     -13.017  21.327  10.519  1.00  0.00    -0.087 C 
HETATM   21  C8  UNL     1     -14.416  21.764  10.763  1.00  0.00     0.043 C 
BRANCH  20  22
HETATM   22  C6  UNL     1     -12.351  20.438  11.486  1.00  0.00     0.037 C 
BRANCH  22  23
HETATM   23  C5  UNL     1     -13.335  19.474  12.071  1.00  0.00     0.031 C 
BRANCH  23  24
HETATM   24  C4  UNL     1     -12.601  18.448  12.846  1.00  0.00    -0.024 C 
HETATM   25  C2  UNL     1     -12.260  17.256  12.403  1.00  0.00    -0.091 C 
HETATM   26  C1  UNL     1     -11.511  16.348  13.339  1.00  0.00     0.042 C 
HETATM   27  C3  UNL     1     -12.605  16.779  11.044  1.00  0.00     0.042 C 
ENDBRANCH  23  24
ENDBRANCH  22  23
ENDBRANCH  20  22
ENDBRANCH  18  19
ENDBRANCH  17  18
ENDBRANCH   1  17
TORSDOF 13
ENDMDL
MODEL 2
REMARK VINA RESULT: -6.205454845      1.072      1.319
REMARK  13 active torsions:
REMARK  status: ('A' for Active; 'I' for Inactive)
REMARK    1  A    between atoms: C4_4  and  C5_5 
REMARK    2  A    between atoms: C5_5  and  C6_6 
REMARK    3  A    between atoms: C6_6  and  C7_7 
REMARK    4  A    between atoms: C9_9  and  C10_10 
REMARK    5  A    between atoms: C10_10  and  C11_11 
REMARK    6  A    between atoms: C11_11  and  C12_12 
REMARK    7  A    between atoms: C14_14  and  O1_15 
REMARK    8  A    between atoms: C14_14  and  S1_17 
REMARK    9  A    between atoms: S1_17  and  C15_18 
REMARK   10  A    between atoms: C15_18  and  C16_19 
REMARK   11  A    between atoms: C16_19  and  O2_20 
REMARK   12  A    between atoms: O2_20  and  C17_21 
REMARK   13  A    between atoms: C17_21  and  N1_22 
ROOT
HETATM    1  C12 UNL     1     -11.767  23.890   6.647  1.00  0.00    -0.043 C 
HETATM    2  C13 UNL     1     -10.978  24.809   7.489  1.00  0.00     0.047 C 
HETATM    3  C14 UNL     1     -12.280  24.341   5.528  1.00  0.00     0.104 C 
ENDROOT
BRANCH   3   4
HETATM    4  O1  UNL     1     -12.062  25.665   5.175  1.00  0.00    -0.354 OA
ATOM      5  H1  UNL     1     -11.527  25.856   4.413  1.00  0.00     0.218 HD
ENDBRANCH   3   4
BRANCH   3   6
HETATM    6  S1  UNL     1     -13.232  23.249   4.505  1.00  0.00    -0.103 SA
BRANCH   6   7
HETATM    7  C15 UNL     1     -14.946  23.107   5.093  1.00  0.00     0.107 C 
BRANCH   7   8
HETATM    8  C16 UNL     1     -15.316  24.331   5.855  1.00  0.00     0.180 C 
BRANCH   8   9
HETATM    9  O2  UNL     1     -15.708  25.401   5.097  1.00  0.00    -0.362 OA
BRANCH   9  10
HETATM   10  C17 UNL     1     -15.721  26.572   5.814  1.00  0.00     0.440 C 
BRANCH  10  11
HETATM   11  N1  UNL     1     -17.029  26.773   6.439  1.00  0.00     0.115 N 
HETATM   12  C18 UNL     1     -18.073  26.889   5.466  1.00  0.00     0.301 C 
HETATM   13  C19 UNL     1     -18.887  28.122   5.756  1.00  0.00     0.198 C 
HETATM   14  O3  UNL     1     -18.029  29.221   5.677  1.00  0.00    -0.388 OA
HETATM   15  C20 UNL     1     -17.130  29.218   6.738  1.00  0.00     0.198 C 
HETATM   16  C21 UNL     1     -16.947  27.870   7.358  1.00  0.00     0.301 C 
ENDBRANCH  10  11
ENDBRANCH   9  10
ENDBRANCH   8   9
ENDBRANCH   7   8
ENDBRANCH   6   7
ENDBRANCH   3   6
BRANCH   1  17
HETATM   17  C11 UNL     1     -12.001  22.465   7.028  1.00  0.00     0.041 C 
BRANCH  17  18
HETATM   18  C10 UNL     1     -12.996  22.366   8.193  1.00  0.00     0.032 C 
BRANCH  18  19
HETATM   19  C9  UNL     1     -12.362  21.571   9.249  1.00  0.00    -0.024 C 
HETATM   20  C7  UNL     1     -12.962  21.385  10.405  1.00  0.00    -0.087 C 
HETATM   21  C8  UNL     1     -14.286  22.020  10.635  1.00  0.00     0.043 C 
BRANCH  20  22
HETATM   22  C6  UNL     1     -12.340  20.590  11.478  1.00  0.00     0.037 C 
BRANCH  22  23
HETATM   23  C5  UNL     1     -13.332  19.635  12.064  1.00  0.00     0.031 C 
BRANCH  23  24
HETATM   24  C4  UNL     1     -12.608  18.599  12.833  1.00  0.00    -0.024 C 
HETATM   25  C2  UNL     1     -12.300  17.397  12.393  1.00  0.00    -0.091 C 
HETATM   26  C1  UNL     1     -11.555  16.480  13.322  1.00  0.00     0.042 C 
HETATM   27  C3  UNL     1     -12.679  16.918  11.044  1.00  0.00     0.042 C 
ENDBRANCH  23  24
ENDBRANCH  22  23
ENDBRANCH  20  22
ENDBRANCH  18  19
ENDBRANCH  17  18
ENDBRANCH   1  17
TORSDOF 13
ENDMDL
MODEL 3
REMARK VINA RESULT: -5.987526582      5.331     10.245
REMARK  13 active torsions:
REMARK  status: ('A' for Active; 'I' for Inactive)
REMARK    1  A    between atoms: C4_4  and  C5_5 
REMARK    2  A    between atoms: C5_5  and  C6_6 
REMARK    3  A    between atoms: C6_6  and  C7_7 
REMARK    4  A    between atoms: C9_9  and  C10_10 
REMARK    5  A    between atoms: C10_10  and  C11_11 
REMARK    6  A    between atoms: C11_11  and  C12_12 
REMARK    7  A    between atoms: C14_14  and  O1_15 
REMARK    8  A    between atoms: C14_14  and  S1_17 
REMARK    9  A    between atoms: S1_17  and  C15_18 
REMARK   10  A    between atoms: C15_18  and  C16_19 
REMARK   11  A    between atoms: C16_19  and  O2_20 
REMARK   12  A    between atoms: O2_20  and  C17_21 
REMARK   13  A    between atoms: C17_21  and  N1_22 
ROOT
HETATM    1  C12 UNL     1     -12.774  20.367   8.327  1.00  0.00    -0.043 C 
HETATM    2  C13 UNL     1     -11.623  20.137   7.434  1.00  0.00     0.047 C 
HETATM    3  C14 UNL     1     -12.554  20.822   9.537  1.00  0.00     0.104 C 
ENDROOT
BRANCH   3   4
HETATM    4  O1  UNL     1     -11.248  21.071   9.933  1.00  0.00    -0.354 OA
ATOM      5  H1  UNL     1     -10.806  21.845   9.603  1.00  0.00     0.218 HD
ENDBRANCH   3   4
BRANCH   3   6
HETATM    6  S1  UNL     1     -13.927  21.104  10.624  1.00  0.00    -0.103 SA
BRANCH   6   7
HETATM    7  C15 UNL     1     -14.301  19.633  11.623  1.00  0.00     0.107 C 
BRANCH   7   8
HETATM    8  C16 UNL     1     -13.116  19.277  12.451  1.00  0.00     0.180 C 
BRANCH   8   9
HETATM    9  O2  UNL     1     -12.252  18.377  11.890  1.00  0.00    -0.362 OA
BRANCH   9  10
HETATM   10  C17 UNL     1     -12.902  17.431  11.136  1.00  0.00     0.440 C 
BRANCH  10  11
HETATM   11  N1  UNL     1     -12.347  16.102  11.397  1.00  0.00     0.115 N 
HETATM   12  C18 UNL     1     -11.188  16.163  12.237  1.00  0.00     0.301 C 
HETATM   13  C19 UNL     1     -10.072  15.379  11.599  1.00  0.00     0.198 C 
HETATM   14  O3  UNL     1      -9.802  15.964  10.360  1.00  0.00    -0.388 OA
HETATM   15  C20 UNL     1     -10.849  15.738   9.474  1.00  0.00     0.198 C 
HETATM   16  C21 UNL     1     -12.143  15.424  10.151  1.00  0.00     0.301 C 
ENDBRANCH  10  11
ENDBRANCH   9  10
ENDBRANCH   8   9
ENDBRANCH   7   8
ENDBRANCH   6   7
ENDBRANCH   3   6
BRANCH   1  17
HETATM   17  C11 UNL     1     -14.179  20.098   7.900  1.00  0.00     0.041 C 
BRANCH  17  18
HETATM   18  C10 UNL     1     -14.330  20.261   6.381  1.00  0.00     0.032 C 
BRANCH  18  19
HETATM   19  C9  UNL     1     -14.129  21.678   6.065  1.00  0.00    -0.024 C 
HETATM   20  C7  UNL     1     -13.473  22.042   4.984  1.00  0.00    -0.087 C 
HETATM   21  C8  UNL     1     -12.912  20.989   4.099  1.00  0.00     0.043 C 
BRANCH  20  22
HETATM   22  C6  UNL     1     -13.263  23.462   4.652  1.00  0.00     0.037 C 
BRANCH  22  23
HETATM   23  C5  UNL     1     -11.800  23.777   4.609  1.00  0.00     0.031 C 
BRANCH  23  24
HETATM   24  C4  UNL     1     -11.559  25.041   5.340  1.00  0.00    -0.024 C 
HETATM   25  C2  UNL     1     -11.292  25.141   6.626  1.00  0.00    -0.091 C 
HETATM   26  C1  UNL     1     -11.071  26.516   7.192  1.00  0.00     0.042 C 
HETATM   27  C3  UNL     1     -11.227  23.963   7.522  1.00  0.00     0.042 C 
ENDBRANCH  23  24
ENDBRANCH  22  23
ENDBRANCH  20  22
ENDBRANCH  18  19
ENDBRANCH  17  18
ENDBRANCH   1  17
TORSDOF 13
ENDMDL
MODEL 4
REMARK VINA RESULT: -5.946998478      1.648      2.033
REMARK  13 active torsions:
REMARK  status: ('A' for Active; 'I' for Inactive)
REMARK    1  A    between atoms: C4_4  and  C5_5 
REMARK    2  A    between atoms: C5_5  and  C6_6 
REMARK    3  A    between atoms: C6_6  and  C7_7 
REMARK    4  A    between atoms: C9_9  and  C10_10 
REMARK    5  A    between atoms: C10_10  and  C11_11 
REMARK    6  A    between atoms: C11_11  and  C12_12 
REMARK    7  A    between atoms: C14_14  and  O1_15 
REMARK    8  A    between atoms: C14_14  and  S1_17 
REMARK    9  A    between atoms: S1_17  and  C15_18 
REMARK   10  A    between atoms: C15_18  and  C16_19 
REMARK   11  A    between atoms: C16_19  and  O2_20 
REMARK   12  A    between atoms: O2_20  and  C17_21 
REMARK   13  A    between atoms: C17_21  and  N1_22 
ROOT
HETATM    1  C12 UNL     1     -11.849  23.991   6.855  1.00  0.00    -0.043 C 
HETATM    2  C13 UNL     1     -10.671  24.638   7.462  1.00  0.00     0.047 C 
HETATM    3  C14 UNL     1     -12.547  24.655   5.967  1.00  0.00     0.104 C 
ENDROOT
BRANCH   3   4
HETATM    4  O1  UNL     1     -12.154  25.942   5.628  1.00  0.00    -0.354 OA
ATOM      5  H1  UNL     1     -12.633  26.680   5.989  1.00  0.00     0.218 HD
ENDBRANCH   3   4
BRANCH   3   6
HETATM    6  S1  UNL     1     -13.968  23.891   5.227  1.00  0.00    -0.103 SA
BRANCH   6   7
HETATM    7  C15 UNL     1     -15.511  24.470   5.991  1.00  0.00     0.107 C 
BRANCH   7   8
HETATM    8  C16 UNL     1     -15.991  25.690   5.286  1.00  0.00     0.180 C 
BRANCH   8   9
HETATM    9  O2  UNL     1     -17.282  25.642   4.835  1.00  0.00    -0.362 OA
BRANCH   9  10
HETATM   10  C17 UNL     1     -18.149  25.161   5.785  1.00  0.00     0.440 C 
BRANCH  10  11
HETATM   11  N1  UNL     1     -19.344  26.004   5.858  1.00  0.00     0.115 N 
HETATM   12  C18 UNL     1     -19.594  26.683   4.622  1.00  0.00     0.301 C 
HETATM   13  C19 UNL     1     -19.793  28.151   4.894  1.00  0.00     0.198 C 
HETATM   14  O3  UNL     1     -18.621  28.632   5.481  1.00  0.00    -0.388 OA
HETATM   15  C20 UNL     1     -18.473  28.123   6.767  1.00  0.00     0.198 C 
HETATM   16  C21 UNL     1     -19.243  26.864   7.000  1.00  0.00     0.301 C 
ENDBRANCH  10  11
ENDBRANCH   9  10
ENDBRANCH   8   9
ENDBRANCH   7   8
ENDBRANCH   6   7
ENDBRANCH   3   6
BRANCH   1  17
HETATM   17  C11 UNL     1     -12.273  22.606   7.220  1.00  0.00     0.041 C 
BRANCH  17  18
HETATM   18  C10 UNL     1     -13.103  22.609   8.510  1.00  0.00     0.032 C 
BRANCH  18  19
HETATM   19  C9  UNL     1     -12.416  21.750   9.480  1.00  0.00    -0.024 C 
HETATM   20  C7  UNL     1     -13.047  21.291  10.540  1.00  0.00    -0.087 C 
HETATM   21  C8  UNL     1     -14.465  21.682  10.754  1.00  0.00     0.043 C 
BRANCH  20  22
HETATM   22  C6  UNL     1     -12.372  20.427  11.524  1.00  0.00     0.037 C 
BRANCH  22  23
HETATM   23  C5  UNL     1     -13.341  19.450  12.112  1.00  0.00     0.031 C 
BRANCH  23  24
HETATM   24  C4  UNL     1     -12.589  18.422  12.866  1.00  0.00    -0.024 C 
HETATM   25  C2  UNL     1     -12.248  17.235  12.407  1.00  0.00    -0.091 C 
HETATM   26  C1  UNL     1     -11.480  16.323  13.323  1.00  0.00     0.042 C 
HETATM   27  C3  UNL     1     -12.613  16.768  11.049  1.00  0.00     0.042 C 
ENDBRANCH  23  24
ENDBRANCH  22  23
ENDBRANCH  20  22
ENDBRANCH  18  19
ENDBRANCH  17  18
ENDBRANCH   1  17
TORSDOF 13
ENDMDL
MODEL 5
REMARK VINA RESULT: -5.940757321      5.170      6.812
REMARK  13 active torsions:
REMARK  status: ('A' for Active; 'I' for Inactive)
REMARK    1  A    between atoms: C4_4  and  C5_5 
REMARK    2  A    between atoms: C5_5  and  C6_6 
REMARK    3  A    between atoms: C6_6  and  C7_7 
REMARK    4  A    between atoms: C9_9  and  C10_10 
REMARK    5  A    between atoms: C10_10  and  C11_11 
REMARK    6  A    between atoms: C11_11  and  C12_12 
REMARK    7  A    between atoms: C14_14  and  O1_15 
REMARK    8  A    between atoms: C14_14  and  S1_17 
REMARK    9  A    between atoms: S1_17  and  C15_18 
REMARK   10  A    between atoms: C15_18  and  C16_19 
REMARK   11  A    between atoms: C16_19  and  O2_20 
REMARK   12  A    between atoms: O2_20  and  C17_21 
REMARK   13  A    between atoms: C17_21  and  N1_22 
ROOT
HETATM    1  C12 UNL     1     -12.452  21.752   5.908  1.00  0.00    -0.043 C 
HETATM    2  C13 UNL     1     -12.641  23.106   6.461  1.00  0.00     0.047 C 
HETATM    3  C14 UNL     1     -12.361  21.609   4.608  1.00  0.00     0.104 C 
ENDROOT
BRANCH   3   4
HETATM    4  O1  UNL     1     -12.446  22.733   3.800  1.00  0.00    -0.354 OA
ATOM      5  H1  UNL     1     -13.131  22.777   3.142  1.00  0.00     0.218 HD
ENDBRANCH   3   4
BRANCH   3   6
HETATM    6  S1  UNL     1     -12.134  19.987   3.925  1.00  0.00    -0.103 SA
BRANCH   6   7
HETATM    7  C15 UNL     1     -13.584  19.456   2.967  1.00  0.00     0.107 C 
BRANCH   7   8
HETATM    8  C16 UNL     1     -14.685  20.443   3.140  1.00  0.00     0.180 C 
BRANCH   8   9
HETATM    9  O2  UNL     1     -14.816  21.362   2.135  1.00  0.00    -0.362 OA
BRANCH   9  10
HETATM   10  C17 UNL     1     -15.608  20.906   1.110  1.00  0.00     0.440 C 
BRANCH  10  11
HETATM   11  N1  UNL     1     -14.782  20.463  -0.014  1.00  0.00     0.115 N 
HETATM   12  C18 UNL     1     -14.619  21.494  -0.995  1.00  0.00     0.301 C 
HETATM   13  C19 UNL     1     -14.957  20.941  -2.355  1.00  0.00     0.198 C 
HETATM   14  O3  UNL     1     -16.286  20.515  -2.318  1.00  0.00    -0.388 OA
HETATM   15  C20 UNL     1     -16.416  19.388  -1.513  1.00  0.00     0.198 C 
HETATM   16  C21 UNL     1     -15.306  19.231  -0.526  1.00  0.00     0.301 C 
ENDBRANCH  10  11
ENDBRANCH   9  10
ENDBRANCH   8   9
ENDBRANCH   7   8
ENDBRANCH   6   7
ENDBRANCH   3   6
BRANCH   1  17
HETATM   17  C11 UNL     1     -12.360  20.542   6.778  1.00  0.00     0.041 C 
BRANCH  17  18
HETATM   18  C10 UNL     1     -13.533  20.488   7.766  1.00  0.00     0.032 C 
BRANCH  18  19
HETATM   19  C9  UNL     1     -12.994  20.100   9.073  1.00  0.00    -0.024 C 
HETATM   20  C7  UNL     1     -13.119  20.892  10.116  1.00  0.00    -0.087 C 
HETATM   21  C8  UNL     1     -13.795  22.204   9.942  1.00  0.00     0.043 C 
BRANCH  20  22
HETATM   22  C6  UNL     1     -12.583  20.517  11.436  1.00  0.00     0.037 C 
BRANCH  22  23
HETATM   23  C5  UNL     1     -13.475  19.512  12.096  1.00  0.00     0.031 C 
BRANCH  23  24
HETATM   24  C4  UNL     1     -12.640  18.541  12.837  1.00  0.00    -0.024 C 
HETATM   25  C2  UNL     1     -12.259  17.363  12.388  1.00  0.00    -0.091 C 
HETATM   26  C1  UNL     1     -11.405  16.512  13.287  1.00  0.00     0.042 C 
HETATM   27  C3  UNL     1     -12.656  16.848  11.057  1.00  0.00     0.042 C 
ENDBRANCH  23  24
ENDBRANCH  22  23
ENDBRANCH  20  22
ENDBRANCH  18  19
ENDBRANCH  17  18
ENDBRANCH   1  17
TORSDOF 13
ENDMDL
