MODEL 1
REMARK VINA RESULT: -9.515455622      0.000      0.000
REMARK  19 active torsions:
REMARK  status: ('A' for Active; 'I' for Inactive)
REMARK    1  A    between atoms: N1_2  and  C2_3 
REMARK    2  A    between atoms: N1_2  and  C22_46 
REMARK    3  A    between atoms: C2_3  and  C3_4 
REMARK    4  A    between atoms: C3_4  and  O1_5 
REMARK    5  A    between atoms: C3_4  and  N2_7 
REMARK    6  A    between atoms: N2_7  and  C4_9 
REMARK    7  A    between atoms: N3_11  and  N4_12 
REMARK    8  A    between atoms: N4_12  and  C6_14 
REMARK    9  A    between atoms: C6_14  and  C7_15 
REMARK   10  A    between atoms: C7_15  and  O2_16 
REMARK   11  A    between atoms: C15_30  and  N8_31 
REMARK   12  A    between atoms: C18_34  and  O5_35 
REMARK   13  A    between atoms: C19_37  and  O6_38 
REMARK   14  A    between atoms: C20_40  and  O7_41 
REMARK   15  A    between atoms: C22_46  and  O8_47 
REMARK   16  A    between atoms: C22_46  and  C23_49 
REMARK   17  A    between atoms: C23_49  and  O9_50 
REMARK   18  A    between atoms: C23_49  and  C24_52 
REMARK   19  A    between atoms: C24_52  and  O10_53 
ROOT
HETATM    1  C6  UNL     1     -40.592   7.403   7.389  1.00  0.00     0.081 C 
HETATM    2  C8  UNL     1     -40.790   6.265   6.759  1.00  0.00     0.150 C 
HETATM    3  C9  UNL     1     -41.325   5.164   7.506  1.00  0.00     0.113 C 
HETATM    4  N5  UNL     1     -41.765   4.271   8.094  1.00  0.00    -0.191 NA
HETATM    5  C10 UNL     1     -40.488   6.108   5.360  1.00  0.00     0.113 C 
HETATM    6  N6  UNL     1     -40.230   5.996   4.233  1.00  0.00    -0.191 NA
ENDROOT
BRANCH   1   7
HETATM    7  N4  UNL     1     -40.897   7.535   8.758  1.00  0.00    -0.291 N 
ATOM      8  H4  UNL     1     -41.878   7.585   9.030  1.00  0.00     0.187 HD
BRANCH   7   9
HETATM    9  N3  UNL     1     -39.929   7.601   9.763  1.00  0.00    -0.229 N 
HETATM   10  C5  UNL     1     -39.381   6.455  10.199  1.00  0.00     0.151 A 
HETATM   11  C4  UNL     1     -38.411   6.437  11.196  1.00  0.00     0.076 A 
HETATM   12  C21 UNL     1     -38.001   7.656  11.753  1.00  0.00     0.098 A 
HETATM   13  C12 UNL     1     -38.568   8.827  11.299  1.00  0.00     0.132 A 
HETATM   14  N9  UNL     1     -37.088   7.721  12.696  1.00  0.00    -0.188 N 
HETATM   15  C11 UNL     1     -39.514   8.750  10.317  1.00  0.00     0.284 A 
HETATM   16  C13 UNL     1     -38.123   9.986  11.882  1.00  0.00     0.279 A 
HETATM   17  O3  UNL     1     -40.023   9.829   9.912  1.00  0.00    -0.265 OA
HETATM   18  O4  UNL     1     -38.623  11.073  11.489  1.00  0.00    -0.266 OA
HETATM   19  N7  UNL     1     -37.168  10.008  12.862  1.00  0.00    -0.151 N 
HETATM   20  C14 UNL     1     -36.754  11.314  13.390  1.00  0.00     0.179 C 
HETATM   21  C15 UNL     1     -36.624   8.878  13.296  1.00  0.00     0.687 A 
ATOM     22  H9  UNL     1     -36.685   6.839  13.013  1.00  0.00     0.184 HD
BRANCH  11  23
HETATM   23  N2  UNL     1     -37.822   5.235  11.675  1.00  0.00    -0.359 N 
ATOM     24  H2  UNL     1     -37.684   4.470  11.015  1.00  0.00     0.162 HD
BRANCH  23  25
HETATM   25  C3  UNL     1     -37.413   5.040  13.026  1.00  0.00     0.235 C 
BRANCH  25  26
HETATM   26  C2  UNL     1     -38.252   3.951  13.692  1.00  0.00     0.172 C 
BRANCH  26  27
HETATM   27  N1  UNL     1     -37.794   3.589  14.980  1.00  0.00    -0.386 N 
HETATM   28  C1  UNL     1     -38.105   4.469  16.019  1.00  0.00     0.146 C 
BRANCH  27  29
HETATM   29  C22 UNL     1     -37.406   2.270  15.232  1.00  0.00     0.246 C 
BRANCH  29  30
HETATM   30  O8  UNL     1     -36.269   1.937  14.454  1.00  0.00    -0.374 OA
ATOM     31  H8  UNL     1     -36.457   1.185  13.904  1.00  0.00     0.212 HD
ENDBRANCH  29  30
BRANCH  29  32
HETATM   32  C23 UNL     1     -38.401   1.187  14.997  1.00  0.00     0.190 C 
BRANCH  32  33
HETATM   33  O9  UNL     1     -39.231   0.911  16.057  1.00  0.00    -0.389 OA
ATOM     34  H9  UNL     1     -39.945   0.314  15.869  1.00  0.00     0.210 HD
ENDBRANCH  32  33
BRANCH  32  35
HETATM   35  C24 UNL     1     -37.587  -0.095  14.753  1.00  0.00     0.200 C 
BRANCH  35  36
HETATM   36  O10 UNL     1     -36.812  -0.327  15.906  1.00  0.00    -0.398 OA
ATOM     37  H10 UNL     1     -37.110  -1.145  16.288  1.00  0.00     0.209 HD
ENDBRANCH  35  36
ENDBRANCH  32  35
ENDBRANCH  29  32
ENDBRANCH  27  29
ENDBRANCH  26  27
ENDBRANCH  25  26
BRANCH  25  38
HETATM   38  O1  UNL     1     -36.079   4.650  13.140  1.00  0.00    -0.375 OA
ATOM     39  H1  UNL     1     -35.598   5.114  12.466  1.00  0.00     0.212 HD
ENDBRANCH  25  38
ENDBRANCH  23  25
ENDBRANCH  11  23
BRANCH  21  40
HETATM   40  N8  UNL     1     -35.666   8.741  14.322  1.00  0.00    -0.188 N 
HETATM   41  C16 UNL     1     -34.312   8.296  13.841  1.00  0.00     0.147 C 
HETATM   42  C17 UNL     1     -34.223   6.867  14.339  1.00  0.00     0.055 C 
HETATM   43  C18 UNL     1     -34.507   6.724  15.798  1.00  0.00     0.152 C 
HETATM   44  C19 UNL     1     -35.724   7.438  16.286  1.00  0.00     0.196 C 
HETATM   45  C20 UNL     1     -35.706   8.880  15.723  1.00  0.00     0.268 C 
BRANCH  43  46
HETATM   46  O5  UNL     1     -34.694   5.343  16.046  1.00  0.00    -0.393 OA
ATOM     47  H5  UNL     1     -34.691   5.230  16.990  1.00  0.00     0.210 HD
ENDBRANCH  43  46
BRANCH  44  48
HETATM   48  O6  UNL     1     -35.627   7.543  17.669  1.00  0.00    -0.389 OA
ATOM     49  H6  UNL     1     -36.237   8.216  17.951  1.00  0.00     0.210 HD
ENDBRANCH  44  48
BRANCH  45  50
HETATM   50  O7  UNL     1     -34.410   9.386  16.112  1.00  0.00    -0.373 OA
ATOM     51  H7  UNL     1     -34.440   9.488  17.055  1.00  0.00     0.212 HD
ENDBRANCH  45  50
ENDBRANCH  21  40
ENDBRANCH   7   9
ENDBRANCH   1   7
BRANCH   1  52
HETATM   52  C7  UNL     1     -40.039   8.545   6.628  1.00  0.00     0.224 C 
BRANCH  52  53
HETATM   53  O2  UNL     1     -40.632   9.740   7.012  1.00  0.00    -0.395 OA
ATOM     54  H2  UNL     1     -41.528   9.604   7.296  1.00  0.00     0.209 HD
ENDBRANCH  52  53
ENDBRANCH   1  52
TORSDOF 19
ENDMDL
MODEL 2
REMARK VINA RESULT: -9.430992976      2.970      3.713
REMARK  19 active torsions:
REMARK  status: ('A' for Active; 'I' for Inactive)
REMARK    1  A    between atoms: N1_2  and  C2_3 
REMARK    2  A    between atoms: N1_2  and  C22_46 
REMARK    3  A    between atoms: C2_3  and  C3_4 
REMARK    4  A    between atoms: C3_4  and  O1_5 
REMARK    5  A    between atoms: C3_4  and  N2_7 
REMARK    6  A    between atoms: N2_7  and  C4_9 
REMARK    7  A    between atoms: N3_11  and  N4_12 
REMARK    8  A    between atoms: N4_12  and  C6_14 
REMARK    9  A    between atoms: C6_14  and  C7_15 
REMARK   10  A    between atoms: C7_15  and  O2_16 
REMARK   11  A    between atoms: C15_30  and  N8_31 
REMARK   12  A    between atoms: C18_34  and  O5_35 
REMARK   13  A    between atoms: C19_37  and  O6_38 
REMARK   14  A    between atoms: C20_40  and  O7_41 
REMARK   15  A    between atoms: C22_46  and  O8_47 
REMARK   16  A    between atoms: C22_46  and  C23_49 
REMARK   17  A    between atoms: C23_49  and  O9_50 
REMARK   18  A    between atoms: C23_49  and  C24_52 
REMARK   19  A    between atoms: C24_52  and  O10_53 
ROOT
HETATM    1  C6  UNL     1     -41.325   5.065   7.613  1.00  0.00     0.081 C 
HETATM    2  C8  UNL     1     -41.176   4.868   6.322  1.00  0.00     0.150 C 
HETATM    3  C9  UNL     1     -40.393   5.811   5.580  1.00  0.00     0.113 C 
HETATM    4  N5  UNL     1     -39.755   6.559   4.971  1.00  0.00    -0.191 NA
HETATM    5  C10 UNL     1     -41.774   3.742   5.651  1.00  0.00     0.113 C 
HETATM    6  N6  UNL     1     -42.270   2.832   5.126  1.00  0.00    -0.191 NA
ENDROOT
BRANCH   1   7
HETATM    7  N4  UNL     1     -40.730   6.173   8.249  1.00  0.00    -0.291 N 
ATOM      8  H4  UNL     1     -40.870   7.096   7.840  1.00  0.00     0.187 HD
BRANCH   7   9
HETATM    9  N3  UNL     1     -39.958   6.077   9.409  1.00  0.00    -0.229 N 
HETATM   10  C5  UNL     1     -39.654   4.855   9.876  1.00  0.00     0.151 A 
HETATM   11  C4  UNL     1     -38.889   4.675  11.024  1.00  0.00     0.076 A 
HETATM   12  C21 UNL     1     -38.427   5.810  11.703  1.00  0.00     0.098 A 
HETATM   13  C12 UNL     1     -38.742   7.061  11.218  1.00  0.00     0.132 A 
HETATM   14  N9  UNL     1     -37.696   5.723  12.793  1.00  0.00    -0.188 N 
HETATM   15  C11 UNL     1     -39.499   7.142  10.084  1.00  0.00     0.284 A 
HETATM   16  C13 UNL     1     -38.258   8.131  11.926  1.00  0.00     0.279 A 
HETATM   17  O3  UNL     1     -39.780   8.291   9.651  1.00  0.00    -0.265 OA
HETATM   18  O4  UNL     1     -38.531   9.287  11.508  1.00  0.00    -0.266 OA
HETATM   19  N7  UNL     1     -37.500   7.994  13.057  1.00  0.00    -0.151 N 
HETATM   20  C14 UNL     1     -37.017   9.214  13.714  1.00  0.00     0.179 C 
HETATM   21  C15 UNL     1     -37.198   6.787  13.522  1.00  0.00     0.687 A 
ATOM     22  H9  UNL     1     -37.478   4.785  13.131  1.00  0.00     0.184 HD
BRANCH  11  23
HETATM   23  N2  UNL     1     -38.560   3.391  11.537  1.00  0.00    -0.359 N 
ATOM     24  H2  UNL     1     -37.663   2.982  11.274  1.00  0.00     0.162 HD
BRANCH  23  25
HETATM   25  C3  UNL     1     -39.414   2.642  12.397  1.00  0.00     0.235 C 
BRANCH  25  26
HETATM   26  C2  UNL     1     -39.088   1.153  12.319  1.00  0.00     0.172 C 
BRANCH  26  27
HETATM   27  N1  UNL     1     -39.486   0.546  11.104  1.00  0.00    -0.386 N 
HETATM   28  C1  UNL     1     -40.746   0.905  10.616  1.00  0.00     0.146 C 
BRANCH  27  29
HETATM   29  C22 UNL     1     -38.529  -0.053  10.282  1.00  0.00     0.246 C 
BRANCH  29  30
HETATM   30  O8  UNL     1     -37.258  -0.026  10.910  1.00  0.00    -0.374 OA
ATOM     31  H8  UNL     1     -36.606   0.331  10.318  1.00  0.00     0.212 HD
ENDBRANCH  29  30
BRANCH  29  32
HETATM   32  C23 UNL     1     -38.326   0.504   8.915  1.00  0.00     0.190 C 
BRANCH  32  33
HETATM   33  O9  UNL     1     -38.440  -0.404   7.889  1.00  0.00    -0.389 OA
ATOM     34  H9  UNL     1     -37.639  -0.862   7.662  1.00  0.00     0.210 HD
ENDBRANCH  32  33
BRANCH  32  35
HETATM   35  C24 UNL     1     -36.875   1.012   8.872  1.00  0.00     0.200 C 
BRANCH  35  36
HETATM   36  O10 UNL     1     -36.893   2.368   9.250  1.00  0.00    -0.398 OA
ATOM     37  H10 UNL     1     -36.043   2.570   9.624  1.00  0.00     0.209 HD
ENDBRANCH  35  36
ENDBRANCH  32  35
ENDBRANCH  29  32
ENDBRANCH  27  29
ENDBRANCH  26  27
ENDBRANCH  25  26
BRANCH  25  38
HETATM   38  O1  UNL     1     -39.295   3.012  13.737  1.00  0.00    -0.375 OA
ATOM     39  H1  UNL     1     -38.446   2.709  14.033  1.00  0.00     0.212 HD
ENDBRANCH  25  38
ENDBRANCH  23  25
ENDBRANCH  11  23
BRANCH  21  40
HETATM   40  N8  UNL     1     -36.466   6.492  14.690  1.00  0.00    -0.188 N 
HETATM   41  C16 UNL     1     -35.270   5.609  14.458  1.00  0.00     0.147 C 
HETATM   42  C17 UNL     1     -35.695   4.287  15.067  1.00  0.00     0.055 C 
HETATM   43  C18 UNL     1     -36.189   4.408  16.472  1.00  0.00     0.152 C 
HETATM   44  C19 UNL     1     -37.172   5.506  16.712  1.00  0.00     0.196 C 
HETATM   45  C20 UNL     1     -36.633   6.799  16.055  1.00  0.00     0.268 C 
BRANCH  43  46
HETATM   46  O5  UNL     1     -36.827   3.186  16.789  1.00  0.00    -0.393 OA
ATOM     47  H5  UNL     1     -37.743   3.285  16.557  1.00  0.00     0.210 HD
ENDBRANCH  43  46
BRANCH  44  48
HETATM   48  O6  UNL     1     -37.219   5.739  18.082  1.00  0.00    -0.389 OA
ATOM     49  H6  UNL     1     -38.133   5.770  18.338  1.00  0.00     0.210 HD
ENDBRANCH  44  48
BRANCH  45  50
HETATM   50  O7  UNL     1     -35.303   6.937  16.600  1.00  0.00    -0.373 OA
ATOM     51  H7  UNL     1     -35.146   7.871  16.676  1.00  0.00     0.212 HD
ENDBRANCH  45  50
ENDBRANCH  21  40
ENDBRANCH   7   9
ENDBRANCH   1   7
BRANCH   1  52
HETATM   52  C7  UNL     1     -42.133   4.099   8.388  1.00  0.00     0.224 C 
BRANCH  52  53
HETATM   53  O2  UNL     1     -43.467   4.136   8.004  1.00  0.00    -0.395 OA
ATOM     54  H2  UNL     1     -44.044   4.073   8.756  1.00  0.00     0.209 HD
ENDBRANCH  52  53
ENDBRANCH   1  52
TORSDOF 19
ENDMDL
MODEL 3
REMARK VINA RESULT: -9.370437414      2.854      4.394
REMARK  19 active torsions:
REMARK  status: ('A' for Active; 'I' for Inactive)
REMARK    1  A    between atoms: N1_2  and  C2_3 
REMARK    2  A    between atoms: N1_2  and  C22_46 
REMARK    3  A    between atoms: C2_3  and  C3_4 
REMARK    4  A    between atoms: C3_4  and  O1_5 
REMARK    5  A    between atoms: C3_4  and  N2_7 
REMARK    6  A    between atoms: N2_7  and  C4_9 
REMARK    7  A    between atoms: N3_11  and  N4_12 
REMARK    8  A    between atoms: N4_12  and  C6_14 
REMARK    9  A    between atoms: C6_14  and  C7_15 
REMARK   10  A    between atoms: C7_15  and  O2_16 
REMARK   11  A    between atoms: C15_30  and  N8_31 
REMARK   12  A    between atoms: C18_34  and  O5_35 
REMARK   13  A    between atoms: C19_37  and  O6_38 
REMARK   14  A    between atoms: C20_40  and  O7_41 
REMARK   15  A    between atoms: C22_46  and  O8_47 
REMARK   16  A    between atoms: C22_46  and  C23_49 
REMARK   17  A    between atoms: C23_49  and  O9_50 
REMARK   18  A    between atoms: C23_49  and  C24_52 
REMARK   19  A    between atoms: C24_52  and  O10_53 
ROOT
HETATM    1  C6  UNL     1     -39.023   8.487  11.305  1.00  0.00     0.081 C 
HETATM    2  C8  UNL     1     -39.293   7.202  11.238  1.00  0.00     0.150 C 
HETATM    3  C9  UNL     1     -39.238   6.436  12.448  1.00  0.00     0.113 C 
HETATM    4  N5  UNL     1     -39.207   5.808  13.418  1.00  0.00    -0.191 NA
HETATM    5  C10 UNL     1     -39.638   6.562   9.995  1.00  0.00     0.113 C 
HETATM    6  N6  UNL     1     -39.906   6.060   8.982  1.00  0.00    -0.191 NA
ENDROOT
BRANCH   1   7
HETATM    7  N4  UNL     1     -38.689   9.094  12.532  1.00  0.00    -0.291 N 
ATOM      8  H4  UNL     1     -39.448   9.358  13.161  1.00  0.00     0.187 HD
BRANCH   7   9
HETATM    9  N3  UNL     1     -37.378   9.352  12.936  1.00  0.00    -0.229 N 
HETATM   10  C5  UNL     1     -36.664   8.350  13.474  1.00  0.00     0.151 A 
HETATM   11  C4  UNL     1     -35.352   8.527  13.900  1.00  0.00     0.076 A 
HETATM   12  C21 UNL     1     -34.768   9.793  13.756  1.00  0.00     0.098 A 
HETATM   13  C12 UNL     1     -35.506  10.816  13.202  1.00  0.00     0.132 A 
HETATM   14  N9  UNL     1     -33.532  10.038  14.132  1.00  0.00    -0.188 N 
HETATM   15  C11 UNL     1     -36.788  10.551  12.813  1.00  0.00     0.284 A 
HETATM   16  C13 UNL     1     -34.877  12.029  13.087  1.00  0.00     0.279 A 
HETATM   17  O3  UNL     1     -37.451  11.496  12.309  1.00  0.00    -0.265 OA
HETATM   18  O4  UNL     1     -35.526  12.985  12.586  1.00  0.00    -0.266 OA
HETATM   19  N7  UNL     1     -33.587  12.241  13.491  1.00  0.00    -0.151 N 
HETATM   20  C14 UNL     1     -33.013  13.577  13.292  1.00  0.00     0.179 C 
HETATM   21  C15 UNL     1     -32.879  11.253  14.025  1.00  0.00     0.687 A 
ATOM     22  H9  UNL     1     -33.008   9.263  14.539  1.00  0.00     0.184 HD
BRANCH  11  23
HETATM   23  N2  UNL     1     -34.582   7.481  14.476  1.00  0.00    -0.359 N 
ATOM     24  H2  UNL     1     -33.732   7.186  13.994  1.00  0.00     0.162 HD
BRANCH  23  25
HETATM   25  C3  UNL     1     -34.930   6.819  15.689  1.00  0.00     0.235 C 
BRANCH  25  26
HETATM   26  C2  UNL     1     -34.944   5.305  15.494  1.00  0.00     0.172 C 
BRANCH  26  27
HETATM   27  N1  UNL     1     -36.204   4.711  15.737  1.00  0.00    -0.386 N 
HETATM   28  C1  UNL     1     -37.165   5.523  16.346  1.00  0.00     0.146 C 
BRANCH  27  29
HETATM   29  C22 UNL     1     -36.560   3.539  15.065  1.00  0.00     0.246 C 
BRANCH  29  30
HETATM   30  O8  UNL     1     -37.007   3.843  13.755  1.00  0.00    -0.374 OA
ATOM     31  H8  UNL     1     -37.230   3.044  13.290  1.00  0.00     0.212 HD
ENDBRANCH  29  30
BRANCH  29  32
HETATM   32  C23 UNL     1     -37.609   2.671  15.670  1.00  0.00     0.190 C 
BRANCH  32  33
HETATM   33  O9  UNL     1     -37.292   2.135  16.895  1.00  0.00    -0.389 OA
ATOM     34  H9  UNL     1     -38.012   2.081  17.513  1.00  0.00     0.210 HD
ENDBRANCH  32  33
BRANCH  32  35
HETATM   35  C24 UNL     1     -37.777   1.477  14.715  1.00  0.00     0.200 C 
BRANCH  35  36
HETATM   36  O10 UNL     1     -36.492   1.105  14.275  1.00  0.00    -0.398 OA
ATOM     37  H10 UNL     1     -36.292   1.627  13.507  1.00  0.00     0.209 HD
ENDBRANCH  35  36
ENDBRANCH  32  35
ENDBRANCH  29  32
ENDBRANCH  27  29
ENDBRANCH  26  27
ENDBRANCH  25  26
BRANCH  25  38
HETATM   38  O1  UNL     1     -34.039   7.085  16.729  1.00  0.00    -0.375 OA
ATOM     39  H1  UNL     1     -34.180   7.988  16.988  1.00  0.00     0.212 HD
ENDBRANCH  25  38
ENDBRANCH  23  25
ENDBRANCH  11  23
BRANCH  21  40
HETATM   40  N8  UNL     1     -31.561  11.331  14.521  1.00  0.00    -0.188 N 
HETATM   41  C16 UNL     1     -30.498  11.239  13.460  1.00  0.00     0.147 C 
HETATM   42  C17 UNL     1     -29.903   9.864  13.686  1.00  0.00     0.055 C 
HETATM   43  C18 UNL     1     -29.477   9.623  15.098  1.00  0.00     0.152 C 
HETATM   44  C19 UNL     1     -30.472  10.008  16.141  1.00  0.00     0.196 C 
HETATM   45  C20 UNL     1     -31.005  11.423  15.812  1.00  0.00     0.268 C 
BRANCH  43  46
HETATM   46  O5  UNL     1     -29.241   8.233  15.223  1.00  0.00    -0.393 OA
ATOM     47  H5  UNL     1     -29.737   7.937  15.978  1.00  0.00     0.210 HD
ENDBRANCH  43  46
BRANCH  44  48
HETATM   48  O6  UNL     1     -29.799  10.103  17.354  1.00  0.00    -0.389 OA
ATOM     49  H6  UNL     1     -29.155  10.797  17.274  1.00  0.00     0.210 HD
ENDBRANCH  44  48
BRANCH  45  50
HETATM   50  O7  UNL     1     -29.809  12.221  15.676  1.00  0.00    -0.373 OA
ATOM     51  H7  UNL     1     -29.099  11.607  15.532  1.00  0.00     0.212 HD
ENDBRANCH  45  50
ENDBRANCH  21  40
ENDBRANCH   7   9
ENDBRANCH   1   7
BRANCH   1  52
HETATM   52  C7  UNL     1     -39.075   9.287  10.061  1.00  0.00     0.224 C 
BRANCH  52  53
HETATM   53  O2  UNL     1     -39.675  10.520  10.280  1.00  0.00    -0.395 OA
ATOM     54  H2  UNL     1     -40.241  10.497  11.041  1.00  0.00     0.209 HD
ENDBRANCH  52  53
ENDBRANCH   1  52
TORSDOF 19
ENDMDL
MODEL 4
REMARK VINA RESULT: -9.317759927      2.341      3.153
REMARK  19 active torsions:
REMARK  status: ('A' for Active; 'I' for Inactive)
REMARK    1  A    between atoms: N1_2  and  C2_3 
REMARK    2  A    between atoms: N1_2  and  C22_46 
REMARK    3  A    between atoms: C2_3  and  C3_4 
REMARK    4  A    between atoms: C3_4  and  O1_5 
REMARK    5  A    between atoms: C3_4  and  N2_7 
REMARK    6  A    between atoms: N2_7  and  C4_9 
REMARK    7  A    between atoms: N3_11  and  N4_12 
REMARK    8  A    between atoms: N4_12  and  C6_14 
REMARK    9  A    between atoms: C6_14  and  C7_15 
REMARK   10  A    between atoms: C7_15  and  O2_16 
REMARK   11  A    between atoms: C15_30  and  N8_31 
REMARK   12  A    between atoms: C18_34  and  O5_35 
REMARK   13  A    between atoms: C19_37  and  O6_38 
REMARK   14  A    between atoms: C20_40  and  O7_41 
REMARK   15  A    between atoms: C22_46  and  O8_47 
REMARK   16  A    between atoms: C22_46  and  C23_49 
REMARK   17  A    between atoms: C23_49  and  O9_50 
REMARK   18  A    between atoms: C23_49  and  C24_52 
REMARK   19  A    between atoms: C24_52  and  O10_53 
ROOT
HETATM    1  C6  UNL     1     -41.325   5.115   7.654  1.00  0.00     0.081 C 
HETATM    2  C8  UNL     1     -41.128   4.909   6.370  1.00  0.00     0.150 C 
HETATM    3  C9  UNL     1     -40.332   5.857   5.648  1.00  0.00     0.113 C 
HETATM    4  N5  UNL     1     -39.683   6.609   5.056  1.00  0.00    -0.191 NA
HETATM    5  C10 UNL     1     -41.686   3.769   5.689  1.00  0.00     0.113 C 
HETATM    6  N6  UNL     1     -42.151   2.849   5.153  1.00  0.00    -0.191 NA
ENDROOT
BRANCH   1   7
HETATM    7  N4  UNL     1     -40.768   6.235   8.301  1.00  0.00    -0.291 N 
ATOM      8  H4  UNL     1     -40.945   7.158   7.904  1.00  0.00     0.187 HD
BRANCH   7   9
HETATM    9  N3  UNL     1     -39.988   6.154   9.456  1.00  0.00    -0.229 N 
HETATM   10  C5  UNL     1     -39.695   4.938   9.946  1.00  0.00     0.151 A 
HETATM   11  C4  UNL     1     -38.923   4.773  11.090  1.00  0.00     0.076 A 
HETATM   12  C21 UNL     1     -38.439   5.916  11.742  1.00  0.00     0.098 A 
HETATM   13  C12 UNL     1     -38.743   7.160  11.232  1.00  0.00     0.132 A 
HETATM   14  N9  UNL     1     -37.701   5.841  12.826  1.00  0.00    -0.188 N 
HETATM   15  C11 UNL     1     -39.509   7.227  10.104  1.00  0.00     0.284 A 
HETATM   16  C13 UNL     1     -38.239   8.238  11.914  1.00  0.00     0.279 A 
HETATM   17  O3  UNL     1     -39.779   8.370   9.649  1.00  0.00    -0.265 OA
HETATM   18  O4  UNL     1     -38.500   9.388  11.473  1.00  0.00    -0.266 OA
HETATM   19  N7  UNL     1     -37.473   8.115  13.041  1.00  0.00    -0.151 N 
HETATM   20  C14 UNL     1     -36.968   9.343  13.668  1.00  0.00     0.179 C 
HETATM   21  C15 UNL     1     -37.182   6.915  13.529  1.00  0.00     0.687 A 
ATOM     22  H9  UNL     1     -37.491   4.909  13.182  1.00  0.00     0.184 HD
BRANCH  11  23
HETATM   23  N2  UNL     1     -38.606   3.495  11.627  1.00  0.00    -0.359 N 
ATOM     24  H2  UNL     1     -37.687   3.366  12.053  1.00  0.00     0.162 HD
BRANCH  23  25
HETATM   25  C3  UNL     1     -39.498   2.385  11.604  1.00  0.00     0.235 C 
BRANCH  25  26
HETATM   26  C2  UNL     1     -38.748   1.096  11.278  1.00  0.00     0.172 C 
BRANCH  26  27
HETATM   27  N1  UNL     1     -39.389  -0.071  11.757  1.00  0.00    -0.386 N 
HETATM   28  C1  UNL     1     -40.310  -0.672  10.895  1.00  0.00     0.146 C 
BRANCH  27  29
HETATM   29  C22 UNL     1     -38.844  -0.765  12.841  1.00  0.00     0.246 C 
BRANCH  29  30
HETATM   30  O8  UNL     1     -39.353  -0.248  14.059  1.00  0.00    -0.374 OA
ATOM     31  H8  UNL     1     -38.946  -0.686  14.798  1.00  0.00     0.212 HD
ENDBRANCH  29  30
BRANCH  29  32
HETATM   32  C23 UNL     1     -37.362  -0.789  12.989  1.00  0.00     0.190 C 
BRANCH  32  33
HETATM   33  O9  UNL     1     -36.776  -2.021  12.826  1.00  0.00    -0.389 OA
ATOM     34  H9  UNL     1     -36.285  -2.340  13.575  1.00  0.00     0.210 HD
ENDBRANCH  32  33
BRANCH  32  35
HETATM   35  C24 UNL     1     -37.071  -0.370  14.440  1.00  0.00     0.200 C 
BRANCH  35  36
HETATM   36  O10 UNL     1     -36.653   0.975  14.415  1.00  0.00    -0.398 OA
ATOM     37  H10 UNL     1     -36.759   1.288  13.525  1.00  0.00     0.209 HD
ENDBRANCH  35  36
ENDBRANCH  32  35
ENDBRANCH  29  32
ENDBRANCH  27  29
ENDBRANCH  26  27
ENDBRANCH  25  26
BRANCH  25  38
HETATM   38  O1  UNL     1     -40.144   2.181  12.823  1.00  0.00    -0.375 OA
ATOM     39  H1  UNL     1     -41.077   2.202  12.648  1.00  0.00     0.212 HD
ENDBRANCH  25  38
ENDBRANCH  23  25
ENDBRANCH  11  23
BRANCH  21  40
HETATM   40  N8  UNL     1     -36.443   6.635  14.696  1.00  0.00    -0.188 N 
HETATM   41  C16 UNL     1     -35.162   5.885  14.447  1.00  0.00     0.147 C 
HETATM   42  C17 UNL     1     -35.465   4.500  14.983  1.00  0.00     0.055 C 
HETATM   43  C18 UNL     1     -35.991   4.501  16.381  1.00  0.00     0.152 C 
HETATM   44  C19 UNL     1     -37.081   5.484  16.653  1.00  0.00     0.196 C 
HETATM   45  C20 UNL     1     -36.662   6.856  16.070  1.00  0.00     0.268 C 
BRANCH  43  46
HETATM   46  O5  UNL     1     -36.510   3.208  16.625  1.00  0.00    -0.393 OA
ATOM     47  H5  UNL     1     -37.228   3.311  17.240  1.00  0.00     0.210 HD
ENDBRANCH  43  46
BRANCH  44  48
HETATM   48  O6  UNL     1     -37.173   5.643  18.031  1.00  0.00    -0.389 OA
ATOM     49  H6  UNL     1     -38.068   5.891  18.234  1.00  0.00     0.210 HD
ENDBRANCH  44  48
BRANCH  45  50
HETATM   50  O7  UNL     1     -35.361   7.095  16.649  1.00  0.00    -0.373 OA
ATOM     51  H7  UNL     1     -34.948   7.754  16.104  1.00  0.00     0.212 HD
ENDBRANCH  45  50
ENDBRANCH  21  40
ENDBRANCH   7   9
ENDBRANCH   1   7
BRANCH   1  52
HETATM   52  C7  UNL     1     -42.147   4.143   8.408  1.00  0.00     0.224 C 
BRANCH  52  53
HETATM   53  O2  UNL     1     -43.503   4.379   8.224  1.00  0.00    -0.395 OA
ATOM     54  H2  UNL     1     -43.993   3.567   8.191  1.00  0.00     0.209 HD
ENDBRANCH  52  53
ENDBRANCH   1  52
TORSDOF 19
ENDMDL
MODEL 5
REMARK VINA RESULT: -9.275398413      2.626      3.190
REMARK  19 active torsions:
REMARK  status: ('A' for Active; 'I' for Inactive)
REMARK    1  A    between atoms: N1_2  and  C2_3 
REMARK    2  A    between atoms: N1_2  and  C22_46 
REMARK    3  A    between atoms: C2_3  and  C3_4 
REMARK    4  A    between atoms: C3_4  and  O1_5 
REMARK    5  A    between atoms: C3_4  and  N2_7 
REMARK    6  A    between atoms: N2_7  and  C4_9 
REMARK    7  A    between atoms: N3_11  and  N4_12 
REMARK    8  A    between atoms: N4_12  and  C6_14 
REMARK    9  A    between atoms: C6_14  and  C7_15 
REMARK   10  A    between atoms: C7_15  and  O2_16 
REMARK   11  A    between atoms: C15_30  and  N8_31 
REMARK   12  A    between atoms: C18_34  and  O5_35 
REMARK   13  A    between atoms: C19_37  and  O6_38 
REMARK   14  A    between atoms: C20_40  and  O7_41 
REMARK   15  A    between atoms: C22_46  and  O8_47 
REMARK   16  A    between atoms: C22_46  and  C23_49 
REMARK   17  A    between atoms: C23_49  and  O9_50 
REMARK   18  A    between atoms: C23_49  and  C24_52 
REMARK   19  A    between atoms: C24_52  and  O10_53 
ROOT
HETATM    1  C6  UNL     1     -41.322   5.128   7.654  1.00  0.00     0.081 C 
HETATM    2  C8  UNL     1     -41.146   4.902   6.371  1.00  0.00     0.150 C 
HETATM    3  C9  UNL     1     -40.360   5.838   5.622  1.00  0.00     0.113 C 
HETATM    4  N5  UNL     1     -39.719   6.579   5.008  1.00  0.00    -0.191 NA
HETATM    5  C10 UNL     1     -41.717   3.754   5.716  1.00  0.00     0.113 C 
HETATM    6  N6  UNL     1     -42.193   2.827   5.202  1.00  0.00    -0.191 NA
ENDROOT
BRANCH   1   7
HETATM    7  N4  UNL     1     -40.753   6.257   8.275  1.00  0.00    -0.291 N 
ATOM      8  H4  UNL     1     -40.916   7.172   7.855  1.00  0.00     0.187 HD
BRANCH   7   9
HETATM    9  N3  UNL     1     -39.977   6.194   9.435  1.00  0.00    -0.229 N 
HETATM   10  C5  UNL     1     -39.669   4.985   9.934  1.00  0.00     0.151 A 
HETATM   11  C4  UNL     1     -38.901   4.838  11.083  1.00  0.00     0.076 A 
HETATM   12  C21 UNL     1     -38.438   5.992  11.731  1.00  0.00     0.098 A 
HETATM   13  C12 UNL     1     -38.757   7.228  11.212  1.00  0.00     0.132 A 
HETATM   14  N9  UNL     1     -37.704   5.935  12.819  1.00  0.00    -0.188 N 
HETATM   15  C11 UNL     1     -39.518   7.277  10.079  1.00  0.00     0.284 A 
HETATM   16  C13 UNL     1     -38.272   8.318  11.889  1.00  0.00     0.279 A 
HETATM   17  O3  UNL     1     -39.802   8.414   9.616  1.00  0.00    -0.265 OA
HETATM   18  O4  UNL     1     -38.548   9.462  11.441  1.00  0.00    -0.266 OA
HETATM   19  N7  UNL     1     -37.510   8.213  13.021  1.00  0.00    -0.151 N 
HETATM   20  C14 UNL     1     -37.027   9.452  13.643  1.00  0.00     0.179 C 
HETATM   21  C15 UNL     1     -37.205   7.020  13.518  1.00  0.00     0.687 A 
ATOM     22  H9  UNL     1     -37.482   5.008  13.182  1.00  0.00     0.184 HD
BRANCH  11  23
HETATM   23  N2  UNL     1     -38.568   3.569  11.630  1.00  0.00    -0.359 N 
ATOM     24  H2  UNL     1     -38.120   2.884  11.020  1.00  0.00     0.162 HD
BRANCH  23  25
HETATM   25  C3  UNL     1     -38.825   3.200  12.982  1.00  0.00     0.235 C 
BRANCH  25  26
HETATM   26  C2  UNL     1     -39.790   2.019  13.045  1.00  0.00     0.172 C 
BRANCH  26  27
HETATM   27  N1  UNL     1     -39.148   0.766  13.189  1.00  0.00    -0.386 N 
HETATM   28  C1  UNL     1     -39.176   0.198  14.466  1.00  0.00     0.146 C 
BRANCH  27  29
HETATM   29  C22 UNL     1     -38.860   0.001  12.056  1.00  0.00     0.246 C 
BRANCH  29  30
HETATM   30  O8  UNL     1     -37.616   0.396  11.503  1.00  0.00    -0.374 OA
ATOM     31  H8  UNL     1     -37.075  -0.367  11.334  1.00  0.00     0.212 HD
ENDBRANCH  29  30
BRANCH  29  32
HETATM   32  C23 UNL     1     -39.836   0.014  10.931  1.00  0.00     0.190 C 
BRANCH  32  33
HETATM   33  O9  UNL     1     -40.283  -1.222  10.528  1.00  0.00    -0.389 OA
ATOM     34  H9  UNL     1     -39.691  -1.944  10.703  1.00  0.00     0.210 HD
ENDBRANCH  32  33
BRANCH  32  35
HETATM   35  C24 UNL     1     -39.089   0.607   9.725  1.00  0.00     0.200 C 
BRANCH  35  36
HETATM   36  O10 UNL     1     -38.790  -0.455   8.850  1.00  0.00    -0.398 OA
ATOM     37  H10 UNL     1     -39.556  -0.600   8.308  1.00  0.00     0.209 HD
ENDBRANCH  35  36
ENDBRANCH  32  35
ENDBRANCH  29  32
ENDBRANCH  27  29
ENDBRANCH  26  27
ENDBRANCH  25  26
BRANCH  25  38
HETATM   38  O1  UNL     1     -37.673   2.818  13.669  1.00  0.00    -0.375 OA
ATOM     39  H1  UNL     1     -36.953   3.313  13.298  1.00  0.00     0.212 HD
ENDBRANCH  25  38
ENDBRANCH  23  25
ENDBRANCH  11  23
BRANCH  21  40
HETATM   40  N8  UNL     1     -36.468   6.758  14.691  1.00  0.00    -0.188 N 
HETATM   41  C16 UNL     1     -35.152   6.069  14.449  1.00  0.00     0.147 C 
HETATM   42  C17 UNL     1     -35.399   4.665  14.963  1.00  0.00     0.055 C 
HETATM   43  C18 UNL     1     -35.941   4.625  16.354  1.00  0.00     0.152 C 
HETATM   44  C19 UNL     1     -37.077   5.555  16.625  1.00  0.00     0.196 C 
HETATM   45  C20 UNL     1     -36.714   6.951  16.065  1.00  0.00     0.268 C 
BRANCH  43  46
HETATM   46  O5  UNL     1     -36.405   3.307  16.576  1.00  0.00    -0.393 OA
ATOM     47  H5  UNL     1     -36.192   2.805  15.798  1.00  0.00     0.210 HD
ENDBRANCH  43  46
BRANCH  44  48
HETATM   48  O6  UNL     1     -37.193   5.691  18.004  1.00  0.00    -0.389 OA
ATOM     49  H6  UNL     1     -37.726   4.971  18.322  1.00  0.00     0.210 HD
ENDBRANCH  44  48
BRANCH  45  50
HETATM   50  O7  UNL     1     -35.431   7.241  16.663  1.00  0.00    -0.373 OA
ATOM     51  H7  UNL     1     -35.247   6.519  17.252  1.00  0.00     0.212 HD
ENDBRANCH  45  50
ENDBRANCH  21  40
ENDBRANCH   7   9
ENDBRANCH   1   7
BRANCH   1  52
HETATM   52  C7  UNL     1     -42.134   4.169   8.436  1.00  0.00     0.224 C 
BRANCH  52  53
HETATM   53  O2  UNL     1     -43.461   4.185   8.030  1.00  0.00    -0.395 OA
ATOM     54  H2  UNL     1     -44.038   3.890   8.724  1.00  0.00     0.209 HD
ENDBRANCH  52  53
ENDBRANCH   1  52
TORSDOF 19
ENDMDL
