MODEL 1
REMARK VINA RESULT: -8.146906994      0.000      0.000
REMARK  3 active torsions:
REMARK  status: ('A' for Active; 'I' for Inactive)
REMARK    1  A    between atoms: C5_5  and  C6_6 
REMARK    2  A    between atoms: C18_19  and  O2_20 
REMARK    3  A    between atoms: C18_19  and  O3_22 
ROOT
HETATM    1  C6  UNL     1     -32.692 -10.615   0.702  1.00  0.00     0.001 C 
HETATM    2  C7  UNL     1     -33.357  -9.206   0.466  1.00  0.00     0.006 C 
HETATM    3  C8  UNL     1     -34.602  -9.246   1.292  1.00  0.00     0.010 C 
HETATM    4  C9  UNL     1     -34.810 -10.734   1.475  1.00  0.00    -0.039 C 
HETATM    5  C10 UNL     1     -34.419 -11.060   2.872  1.00  0.00     0.015 C 
HETATM    6  C11 UNL     1     -36.238 -11.020   1.120  1.00  0.00     0.017 C 
HETATM    7  C12 UNL     1     -36.547 -12.452   1.432  1.00  0.00     0.080 C 
HETATM    8  C13 UNL     1     -35.258 -13.190   1.413  1.00  0.00     0.135 C 
HETATM    9  O1  UNL     1     -35.143 -14.119   2.186  1.00  0.00    -0.297 OA
HETATM   10  C14 UNL     1     -34.134 -12.790   0.457  1.00  0.00     0.018 C 
HETATM   11  C15 UNL     1     -33.072 -13.803   0.679  1.00  0.00     0.023 C 
HETATM   12  C16 UNL     1     -34.802 -13.252  -0.874  1.00  0.00     0.023 C 
HETATM   13  C17 UNL     1     -33.850 -11.381   0.431  1.00  0.00     0.013 C 
ENDROOT
BRANCH   1  14
HETATM   14  C5  UNL     1     -31.428 -10.512  -0.036  1.00  0.00     0.053 C 
HETATM   15  C4  UNL     1     -31.346 -11.264  -1.344  1.00  0.00     0.014 C 
HETATM   16  C3  UNL     1     -29.901 -11.696  -1.672  1.00  0.00     0.034 C 
HETATM   17  C2  UNL     1     -29.072 -10.506  -1.345  1.00  0.00    -0.080 C 
HETATM   18  C1  UNL     1     -27.782 -10.597  -1.099  1.00  0.00     0.015 C 
HETATM   19  C19 UNL     1     -29.818  -9.216  -1.317  1.00  0.00     0.072 C 
HETATM   20  C18 UNL     1     -30.802  -9.165  -0.167  1.00  0.00     0.170 C 
HETATM   21  C20 UNL     1     -28.796  -8.100  -1.217  1.00  0.00     0.020 C 
BRANCH  20  22
HETATM   22  O2  UNL     1     -31.656  -8.128  -0.439  1.00  0.00    -0.364 OA
ATOM     23  H2  UNL     1     -31.844  -7.972  -1.356  1.00  0.00     0.213 HD
ENDBRANCH  20  22
BRANCH  20  24
HETATM   24  O3  UNL     1     -30.033  -8.805   0.946  1.00  0.00    -0.364 OA
ATOM     25  H3  UNL     1     -29.398  -8.125   0.757  1.00  0.00     0.213 HD
ENDBRANCH  20  24
ENDBRANCH   1  14
TORSDOF 3
ENDMDL
MODEL 2
REMARK VINA RESULT: -5.429281613      2.093      4.065
REMARK  3 active torsions:
REMARK  status: ('A' for Active; 'I' for Inactive)
REMARK    1  A    between atoms: C5_5  and  C6_6 
REMARK    2  A    between atoms: C18_19  and  O2_20 
REMARK    3  A    between atoms: C18_19  and  O3_22 
ROOT
HETATM    1  C6  UNL     1     -32.808 -11.176  -0.161  1.00  0.00     0.001 C 
HETATM    2  C7  UNL     1     -31.309 -11.563  -0.454  1.00  0.00     0.006 C 
HETATM    3  C8  UNL     1     -31.402 -12.878  -1.159  1.00  0.00     0.010 C 
HETATM    4  C9  UNL     1     -32.781 -13.354  -0.757  1.00  0.00    -0.039 C 
HETATM    5  C10 UNL     1     -33.666 -13.175  -1.938  1.00  0.00     0.015 C 
HETATM    6  C11 UNL     1     -32.629 -14.763  -0.270  1.00  0.00     0.017 C 
HETATM    7  C12 UNL     1     -33.985 -15.342  -0.005  1.00  0.00     0.080 C 
HETATM    8  C13 UNL     1     -34.904 -14.202   0.249  1.00  0.00     0.135 C 
HETATM    9  O1  UNL     1     -36.054 -14.330  -0.117  1.00  0.00    -0.297 OA
HETATM   10  C14 UNL     1     -34.411 -12.932   0.942  1.00  0.00     0.018 C 
HETATM   11  C15 UNL     1     -35.623 -12.087   1.085  1.00  0.00     0.023 C 
HETATM   12  C16 UNL     1     -34.212 -13.523   2.371  1.00  0.00     0.023 C 
HETATM   13  C17 UNL     1     -33.176 -12.412   0.421  1.00  0.00     0.013 C 
ENDROOT
BRANCH   1  14
HETATM   14  C5  UNL     1     -32.693  -9.841   0.438  1.00  0.00     0.053 C 
HETATM   15  C4  UNL     1     -31.569  -8.967  -0.070  1.00  0.00     0.014 C 
HETATM   16  C3  UNL     1     -31.079  -7.976   1.006  1.00  0.00     0.034 C 
HETATM   17  C2  UNL     1     -32.324  -7.450   1.627  1.00  0.00    -0.080 C 
HETATM   18  C1  UNL     1     -32.335  -6.909   2.826  1.00  0.00     0.015 C 
HETATM   19  C19 UNL     1     -33.546  -7.591   0.783  1.00  0.00     0.072 C 
HETATM   20  C18 UNL     1     -33.940  -9.042   0.610  1.00  0.00     0.170 C 
HETATM   21  C20 UNL     1     -34.653  -6.795   1.449  1.00  0.00     0.020 C 
BRANCH  20  22
HETATM   22  O2  UNL     1     -34.825  -9.076  -0.436  1.00  0.00    -0.364 OA
ATOM     23  H2  UNL     1     -35.714  -9.332  -0.222  1.00  0.00     0.213 HD
ENDBRANCH  20  22
BRANCH  20  24
HETATM   24  O3  UNL     1     -34.644  -9.365   1.776  1.00  0.00    -0.364 OA
ATOM     25  H3  UNL     1     -34.303  -8.931   2.549  1.00  0.00     0.213 HD
ENDBRANCH  20  24
ENDBRANCH   1  14
TORSDOF 3
ENDMDL
MODEL 3
REMARK VINA RESULT: -5.146233034      1.952      4.371
REMARK  3 active torsions:
REMARK  status: ('A' for Active; 'I' for Inactive)
REMARK    1  A    between atoms: C5_5  and  C6_6 
REMARK    2  A    between atoms: C18_19  and  O2_20 
REMARK    3  A    between atoms: C18_19  and  O3_22 
ROOT
HETATM    1  C6  UNL     1     -33.081 -11.381  -0.345  1.00  0.00     0.001 C 
HETATM    2  C7  UNL     1     -31.514 -11.221  -0.361  1.00  0.00     0.006 C 
HETATM    3  C8  UNL     1     -31.029 -12.449  -1.064  1.00  0.00     0.010 C 
HETATM    4  C9  UNL     1     -32.209 -13.384  -0.914  1.00  0.00    -0.039 C 
HETATM    5  C10 UNL     1     -32.886 -13.448  -2.236  1.00  0.00     0.015 C 
HETATM    6  C11 UNL     1     -31.670 -14.684  -0.399  1.00  0.00     0.017 C 
HETATM    7  C12 UNL     1     -32.770 -15.701  -0.379  1.00  0.00     0.080 C 
HETATM    8  C13 UNL     1     -34.052 -14.955  -0.302  1.00  0.00     0.135 C 
HETATM    9  O1  UNL     1     -35.009 -15.443  -0.869  1.00  0.00    -0.297 OA
HETATM   10  C14 UNL     1     -34.150 -13.634   0.461  1.00  0.00     0.018 C 
HETATM   11  C15 UNL     1     -35.584 -13.258   0.378  1.00  0.00     0.023 C 
HETATM   12  C16 UNL     1     -34.009 -14.203   1.906  1.00  0.00     0.023 C 
HETATM   13  C17 UNL     1     -33.099 -12.699   0.168  1.00  0.00     0.013 C 
ENDROOT
BRANCH   1  14
HETATM   14  C5  UNL     1     -33.536 -10.122   0.257  1.00  0.00     0.053 C 
HETATM   15  C4  UNL     1     -34.650 -10.223   1.274  1.00  0.00     0.014 C 
HETATM   16  C3  UNL     1     -35.513  -8.944   1.311  1.00  0.00     0.034 C 
HETATM   17  C2  UNL     1     -34.532  -7.828   1.262  1.00  0.00    -0.080 C 
HETATM   18  C1  UNL     1     -34.867  -6.618   0.870  1.00  0.00     0.015 C 
HETATM   19  C19 UNL     1     -33.151  -8.195   1.689  1.00  0.00     0.072 C 
HETATM   20  C18 UNL     1     -32.500  -9.150   0.711  1.00  0.00     0.170 C 
HETATM   21  C20 UNL     1     -32.356  -6.909   1.815  1.00  0.00     0.020 C 
BRANCH  20  22
HETATM   22  O2  UNL     1     -31.417  -9.682   1.359  1.00  0.00    -0.364 OA
ATOM     23  H2  UNL     1     -30.680  -9.924   0.811  1.00  0.00     0.213 HD
ENDBRANCH  20  22
BRANCH  20  24
HETATM   24  O3  UNL     1     -32.022  -8.334  -0.322  1.00  0.00    -0.364 OA
ATOM     25  H3  UNL     1     -31.654  -7.516  -0.011  1.00  0.00     0.213 HD
ENDBRANCH  20  24
ENDBRANCH   1  14
TORSDOF 3
ENDMDL
