MODEL 1
REMARK VINA RESULT: -5.280216081      0.000      0.000
REMARK  4 active torsions:
REMARK  status: ('A' for Active; 'I' for Inactive)
REMARK    1  A    between atoms: C3_3  and  S1_4 
REMARK    2  A    between atoms: S1_4  and  C4_5 
REMARK    3  A    between atoms: C4_5  and  C7_8 
REMARK    4  A    between atoms: C7_8  and  C10_11 
ROOT
HETATM    1  C1  UNL     1     -30.709 -11.944  -1.403  1.00  0.00     0.057 C 
HETATM    2  C2  UNL     1     -31.026 -10.735  -0.606  1.00  0.00     0.040 A 
HETATM    3  C3  UNL     1     -32.147 -10.620   0.173  1.00  0.00     0.084 A 
HETATM    4  N1  UNL     1     -32.322  -9.485   0.861  1.00  0.00    -0.327 N 
ATOM      5  H1  UNL     1     -33.151  -9.382   1.445  1.00  0.00     0.169 HD
HETATM    6  C14 UNL     1     -31.427  -8.466   0.801  1.00  0.00     0.179 A 
HETATM    7  S2  UNL     1     -31.721  -7.125   1.668  1.00  0.00    -0.040 SA
HETATM    8  N2  UNL     1     -30.330  -8.552   0.050  1.00  0.00    -0.300 N 
ATOM      9  H2  UNL     1     -29.666  -7.779   0.014  1.00  0.00     0.171 HD
HETATM   10  C15 UNL     1     -30.109  -9.670  -0.657  1.00  0.00     0.256 A 
HETATM   11  O1  UNL     1     -29.073  -9.792  -1.385  1.00  0.00    -0.267 OA
ENDROOT
BRANCH   3  12
HETATM   12  S1  UNL     1     -33.314 -11.920   0.281  1.00  0.00    -0.101 SA
BRANCH  12  13
HETATM   13  C4  UNL     1     -34.814 -11.471   1.255  1.00  0.00     0.015 C 
HETATM   14  C5  UNL     1     -34.223 -10.747   2.470  1.00  0.00     0.028 C 
HETATM   15  C6  UNL     1     -35.564 -10.467   0.483  1.00  0.00     0.028 C 
BRANCH  13  16
HETATM   16  C7  UNL     1     -35.473 -12.753   1.576  1.00  0.00    -0.025 C 
HETATM   17  C8  UNL     1     -34.356 -13.726   1.971  1.00  0.00     0.017 C 
HETATM   18  C9  UNL     1     -36.072 -13.344   0.305  1.00  0.00     0.017 C 
BRANCH  16  19
HETATM   19  C10 UNL     1     -36.517 -12.805   2.605  1.00  0.00    -0.043 C 
HETATM   20  C11 UNL     1     -36.081 -13.180   4.005  1.00  0.00     0.015 C 
HETATM   21  C12 UNL     1     -37.468 -13.957   2.207  1.00  0.00     0.015 C 
HETATM   22  C13 UNL     1     -37.416 -11.589   2.698  1.00  0.00     0.015 C 
ENDBRANCH  16  19
ENDBRANCH  13  16
ENDBRANCH  12  13
ENDBRANCH   3  12
TORSDOF 4
ENDMDL
MODEL 2
REMARK VINA RESULT: -4.978916166      1.299      2.419
REMARK  4 active torsions:
REMARK  status: ('A' for Active; 'I' for Inactive)
REMARK    1  A    between atoms: C3_3  and  S1_4 
REMARK    2  A    between atoms: S1_4  and  C4_5 
REMARK    3  A    between atoms: C4_5  and  C7_8 
REMARK    4  A    between atoms: C7_8  and  C10_11 
ROOT
HETATM    1  C1  UNL     1     -30.144 -10.807  -1.183  1.00  0.00     0.057 C 
HETATM    2  C2  UNL     1     -30.797  -9.786  -0.330  1.00  0.00     0.040 A 
HETATM    3  C3  UNL     1     -31.898 -10.044   0.443  1.00  0.00     0.084 A 
HETATM    4  N1  UNL     1     -32.395  -9.046   1.185  1.00  0.00    -0.327 N 
ATOM      5  H1  UNL     1     -33.215  -9.221   1.766  1.00  0.00     0.169 HD
HETATM    6  C14 UNL     1     -31.839  -7.809   1.185  1.00  0.00     0.179 A 
HETATM    7  S2  UNL     1     -32.508  -6.658   2.115  1.00  0.00    -0.040 SA
HETATM    8  N2  UNL     1     -30.768  -7.531   0.442  1.00  0.00    -0.300 N 
ATOM      9  H2  UNL     1     -30.360  -6.596   0.451  1.00  0.00     0.171 HD
HETATM   10  C15 UNL     1     -30.233  -8.498  -0.318  1.00  0.00     0.256 A 
HETATM   11  O1  UNL     1     -29.210  -8.273  -1.042  1.00  0.00    -0.267 OA
ENDROOT
BRANCH   3  12
HETATM   12  S1  UNL     1     -32.632 -11.632   0.475  1.00  0.00    -0.101 SA
BRANCH  12  13
HETATM   13  C4  UNL     1     -34.407 -11.604   0.974  1.00  0.00     0.015 C 
HETATM   14  C5  UNL     1     -34.327 -11.431   2.495  1.00  0.00     0.028 C 
HETATM   15  C6  UNL     1     -35.003 -10.369   0.436  1.00  0.00     0.028 C 
BRANCH  13  16
HETATM   16  C7  UNL     1     -34.960 -12.902   0.540  1.00  0.00    -0.025 C 
HETATM   17  C8  UNL     1     -35.921 -12.597  -0.615  1.00  0.00     0.017 C 
HETATM   18  C9  UNL     1     -35.845 -13.468   1.644  1.00  0.00     0.017 C 
BRANCH  16  19
HETATM   19  C10 UNL     1     -34.060 -13.980   0.118  1.00  0.00    -0.043 C 
HETATM   20  C11 UNL     1     -32.846 -13.583  -0.693  1.00  0.00     0.015 C 
HETATM   21  C12 UNL     1     -34.865 -14.869  -0.857  1.00  0.00     0.015 C 
HETATM   22  C13 UNL     1     -33.610 -14.931   1.210  1.00  0.00     0.015 C 
ENDBRANCH  16  19
ENDBRANCH  13  16
ENDBRANCH  12  13
ENDBRANCH   3  12
TORSDOF 4
ENDMDL
MODEL 3
REMARK VINA RESULT: -4.539658544      2.849      4.963
REMARK  4 active torsions:
REMARK  status: ('A' for Active; 'I' for Inactive)
REMARK    1  A    between atoms: C3_3  and  S1_4 
REMARK    2  A    between atoms: S1_4  and  C4_5 
REMARK    3  A    between atoms: C4_5  and  C7_8 
REMARK    4  A    between atoms: C7_8  and  C10_11 
ROOT
HETATM    1  C1  UNL     1     -29.920 -10.911  -1.471  1.00  0.00     0.057 C 
HETATM    2  C2  UNL     1     -31.145 -11.540  -0.925  1.00  0.00     0.040 A 
HETATM    3  C3  UNL     1     -32.019 -10.888  -0.094  1.00  0.00     0.084 A 
HETATM    4  N1  UNL     1     -33.101 -11.553   0.328  1.00  0.00    -0.327 N 
ATOM      5  H1  UNL     1     -33.762 -11.083   0.947  1.00  0.00     0.169 HD
HETATM    6  C14 UNL     1     -33.345 -12.835  -0.045  1.00  0.00     0.179 A 
HETATM    7  S2  UNL     1     -34.683 -13.564   0.515  1.00  0.00    -0.040 SA
HETATM    8  N2  UNL     1     -32.511 -13.491  -0.851  1.00  0.00    -0.300 N 
ATOM      9  H2  UNL     1     -32.706 -14.455  -1.123  1.00  0.00     0.171 HD
HETATM   10  C15 UNL     1     -31.412 -12.868  -1.301  1.00  0.00     0.256 A 
HETATM   11  O1  UNL     1     -30.592 -13.460  -2.073  1.00  0.00    -0.267 OA
ENDROOT
BRANCH   3  12
HETATM   12  S1  UNL     1     -31.740  -9.231   0.396  1.00  0.00    -0.101 SA
BRANCH  12  13
HETATM   13  C4  UNL     1     -32.968  -8.620   1.628  1.00  0.00     0.015 C 
HETATM   14  C5  UNL     1     -33.396  -9.907   2.344  1.00  0.00     0.028 C 
HETATM   15  C6  UNL     1     -32.243  -7.804   2.615  1.00  0.00     0.028 C 
BRANCH  13  16
HETATM   16  C7  UNL     1     -34.039  -7.984   0.835  1.00  0.00    -0.025 C 
HETATM   17  C8  UNL     1     -35.233  -8.945   0.874  1.00  0.00     0.017 C 
HETATM   18  C9  UNL     1     -33.624  -7.940  -0.631  1.00  0.00     0.017 C 
BRANCH  16  19
HETATM   19  C10 UNL     1     -34.515  -6.642   1.185  1.00  0.00    -0.043 C 
HETATM   20  C11 UNL     1     -35.827  -6.553   1.934  1.00  0.00     0.015 C 
HETATM   21  C12 UNL     1     -34.815  -5.921  -0.148  1.00  0.00     0.015 C 
HETATM   22  C13 UNL     1     -33.511  -5.745   1.881  1.00  0.00     0.015 C 
ENDBRANCH  16  19
ENDBRANCH  13  16
ENDBRANCH  12  13
ENDBRANCH   3  12
TORSDOF 4
ENDMDL
MODEL 4
REMARK VINA RESULT: -4.428441962      3.184      5.463
REMARK  4 active torsions:
REMARK  status: ('A' for Active; 'I' for Inactive)
REMARK    1  A    between atoms: C3_3  and  S1_4 
REMARK    2  A    between atoms: S1_4  and  C4_5 
REMARK    3  A    between atoms: C4_5  and  C7_8 
REMARK    4  A    between atoms: C7_8  and  C10_11 
ROOT
HETATM    1  C1  UNL     1     -35.414 -12.744   1.710  1.00  0.00     0.057 C 
HETATM    2  C2  UNL     1     -34.225 -12.625   0.833  1.00  0.00     0.040 A 
HETATM    3  C3  UNL     1     -33.373 -11.553   0.862  1.00  0.00     0.084 A 
HETATM    4  N1  UNL     1     -32.323 -11.560   0.031  1.00  0.00    -0.327 N 
ATOM      5  H1  UNL     1     -31.679 -10.770   0.040  1.00  0.00     0.169 HD
HETATM    6  C14 UNL     1     -32.093 -12.590  -0.822  1.00  0.00     0.179 A 
HETATM    7  S2  UNL     1     -30.795 -12.514  -1.795  1.00  0.00    -0.040 SA
HETATM    8  N2  UNL     1     -32.906 -13.644  -0.871  1.00  0.00    -0.300 N 
ATOM      9  H2  UNL     1     -32.722 -14.410  -1.518  1.00  0.00     0.171 HD
HETATM   10  C15 UNL     1     -33.972 -13.683  -0.058  1.00  0.00     0.256 A 
HETATM   11  O1  UNL     1     -34.773 -14.672  -0.074  1.00  0.00    -0.267 OA
ENDROOT
BRANCH   3  12
HETATM   12  S1  UNL     1     -33.635 -10.215   1.959  1.00  0.00    -0.101 SA
BRANCH  12  13
HETATM   13  C4  UNL     1     -32.970  -8.615   1.329  1.00  0.00     0.015 C 
HETATM   14  C5  UNL     1     -32.419  -7.956   2.598  1.00  0.00     0.028 C 
HETATM   15  C6  UNL     1     -31.813  -8.920   0.470  1.00  0.00     0.028 C 
BRANCH  13  16
HETATM   16  C7  UNL     1     -34.126  -7.914   0.735  1.00  0.00    -0.025 C 
HETATM   17  C8  UNL     1     -35.331  -8.845   0.911  1.00  0.00     0.017 C 
HETATM   18  C9  UNL     1     -33.932  -7.811  -0.774  1.00  0.00     0.017 C 
BRANCH  16  19
HETATM   19  C10 UNL     1     -34.500  -6.579   1.211  1.00  0.00    -0.043 C 
HETATM   20  C11 UNL     1     -35.718  -6.485   2.104  1.00  0.00     0.015 C 
HETATM   21  C12 UNL     1     -34.909  -5.766  -0.038  1.00  0.00     0.015 C 
HETATM   22  C13 UNL     1     -33.386  -5.766   1.842  1.00  0.00     0.015 C 
ENDBRANCH  16  19
ENDBRANCH  13  16
ENDBRANCH  12  13
ENDBRANCH   3  12
TORSDOF 4
ENDMDL
MODEL 5
REMARK VINA RESULT: -4.363163043      3.700      6.406
REMARK  4 active torsions:
REMARK  status: ('A' for Active; 'I' for Inactive)
REMARK    1  A    between atoms: C3_3  and  S1_4 
REMARK    2  A    between atoms: S1_4  and  C4_5 
REMARK    3  A    between atoms: C4_5  and  C7_8 
REMARK    4  A    between atoms: C7_8  and  C10_11 
ROOT
HETATM    1  C1  UNL     1     -34.373 -13.380   1.669  1.00  0.00     0.057 C 
HETATM    2  C2  UNL     1     -35.628 -12.847   2.249  1.00  0.00     0.040 A 
HETATM    3  C3  UNL     1     -36.187 -11.655   1.867  1.00  0.00     0.084 A 
HETATM    4  N1  UNL     1     -37.331 -11.280   2.452  1.00  0.00    -0.327 N 
ATOM      5  H1  UNL     1     -37.761 -10.396   2.179  1.00  0.00     0.169 HD
HETATM    6  C14 UNL     1     -37.936 -12.043   3.397  1.00  0.00     0.179 A 
HETATM    7  S2  UNL     1     -39.322 -11.510   4.054  1.00  0.00    -0.040 SA
HETATM    8  N2  UNL     1     -37.413 -13.205   3.787  1.00  0.00    -0.300 N 
ATOM      9  H2  UNL     1     -37.878 -13.769   4.500  1.00  0.00     0.171 HD
HETATM   10  C15 UNL     1     -36.267 -13.625   3.230  1.00  0.00     0.256 A 
HETATM   11  O1  UNL     1     -35.736 -14.728   3.575  1.00  0.00    -0.267 OA
ENDROOT
BRANCH   3  12
HETATM   12  S1  UNL     1     -35.439 -10.654   0.642  1.00  0.00    -0.101 SA
BRANCH  12  13
HETATM   13  C4  UNL     1     -33.762 -10.053   1.118  1.00  0.00     0.015 C 
HETATM   14  C5  UNL     1     -33.690 -10.400   2.610  1.00  0.00     0.028 C 
HETATM   15  C6  UNL     1     -32.773 -10.904   0.435  1.00  0.00     0.028 C 
BRANCH  13  16
HETATM   16  C7  UNL     1     -33.766  -8.605   0.832  1.00  0.00    -0.025 C 
HETATM   17  C8  UNL     1     -35.211  -8.131   1.026  1.00  0.00     0.017 C 
HETATM   18  C9  UNL     1     -33.479  -8.382  -0.648  1.00  0.00     0.017 C 
BRANCH  16  19
HETATM   19  C10 UNL     1     -32.881  -7.706   1.579  1.00  0.00    -0.043 C 
HETATM   20  C11 UNL     1     -33.366  -6.289   1.797  1.00  0.00     0.015 C 
HETATM   21  C12 UNL     1     -31.613  -7.520   0.715  1.00  0.00     0.015 C 
HETATM   22  C13 UNL     1     -32.361  -8.237   2.901  1.00  0.00     0.015 C 
ENDBRANCH  16  19
ENDBRANCH  13  16
ENDBRANCH  12  13
ENDBRANCH   3  12
TORSDOF 4
ENDMDL
