MODEL 1
REMARK VINA RESULT: -5.987606258      0.000      0.000
REMARK  9 active torsions:
REMARK  status: ('A' for Active; 'I' for Inactive)
REMARK    1  A    between atoms: N2_8  and  C7_9 
REMARK    2  A    between atoms: N3_12  and  C10_13 
REMARK    3  A    between atoms: C10_13  and  C11_14 
REMARK    4  A    between atoms: C11_14  and  C12_15 
REMARK    5  A    between atoms: C12_15  and  C13_16 
REMARK    6  A    between atoms: C13_16  and  N4_17 
REMARK    7  A    between atoms: N4_17  and  C14_19 
REMARK    8  A    between atoms: C14_19  and  N5_21 
REMARK    9  A    between atoms: N5_21  and  N6_23 
ROOT
HETATM    1  C1  UNL     1      14.782  11.857   9.910  1.00  0.00     0.032 C 
HETATM    2  C2  UNL     1      13.831  10.687   9.769  1.00  0.00     0.076 C 
HETATM    3  C3  UNL     1      13.069  10.881   8.482  1.00  0.00     0.027 C 
HETATM    4  C4  UNL     1      12.683   9.457   8.125  1.00  0.00     0.042 C 
HETATM    5  C5  UNL     1      14.037   8.772   8.457  1.00  0.00     0.188 C 
HETATM    6  C6  UNL     1      14.886   9.181   7.308  1.00  0.00     0.084 C 
HETATM    7  N1  UNL     1      15.571   9.495   6.419  1.00  0.00    -0.195 NA
HETATM    8  N2  UNL     1      14.427   9.434   9.654  1.00  0.00    -0.388 N 
ENDROOT
BRANCH   8   9
HETATM    9  C7  UNL     1      15.635   9.110  10.264  1.00  0.00     0.084 C 
HETATM   10  C8  UNL     1      15.674   9.241  11.760  1.00  0.00     0.055 C 
HETATM   11  C9  UNL     1      16.381   8.216  12.527  1.00  0.00     0.274 C 
HETATM   12  N3  UNL     1      17.440   7.497  11.899  1.00  0.00     0.088 N 
HETATM   13  C17 UNL     1      17.487   7.583  10.476  1.00  0.00     0.274 C 
HETATM   14  C18 UNL     1      16.046   7.658   9.976  1.00  0.00     0.055 C 
BRANCH  12  15
HETATM   15  C10 UNL     1      18.732   7.758  12.518  1.00  0.00     0.272 C 
BRANCH  15  16
HETATM   16  C11 UNL     1      18.584   7.564  13.998  1.00  0.00     0.032 C 
BRANCH  16  17
HETATM   17  C12 UNL     1      18.807   6.115  14.388  1.00  0.00     0.021 C 
BRANCH  17  18
HETATM   18  C13 UNL     1      17.516   5.560  14.872  1.00  0.00     0.122 C 
BRANCH  18  19
HETATM   19  N4  UNL     1      17.591   4.291  15.526  1.00  0.00    -0.366 N 
ATOM     20  H4  UNL     1      18.362   4.165  16.180  1.00  0.00     0.161 HD
BRANCH  19  21
HETATM   21  C14 UNL     1      16.721   3.192  15.372  1.00  0.00     0.186 C 
HETATM   22  S1  UNL     1      15.488   3.054  16.474  1.00  0.00    -0.040 SA
BRANCH  21  23
HETATM   23  N5  UNL     1      16.801   2.197  14.377  1.00  0.00    -0.279 N 
ATOM     24  H5  UNL     1      16.828   1.240  14.727  1.00  0.00     0.189 HD
BRANCH  23  25
HETATM   25  N6  UNL     1      16.848   2.315  13.030  1.00  0.00    -0.334 N 
HETATM   26  C15 UNL     1      16.996   1.126  12.261  1.00  0.00     0.170 C 
HETATM   27  C16 UNL     1      16.306   3.439  12.379  1.00  0.00     0.170 C 
ENDBRANCH  23  25
ENDBRANCH  21  23
ENDBRANCH  19  21
ENDBRANCH  18  19
ENDBRANCH  17  18
ENDBRANCH  16  17
ENDBRANCH  15  16
ENDBRANCH  12  15
ENDBRANCH   8   9
TORSDOF 9
ENDMDL
MODEL 2
REMARK VINA RESULT: -5.950255657      1.397      1.631
REMARK  9 active torsions:
REMARK  status: ('A' for Active; 'I' for Inactive)
REMARK    1  A    between atoms: N2_8  and  C7_9 
REMARK    2  A    between atoms: N3_12  and  C10_13 
REMARK    3  A    between atoms: C10_13  and  C11_14 
REMARK    4  A    between atoms: C11_14  and  C12_15 
REMARK    5  A    between atoms: C12_15  and  C13_16 
REMARK    6  A    between atoms: C13_16  and  N4_17 
REMARK    7  A    between atoms: N4_17  and  C14_19 
REMARK    8  A    between atoms: C14_19  and  N5_21 
REMARK    9  A    between atoms: N5_21  and  N6_23 
ROOT
HETATM    1  C1  UNL     1      14.075   9.948  11.247  1.00  0.00     0.032 C 
HETATM    2  C2  UNL     1      13.842   9.123   9.999  1.00  0.00     0.076 C 
HETATM    3  C3  UNL     1      13.013   9.959   9.056  1.00  0.00     0.027 C 
HETATM    4  C4  UNL     1      13.383   9.373   7.705  1.00  0.00     0.042 C 
HETATM    5  C5  UNL     1      14.914   9.243   7.934  1.00  0.00     0.188 C 
HETATM    6  C6  UNL     1      15.370  10.652   7.817  1.00  0.00     0.084 C 
HETATM    7  N1  UNL     1      15.748  11.752   7.734  1.00  0.00    -0.195 NA
HETATM    8  N2  UNL     1      14.983   8.783   9.278  1.00  0.00    -0.388 N 
ENDROOT
BRANCH   8   9
HETATM    9  C7  UNL     1      16.221   8.569   9.875  1.00  0.00     0.084 C 
HETATM   10  C8  UNL     1      16.343   7.327  10.713  1.00  0.00     0.055 C 
HETATM   11  C9  UNL     1      17.583   6.556  10.634  1.00  0.00     0.274 C 
HETATM   12  N3  UNL     1      18.787   7.229  10.269  1.00  0.00     0.088 N 
HETATM   13  C17 UNL     1      18.621   8.512   9.668  1.00  0.00     0.274 C 
HETATM   14  C18 UNL     1      17.344   8.461   8.832  1.00  0.00     0.055 C 
BRANCH  12  15
HETATM   15  C10 UNL     1      19.766   7.239  11.347  1.00  0.00     0.272 C 
BRANCH  15  16
HETATM   16  C11 UNL     1      19.436   6.113  12.282  1.00  0.00     0.032 C 
BRANCH  16  17
HETATM   17  C12 UNL     1      19.447   6.575  13.727  1.00  0.00     0.021 C 
BRANCH  17  18
HETATM   18  C13 UNL     1      18.086   6.376  14.290  1.00  0.00     0.122 C 
BRANCH  18  19
HETATM   19  N4  UNL     1      17.836   5.093  14.872  1.00  0.00    -0.366 N 
ATOM     20  H4  UNL     1      18.558   4.732  15.493  1.00  0.00     0.161 HD
BRANCH  19  21
HETATM   21  C14 UNL     1      16.706   4.271  14.686  1.00  0.00     0.186 C 
HETATM   22  S1  UNL     1      15.257   4.852  15.250  1.00  0.00    -0.040 SA
BRANCH  21  23
HETATM   23  N5  UNL     1      16.689   3.002  14.074  1.00  0.00    -0.279 N 
ATOM     24  H5  UNL     1      16.578   2.216  14.714  1.00  0.00     0.189 HD
BRANCH  23  25
HETATM   25  N6  UNL     1      16.796   2.664  12.768  1.00  0.00    -0.334 N 
HETATM   26  C15 UNL     1      17.014   1.294  12.449  1.00  0.00     0.170 C 
HETATM   27  C16 UNL     1      16.252   3.480  11.758  1.00  0.00     0.170 C 
ENDBRANCH  23  25
ENDBRANCH  21  23
ENDBRANCH  19  21
ENDBRANCH  18  19
ENDBRANCH  17  18
ENDBRANCH  16  17
ENDBRANCH  15  16
ENDBRANCH  12  15
ENDBRANCH   8   9
TORSDOF 9
ENDMDL
MODEL 3
REMARK VINA RESULT: -5.938448902      1.718      2.281
REMARK  9 active torsions:
REMARK  status: ('A' for Active; 'I' for Inactive)
REMARK    1  A    between atoms: N2_8  and  C7_9 
REMARK    2  A    between atoms: N3_12  and  C10_13 
REMARK    3  A    between atoms: C10_13  and  C11_14 
REMARK    4  A    between atoms: C11_14  and  C12_15 
REMARK    5  A    between atoms: C12_15  and  C13_16 
REMARK    6  A    between atoms: C13_16  and  N4_17 
REMARK    7  A    between atoms: N4_17  and  C14_19 
REMARK    8  A    between atoms: C14_19  and  N5_21 
REMARK    9  A    between atoms: N5_21  and  N6_23 
ROOT
HETATM    1  C1  UNL     1      14.701  10.195  11.084  1.00  0.00     0.032 C 
HETATM    2  C2  UNL     1      14.059   9.198  10.143  1.00  0.00     0.076 C 
HETATM    3  C3  UNL     1      13.137   9.969   9.232  1.00  0.00     0.027 C 
HETATM    4  C4  UNL     1      13.080   9.073   8.007  1.00  0.00     0.042 C 
HETATM    5  C5  UNL     1      14.589   8.715   7.925  1.00  0.00     0.188 C 
HETATM    6  C6  UNL     1      15.181   9.968   7.389  1.00  0.00     0.084 C 
HETATM    7  N1  UNL     1      15.665  10.943   6.973  1.00  0.00    -0.195 NA
HETATM    8  N2  UNL     1      14.930   8.522   9.293  1.00  0.00    -0.388 N 
ENDROOT
BRANCH   8   9
HETATM    9  C7  UNL     1      16.240   8.208   9.643  1.00  0.00     0.084 C 
HETATM   10  C8  UNL     1      16.405   7.166  10.714  1.00  0.00     0.055 C 
HETATM   11  C9  UNL     1      17.471   6.178  10.560  1.00  0.00     0.274 C 
HETATM   12  N3  UNL     1      18.621   6.523   9.791  1.00  0.00     0.088 N 
HETATM   13  C17 UNL     1      18.481   7.662   8.945  1.00  0.00     0.274 C 
HETATM   14  C18 UNL     1      17.039   7.680   8.442  1.00  0.00     0.055 C 
BRANCH  12  15
HETATM   15  C10 UNL     1      19.834   6.572  10.597  1.00  0.00     0.272 C 
BRANCH  15  16
HETATM   16  C11 UNL     1      19.568   5.838  11.878  1.00  0.00     0.032 C 
BRANCH  16  17
HETATM   17  C12 UNL     1      19.945   6.677  13.083  1.00  0.00     0.021 C 
BRANCH  17  18
HETATM   18  C13 UNL     1      18.851   6.572  14.084  1.00  0.00     0.122 C 
BRANCH  18  19
HETATM   19  N4  UNL     1      18.079   5.369  14.038  1.00  0.00    -0.366 N 
ATOM     20  H4  UNL     1      18.283   4.732  13.269  1.00  0.00     0.161 HD
BRANCH  19  21
HETATM   21  C14 UNL     1      17.068   4.961  14.932  1.00  0.00     0.186 C 
HETATM   22  S1  UNL     1      15.616   5.759  14.833  1.00  0.00    -0.040 SA
BRANCH  21  23
HETATM   23  N5  UNL     1      17.173   3.947  15.905  1.00  0.00    -0.279 N 
ATOM     24  H5  UNL     1      17.760   4.179  16.706  1.00  0.00     0.189 HD
BRANCH  23  25
HETATM   25  N6  UNL     1      16.616   2.715  15.941  1.00  0.00    -0.334 N 
HETATM   26  C15 UNL     1      15.568   2.484  16.876  1.00  0.00     0.170 C 
HETATM   27  C16 UNL     1      16.693   1.848  14.834  1.00  0.00     0.170 C 
ENDBRANCH  23  25
ENDBRANCH  21  23
ENDBRANCH  19  21
ENDBRANCH  18  19
ENDBRANCH  17  18
ENDBRANCH  16  17
ENDBRANCH  15  16
ENDBRANCH  12  15
ENDBRANCH   8   9
TORSDOF 9
ENDMDL
MODEL 4
REMARK VINA RESULT: -5.822086157      1.478      1.938
REMARK  9 active torsions:
REMARK  status: ('A' for Active; 'I' for Inactive)
REMARK    1  A    between atoms: N2_8  and  C7_9 
REMARK    2  A    between atoms: N3_12  and  C10_13 
REMARK    3  A    between atoms: C10_13  and  C11_14 
REMARK    4  A    between atoms: C11_14  and  C12_15 
REMARK    5  A    between atoms: C12_15  and  C13_16 
REMARK    6  A    between atoms: C13_16  and  N4_17 
REMARK    7  A    between atoms: N4_17  and  C14_19 
REMARK    8  A    between atoms: C14_19  and  N5_21 
REMARK    9  A    between atoms: N5_21  and  N6_23 
ROOT
HETATM    1  C1  UNL     1      14.007   9.573  11.459  1.00  0.00     0.032 C 
HETATM    2  C2  UNL     1      14.069   9.054  10.038  1.00  0.00     0.076 C 
HETATM    3  C3  UNL     1      13.538  10.142   9.139  1.00  0.00     0.027 C 
HETATM    4  C4  UNL     1      14.218   9.824   7.820  1.00  0.00     0.042 C 
HETATM    5  C5  UNL     1      15.635   9.508   8.372  1.00  0.00     0.188 C 
HETATM    6  C6  UNL     1      16.155  10.863   8.691  1.00  0.00     0.084 C 
HETATM    7  N1  UNL     1      16.581  11.916   8.954  1.00  0.00    -0.195 NA
HETATM    8  N2  UNL     1      15.343   8.771   9.553  1.00  0.00    -0.388 N 
ENDROOT
BRANCH   8   9
HETATM    9  C7  UNL     1      16.381   8.323  10.365  1.00  0.00     0.084 C 
HETATM   10  C8  UNL     1      16.339   6.870  10.746  1.00  0.00     0.055 C 
HETATM   11  C9  UNL     1      17.596   6.122  10.764  1.00  0.00     0.274 C 
HETATM   12  N3  UNL     1      18.813   6.831  10.989  1.00  0.00     0.088 N 
HETATM   13  C17 UNL     1      18.745   8.246  10.824  1.00  0.00     0.274 C 
HETATM   14  C18 UNL     1      17.751   8.525   9.699  1.00  0.00     0.055 C 
BRANCH  12  15
HETATM   15  C10 UNL     1      19.457   6.444  12.238  1.00  0.00     0.272 C 
BRANCH  15  16
HETATM   16  C11 UNL     1      18.815   7.221  13.349  1.00  0.00     0.032 C 
BRANCH  16  17
HETATM   17  C12 UNL     1      18.280   6.299  14.428  1.00  0.00     0.021 C 
BRANCH  17  18
HETATM   18  C13 UNL     1      16.797   6.402  14.433  1.00  0.00     0.122 C 
BRANCH  18  19
HETATM   19  N4  UNL     1      16.090   5.213  14.070  1.00  0.00    -0.366 N 
ATOM     20  H4  UNL     1      15.147   5.343  13.706  1.00  0.00     0.161 HD
BRANCH  19  21
HETATM   21  C14 UNL     1      16.545   3.881  14.156  1.00  0.00     0.186 C 
HETATM   22  S1  UNL     1      16.326   3.109  15.609  1.00  0.00    -0.040 SA
BRANCH  21  23
HETATM   23  N5  UNL     1      17.172   3.146  13.131  1.00  0.00    -0.279 N 
ATOM     24  H5  UNL     1      18.184   3.260  13.077  1.00  0.00     0.189 HD
BRANCH  23  25
HETATM   25  N6  UNL     1      16.640   2.312  12.208  1.00  0.00    -0.334 N 
HETATM   26  C15 UNL     1      16.083   2.887  11.031  1.00  0.00     0.170 C 
HETATM   27  C16 UNL     1      17.025   0.959  12.142  1.00  0.00     0.170 C 
ENDBRANCH  23  25
ENDBRANCH  21  23
ENDBRANCH  19  21
ENDBRANCH  18  19
ENDBRANCH  17  18
ENDBRANCH  16  17
ENDBRANCH  15  16
ENDBRANCH  12  15
ENDBRANCH   8   9
TORSDOF 9
ENDMDL
MODEL 5
REMARK VINA RESULT: -5.792197825      1.873      2.564
REMARK  9 active torsions:
REMARK  status: ('A' for Active; 'I' for Inactive)
REMARK    1  A    between atoms: N2_8  and  C7_9 
REMARK    2  A    between atoms: N3_12  and  C10_13 
REMARK    3  A    between atoms: C10_13  and  C11_14 
REMARK    4  A    between atoms: C11_14  and  C12_15 
REMARK    5  A    between atoms: C12_15  and  C13_16 
REMARK    6  A    between atoms: C13_16  and  N4_17 
REMARK    7  A    between atoms: N4_17  and  C14_19 
REMARK    8  A    between atoms: C14_19  and  N5_21 
REMARK    9  A    between atoms: N5_21  and  N6_23 
ROOT
HETATM    1  C1  UNL     1      16.262  10.459   7.033  1.00  0.00     0.032 C 
HETATM    2  C2  UNL     1      15.147  11.153   7.788  1.00  0.00     0.076 C 
HETATM    3  C3  UNL     1      13.917  11.106   6.915  1.00  0.00     0.027 C 
HETATM    4  C4  UNL     1      12.800  11.200   7.938  1.00  0.00     0.042 C 
HETATM    5  C5  UNL     1      13.384  10.222   8.994  1.00  0.00     0.188 C 
HETATM    6  C6  UNL     1      13.142   8.898   8.364  1.00  0.00     0.084 C 
HETATM    7  N1  UNL     1      12.966   7.850   7.884  1.00  0.00    -0.195 NA
HETATM    8  N2  UNL     1      14.766  10.557   8.986  1.00  0.00    -0.388 N 
ENDROOT
BRANCH   8   9
HETATM    9  C7  UNL     1      15.653   9.861   9.802  1.00  0.00     0.084 C 
HETATM   10  C8  UNL     1      16.950  10.555  10.109  1.00  0.00     0.055 C 
HETATM   11  C9  UNL     1      17.487  10.452  11.465  1.00  0.00     0.274 C 
HETATM   12  N3  UNL     1      17.141   9.317  12.256  1.00  0.00     0.088 N 
HETATM   13  C17 UNL     1      16.024   8.559  11.795  1.00  0.00     0.274 C 
HETATM   14  C18 UNL     1      15.034   9.540  11.171  1.00  0.00     0.055 C 
BRANCH  12  15
HETATM   15  C10 UNL     1      18.295   8.482  12.562  1.00  0.00     0.272 C 
BRANCH  15  16
HETATM   16  C11 UNL     1      18.076   7.868  13.914  1.00  0.00     0.032 C 
BRANCH  16  17
HETATM   17  C12 UNL     1      18.492   6.410  13.930  1.00  0.00     0.021 C 
BRANCH  17  18
HETATM   18  C13 UNL     1      18.369   5.875  12.549  1.00  0.00     0.122 C 
BRANCH  18  19
HETATM   19  N4  UNL     1      18.299   4.451  12.436  1.00  0.00    -0.366 N 
ATOM     20  H4  UNL     1      19.168   3.975  12.198  1.00  0.00     0.161 HD
BRANCH  19  21
HETATM   21  C14 UNL     1      17.167   3.629  12.616  1.00  0.00     0.186 C 
HETATM   22  S1  UNL     1      16.296   3.249  11.256  1.00  0.00    -0.040 SA
BRANCH  21  23
HETATM   23  N5  UNL     1      16.702   3.106  13.838  1.00  0.00    -0.279 N 
ATOM     24  H5  UNL     1      16.806   2.097  13.942  1.00  0.00     0.189 HD
BRANCH  23  25
HETATM   25  N6  UNL     1      16.139   3.734  14.896  1.00  0.00    -0.334 N 
HETATM   26  C15 UNL     1      16.760   3.583  16.169  1.00  0.00     0.170 C 
HETATM   27  C16 UNL     1      15.301   4.851  14.718  1.00  0.00     0.170 C 
ENDBRANCH  23  25
ENDBRANCH  21  23
ENDBRANCH  19  21
ENDBRANCH  18  19
ENDBRANCH  17  18
ENDBRANCH  16  17
ENDBRANCH  15  16
ENDBRANCH  12  15
ENDBRANCH   8   9
TORSDOF 9
ENDMDL
