MODEL 1
REMARK VINA RESULT: -5.702034724      0.000      0.000
REMARK  8 active torsions:
REMARK  status: ('A' for Active; 'I' for Inactive)
REMARK    1  A    between atoms: N1_2  and  C2_4 
REMARK    2  A    between atoms: C2_4  and  N2_6 
REMARK    3  A    between atoms: N2_6  and  C3_8 
REMARK    4  A    between atoms: C3_8  and  C4_9 
REMARK    5  A    between atoms: C4_9  and  N3_10 
REMARK    6  A    between atoms: N4_13  and  C7_14 
REMARK    7  A    between atoms: C7_14  and  O1_15 
REMARK    8  A    between atoms: C7_14  and  N5_17 
ROOT
HETATM    1  N3  UNL     1      -2.520   4.918  12.090  1.00  0.00    -0.408 N 
HETATM    2  C5  UNL     1      -3.259   3.947  11.376  1.00  0.00     0.136 C 
HETATM    3  C6  UNL     1      -3.491   4.446   9.971  1.00  0.00     0.145 C 
HETATM    4  N4  UNL     1      -3.854   5.894   9.997  1.00  0.00    -0.344 N 
HETATM    5  C14 UNL     1      -3.021   6.800  10.739  1.00  0.00     0.145 C 
HETATM    6  C15 UNL     1      -1.877   5.911  11.298  1.00  0.00     0.136 C 
ENDROOT
BRANCH   4   7
HETATM    7  C7  UNL     1      -4.988   6.327   9.294  1.00  0.00     0.217 C 
BRANCH   7   8
HETATM    8  O1  UNL     1      -4.839   6.194   7.991  1.00  0.00    -0.333 OA
ATOM      9  H1  UNL     1      -5.101   6.978   7.523  1.00  0.00     0.220 HD
ENDBRANCH   7   8
BRANCH   7  10
HETATM   10  N5  UNL     1      -6.181   6.852   9.741  1.00  0.00    -0.347 N 
HETATM   11  C8  UNL     1      -6.537   7.395  11.014  1.00  0.00     0.126 C 
HETATM   12  C9  UNL     1      -6.539   8.936  10.841  1.00  0.00     0.020 C 
HETATM   13  C10 UNL     1      -6.965   9.242   9.409  1.00  0.00     0.007 C 
HETATM   14  C11 UNL     1      -8.013   8.211   9.014  1.00  0.00    -0.000 C 
HETATM   15  C12 UNL     1      -8.693   8.730   7.765  1.00  0.00     0.011 C 
HETATM   16  C13 UNL     1      -7.306   6.901   8.758  1.00  0.00     0.130 C 
ENDBRANCH   7  10
ENDBRANCH   4   7
BRANCH   1  17
HETATM   17  C4  UNL     1      -1.848   4.528  13.274  1.00  0.00     0.136 C 
BRANCH  17  18
HETATM   18  C3  UNL     1      -2.752   4.680  14.469  1.00  0.00     0.141 C 
BRANCH  18  19
HETATM   19  N2  UNL     1      -3.072   3.377  15.007  1.00  0.00    -0.366 N 
ATOM     20  H2  UNL     1      -2.402   2.883  15.597  1.00  0.00     0.161 HD
BRANCH  19  21
HETATM   21  C2  UNL     1      -4.327   2.793  14.705  1.00  0.00     0.167 C 
HETATM   22  S1  UNL     1      -5.697   3.697  14.665  1.00  0.00    -0.041 SA
BRANCH  21  23
HETATM   23  N1  UNL     1      -4.369   1.404  14.409  1.00  0.00    -0.372 N 
HETATM   24  C1  UNL     1      -4.451   0.455  15.491  1.00  0.00     0.148 C 
ATOM     25  H1  UNL     1      -4.340   1.081  13.442  1.00  0.00     0.161 HD
ENDBRANCH  21  23
ENDBRANCH  19  21
ENDBRANCH  18  19
ENDBRANCH  17  18
ENDBRANCH   1  17
TORSDOF 8
ENDMDL
MODEL 2
REMARK VINA RESULT: -5.647503411      3.444      5.880
REMARK  8 active torsions:
REMARK  status: ('A' for Active; 'I' for Inactive)
REMARK    1  A    between atoms: N1_2  and  C2_4 
REMARK    2  A    between atoms: C2_4  and  N2_6 
REMARK    3  A    between atoms: N2_6  and  C3_8 
REMARK    4  A    between atoms: C3_8  and  C4_9 
REMARK    5  A    between atoms: C4_9  and  N3_10 
REMARK    6  A    between atoms: N4_13  and  C7_14 
REMARK    7  A    between atoms: C7_14  and  O1_15 
REMARK    8  A    between atoms: C7_14  and  N5_17 
ROOT
HETATM    1  N3  UNL     1      -4.458   5.173  13.598  1.00  0.00    -0.408 N 
HETATM    2  C5  UNL     1      -3.207   5.286  14.246  1.00  0.00     0.136 C 
HETATM    3  C6  UNL     1      -2.149   5.596  13.216  1.00  0.00     0.145 C 
HETATM    4  N4  UNL     1      -2.366   4.763  11.996  1.00  0.00    -0.344 N 
HETATM    5  C14 UNL     1      -3.674   4.735  11.404  1.00  0.00     0.145 C 
HETATM    6  C15 UNL     1      -4.520   5.702  12.277  1.00  0.00     0.136 C 
ENDROOT
BRANCH   4   7
HETATM    7  C7  UNL     1      -1.288   4.041  11.461  1.00  0.00     0.217 C 
BRANCH   7   8
HETATM    8  O1  UNL     1      -1.285   2.789  11.871  1.00  0.00    -0.333 OA
ATOM      9  H1  UNL     1      -1.021   2.191  11.181  1.00  0.00     0.220 HD
ENDBRANCH   7   8
BRANCH   7  10
HETATM   10  N5  UNL     1      -0.274   4.429  10.612  1.00  0.00    -0.347 N 
HETATM   11  C8  UNL     1      -0.297   5.291   9.474  1.00  0.00     0.126 C 
HETATM   12  C9  UNL     1       0.303   6.642   9.943  1.00  0.00     0.020 C 
HETATM   13  C10 UNL     1       1.345   6.340  11.015  1.00  0.00     0.007 C 
HETATM   14  C11 UNL     1       2.040   5.044  10.625  1.00  0.00    -0.000 C 
HETATM   15  C12 UNL     1       3.297   4.947  11.463  1.00  0.00     0.011 C 
HETATM   16  C13 UNL     1       1.092   3.902  10.910  1.00  0.00     0.130 C 
ENDBRANCH   7  10
ENDBRANCH   4   7
BRANCH   1  17
HETATM   17  C4  UNL     1      -5.639   5.279  14.372  1.00  0.00     0.136 C 
BRANCH  17  18
HETATM   18  C3  UNL     1      -5.929   3.979  15.075  1.00  0.00     0.141 C 
BRANCH  18  19
HETATM   19  N2  UNL     1      -5.765   2.879  14.152  1.00  0.00    -0.366 N 
ATOM     20  H2  UNL     1      -6.380   2.786  13.343  1.00  0.00     0.161 HD
BRANCH  19  21
HETATM   21  C2  UNL     1      -4.738   1.930  14.383  1.00  0.00     0.167 C 
HETATM   22  S1  UNL     1      -4.617   1.142  15.818  1.00  0.00    -0.041 SA
BRANCH  21  23
HETATM   23  N1  UNL     1      -3.827   1.654  13.328  1.00  0.00    -0.372 N 
HETATM   24  C1  UNL     1      -4.233   0.778  12.257  1.00  0.00     0.148 C 
ATOM     25  H1  UNL     1      -2.896   2.071  13.328  1.00  0.00     0.161 HD
ENDBRANCH  21  23
ENDBRANCH  19  21
ENDBRANCH  18  19
ENDBRANCH  17  18
ENDBRANCH   1  17
TORSDOF 8
ENDMDL
MODEL 3
REMARK VINA RESULT: -5.636468636      3.053      7.517
REMARK  8 active torsions:
REMARK  status: ('A' for Active; 'I' for Inactive)
REMARK    1  A    between atoms: N1_2  and  C2_4 
REMARK    2  A    between atoms: C2_4  and  N2_6 
REMARK    3  A    between atoms: N2_6  and  C3_8 
REMARK    4  A    between atoms: C3_8  and  C4_9 
REMARK    5  A    between atoms: C4_9  and  N3_10 
REMARK    6  A    between atoms: N4_13  and  C7_14 
REMARK    7  A    between atoms: C7_14  and  O1_15 
REMARK    8  A    between atoms: C7_14  and  N5_17 
ROOT
HETATM    1  N3  UNL     1      -4.428   5.922  10.850  1.00  0.00    -0.408 N 
HETATM    2  C5  UNL     1      -4.875   6.454  12.081  1.00  0.00     0.136 C 
HETATM    3  C6  UNL     1      -3.941   6.002  13.177  1.00  0.00     0.145 C 
HETATM    4  N4  UNL     1      -3.592   4.564  12.987  1.00  0.00    -0.344 N 
HETATM    5  C14 UNL     1      -3.128   4.131  11.698  1.00  0.00     0.145 C 
HETATM    6  C15 UNL     1      -3.094   5.424  10.840  1.00  0.00     0.136 C 
ENDROOT
BRANCH   4   7
HETATM    7  C7  UNL     1      -3.719   3.681  14.071  1.00  0.00     0.217 C 
BRANCH   7   8
HETATM    8  O1  UNL     1      -2.759   3.850  14.957  1.00  0.00    -0.333 OA
ATOM      9  H1  UNL     1      -2.821   4.693  15.390  1.00  0.00     0.220 HD
ENDBRANCH   7   8
BRANCH   7  10
HETATM   10  N5  UNL     1      -4.655   2.704  14.333  1.00  0.00    -0.347 N 
HETATM   11  C8  UNL     1      -4.640   1.305  14.047  1.00  0.00     0.126 C 
HETATM   12  C9  UNL     1      -4.306   0.593  15.383  1.00  0.00     0.020 C 
HETATM   13  C10 UNL     1      -4.892   1.430  16.514  1.00  0.00     0.007 C 
HETATM   14  C11 UNL     1      -6.208   2.011  16.019  1.00  0.00    -0.000 C 
HETATM   15  C12 UNL     1      -6.954   2.515  17.235  1.00  0.00     0.011 C 
HETATM   16  C13 UNL     1      -5.891   3.132  15.057  1.00  0.00     0.130 C 
ENDBRANCH   7  10
ENDBRANCH   4   7
BRANCH   1  17
HETATM   17  C4  UNL     1      -4.888   6.508   9.646  1.00  0.00     0.136 C 
BRANCH  17  18
HETATM   18  C3  UNL     1      -6.215   7.187   9.862  1.00  0.00     0.141 C 
BRANCH  18  19
HETATM   19  N2  UNL     1      -7.217   6.578   9.016  1.00  0.00    -0.366 N 
ATOM     20  H2  UNL     1      -7.621   5.674   9.261  1.00  0.00     0.161 HD
BRANCH  19  21
HETATM   21  C2  UNL     1      -7.632   7.253   7.841  1.00  0.00     0.167 C 
HETATM   22  S1  UNL     1      -8.835   8.370   7.882  1.00  0.00    -0.041 SA
BRANCH  21  23
HETATM   23  N1  UNL     1      -6.960   6.959   6.624  1.00  0.00    -0.372 N 
HETATM   24  C1  UNL     1      -5.845   7.778   6.218  1.00  0.00     0.148 C 
ATOM     25  H1  UNL     1      -7.263   6.177   6.043  1.00  0.00     0.161 HD
ENDBRANCH  21  23
ENDBRANCH  19  21
ENDBRANCH  18  19
ENDBRANCH  17  18
ENDBRANCH   1  17
TORSDOF 8
ENDMDL
MODEL 4
REMARK VINA RESULT: -5.628731984      1.440      1.911
REMARK  8 active torsions:
REMARK  status: ('A' for Active; 'I' for Inactive)
REMARK    1  A    between atoms: N1_2  and  C2_4 
REMARK    2  A    between atoms: C2_4  and  N2_6 
REMARK    3  A    between atoms: N2_6  and  C3_8 
REMARK    4  A    between atoms: C3_8  and  C4_9 
REMARK    5  A    between atoms: C4_9  and  N3_10 
REMARK    6  A    between atoms: N4_13  and  C7_14 
REMARK    7  A    between atoms: C7_14  and  O1_15 
REMARK    8  A    between atoms: C7_14  and  N5_17 
ROOT
HETATM    1  N3  UNL     1      -3.083   5.071  12.304  1.00  0.00    -0.408 N 
HETATM    2  C5  UNL     1      -3.817   4.387  11.309  1.00  0.00     0.136 C 
HETATM    3  C6  UNL     1      -4.201   5.365  10.225  1.00  0.00     0.145 C 
HETATM    4  N4  UNL     1      -4.651   6.650  10.835  1.00  0.00    -0.344 N 
HETATM    5  C14 UNL     1      -3.818   7.273  11.826  1.00  0.00     0.145 C 
HETATM    6  C15 UNL     1      -2.575   6.348  11.929  1.00  0.00     0.136 C 
ENDROOT
BRANCH   4   7
HETATM    7  C7  UNL     1      -5.867   7.214  10.421  1.00  0.00     0.217 C 
BRANCH   7   8
HETATM    8  O1  UNL     1      -6.805   7.089  11.338  1.00  0.00    -0.333 OA
ATOM      9  H1  UNL     1      -7.157   7.930  11.602  1.00  0.00     0.220 HD
ENDBRANCH   7   8
BRANCH   7  10
HETATM   10  N5  UNL     1      -6.215   7.849   9.248  1.00  0.00    -0.347 N 
HETATM   11  C8  UNL     1      -5.517   7.949   8.006  1.00  0.00     0.126 C 
HETATM   12  C9  UNL     1      -6.205   6.947   7.042  1.00  0.00     0.020 C 
HETATM   13  C10 UNL     1      -7.681   6.879   7.418  1.00  0.00     0.007 C 
HETATM   14  C11 UNL     1      -8.108   8.275   7.845  1.00  0.00    -0.000 C 
HETATM   15  C12 UNL     1      -9.622   8.290   7.854  1.00  0.00     0.011 C 
HETATM   16  C13 UNL     1      -7.542   8.536   9.221  1.00  0.00     0.130 C 
ENDBRANCH   7  10
ENDBRANCH   4   7
BRANCH   1  17
HETATM   17  C4  UNL     1      -2.288   4.319  13.202  1.00  0.00     0.136 C 
BRANCH  17  18
HETATM   18  C3  UNL     1      -2.802   4.463  14.610  1.00  0.00     0.141 C 
BRANCH  18  19
HETATM   19  N2  UNL     1      -3.185   3.166  15.124  1.00  0.00    -0.366 N 
ATOM     20  H2  UNL     1      -2.604   2.691  15.814  1.00  0.00     0.161 HD
BRANCH  19  21
HETATM   21  C2  UNL     1      -4.379   2.564  14.656  1.00  0.00     0.167 C 
HETATM   22  S1  UNL     1      -5.807   3.374  14.679  1.00  0.00    -0.041 SA
BRANCH  21  23
HETATM   23  N1  UNL     1      -4.306   1.242  14.138  1.00  0.00    -0.372 N 
HETATM   24  C1  UNL     1      -4.296   1.045  12.710  1.00  0.00     0.148 C 
ATOM     25  H1  UNL     1      -4.262   0.442  14.769  1.00  0.00     0.161 HD
ENDBRANCH  21  23
ENDBRANCH  19  21
ENDBRANCH  18  19
ENDBRANCH  17  18
ENDBRANCH   1  17
TORSDOF 8
ENDMDL
MODEL 5
REMARK VINA RESULT: -5.618968254      3.070      7.659
REMARK  8 active torsions:
REMARK  status: ('A' for Active; 'I' for Inactive)
REMARK    1  A    between atoms: N1_2  and  C2_4 
REMARK    2  A    between atoms: C2_4  and  N2_6 
REMARK    3  A    between atoms: N2_6  and  C3_8 
REMARK    4  A    between atoms: C3_8  and  C4_9 
REMARK    5  A    between atoms: C4_9  and  N3_10 
REMARK    6  A    between atoms: N4_13  and  C7_14 
REMARK    7  A    between atoms: C7_14  and  O1_15 
REMARK    8  A    between atoms: C7_14  and  N5_17 
ROOT
HETATM    1  N3  UNL     1      -4.543   5.933  10.766  1.00  0.00    -0.408 N 
HETATM    2  C5  UNL     1      -4.944   6.478  12.008  1.00  0.00     0.136 C 
HETATM    3  C6  UNL     1      -3.977   6.027  13.074  1.00  0.00     0.145 C 
HETATM    4  N4  UNL     1      -3.644   4.584  12.884  1.00  0.00    -0.344 N 
HETATM    5  C14 UNL     1      -3.227   4.139  11.583  1.00  0.00     0.145 C 
HETATM    6  C15 UNL     1      -3.213   5.426  10.715  1.00  0.00     0.136 C 
ENDROOT
BRANCH   4   7
HETATM    7  C7  UNL     1      -3.741   3.710  13.977  1.00  0.00     0.217 C 
BRANCH   7   8
HETATM    8  O1  UNL     1      -2.758   3.887  14.837  1.00  0.00    -0.333 OA
ATOM      9  H1  UNL     1      -3.076   3.965  15.728  1.00  0.00     0.220 HD
ENDBRANCH   7   8
BRANCH   7  10
HETATM   10  N5  UNL     1      -4.668   2.735  14.274  1.00  0.00    -0.347 N 
HETATM   11  C8  UNL     1      -4.650   1.330  14.016  1.00  0.00     0.126 C 
HETATM   12  C9  UNL     1      -4.294   0.648  15.362  1.00  0.00     0.020 C 
HETATM   13  C10 UNL     1      -4.869   1.506  16.484  1.00  0.00     0.007 C 
HETATM   14  C11 UNL     1      -6.195   2.070  15.994  1.00  0.00    -0.000 C 
HETATM   15  C12 UNL     1      -6.927   2.596  17.210  1.00  0.00     0.011 C 
HETATM   16  C13 UNL     1      -5.896   3.172  15.005  1.00  0.00     0.130 C 
ENDBRANCH   7  10
ENDBRANCH   4   7
BRANCH   1  17
HETATM   17  C4  UNL     1      -5.039   6.514   9.574  1.00  0.00     0.136 C 
BRANCH  17  18
HETATM   18  C3  UNL     1      -6.365   7.184   9.825  1.00  0.00     0.141 C 
BRANCH  18  19
HETATM   19  N2  UNL     1      -7.324   6.749   8.834  1.00  0.00    -0.366 N 
ATOM     20  H2  UNL     1      -7.591   5.767   8.769  1.00  0.00     0.161 HD
BRANCH  19  21
HETATM   21  C2  UNL     1      -7.889   7.705   7.953  1.00  0.00     0.167 C 
HETATM   22  S1  UNL     1      -6.976   8.455   6.814  1.00  0.00    -0.041 SA
BRANCH  21  23
HETATM   23  N1  UNL     1      -9.279   7.980   8.063  1.00  0.00    -0.372 N 
HETATM   24  C1  UNL     1      -9.832   9.107   7.353  1.00  0.00     0.148 C 
ATOM     25  H1  UNL     1      -9.879   7.388   8.637  1.00  0.00     0.161 HD
ENDBRANCH  21  23
ENDBRANCH  19  21
ENDBRANCH  18  19
ENDBRANCH  17  18
ENDBRANCH   1  17
TORSDOF 8
ENDMDL
