MODEL 1
REMARK VINA RESULT: -7.632242281      0.000      0.000
REMARK  3 active torsions:
REMARK  status: ('A' for Active; 'I' for Inactive)
REMARK    1  A    between atoms: C2_2  and  C5_15 
REMARK    2  A    between atoms: N1_3  and  N2_5 
REMARK    3  A    between atoms: N2_5  and  C3_7 
ROOT
HETATM    1  C1  UNL     1     -14.297 -28.251 -28.501  1.00  0.00     0.071 C 
HETATM    2  C2  UNL     1     -14.795 -28.545 -27.144  1.00  0.00     0.039 C 
HETATM    3  N1  UNL     1     -14.033 -29.111 -26.285  1.00  0.00    -0.303 N 
ATOM      4  H1  UNL     1     -14.429 -29.291 -25.361  1.00  0.00     0.186 HD
ENDROOT
BRANCH   2   5
HETATM    5  C5  UNL     1     -16.150 -28.190 -26.786  1.00  0.00     0.071 A 
HETATM    6  C6  UNL     1     -17.246 -28.705 -27.447  1.00  0.00     0.111 A 
HETATM    7  N6  UNL     1     -18.458 -28.321 -27.048  1.00  0.00    -0.318 N 
HETATM    8  C7  UNL     1     -18.668 -27.461 -26.039  1.00  0.00     0.327 A 
ATOM      9  H6  UNL     1     -19.269 -28.701 -27.536  1.00  0.00     0.170 HD
HETATM   10  O1  UNL     1     -19.832 -27.130 -25.700  1.00  0.00    -0.247 OA
HETATM   11  N7  UNL     1     -17.619 -26.948 -25.381  1.00  0.00    -0.275 N 
HETATM   12  C8  UNL     1     -16.369 -27.309 -25.751  1.00  0.00     0.262 A 
ATOM     13  H7  UNL     1     -17.761 -26.294 -24.612  1.00  0.00     0.173 HD
HETATM   14  O2  UNL     1     -15.425 -26.794 -25.096  1.00  0.00    -0.267 OA
ENDBRANCH   2   5
BRANCH   3  15
HETATM   15  N2  UNL     1     -12.731 -29.499 -26.492  1.00  0.00    -0.283 N 
ATOM     16  H2  UNL     1     -12.534 -30.297 -27.096  1.00  0.00     0.188 HD
BRANCH  15  17
HETATM   17  C3  UNL     1     -11.660 -28.804 -25.877  1.00  0.00     0.152 A 
HETATM   18  C4  UNL     1     -10.309 -29.169 -25.897  1.00  0.00     0.159 A 
HETATM   19  N3  UNL     1      -9.603 -28.259 -25.203  1.00  0.00    -0.294 N 
HETATM   20  N4  UNL     1     -10.460 -27.379 -24.773  1.00  0.00    -0.241 N 
ATOM     21  H3  UNL     1      -8.596 -28.258 -25.045  1.00  0.00     0.187 HD
HETATM   22  N5  UNL     1     -11.692 -27.667 -25.152  1.00  0.00    -0.269 N 
ATOM     23  H4  UNL     1     -10.210 -26.566 -24.211  1.00  0.00     0.208 HD
ATOM     24  H5  UNL     1     -12.526 -27.121 -24.935  1.00  0.00     0.190 HD
ENDBRANCH  15  17
ENDBRANCH   3  15
TORSDOF 3
ENDMDL
MODEL 2
REMARK VINA RESULT: -7.519153971      2.700      6.464
REMARK  3 active torsions:
REMARK  status: ('A' for Active; 'I' for Inactive)
REMARK    1  A    between atoms: C2_2  and  C5_15 
REMARK    2  A    between atoms: N1_3  and  N2_5 
REMARK    3  A    between atoms: N2_5  and  C3_7 
ROOT
HETATM    1  C1  UNL     1     -14.181 -28.890 -29.037  1.00  0.00     0.071 C 
HETATM    2  C2  UNL     1     -14.043 -28.521 -27.616  1.00  0.00     0.039 C 
HETATM    3  N1  UNL     1     -15.071 -28.182 -26.932  1.00  0.00    -0.303 N 
ATOM      4  H1  UNL     1     -14.917 -27.936 -25.954  1.00  0.00     0.186 HD
ENDROOT
BRANCH   2   5
HETATM    5  C5  UNL     1     -12.737 -28.542 -26.995  1.00  0.00     0.071 A 
HETATM    6  C6  UNL     1     -12.444 -29.358 -25.922  1.00  0.00     0.111 A 
HETATM    7  N6  UNL     1     -11.214 -29.311 -25.413  1.00  0.00    -0.318 N 
HETATM    8  C7  UNL     1     -10.245 -28.513 -25.890  1.00  0.00     0.327 A 
ATOM      9  H6  UNL     1     -10.995 -29.914 -24.620  1.00  0.00     0.170 HD
HETATM   10  O1  UNL     1      -9.098 -28.505 -25.376  1.00  0.00    -0.247 OA
HETATM   11  N7  UNL     1     -10.505 -27.712 -26.933  1.00  0.00    -0.275 N 
HETATM   12  C8  UNL     1     -11.741 -27.725 -27.482  1.00  0.00     0.262 A 
ATOM     13  H7  UNL     1      -9.780 -27.100 -27.308  1.00  0.00     0.173 HD
HETATM   14  O2  UNL     1     -11.925 -26.952 -28.458  1.00  0.00    -0.267 OA
ENDBRANCH   2   5
BRANCH   3  15
HETATM   15  N2  UNL     1     -16.363 -28.120 -27.396  1.00  0.00    -0.283 N 
ATOM     16  H2  UNL     1     -16.560 -28.351 -28.370  1.00  0.00     0.188 HD
BRANCH  15  17
HETATM   17  C3  UNL     1     -17.424 -27.737 -26.538  1.00  0.00     0.152 A 
HETATM   18  C4  UNL     1     -18.765 -28.122 -26.648  1.00  0.00     0.159 A 
HETATM   19  N3  UNL     1     -19.464 -27.556 -25.649  1.00  0.00    -0.294 N 
HETATM   20  N4  UNL     1     -18.613 -26.858 -24.956  1.00  0.00    -0.241 N 
ATOM     21  H3  UNL     1     -20.463 -27.654 -25.469  1.00  0.00     0.187 HD
HETATM   22  N5  UNL     1     -17.391 -26.939 -25.451  1.00  0.00    -0.269 N 
ATOM     23  H4  UNL     1     -18.859 -26.312 -24.130  1.00  0.00     0.208 HD
ATOM     24  H5  UNL     1     -16.563 -26.478 -25.075  1.00  0.00     0.190 HD
ENDBRANCH  15  17
ENDBRANCH   3  15
TORSDOF 3
ENDMDL
MODEL 3
REMARK VINA RESULT: -7.478193463      2.285      6.395
REMARK  3 active torsions:
REMARK  status: ('A' for Active; 'I' for Inactive)
REMARK    1  A    between atoms: C2_2  and  C5_15 
REMARK    2  A    between atoms: N1_3  and  N2_5 
REMARK    3  A    between atoms: N2_5  and  C3_7 
ROOT
HETATM    1  C1  UNL     1     -14.223 -28.858 -29.135  1.00  0.00     0.071 C 
HETATM    2  C2  UNL     1     -14.045 -28.459 -27.726  1.00  0.00     0.039 C 
HETATM    3  N1  UNL     1     -15.058 -28.140 -27.011  1.00  0.00    -0.303 N 
ATOM      4  H1  UNL     1     -14.878 -27.872 -26.043  1.00  0.00     0.186 HD
ENDROOT
BRANCH   2   5
HETATM    5  C5  UNL     1     -12.718 -28.428 -27.153  1.00  0.00     0.071 A 
HETATM    6  C6  UNL     1     -11.663 -27.788 -27.770  1.00  0.00     0.111 A 
HETATM    7  N6  UNL     1     -10.475 -27.812 -27.168  1.00  0.00    -0.318 N 
HETATM    8  C7  UNL     1     -10.250 -28.424 -25.995  1.00  0.00     0.327 A 
ATOM      9  H6  UNL     1      -9.694 -27.339 -27.623  1.00  0.00     0.170 HD
HETATM   10  O1  UNL     1      -9.110 -28.418 -25.466  1.00  0.00    -0.247 OA
HETATM   11  N7  UNL     1     -11.260 -29.052 -25.375  1.00  0.00    -0.275 N 
HETATM   12  C8  UNL     1     -12.485 -29.055 -25.949  1.00  0.00     0.262 A 
ATOM     13  H7  UNL     1     -11.107 -29.522 -24.483  1.00  0.00     0.173 HD
HETATM   14  O2  UNL     1     -13.392 -29.660 -25.320  1.00  0.00    -0.267 OA
ENDBRANCH   2   5
BRANCH   3  15
HETATM   15  N2  UNL     1     -16.368 -28.127 -27.429  1.00  0.00    -0.283 N 
ATOM     16  H2  UNL     1     -16.594 -28.396 -28.386  1.00  0.00     0.188 HD
BRANCH  15  17
HETATM   17  C3  UNL     1     -17.407 -27.744 -26.544  1.00  0.00     0.152 A 
HETATM   18  C4  UNL     1     -18.752 -28.123 -26.625  1.00  0.00     0.159 A 
HETATM   19  N3  UNL     1     -19.425 -27.558 -25.607  1.00  0.00    -0.294 N 
HETATM   20  N4  UNL     1     -18.555 -26.866 -24.932  1.00  0.00    -0.241 N 
ATOM     21  H3  UNL     1     -20.420 -27.653 -25.405  1.00  0.00     0.187 HD
HETATM   22  N5  UNL     1     -17.345 -26.951 -25.455  1.00  0.00    -0.269 N 
ATOM     23  H4  UNL     1     -18.780 -26.323 -24.098  1.00  0.00     0.208 HD
ATOM     24  H5  UNL     1     -16.507 -26.494 -25.096  1.00  0.00     0.190 HD
ENDBRANCH  15  17
ENDBRANCH   3  15
TORSDOF 3
ENDMDL
MODEL 4
REMARK VINA RESULT: -7.430638784      3.698      5.504
REMARK  3 active torsions:
REMARK  status: ('A' for Active; 'I' for Inactive)
REMARK    1  A    between atoms: C2_2  and  C5_15 
REMARK    2  A    between atoms: N1_3  and  N2_5 
REMARK    3  A    between atoms: N2_5  and  C3_7 
ROOT
HETATM    1  C1  UNL     1     -16.727 -27.081 -25.632  1.00  0.00     0.071 C 
HETATM    2  C2  UNL     1     -15.284 -27.054 -25.325  1.00  0.00     0.039 C 
HETATM    3  N1  UNL     1     -14.877 -26.709 -24.161  1.00  0.00    -0.303 N 
ATOM      4  H1  UNL     1     -13.869 -26.708 -24.004  1.00  0.00     0.186 HD
ENDROOT
BRANCH   2   5
HETATM    5  C5  UNL     1     -14.328 -27.420 -26.346  1.00  0.00     0.071 A 
HETATM    6  C6  UNL     1     -14.652 -28.259 -27.392  1.00  0.00     0.111 A 
HETATM    7  N6  UNL     1     -13.707 -28.541 -28.287  1.00  0.00    -0.318 N 
HETATM    8  C7  UNL     1     -12.458 -28.054 -28.225  1.00  0.00     0.327 A 
ATOM      9  H6  UNL     1     -13.945 -29.161 -29.062  1.00  0.00     0.170 HD
HETATM   10  O1  UNL     1     -11.601 -28.349 -29.095  1.00  0.00    -0.247 OA
HETATM   11  N7  UNL     1     -12.119 -27.236 -27.218  1.00  0.00    -0.275 N 
HETATM   12  C8  UNL     1     -13.047 -26.921 -26.285  1.00  0.00     0.262 A 
ATOM     13  H7  UNL     1     -11.175 -26.856 -27.156  1.00  0.00     0.173 HD
HETATM   14  O2  UNL     1     -12.670 -26.149 -25.364  1.00  0.00    -0.267 OA
ENDBRANCH   2   5
BRANCH   3  15
HETATM   15  N2  UNL     1     -15.674 -26.340 -23.104  1.00  0.00    -0.283 N 
ATOM     16  H2  UNL     1     -16.628 -26.695 -23.045  1.00  0.00     0.188 HD
BRANCH  15  17
HETATM   17  C3  UNL     1     -15.185 -25.471 -22.096  1.00  0.00     0.152 A 
HETATM   18  C4  UNL     1     -15.284 -24.075 -22.079  1.00  0.00     0.159 A 
HETATM   19  N3  UNL     1     -14.703 -23.612 -20.959  1.00  0.00    -0.294 N 
HETATM   20  N4  UNL     1     -14.265 -24.654 -20.314  1.00  0.00    -0.241 N 
ATOM     21  H3  UNL     1     -14.621 -22.637 -20.670  1.00  0.00     0.187 HD
HETATM   22  N5  UNL     1     -14.532 -25.777 -20.956  1.00  0.00    -0.269 N 
ATOM     23  H4  UNL     1     -13.775 -24.609 -19.421  1.00  0.00     0.208 HD
ATOM     24  H5  UNL     1     -14.286 -26.716 -20.643  1.00  0.00     0.190 HD
ENDBRANCH  15  17
ENDBRANCH   3  15
TORSDOF 3
ENDMDL
MODEL 5
REMARK VINA RESULT: -7.414919107      1.127      1.599
REMARK  3 active torsions:
REMARK  status: ('A' for Active; 'I' for Inactive)
REMARK    1  A    between atoms: C2_2  and  C5_15 
REMARK    2  A    between atoms: N1_3  and  N2_5 
REMARK    3  A    between atoms: N2_5  and  C3_7 
ROOT
HETATM    1  C1  UNL     1     -14.231 -28.111 -28.462  1.00  0.00     0.071 C 
HETATM    2  C2  UNL     1     -14.773 -28.507 -27.148  1.00  0.00     0.039 C 
HETATM    3  N1  UNL     1     -14.044 -29.148 -26.314  1.00  0.00    -0.303 N 
ATOM      4  H1  UNL     1     -14.470 -29.397 -25.421  1.00  0.00     0.186 HD
ENDROOT
BRANCH   2   5
HETATM    5  C5  UNL     1     -16.136 -28.168 -26.805  1.00  0.00     0.071 A 
HETATM    6  C6  UNL     1     -16.446 -27.349 -25.740  1.00  0.00     0.111 A 
HETATM    7  N6  UNL     1     -17.731 -27.091 -25.498  1.00  0.00    -0.318 N 
HETATM    8  C7  UNL     1     -18.737 -27.585 -26.236  1.00  0.00     0.327 A 
ATOM      9  H6  UNL     1     -17.962 -26.484 -24.711  1.00  0.00     0.170 HD
HETATM   10  O1  UNL     1     -19.934 -27.312 -25.968  1.00  0.00    -0.247 OA
HETATM   11  N7  UNL     1     -18.461 -28.384 -27.277  1.00  0.00    -0.275 N 
HETATM   12  C8  UNL     1     -17.171 -28.674 -27.560  1.00  0.00     0.262 A 
ATOM     13  H7  UNL     1     -19.214 -28.768 -27.848  1.00  0.00     0.173 HD
HETATM   14  O2  UNL     1     -16.974 -29.428 -28.549  1.00  0.00    -0.267 OA
ENDBRANCH   2   5
BRANCH   3  15
HETATM   15  N2  UNL     1     -12.739 -29.532 -26.512  1.00  0.00    -0.283 N 
ATOM     16  H2  UNL     1     -12.534 -30.331 -27.111  1.00  0.00     0.188 HD
BRANCH  15  17
HETATM   17  C3  UNL     1     -11.675 -28.829 -25.892  1.00  0.00     0.152 A 
HETATM   18  C4  UNL     1     -10.322 -29.188 -25.902  1.00  0.00     0.159 A 
HETATM   19  N3  UNL     1      -9.624 -28.273 -25.207  1.00  0.00    -0.294 N 
HETATM   20  N4  UNL     1     -10.488 -27.395 -24.786  1.00  0.00    -0.241 N 
ATOM     21  H3  UNL     1      -8.618 -28.267 -25.042  1.00  0.00     0.187 HD
HETATM   22  N5  UNL     1     -11.716 -27.689 -25.173  1.00  0.00    -0.269 N 
ATOM     23  H4  UNL     1     -10.245 -26.579 -24.226  1.00  0.00     0.208 HD
ATOM     24  H5  UNL     1     -12.553 -27.147 -24.962  1.00  0.00     0.190 HD
ENDBRANCH  15  17
ENDBRANCH   3  15
TORSDOF 3
ENDMDL
