MODEL 1
REMARK VINA RESULT: -6.837447027      0.000      0.000
REMARK  5 active torsions:
REMARK  status: ('A' for Active; 'I' for Inactive)
REMARK    1  A    between atoms: N1_2  and  N2_4 
REMARK    2  A    between atoms: N2_4  and  C2_6 
REMARK    3  A    between atoms: C4_10  and  C5_11 
REMARK    4  A    between atoms: N4_12  and  N5_14 
REMARK    5  A    between atoms: C9_20  and  N7_21 
ROOT
HETATM    1  C2  UNL     1     -11.730 -27.686 -27.086  1.00  0.00     0.698 A 
HETATM    2  N3  UNL     1     -12.440 -27.212 -26.060  1.00  0.00    -0.199 N 
ATOM      3  H3  UNL     1     -11.958 -26.766 -25.279  1.00  0.00     0.183 HD
HETATM    4  C3  UNL     1     -13.768 -27.311 -26.040  1.00  0.00     0.122 A 
HETATM    5  C4  UNL     1     -14.422 -27.912 -27.092  1.00  0.00     0.041 A 
HETATM    6  C9  UNL     1     -13.694 -28.410 -28.169  1.00  0.00     0.127 A 
HETATM    7  N8  UNL     1     -12.364 -28.271 -28.113  1.00  0.00    -0.175 N 
ATOM      8  H8  UNL     1     -11.805 -28.627 -28.888  1.00  0.00     0.186 HD
ENDROOT
BRANCH   5   9
HETATM    9  C5  UNL     1     -15.869 -28.010 -27.052  1.00  0.00     0.124 C 
HETATM   10  N4  UNL     1     -16.503 -27.428 -26.073  1.00  0.00    -0.304 N 
ATOM     11  H4  UNL     1     -16.003 -26.913 -25.349  1.00  0.00     0.186 HD
BRANCH  10  12
HETATM   12  N5  UNL     1     -17.892 -27.537 -26.058  1.00  0.00    -0.262 N 
HETATM   13  C6  UNL     1     -18.778 -26.995 -25.198  1.00  0.00     0.134 A 
HETATM   14  C7  UNL     1     -20.024 -27.396 -25.605  1.00  0.00     0.108 A 
HETATM   15  N6  UNL     1     -19.870 -28.164 -26.690  1.00  0.00    -0.359 N 
HETATM   16  C8  UNL     1     -18.555 -28.272 -26.998  1.00  0.00     0.205 A 
ATOM     17  H6  UNL     1     -20.631 -28.603 -27.209  1.00  0.00     0.166 HD
ENDBRANCH  10  12
ENDBRANCH   5   9
BRANCH   6  18
HETATM   18  N7  UNL     1     -14.319 -28.968 -29.144  1.00  0.00    -0.384 N 
ATOM     19  H72 UNL     1     -15.040 -28.507 -29.699  1.00  0.00     0.157 HD
ATOM     20  H71 UNL     1     -14.093 -29.931 -29.393  1.00  0.00     0.157 HD
ENDBRANCH   6  18
BRANCH   1  21
HETATM   21  N2  UNL     1     -10.416 -27.588 -27.106  1.00  0.00    -0.137 N 
ATOM     22  H2  UNL     1      -9.924 -27.214 -27.918  1.00  0.00     0.205 HD
BRANCH  21  23
HETATM   23  N1  UNL     1      -9.723 -28.015 -25.970  1.00  0.00    -0.327 N 
HETATM   24  C1  UNL     1      -9.749 -29.437 -25.680  1.00  0.00     0.168 C 
ATOM     25  H1  UNL     1      -9.222 -27.358 -25.372  1.00  0.00     0.180 HD
ENDBRANCH  21  23
ENDBRANCH   1  21
TORSDOF 5
ENDMDL
MODEL 2
REMARK VINA RESULT: -6.671742326      0.942      2.026
REMARK  5 active torsions:
REMARK  status: ('A' for Active; 'I' for Inactive)
REMARK    1  A    between atoms: N1_2  and  N2_4 
REMARK    2  A    between atoms: N2_4  and  C2_6 
REMARK    3  A    between atoms: C4_10  and  C5_11 
REMARK    4  A    between atoms: N4_12  and  N5_14 
REMARK    5  A    between atoms: C9_20  and  N7_21 
ROOT
HETATM    1  C2  UNL     1     -11.746 -27.611 -26.870  1.00  0.00     0.698 A 
HETATM    2  N3  UNL     1     -12.633 -28.350 -27.540  1.00  0.00    -0.199 N 
ATOM      3  H3  UNL     1     -12.308 -28.996 -28.260  1.00  0.00     0.183 HD
HETATM    4  C3  UNL     1     -13.937 -28.256 -27.284  1.00  0.00     0.122 A 
HETATM    5  C4  UNL     1     -14.380 -27.386 -26.313  1.00  0.00     0.041 A 
HETATM    6  C9  UNL     1     -13.465 -26.610 -25.607  1.00  0.00     0.127 A 
HETATM    7  N8  UNL     1     -12.174 -26.763 -25.924  1.00  0.00    -0.175 N 
ATOM      8  H8  UNL     1     -11.482 -26.206 -25.422  1.00  0.00     0.186 HD
ENDROOT
BRANCH   5   9
HETATM    9  C5  UNL     1     -15.804 -27.299 -26.049  1.00  0.00     0.124 C 
HETATM   10  N4  UNL     1     -16.613 -28.028 -26.764  1.00  0.00    -0.304 N 
ATOM     11  H4  UNL     1     -16.264 -28.648 -27.495  1.00  0.00     0.186 HD
BRANCH  10  12
HETATM   12  N5  UNL     1     -17.976 -27.926 -26.490  1.00  0.00    -0.262 N 
HETATM   13  C6  UNL     1     -19.018 -28.479 -27.143  1.00  0.00     0.134 A 
HETATM   14  C7  UNL     1     -20.154 -28.081 -26.488  1.00  0.00     0.108 A 
HETATM   15  N6  UNL     1     -19.782 -27.305 -25.463  1.00  0.00    -0.359 N 
HETATM   16  C8  UNL     1     -18.433 -27.189 -25.437  1.00  0.00     0.205 A 
ATOM     17  H6  UNL     1     -20.421 -26.867 -24.799  1.00  0.00     0.166 HD
ENDBRANCH  10  12
ENDBRANCH   5   9
BRANCH   6  18
HETATM   18  N7  UNL     1     -13.894 -25.801 -24.704  1.00  0.00    -0.384 N 
ATOM     19  H72 UNL     1     -14.584 -25.069 -24.873  1.00  0.00     0.157 HD
ATOM     20  H71 UNL     1     -13.533 -25.881 -23.753  1.00  0.00     0.157 HD
ENDBRANCH   6  18
BRANCH   1  21
HETATM   21  N2  UNL     1     -10.456 -27.703 -27.124  1.00  0.00    -0.137 N 
ATOM     22  H2  UNL     1     -10.085 -27.519 -28.057  1.00  0.00     0.205 HD
BRANCH  21  23
HETATM   23  N1  UNL     1      -9.617 -28.064 -26.067  1.00  0.00    -0.327 N 
HETATM   24  C1  UNL     1      -9.703 -29.434 -25.597  1.00  0.00     0.168 C 
ATOM     25  H1  UNL     1      -8.974 -27.394 -25.645  1.00  0.00     0.180 HD
ENDBRANCH  21  23
ENDBRANCH   1  21
TORSDOF 5
ENDMDL
MODEL 3
REMARK VINA RESULT: -6.556815605      1.023      1.868
REMARK  5 active torsions:
REMARK  status: ('A' for Active; 'I' for Inactive)
REMARK    1  A    between atoms: N1_2  and  N2_4 
REMARK    2  A    between atoms: N2_4  and  C2_6 
REMARK    3  A    between atoms: C4_10  and  C5_11 
REMARK    4  A    between atoms: N4_12  and  N5_14 
REMARK    5  A    between atoms: C9_20  and  N7_21 
ROOT
HETATM    1  C2  UNL     1     -11.712 -27.648 -26.950  1.00  0.00     0.698 A 
HETATM    2  N3  UNL     1     -12.449 -28.363 -27.803  1.00  0.00    -0.199 N 
ATOM      3  H3  UNL     1     -11.989 -28.905 -28.534  1.00  0.00     0.183 HD
HETATM    4  C3  UNL     1     -13.778 -28.378 -27.714  1.00  0.00     0.122 A 
HETATM    5  C4  UNL     1     -14.405 -27.648 -26.729  1.00  0.00     0.041 A 
HETATM    6  C9  UNL     1     -13.647 -26.899 -25.833  1.00  0.00     0.127 A 
HETATM    7  N8  UNL     1     -12.318 -26.936 -25.989  1.00  0.00    -0.175 N 
ATOM      8  H8  UNL     1     -11.738 -26.396 -25.347  1.00  0.00     0.186 HD
ENDROOT
BRANCH   5   9
HETATM    9  C5  UNL     1     -15.853 -27.679 -26.649  1.00  0.00     0.124 C 
HETATM   10  N4  UNL     1     -16.423 -28.723 -26.116  1.00  0.00    -0.304 N 
ATOM     11  H4  UNL     1     -15.872 -29.505 -25.761  1.00  0.00     0.186 HD
BRANCH  10  12
HETATM   12  N5  UNL     1     -17.815 -28.727 -26.051  1.00  0.00    -0.262 N 
HETATM   13  C6  UNL     1     -18.667 -27.682 -26.017  1.00  0.00     0.134 A 
HETATM   14  C7  UNL     1     -19.933 -28.203 -25.954  1.00  0.00     0.108 A 
HETATM   15  N6  UNL     1     -19.824 -29.537 -25.952  1.00  0.00    -0.359 N 
HETATM   16  C8  UNL     1     -18.519 -29.894 -26.011  1.00  0.00     0.205 A 
ATOM     17  H6  UNL     1     -20.608 -30.188 -25.912  1.00  0.00     0.166 HD
ENDBRANCH  10  12
ENDBRANCH   5   9
BRANCH   6  18
HETATM   18  N7  UNL     1     -14.246 -26.222 -24.918  1.00  0.00    -0.384 N 
ATOM     19  H72 UNL     1     -15.130 -26.497 -24.490  1.00  0.00     0.157 HD
ATOM     20  H71 UNL     1     -13.826 -25.353 -24.587  1.00  0.00     0.157 HD
ENDBRANCH   6  18
BRANCH   1  21
HETATM   21  N2  UNL     1     -10.397 -27.632 -27.038  1.00  0.00    -0.137 N 
ATOM     22  H2  UNL     1      -9.927 -27.321 -27.888  1.00  0.00     0.205 HD
BRANCH  21  23
HETATM   23  N1  UNL     1      -9.673 -28.060 -25.922  1.00  0.00    -0.327 N 
HETATM   24  C1  UNL     1      -9.747 -29.470 -25.591  1.00  0.00     0.168 C 
ATOM     25  H1  UNL     1      -9.118 -27.409 -25.366  1.00  0.00     0.180 HD
ENDBRANCH  21  23
ENDBRANCH   1  21
TORSDOF 5
ENDMDL
MODEL 4
REMARK VINA RESULT: -6.254515036      1.249      1.404
REMARK  5 active torsions:
REMARK  status: ('A' for Active; 'I' for Inactive)
REMARK    1  A    between atoms: N1_2  and  N2_4 
REMARK    2  A    between atoms: N2_4  and  C2_6 
REMARK    3  A    between atoms: C4_10  and  C5_11 
REMARK    4  A    between atoms: N4_12  and  N5_14 
REMARK    5  A    between atoms: C9_20  and  N7_21 
ROOT
HETATM    1  C2  UNL     1     -12.552 -27.376 -26.460  1.00  0.00     0.698 A 
HETATM    2  N3  UNL     1     -13.392 -27.034 -25.480  1.00  0.00    -0.199 N 
ATOM      3  H3  UNL     1     -13.026 -26.605 -24.630  1.00  0.00     0.183 HD
HETATM    4  C3  UNL     1     -14.702 -27.244 -25.596  1.00  0.00     0.122 A 
HETATM    5  C4  UNL     1     -15.201 -27.822 -26.742  1.00  0.00     0.041 A 
HETATM    6  C9  UNL     1     -14.335 -28.184 -27.770  1.00  0.00     0.127 A 
HETATM    7  N8  UNL     1     -13.034 -27.939 -27.576  1.00  0.00    -0.175 N 
ATOM      8  H8  UNL     1     -12.377 -28.194 -28.314  1.00  0.00     0.186 HD
ENDROOT
BRANCH   5   9
HETATM    9  C5  UNL     1     -16.631 -28.043 -26.849  1.00  0.00     0.124 C 
HETATM   10  N4  UNL     1     -17.223 -28.737 -25.918  1.00  0.00    -0.304 N 
ATOM     11  H4  UNL     1     -16.701 -29.121 -25.129  1.00  0.00     0.186 HD
BRANCH  10  12
HETATM   12  N5  UNL     1     -18.597 -28.934 -26.045  1.00  0.00    -0.262 N 
HETATM   13  C6  UNL     1     -19.295 -30.088 -26.028  1.00  0.00     0.134 A 
HETATM   14  C7  UNL     1     -20.615 -29.756 -26.190  1.00  0.00     0.108 A 
HETATM   15  N6  UNL     1     -20.689 -28.424 -26.299  1.00  0.00    -0.359 N 
HETATM   16  C8  UNL     1     -19.450 -27.883 -26.213  1.00  0.00     0.205 A 
ATOM     17  H6  UNL     1     -21.551 -27.895 -26.428  1.00  0.00     0.166 HD
ENDBRANCH  10  12
ENDBRANCH   5   9
BRANCH   6  18
HETATM   18  N7  UNL     1     -14.816 -28.723 -28.834  1.00  0.00    -0.384 N 
ATOM     19  H72 UNL     1     -14.964 -29.726 -28.950  1.00  0.00     0.157 HD
ATOM     20  H71 UNL     1     -15.070 -28.127 -29.622  1.00  0.00     0.157 HD
ENDBRANCH   6  18
BRANCH   1  21
HETATM   21  N2  UNL     1     -11.255 -27.169 -26.344  1.00  0.00    -0.137 N 
ATOM     22  H2  UNL     1     -10.763 -26.532 -26.971  1.00  0.00     0.205 HD
BRANCH  21  23
HETATM   23  N1  UNL     1     -10.582 -27.855 -25.331  1.00  0.00    -0.327 N 
HETATM   24  C1  UNL     1      -9.843 -29.042 -25.718  1.00  0.00     0.168 C 
ATOM     25  H1  UNL     1     -10.610 -27.536 -24.362  1.00  0.00     0.180 HD
ENDBRANCH  21  23
ENDBRANCH   1  21
TORSDOF 5
ENDMDL
MODEL 5
REMARK VINA RESULT: -6.169827378      1.338      2.208
REMARK  5 active torsions:
REMARK  status: ('A' for Active; 'I' for Inactive)
REMARK    1  A    between atoms: N1_2  and  N2_4 
REMARK    2  A    between atoms: N2_4  and  C2_6 
REMARK    3  A    between atoms: C4_10  and  C5_11 
REMARK    4  A    between atoms: N4_12  and  N5_14 
REMARK    5  A    between atoms: C9_20  and  N7_21 
ROOT
HETATM    1  C2  UNL     1     -12.569 -27.205 -26.604  1.00  0.00     0.698 A 
HETATM    2  N3  UNL     1     -13.314 -27.875 -27.486  1.00  0.00    -0.199 N 
ATOM      3  H3  UNL     1     -12.884 -28.231 -28.340  1.00  0.00     0.183 HD
HETATM    4  C3  UNL     1     -14.611 -28.086 -27.268  1.00  0.00     0.122 A 
HETATM    5  C4  UNL     1     -15.195 -27.607 -26.116  1.00  0.00     0.041 A 
HETATM    6  C9  UNL     1     -14.428 -26.908 -25.188  1.00  0.00     0.127 A 
HETATM    7  N8  UNL     1     -13.133 -26.738 -25.482  1.00  0.00    -0.175 N 
ATOM      8  H8  UNL     1     -12.548 -26.229 -24.820  1.00  0.00     0.186 HD
ENDROOT
BRANCH   5   9
HETATM    9  C5  UNL     1     -16.609 -27.847 -25.896  1.00  0.00     0.124 C 
HETATM   10  N4  UNL     1     -17.286 -28.456 -26.828  1.00  0.00    -0.304 N 
ATOM     11  H4  UNL     1     -16.842 -28.761 -27.695  1.00  0.00     0.186 HD
BRANCH  10  12
HETATM   12  N5  UNL     1     -18.642 -28.674 -26.592  1.00  0.00    -0.262 N 
HETATM   13  C6  UNL     1     -19.603 -27.784 -26.272  1.00  0.00     0.134 A 
HETATM   14  C7  UNL     1     -20.772 -28.489 -26.144  1.00  0.00     0.108 A 
HETATM   15  N6  UNL     1     -20.499 -29.776 -26.387  1.00  0.00    -0.359 N 
HETATM   16  C8  UNL     1     -19.183 -29.925 -26.669  1.00  0.00     0.205 A 
ATOM     17  H6  UNL     1     -21.182 -30.533 -26.364  1.00  0.00     0.166 HD
ENDBRANCH  10  12
ENDBRANCH   5   9
BRANCH   6  18
HETATM   18  N7  UNL     1     -14.987 -26.467 -24.118  1.00  0.00    -0.384 N 
ATOM     19  H72 UNL     1     -15.752 -25.792 -24.108  1.00  0.00     0.157 HD
ATOM     20  H71 UNL     1     -14.659 -26.800 -23.211  1.00  0.00     0.157 HD
ENDBRANCH   6  18
BRANCH   1  21
HETATM   21  N2  UNL     1     -11.285 -26.997 -26.821  1.00  0.00    -0.137 N 
ATOM     22  H2  UNL     1     -10.904 -26.052 -26.883  1.00  0.00     0.205 HD
BRANCH  21  23
HETATM   23  N1  UNL     1     -10.467 -28.121 -26.962  1.00  0.00    -0.327 N 
HETATM   24  C1  UNL     1      -9.822 -28.621 -25.763  1.00  0.00     0.168 C 
ATOM     25  H1  UNL     1     -10.329 -28.569 -27.868  1.00  0.00     0.180 HD
ENDBRANCH  21  23
ENDBRANCH   1  21
TORSDOF 5
ENDMDL
