MODEL 1
REMARK VINA RESULT: -8.395501045      0.000      0.000
REMARK  15 active torsions:
REMARK  status: ('A' for Active; 'I' for Inactive)
REMARK    1  A    between atoms: C2_2  and  O2_4 
REMARK    2  A    between atoms: O2_4  and  C3_5 
REMARK    3  A    between atoms: C3_5  and  C4_6 
REMARK    4  A    between atoms: C3_5  and  C8_10 
REMARK    5  A    between atoms: C4_6  and  C5_7 
REMARK    6  A    between atoms: C8_10  and  C9_12 
REMARK    7  A    between atoms: C9_12  and  N1_13 
REMARK       I    between atoms: N1_13  and  C10_15 
REMARK    8  A    between atoms: C10_15  and  C11_17 
REMARK    9  A    between atoms: C11_17  and  N2_18 
REMARK   10  A    between atoms: C11_17  and  C27_44 
REMARK   11  A    between atoms: N2_18  and  C12_20 
REMARK   12  A    between atoms: C14_22  and  C15_23 
REMARK   13  A    between atoms: C14_22  and  C21_32 
REMARK   14  A    between atoms: C15_23  and  C16_24 
REMARK   15  A    between atoms: C21_32  and  O7_33 
ROOT
HETATM    1  C12 UNL     1     -11.042 -18.486  15.672  1.00  0.00     0.288 A 
HETATM    2  C13 UNL     1     -10.453 -19.629  16.389  1.00  0.00     0.102 A 
HETATM    3  C14 UNL     1     -11.826 -19.605  17.197  1.00  0.00     0.195 A 
HETATM    4  N4  UNL     1     -12.246 -18.574  16.368  1.00  0.00    -0.038 N 
ATOM      5  H41 UNL     1     -13.101 -18.711  15.829  1.00  0.00     0.281 HD
ATOM      6  H42 UNL     1     -12.609 -17.726  16.804  1.00  0.00     0.281 HD
ENDROOT
BRANCH   1   7
HETATM    7  N2  UNL     1     -10.390 -17.204  15.689  1.00  0.00    -0.361 N 
ATOM      8  H2  UNL     1     -10.921 -16.351  15.517  1.00  0.00     0.161 HD
BRANCH   7   9
HETATM    9  C11 UNL     1      -9.016 -17.143  15.946  1.00  0.00     0.078 C 
BRANCH   9  10
HETATM   10  C10 UNL     1      -8.652 -16.209  17.011  1.00  0.00     0.264 C 
HETATM   11  N1  UNL     1      -8.534 -16.549  18.420  1.00  0.00    -0.349 N 
ATOM     12  H1  UNL     1      -8.655 -17.524  18.695  1.00  0.00     0.163 HD
HETATM   13  O4  UNL     1      -8.404 -14.988  16.769  1.00  0.00    -0.266 OA
BRANCH  11  14
HETATM   14  C9  UNL     1      -8.260 -15.592  19.434  1.00  0.00     0.208 C 
BRANCH  14  15
HETATM   15  C8  UNL     1      -6.945 -15.730  20.148  1.00  0.00     0.196 C 
HETATM   16  O3  UNL     1      -6.851 -15.278  21.251  1.00  0.00    -0.289 OA
BRANCH  15  17
HETATM   17  C3  UNL     1      -5.856 -16.450  19.403  1.00  0.00     0.104 C 
BRANCH  17  18
HETATM   18  O2  UNL     1      -5.892 -17.821  19.407  1.00  0.00    -0.280 OA
BRANCH  18  19
HETATM   19  C2  UNL     1      -5.223 -18.750  20.156  1.00  0.00     0.259 C 
HETATM   20  C1  UNL     1      -4.170 -19.642  19.595  1.00  0.00     0.126 C 
HETATM   21  O1  UNL     1      -5.556 -18.806  21.385  1.00  0.00    -0.265 OA
ENDBRANCH  18  19
ENDBRANCH  17  18
BRANCH  17  22
HETATM   22  C4  UNL     1      -5.203 -15.740  18.292  1.00  0.00     0.073 C 
BRANCH  22  23
HETATM   23  C5  UNL     1      -4.948 -16.450  17.016  1.00  0.00    -0.017 C 
HETATM   24  C6  UNL     1      -4.971 -15.389  15.929  1.00  0.00     0.010 C 
HETATM   25  C7  UNL     1      -3.554 -17.046  16.952  1.00  0.00     0.010 C 
ENDBRANCH  22  23
ENDBRANCH  17  22
ENDBRANCH  15  17
ENDBRANCH  14  15
ENDBRANCH  11  14
ENDBRANCH   9  10
BRANCH   9  26
HETATM   26  C27 UNL     1      -7.982 -17.180  14.893  1.00  0.00     0.033 C 
HETATM   27  C28 UNL     1      -8.544 -16.254  13.755  1.00  0.00     0.016 C 
HETATM   28  C29 UNL     1      -7.678 -18.459  14.223  1.00  0.00     0.016 C 
ENDBRANCH   9  26
ENDBRANCH   7   9
ENDBRANCH   1   7
BRANCH   3  29
HETATM   29  C15 UNL     1     -12.439 -20.948  17.109  1.00  0.00     0.052 C 
BRANCH  29  30
HETATM   30  C16 UNL     1     -13.862 -21.140  17.556  1.00  0.00    -0.010 C 
HETATM   31  C17 UNL     1     -13.737 -22.253  18.636  1.00  0.00     0.019 C 
HETATM   32  C18 UNL     1     -15.073 -22.458  19.323  1.00  0.00     0.140 C 
HETATM   33  S1  UNL     1     -16.037 -23.327  18.055  1.00  0.00     0.144 S 
HETATM   34  O5  UNL     1     -17.395 -23.614  18.542  1.00  0.00    -0.228 OA
HETATM   35  O6  UNL     1     -15.250 -24.593  17.734  1.00  0.00    -0.228 OA
HETATM   36  C19 UNL     1     -15.961 -22.272  16.632  1.00  0.00     0.140 C 
HETATM   37  C20 UNL     1     -14.554 -21.852  16.379  1.00  0.00     0.019 C 
ENDBRANCH  29  30
ENDBRANCH   3  29
BRANCH   3  38
HETATM   38  C21 UNL     1     -11.432 -19.149  18.585  1.00  0.00     0.151 C 
HETATM   39  N3  UNL     1     -11.015 -19.710  19.719  1.00  0.00    -0.363 N 
HETATM   40  C22 UNL     1     -10.532 -18.761  20.849  1.00  0.00     0.124 C 
HETATM   41  C26 UNL     1     -10.939 -21.045  20.218  1.00  0.00     0.124 C 
HETATM   42  C23 UNL     1      -9.075 -19.014  20.965  1.00  0.00     0.020 C 
HETATM   43  C24 UNL     1      -8.617 -20.246  20.173  1.00  0.00     0.003 C 
HETATM   44  C25 UNL     1      -9.475 -21.451  20.475  1.00  0.00     0.020 C 
BRANCH  38  45
HETATM   45  O7  UNL     1     -11.535 -17.810  18.640  1.00  0.00    -0.348 OA
ATOM     46  H7  UNL     1     -10.950 -17.489  19.316  1.00  0.00     0.219 HD
ENDBRANCH  38  45
ENDBRANCH   3  38
TORSDOF 15
ENDMDL
MODEL 2
REMARK VINA RESULT: -8.318160437      3.148     10.465
REMARK  15 active torsions:
REMARK  status: ('A' for Active; 'I' for Inactive)
REMARK    1  A    between atoms: C2_2  and  O2_4 
REMARK    2  A    between atoms: O2_4  and  C3_5 
REMARK    3  A    between atoms: C3_5  and  C4_6 
REMARK    4  A    between atoms: C3_5  and  C8_10 
REMARK    5  A    between atoms: C4_6  and  C5_7 
REMARK    6  A    between atoms: C8_10  and  C9_12 
REMARK    7  A    between atoms: C9_12  and  N1_13 
REMARK       I    between atoms: N1_13  and  C10_15 
REMARK    8  A    between atoms: C10_15  and  C11_17 
REMARK    9  A    between atoms: C11_17  and  N2_18 
REMARK   10  A    between atoms: C11_17  and  C27_44 
REMARK   11  A    between atoms: N2_18  and  C12_20 
REMARK   12  A    between atoms: C14_22  and  C15_23 
REMARK   13  A    between atoms: C14_22  and  C21_32 
REMARK   14  A    between atoms: C15_23  and  C16_24 
REMARK   15  A    between atoms: C21_32  and  O7_33 
ROOT
HETATM    1  C12 UNL     1     -10.989 -21.589  19.547  1.00  0.00     0.288 A 
HETATM    2  C13 UNL     1      -9.851 -20.734  19.170  1.00  0.00     0.102 A 
HETATM    3  C14 UNL     1     -10.648 -19.616  19.979  1.00  0.00     0.195 A 
HETATM    4  N4  UNL     1     -11.591 -20.583  20.301  1.00  0.00    -0.038 N 
ATOM      5  H41 UNL     1     -11.769 -20.768  21.288  1.00  0.00     0.281 HD
ATOM      6  H42 UNL     1     -12.572 -20.374  20.121  1.00  0.00     0.281 HD
ENDROOT
BRANCH   1   7
HETATM    7  N2  UNL     1     -11.806 -22.199  18.533  1.00  0.00    -0.361 N 
ATOM      8  H2  UNL     1     -11.387 -22.802  17.824  1.00  0.00     0.161 HD
BRANCH   7   9
HETATM    9  C11 UNL     1     -13.183 -21.955  18.531  1.00  0.00     0.078 C 
BRANCH   9  10
HETATM   10  C10 UNL     1     -13.998 -23.144  18.777  1.00  0.00     0.264 C 
HETATM   11  N1  UNL     1     -15.059 -23.244  19.766  1.00  0.00    -0.349 N 
ATOM     12  H1  UNL     1     -15.305 -22.409  20.298  1.00  0.00     0.163 HD
HETATM   13  O4  UNL     1     -13.826 -24.215  18.117  1.00  0.00    -0.266 OA
BRANCH  11  14
HETATM   14  C9  UNL     1     -15.770 -24.446  20.031  1.00  0.00     0.208 C 
BRANCH  14  15
HETATM   15  C8  UNL     1     -17.216 -24.472  19.626  1.00  0.00     0.196 C 
HETATM   16  O3  UNL     1     -18.044 -24.323  20.477  1.00  0.00    -0.289 OA
BRANCH  15  17
HETATM   17  C3  UNL     1     -17.494 -24.669  18.163  1.00  0.00     0.104 C 
BRANCH  17  18
HETATM   18  O2  UNL     1     -17.415 -23.565  17.354  1.00  0.00    -0.280 OA
BRANCH  18  19
HETATM   19  C2  UNL     1     -18.067 -23.231  16.198  1.00  0.00     0.259 C 
HETATM   20  C1  UNL     1     -17.515 -23.507  14.842  1.00  0.00     0.126 C 
HETATM   21  O1  UNL     1     -19.198 -22.662  16.352  1.00  0.00    -0.265 OA
ENDBRANCH  18  19
ENDBRANCH  17  18
BRANCH  17  22
HETATM   22  C4  UNL     1     -17.261 -26.008  17.597  1.00  0.00     0.073 C 
BRANCH  22  23
HETATM   23  C5  UNL     1     -18.416 -26.875  17.264  1.00  0.00    -0.017 C 
HETATM   24  C6  UNL     1     -18.352 -27.109  15.765  1.00  0.00     0.010 C 
HETATM   25  C7  UNL     1     -18.302 -28.257  17.882  1.00  0.00     0.010 C 
ENDBRANCH  22  23
ENDBRANCH  17  22
ENDBRANCH  15  17
ENDBRANCH  14  15
ENDBRANCH  11  14
ENDBRANCH   9  10
BRANCH   9  26
HETATM   26  C27 UNL     1     -13.853 -21.036  17.590  1.00  0.00     0.033 C 
HETATM   27  C28 UNL     1     -14.784 -20.152  18.496  1.00  0.00     0.016 C 
HETATM   28  C29 UNL     1     -14.747 -21.587  16.554  1.00  0.00     0.016 C 
ENDBRANCH   9  26
ENDBRANCH   7   9
ENDBRANCH   1   7
BRANCH   3  29
HETATM   29  C15 UNL     1      -9.748 -19.060  21.012  1.00  0.00     0.052 C 
BRANCH  29  30
HETATM   30  C16 UNL     1      -8.808 -17.943  20.648  1.00  0.00    -0.010 C 
HETATM   31  C17 UNL     1      -7.595 -18.700  20.034  1.00  0.00     0.019 C 
HETATM   32  C18 UNL     1      -6.608 -17.707  19.451  1.00  0.00     0.140 C 
HETATM   33  S1  UNL     1      -5.845 -16.996  20.936  1.00  0.00     0.144 S 
HETATM   34  O5  UNL     1      -4.843 -15.983  20.569  1.00  0.00    -0.228 OA
HETATM   35  O6  UNL     1      -5.239 -18.173  21.692  1.00  0.00    -0.228 OA
HETATM   36  C19 UNL     1      -7.207 -16.386  21.892  1.00  0.00     0.140 C 
HETATM   37  C20 UNL     1      -8.269 -17.426  21.994  1.00  0.00     0.019 C 
ENDBRANCH  29  30
ENDBRANCH   3  29
BRANCH   3  38
HETATM   38  C21 UNL     1     -11.111 -18.645  18.914  1.00  0.00     0.151 C 
HETATM   39  N3  UNL     1     -10.695 -18.233  17.718  1.00  0.00    -0.363 N 
HETATM   40  C22 UNL     1     -11.658 -17.333  16.898  1.00  0.00     0.124 C 
HETATM   41  C26 UNL     1      -9.490 -18.369  16.965  1.00  0.00     0.124 C 
HETATM   42  C23 UNL     1     -12.060 -18.163  15.735  1.00  0.00     0.020 C 
HETATM   43  C24 UNL     1     -11.226 -19.443  15.597  1.00  0.00     0.003 C 
HETATM   44  C25 UNL     1      -9.745 -19.151  15.661  1.00  0.00     0.020 C 
BRANCH  38  45
HETATM   45  O7  UNL     1     -12.259 -18.079  19.322  1.00  0.00    -0.348 OA
ATOM     46  H7  UNL     1     -12.910 -18.188  18.638  1.00  0.00     0.219 HD
ENDBRANCH  38  45
ENDBRANCH   3  38
TORSDOF 15
ENDMDL
MODEL 3
REMARK VINA RESULT: -8.243441657      1.785      4.354
REMARK  15 active torsions:
REMARK  status: ('A' for Active; 'I' for Inactive)
REMARK    1  A    between atoms: C2_2  and  O2_4 
REMARK    2  A    between atoms: O2_4  and  C3_5 
REMARK    3  A    between atoms: C3_5  and  C4_6 
REMARK    4  A    between atoms: C3_5  and  C8_10 
REMARK    5  A    between atoms: C4_6  and  C5_7 
REMARK    6  A    between atoms: C8_10  and  C9_12 
REMARK    7  A    between atoms: C9_12  and  N1_13 
REMARK       I    between atoms: N1_13  and  C10_15 
REMARK    8  A    between atoms: C10_15  and  C11_17 
REMARK    9  A    between atoms: C11_17  and  N2_18 
REMARK   10  A    between atoms: C11_17  and  C27_44 
REMARK   11  A    between atoms: N2_18  and  C12_20 
REMARK   12  A    between atoms: C14_22  and  C15_23 
REMARK   13  A    between atoms: C14_22  and  C21_32 
REMARK   14  A    between atoms: C15_23  and  C16_24 
REMARK   15  A    between atoms: C21_32  and  O7_33 
ROOT
HETATM    1  C12 UNL     1     -11.153 -18.565  18.024  1.00  0.00     0.288 A 
HETATM    2  C13 UNL     1     -12.430 -18.884  18.684  1.00  0.00     0.102 A 
HETATM    3  C14 UNL     1     -12.494 -20.057  17.607  1.00  0.00     0.195 A 
HETATM    4  N4  UNL     1     -11.240 -19.657  17.163  1.00  0.00    -0.038 N 
ATOM      5  H41 UNL     1     -10.485 -20.343  17.183  1.00  0.00     0.281 HD
ATOM      6  H42 UNL     1     -11.117 -19.490  16.164  1.00  0.00     0.281 HD
ENDROOT
BRANCH   1   7
HETATM    7  N2  UNL     1     -10.957 -17.282  17.405  1.00  0.00    -0.361 N 
ATOM      8  H2  UNL     1     -11.637 -16.533  17.537  1.00  0.00     0.161 HD
BRANCH   7   9
HETATM    9  C11 UNL     1      -9.819 -17.073  16.618  1.00  0.00     0.078 C 
BRANCH   9  10
HETATM   10  C10 UNL     1      -8.663 -16.581  17.365  1.00  0.00     0.264 C 
HETATM   11  N1  UNL     1      -7.439 -17.330  17.606  1.00  0.00    -0.349 N 
ATOM     12  H1  UNL     1      -7.343 -18.250  17.176  1.00  0.00     0.163 HD
HETATM   13  O4  UNL     1      -8.647 -15.419  17.876  1.00  0.00    -0.266 OA
BRANCH  11  14
HETATM   14  C9  UNL     1      -6.372 -16.846  18.409  1.00  0.00     0.208 C 
BRANCH  14  15
HETATM   15  C8  UNL     1      -6.036 -17.650  19.632  1.00  0.00     0.196 C 
HETATM   16  O3  UNL     1      -4.883 -17.843  19.883  1.00  0.00    -0.289 OA
BRANCH  15  17
HETATM   17  C3  UNL     1      -7.200 -18.133  20.451  1.00  0.00     0.104 C 
BRANCH  17  18
HETATM   18  O2  UNL     1      -8.072 -17.186  20.924  1.00  0.00    -0.280 OA
BRANCH  18  19
HETATM   19  C2  UNL     1      -7.871 -16.033  21.633  1.00  0.00     0.259 C 
HETATM   20  C1  UNL     1      -7.260 -16.008  22.991  1.00  0.00     0.126 C 
HETATM   21  O1  UNL     1      -8.241 -14.961  21.050  1.00  0.00    -0.265 OA
ENDBRANCH  18  19
ENDBRANCH  17  18
BRANCH  17  22
HETATM   22  C4  UNL     1      -7.669 -19.510  20.228  1.00  0.00     0.073 C 
BRANCH  22  23
HETATM   23  C5  UNL     1      -8.974 -19.940  20.784  1.00  0.00    -0.017 C 
HETATM   24  C6  UNL     1      -9.411 -21.139  19.960  1.00  0.00     0.010 C 
HETATM   25  C7  UNL     1      -8.856 -20.463  22.204  1.00  0.00     0.010 C 
ENDBRANCH  22  23
ENDBRANCH  17  22
ENDBRANCH  15  17
ENDBRANCH  14  15
ENDBRANCH  11  14
ENDBRANCH   9  10
BRANCH   9  26
HETATM   26  C27 UNL     1      -9.856 -16.503  15.256  1.00  0.00     0.033 C 
HETATM   27  C28 UNL     1     -11.159 -17.101  14.613  1.00  0.00     0.016 C 
HETATM   28  C29 UNL     1      -8.779 -16.836  14.305  1.00  0.00     0.016 C 
ENDBRANCH   9  26
ENDBRANCH   7   9
ENDBRANCH   1   7
BRANCH   3  29
HETATM   29  C15 UNL     1     -12.672 -21.337  18.326  1.00  0.00     0.052 C 
BRANCH  29  30
HETATM   30  C16 UNL     1     -13.771 -22.273  17.904  1.00  0.00    -0.010 C 
HETATM   31  C17 UNL     1     -14.924 -21.913  18.885  1.00  0.00     0.019 C 
HETATM   32  C18 UNL     1     -16.187 -22.654  18.490  1.00  0.00     0.140 C 
HETATM   33  S1  UNL     1     -15.822 -24.354  19.008  1.00  0.00     0.144 S 
HETATM   34  O5  UNL     1     -16.950 -25.245  18.696  1.00  0.00    -0.228 OA
HETATM   35  O6  UNL     1     -15.534 -24.277  20.503  1.00  0.00    -0.228 OA
HETATM   36  C19 UNL     1     -14.303 -24.757  18.188  1.00  0.00     0.140 C 
HETATM   37  C20 UNL     1     -13.311 -23.663  18.379  1.00  0.00     0.019 C 
ENDBRANCH  29  30
ENDBRANCH   3  29
BRANCH   3  38
HETATM   38  C21 UNL     1     -13.624 -19.654  16.685  1.00  0.00     0.151 C 
HETATM   39  N3  UNL     1     -14.008 -19.912  15.436  1.00  0.00    -0.363 N 
HETATM   40  C22 UNL     1     -15.402 -19.390  14.996  1.00  0.00     0.124 C 
HETATM   41  C26 UNL     1     -13.409 -20.543  14.305  1.00  0.00     0.124 C 
HETATM   42  C23 UNL     1     -16.222 -20.611  14.795  1.00  0.00     0.020 C 
HETATM   43  C24 UNL     1     -15.391 -21.900  14.819  1.00  0.00     0.003 C 
HETATM   44  C25 UNL     1     -14.194 -21.807  13.903  1.00  0.00     0.020 C 
BRANCH  38  45
HETATM   45  O7  UNL     1     -14.440 -18.819  17.350  1.00  0.00    -0.348 OA
ATOM     46  H7  UNL     1     -14.593 -18.051  16.810  1.00  0.00     0.219 HD
ENDBRANCH  38  45
ENDBRANCH   3  38
TORSDOF 15
ENDMDL
MODEL 4
REMARK VINA RESULT: -8.219158314      2.471      4.439
REMARK  15 active torsions:
REMARK  status: ('A' for Active; 'I' for Inactive)
REMARK    1  A    between atoms: C2_2  and  O2_4 
REMARK    2  A    between atoms: O2_4  and  C3_5 
REMARK    3  A    between atoms: C3_5  and  C4_6 
REMARK    4  A    between atoms: C3_5  and  C8_10 
REMARK    5  A    between atoms: C4_6  and  C5_7 
REMARK    6  A    between atoms: C8_10  and  C9_12 
REMARK    7  A    between atoms: C9_12  and  N1_13 
REMARK       I    between atoms: N1_13  and  C10_15 
REMARK    8  A    between atoms: C10_15  and  C11_17 
REMARK    9  A    between atoms: C11_17  and  N2_18 
REMARK   10  A    between atoms: C11_17  and  C27_44 
REMARK   11  A    between atoms: N2_18  and  C12_20 
REMARK   12  A    between atoms: C14_22  and  C15_23 
REMARK   13  A    between atoms: C14_22  and  C21_32 
REMARK   14  A    between atoms: C15_23  and  C16_24 
REMARK   15  A    between atoms: C21_32  and  O7_33 
ROOT
HETATM    1  C12 UNL     1     -12.679 -18.580  15.669  1.00  0.00     0.288 A 
HETATM    2  C13 UNL     1     -12.298 -19.829  14.988  1.00  0.00     0.102 A 
HETATM    3  C14 UNL     1     -13.691 -20.358  15.554  1.00  0.00     0.195 A 
HETATM    4  N4  UNL     1     -13.915 -19.086  16.066  1.00  0.00    -0.038 N 
ATOM      5  H41 UNL     1     -14.754 -18.590  15.765  1.00  0.00     0.281 HD
ATOM      6  H42 UNL     1     -14.171 -19.005  17.050  1.00  0.00     0.281 HD
ENDROOT
BRANCH   1   7
HETATM    7  N2  UNL     1     -11.848 -18.040  16.712  1.00  0.00    -0.361 N 
ATOM      8  H2  UNL     1     -12.132 -17.200  17.216  1.00  0.00     0.161 HD
BRANCH   7   9
HETATM    9  C11 UNL     1     -10.646 -18.683  17.025  1.00  0.00     0.078 C 
BRANCH   9  10
HETATM   10  C10 UNL     1     -10.597 -19.222  18.383  1.00  0.00     0.264 C 
HETATM   11  N1  UNL     1     -10.492 -18.429  19.598  1.00  0.00    -0.349 N 
ATOM     12  H1  UNL     1     -10.513 -17.412  19.515  1.00  0.00     0.163 HD
HETATM   13  O4  UNL     1     -10.643 -20.472  18.604  1.00  0.00    -0.266 OA
BRANCH  11  14
HETATM   14  C9  UNL     1     -10.362 -18.997  20.893  1.00  0.00     0.208 C 
BRANCH  14  15
HETATM   15  C8  UNL     1      -8.966 -19.303  21.353  1.00  0.00     0.196 C 
HETATM   16  O3  UNL     1      -8.757 -20.367  21.859  1.00  0.00    -0.289 OA
BRANCH  15  17
HETATM   17  C3  UNL     1      -7.938 -18.232  21.119  1.00  0.00     0.104 C 
BRANCH  17  18
HETATM   18  O2  UNL     1      -8.297 -16.942  21.415  1.00  0.00    -0.280 OA
BRANCH  18  19
HETATM   19  C2  UNL     1      -7.614 -15.918  22.013  1.00  0.00     0.259 C 
HETATM   20  C1  UNL     1      -7.428 -15.815  23.487  1.00  0.00     0.126 C 
HETATM   21  O1  UNL     1      -7.134 -15.043  21.219  1.00  0.00    -0.265 OA
ENDBRANCH  18  19
ENDBRANCH  17  18
BRANCH  17  22
HETATM   22  C4  UNL     1      -6.520 -18.623  21.159  1.00  0.00     0.073 C 
BRANCH  22  23
HETATM   23  C5  UNL     1      -5.776 -18.818  19.893  1.00  0.00    -0.017 C 
HETATM   24  C6  UNL     1      -5.739 -17.462  19.210  1.00  0.00     0.010 C 
HETATM   25  C7  UNL     1      -4.320 -19.180  20.123  1.00  0.00     0.010 C 
ENDBRANCH  22  23
ENDBRANCH  17  22
ENDBRANCH  15  17
ENDBRANCH  14  15
ENDBRANCH  11  14
ENDBRANCH   9  10
BRANCH   9  26
HETATM   26  C27 UNL     1      -9.319 -18.196  16.597  1.00  0.00     0.033 C 
HETATM   27  C28 UNL     1      -9.445 -16.629  16.629  1.00  0.00     0.016 C 
HETATM   28  C29 UNL     1      -8.839 -18.508  15.238  1.00  0.00     0.016 C 
ENDBRANCH   9  26
ENDBRANCH   7   9
ENDBRANCH   1   7
BRANCH   3  29
HETATM   29  C15 UNL     1     -14.488 -20.871  14.420  1.00  0.00     0.052 C 
BRANCH  29  30
HETATM   30  C16 UNL     1     -15.315 -22.114  14.602  1.00  0.00    -0.010 C 
HETATM   31  C17 UNL     1     -15.568 -22.576  13.138  1.00  0.00     0.019 C 
HETATM   32  C18 UNL     1     -16.254 -23.928  13.135  1.00  0.00     0.140 C 
HETATM   33  S1  UNL     1     -17.942 -23.512  13.654  1.00  0.00     0.144 S 
HETATM   34  O5  UNL     1     -18.778 -24.722  13.719  1.00  0.00    -0.228 OA
HETATM   35  O6  UNL     1     -18.452 -22.504  12.631  1.00  0.00    -0.228 OA
HETATM   36  C19 UNL     1     -17.741 -22.660  15.195  1.00  0.00     0.140 C 
HETATM   37  C20 UNL     1     -16.692 -21.610  15.067  1.00  0.00     0.019 C 
ENDBRANCH  29  30
ENDBRANCH   3  29
BRANCH   3  38
HETATM   38  C21 UNL     1     -13.302 -21.377  16.603  1.00  0.00     0.151 C 
HETATM   39  N3  UNL     1     -13.830 -21.890  17.713  1.00  0.00    -0.363 N 
HETATM   40  C22 UNL     1     -13.101 -23.100  18.357  1.00  0.00     0.124 C 
HETATM   41  C26 UNL     1     -14.939 -21.562  18.550  1.00  0.00     0.124 C 
HETATM   42  C23 UNL     1     -14.029 -24.245  18.180  1.00  0.00     0.020 C 
HETATM   43  C24 UNL     1     -15.422 -23.816  17.700  1.00  0.00     0.003 C 
HETATM   44  C25 UNL     1     -15.982 -22.698  18.546  1.00  0.00     0.020 C 
BRANCH  38  45
HETATM   45  O7  UNL     1     -12.098 -21.881  16.283  1.00  0.00    -0.348 OA
ATOM     46  H7  UNL     1     -11.930 -22.636  16.835  1.00  0.00     0.219 HD
ENDBRANCH  38  45
ENDBRANCH   3  38
TORSDOF 15
ENDMDL
MODEL 5
REMARK VINA RESULT: -8.194199029      1.927      3.855
REMARK  15 active torsions:
REMARK  status: ('A' for Active; 'I' for Inactive)
REMARK    1  A    between atoms: C2_2  and  O2_4 
REMARK    2  A    between atoms: O2_4  and  C3_5 
REMARK    3  A    between atoms: C3_5  and  C4_6 
REMARK    4  A    between atoms: C3_5  and  C8_10 
REMARK    5  A    between atoms: C4_6  and  C5_7 
REMARK    6  A    between atoms: C8_10  and  C9_12 
REMARK    7  A    between atoms: C9_12  and  N1_13 
REMARK       I    between atoms: N1_13  and  C10_15 
REMARK    8  A    between atoms: C10_15  and  C11_17 
REMARK    9  A    between atoms: C11_17  and  N2_18 
REMARK   10  A    between atoms: C11_17  and  C27_44 
REMARK   11  A    between atoms: N2_18  and  C12_20 
REMARK   12  A    between atoms: C14_22  and  C15_23 
REMARK   13  A    between atoms: C14_22  and  C21_32 
REMARK   14  A    between atoms: C15_23  and  C16_24 
REMARK   15  A    between atoms: C21_32  and  O7_33 
ROOT
HETATM    1  C12 UNL     1     -11.192 -18.614  17.925  1.00  0.00     0.288 A 
HETATM    2  C13 UNL     1     -12.471 -18.888  18.601  1.00  0.00     0.102 A 
HETATM    3  C14 UNL     1     -12.562 -20.093  17.562  1.00  0.00     0.195 A 
HETATM    4  N4  UNL     1     -11.303 -19.732  17.100  1.00  0.00    -0.038 N 
ATOM      5  H41 UNL     1     -10.561 -20.430  17.138  1.00  0.00     0.281 HD
ATOM      6  H42 UNL     1     -11.182 -19.598  16.096  1.00  0.00     0.281 HD
ENDROOT
BRANCH   1   7
HETATM    7  N2  UNL     1     -10.975 -17.355  17.265  1.00  0.00    -0.361 N 
ATOM      8  H2  UNL     1     -11.729 -16.673  17.191  1.00  0.00     0.161 HD
BRANCH   7   9
HETATM    9  C11 UNL     1      -9.714 -17.079  16.725  1.00  0.00     0.078 C 
BRANCH   9  10
HETATM   10  C10 UNL     1      -8.883 -16.219  17.566  1.00  0.00     0.264 C 
HETATM   11  N1  UNL     1      -8.613 -16.436  18.979  1.00  0.00    -0.349 N 
ATOM     12  H1  UNL     1      -8.978 -17.282  19.417  1.00  0.00     0.163 HD
HETATM   13  O4  UNL     1      -8.319 -15.180  17.103  1.00  0.00    -0.266 OA
BRANCH  11  14
HETATM   14  C9  UNL     1      -7.869 -15.528  19.780  1.00  0.00     0.208 C 
BRANCH  14  15
HETATM   15  C8  UNL     1      -7.755 -15.863  21.240  1.00  0.00     0.196 C 
HETATM   16  O3  UNL     1      -7.842 -14.971  22.033  1.00  0.00    -0.289 OA
BRANCH  15  17
HETATM   17  C3  UNL     1      -7.552 -17.314  21.577  1.00  0.00     0.104 C 
BRANCH  17  18
HETATM   18  O2  UNL     1      -8.607 -18.162  21.358  1.00  0.00    -0.280 OA
BRANCH  18  19
HETATM   19  C2  UNL     1      -8.663 -19.451  20.901  1.00  0.00     0.259 C 
HETATM   20  C1  UNL     1      -8.949 -20.616  21.784  1.00  0.00     0.126 C 
HETATM   21  O1  UNL     1      -8.456 -19.598  19.651  1.00  0.00    -0.265 OA
ENDBRANCH  18  19
ENDBRANCH  17  18
BRANCH  17  22
HETATM   22  C4  UNL     1      -6.177 -17.836  21.551  1.00  0.00     0.073 C 
BRANCH  22  23
HETATM   23  C5  UNL     1      -5.425 -17.862  20.274  1.00  0.00    -0.017 C 
HETATM   24  C6  UNL     1      -4.197 -16.994  20.488  1.00  0.00     0.010 C 
HETATM   25  C7  UNL     1      -4.878 -19.240  19.950  1.00  0.00     0.010 C 
ENDBRANCH  22  23
ENDBRANCH  17  22
ENDBRANCH  15  17
ENDBRANCH  14  15
ENDBRANCH  11  14
ENDBRANCH   9  10
BRANCH   9  26
HETATM   26  C27 UNL     1      -9.475 -16.814  15.292  1.00  0.00     0.033 C 
HETATM   27  C28 UNL     1     -10.855 -17.107  14.601  1.00  0.00     0.016 C 
HETATM   28  C29 UNL     1      -8.502 -17.644  14.557  1.00  0.00     0.016 C 
ENDBRANCH   9  26
ENDBRANCH   7   9
ENDBRANCH   1   7
BRANCH   3  29
HETATM   29  C15 UNL     1     -12.760 -21.346  18.321  1.00  0.00     0.052 C 
BRANCH  29  30
HETATM   30  C16 UNL     1     -13.836 -22.306  17.893  1.00  0.00    -0.010 C 
HETATM   31  C17 UNL     1     -15.007 -21.963  18.859  1.00  0.00     0.019 C 
HETATM   32  C18 UNL     1     -16.251 -22.731  18.455  1.00  0.00     0.140 C 
HETATM   33  S1  UNL     1     -15.859 -24.421  18.988  1.00  0.00     0.144 S 
HETATM   34  O5  UNL     1     -16.966 -25.335  18.668  1.00  0.00    -0.228 OA
HETATM   35  O6  UNL     1     -15.589 -24.329  20.485  1.00  0.00    -0.228 OA
HETATM   36  C19 UNL     1     -14.323 -24.799  18.186  1.00  0.00     0.140 C 
HETATM   37  C20 UNL     1     -13.355 -23.684  18.382  1.00  0.00     0.019 C 
ENDBRANCH  29  30
ENDBRANCH   3  29
BRANCH   3  38
HETATM   38  C21 UNL     1     -13.689 -19.698  16.632  1.00  0.00     0.151 C 
HETATM   39  N3  UNL     1     -14.074 -19.975  15.388  1.00  0.00    -0.363 N 
HETATM   40  C22 UNL     1     -15.464 -19.452  14.938  1.00  0.00     0.124 C 
HETATM   41  C26 UNL     1     -13.478 -20.628  14.267  1.00  0.00     0.124 C 
HETATM   42  C23 UNL     1     -16.292 -20.670  14.757  1.00  0.00     0.020 C 
HETATM   43  C24 UNL     1     -15.469 -21.964  14.803  1.00  0.00     0.003 C 
HETATM   44  C25 UNL     1     -14.271 -21.894  13.886  1.00  0.00     0.020 C 
BRANCH  38  45
HETATM   45  O7  UNL     1     -14.501 -18.847  17.282  1.00  0.00    -0.348 OA
ATOM     46  H7  UNL     1     -14.899 -18.264  16.647  1.00  0.00     0.219 HD
ENDBRANCH  38  45
ENDBRANCH   3  38
TORSDOF 15
ENDMDL
