MODEL 1
REMARK VINA RESULT: -8.384549693      0.000      0.000
REMARK  15 active torsions:
REMARK  status: ('A' for Active; 'I' for Inactive)
REMARK    1  A    between atoms: C2_2  and  C3_3 
REMARK    2  A    between atoms: C3_3  and  C5_5 
REMARK    3  A    between atoms: C5_5  and  C6_6 
REMARK    4  A    between atoms: C5_5  and  N1_9 
REMARK    5  A    between atoms: C6_6  and  O1_7 
REMARK       I    between atoms: N1_9  and  C8_11 
REMARK    6  A    between atoms: C8_11  and  C9_13 
REMARK    7  A    between atoms: C9_13  and  C10_14 
REMARK    8  A    between atoms: C10_14  and  N2_15 
REMARK       I    between atoms: N3_19  and  C14_20 
REMARK    9  A    between atoms: C14_20  and  C15_22 
REMARK   10  A    between atoms: C15_22  and  N4_23 
REMARK   11  A    between atoms: C15_22  and  C27_41 
REMARK       I    between atoms: N4_23  and  C16_25 
REMARK   12  A    between atoms: C16_25  and  C17_27 
REMARK   13  A    between atoms: C17_27  and  N5_28 
REMARK       I    between atoms: N5_28  and  C18_30 
REMARK   14  A    between atoms: C18_30  and  O6_32 
REMARK   15  A    between atoms: O6_32  and  C19_33 
ROOT
HETATM    1  N2  UNL     1     -13.407 -20.487  15.506  1.00  0.00    -0.391 N 
HETATM    2  C11 UNL     1     -13.003 -21.213  16.640  1.00  0.00     0.059 C 
HETATM    3  C12 UNL     1     -11.677 -21.883  16.381  1.00  0.00     0.064 C 
HETATM    4  C13 UNL     1     -10.557 -20.947  16.737  1.00  0.00     0.131 C 
HETATM    5  N3  UNL     1     -10.898 -19.548  16.609  1.00  0.00    -0.348 N 
HETATM    6  C14 UNL     1     -10.549 -18.687  17.654  1.00  0.00     0.245 C 
HETATM    7  O3  UNL     1     -10.868 -17.452  17.488  1.00  0.00    -0.271 OA
HETATM    8  C30 UNL     1     -11.566 -18.875  15.489  1.00  0.00     0.145 C 
HETATM    9  C31 UNL     1     -12.430 -19.843  14.716  1.00  0.00     0.141 C 
ENDROOT
BRANCH   6  10
HETATM   10  C15 UNL     1      -9.855 -19.021  18.927  1.00  0.00     0.213 C 
BRANCH  10  11
HETATM   11  N4  UNL     1      -9.216 -17.747  19.324  1.00  0.00    -0.343 N 
HETATM   12  C16 UNL     1      -7.823 -17.597  19.343  1.00  0.00     0.246 C 
HETATM   13  O4  UNL     1      -7.087 -18.555  19.013  1.00  0.00    -0.271 OA
ATOM     14  H4  UNL     1      -9.804 -16.958  19.591  1.00  0.00     0.163 HD
BRANCH  12  15
HETATM   15  C17 UNL     1      -7.178 -16.318  19.743  1.00  0.00     0.116 C 
HETATM   16  C23 UNL     1      -8.049 -15.516  20.647  1.00  0.00     0.041 C 
HETATM   17  C24 UNL     1      -7.550 -15.707  22.053  1.00  0.00     0.003 C 
HETATM   18  C25 UNL     1      -6.365 -16.625  21.985  1.00  0.00     0.003 C 
HETATM   19  C26 UNL     1      -5.921 -16.591  20.560  1.00  0.00     0.041 C 
BRANCH  15  20
HETATM   20  N5  UNL     1      -6.790 -15.542  18.590  1.00  0.00    -0.319 N 
HETATM   21  C18 UNL     1      -7.616 -15.199  17.501  1.00  0.00     0.362 C 
HETATM   22  O5  UNL     1      -8.825 -15.505  17.365  1.00  0.00    -0.238 OA
ATOM     23  H5  UNL     1      -5.826 -15.210  18.560  1.00  0.00     0.166 HD
BRANCH  21  24
HETATM   24  O6  UNL     1      -7.064 -14.449  16.459  1.00  0.00    -0.294 OA
BRANCH  24  25
HETATM   25  C19 UNL     1      -6.356 -15.068  15.405  1.00  0.00     0.061 C 
HETATM   26  C20 UNL     1      -4.997 -14.437  15.203  1.00  0.00     0.046 C 
HETATM   27  C21 UNL     1      -6.255 -16.552  15.515  1.00  0.00     0.046 C 
HETATM   28  C22 UNL     1      -7.200 -14.782  14.147  1.00  0.00     0.046 C 
ENDBRANCH  24  25
ENDBRANCH  21  24
ENDBRANCH  15  20
ENDBRANCH  12  15
ENDBRANCH  10  11
BRANCH  10  29
HETATM   29  C27 UNL     1     -10.745 -19.423  20.040  1.00  0.00     0.107 A 
HETATM   30  C28 UNL     1     -10.833 -18.479  21.238  1.00  0.00     0.051 C 
HETATM   31  C29 UNL     1     -10.683 -20.874  20.462  1.00  0.00     0.209 A 
HETATM   32  O7  UNL     1     -11.811 -20.309  19.868  1.00  0.00    -0.373 OA
ENDBRANCH  10  29
ENDBRANCH   6  10
BRANCH   1  33
HETATM   33  C10 UNL     1     -14.529 -20.906  14.760  1.00  0.00     0.131 C 
BRANCH  33  34
HETATM   34  C9  UNL     1     -15.721 -21.303  15.606  1.00  0.00     0.122 C 
BRANCH  34  35
HETATM   35  C8  UNL     1     -16.462 -22.416  14.976  1.00  0.00     0.221 C 
HETATM   36  N1  UNL     1     -16.997 -23.441  15.765  1.00  0.00    -0.349 N 
HETATM   37  C7  UNL     1     -17.651 -24.529  15.065  1.00  0.00     0.153 C 
HETATM   38  O2  UNL     1     -16.592 -22.420  13.740  1.00  0.00    -0.273 OA
BRANCH  36  39
HETATM   39  C5  UNL     1     -16.934 -23.497  17.183  1.00  0.00     0.114 C 
BRANCH  39  40
HETATM   40  C3  UNL     1     -16.148 -24.632  17.771  1.00  0.00     0.006 C 
HETATM   41  C4  UNL     1     -16.842 -25.018  19.060  1.00  0.00     0.012 C 
BRANCH  40  42
HETATM   42  C2  UNL     1     -14.730 -24.269  18.114  1.00  0.00     0.002 C 
HETATM   43  C1  UNL     1     -14.781 -23.242  19.220  1.00  0.00     0.005 C 
ENDBRANCH  40  42
ENDBRANCH  39  40
BRANCH  39  44
HETATM   44  C6  UNL     1     -18.363 -23.657  17.718  1.00  0.00     0.189 C 
BRANCH  44  45
HETATM   45  O1  UNL     1     -19.135 -22.519  17.471  1.00  0.00    -0.399 OA
ATOM     46  H1  UNL     1     -20.021 -22.747  17.215  1.00  0.00     0.209 HD
ENDBRANCH  44  45
ENDBRANCH  39  44
ENDBRANCH  36  39
ENDBRANCH  34  35
ENDBRANCH  33  34
ENDBRANCH   1  33
TORSDOF 15
ENDMDL
MODEL 2
REMARK VINA RESULT: -8.299956950      1.964      3.428
REMARK  15 active torsions:
REMARK  status: ('A' for Active; 'I' for Inactive)
REMARK    1  A    between atoms: C2_2  and  C3_3 
REMARK    2  A    between atoms: C3_3  and  C5_5 
REMARK    3  A    between atoms: C5_5  and  C6_6 
REMARK    4  A    between atoms: C5_5  and  N1_9 
REMARK    5  A    between atoms: C6_6  and  O1_7 
REMARK       I    between atoms: N1_9  and  C8_11 
REMARK    6  A    between atoms: C8_11  and  C9_13 
REMARK    7  A    between atoms: C9_13  and  C10_14 
REMARK    8  A    between atoms: C10_14  and  N2_15 
REMARK       I    between atoms: N3_19  and  C14_20 
REMARK    9  A    between atoms: C14_20  and  C15_22 
REMARK   10  A    between atoms: C15_22  and  N4_23 
REMARK   11  A    between atoms: C15_22  and  C27_41 
REMARK       I    between atoms: N4_23  and  C16_25 
REMARK   12  A    between atoms: C16_25  and  C17_27 
REMARK   13  A    between atoms: C17_27  and  N5_28 
REMARK       I    between atoms: N5_28  and  C18_30 
REMARK   14  A    between atoms: C18_30  and  O6_32 
REMARK   15  A    between atoms: O6_32  and  C19_33 
ROOT
HETATM    1  N2  UNL     1     -12.453 -20.490  18.564  1.00  0.00    -0.391 N 
HETATM    2  C11 UNL     1     -12.323 -19.148  18.963  1.00  0.00     0.059 C 
HETATM    3  C12 UNL     1     -11.130 -18.991  19.872  1.00  0.00     0.064 C 
HETATM    4  C13 UNL     1      -9.897 -18.734  19.053  1.00  0.00     0.131 C 
HETATM    5  N3  UNL     1      -9.947 -19.302  17.724  1.00  0.00    -0.348 N 
HETATM    6  C14 UNL     1      -9.557 -18.497  16.649  1.00  0.00     0.245 C 
HETATM    7  O3  UNL     1      -9.613 -19.051  15.489  1.00  0.00    -0.271 OA
HETATM    8  C30 UNL     1     -10.345 -20.658  17.330  1.00  0.00     0.145 C 
HETATM    9  C31 UNL     1     -11.289 -21.259  18.345  1.00  0.00     0.141 C 
ENDROOT
BRANCH   6  10
HETATM   10  C15 UNL     1      -9.085 -17.087  16.681  1.00  0.00     0.213 C 
BRANCH  10  11
HETATM   11  N4  UNL     1      -7.873 -17.141  17.528  1.00  0.00    -0.343 N 
HETATM   12  C16 UNL     1      -7.607 -16.164  18.496  1.00  0.00     0.246 C 
HETATM   13  O4  UNL     1      -8.410 -15.217  18.665  1.00  0.00    -0.271 OA
ATOM     14  H4  UNL     1      -7.214 -17.909  17.404  1.00  0.00     0.163 HD
BRANCH  12  15
HETATM   15  C17 UNL     1      -6.389 -16.215  19.348  1.00  0.00     0.116 C 
HETATM   16  C23 UNL     1      -6.669 -15.765  20.741  1.00  0.00     0.041 C 
HETATM   17  C24 UNL     1      -6.797 -16.992  21.602  1.00  0.00     0.003 C 
HETATM   18  C25 UNL     1      -6.584 -18.184  20.715  1.00  0.00     0.003 C 
HETATM   19  C26 UNL     1      -5.905 -17.652  19.496  1.00  0.00     0.041 C 
BRANCH  15  20
HETATM   20  N5  UNL     1      -5.311 -15.447  18.772  1.00  0.00    -0.319 N 
HETATM   21  C18 UNL     1      -4.524 -15.820  17.664  1.00  0.00     0.362 C 
HETATM   22  O5  UNL     1      -4.641 -16.875  16.995  1.00  0.00    -0.238 OA
ATOM     23  H5  UNL     1      -5.099 -14.550  19.208  1.00  0.00     0.166 HD
BRANCH  21  24
HETATM   24  O6  UNL     1      -3.508 -14.954  17.251  1.00  0.00    -0.294 OA
BRANCH  24  25
HETATM   25  C19 UNL     1      -3.651 -14.155  16.095  1.00  0.00     0.061 C 
HETATM   26  C20 UNL     1      -2.857 -14.709  14.935  1.00  0.00     0.046 C 
HETATM   27  C21 UNL     1      -5.063 -13.879  15.704  1.00  0.00     0.046 C 
HETATM   28  C22 UNL     1      -3.033 -12.796  16.481  1.00  0.00     0.046 C 
ENDBRANCH  24  25
ENDBRANCH  21  24
ENDBRANCH  15  20
ENDBRANCH  12  15
ENDBRANCH  10  11
BRANCH  10  29
HETATM   29  C27 UNL     1      -8.672 -16.533  15.371  1.00  0.00     0.107 A 
HETATM   30  C28 UNL     1      -7.255 -16.848  14.896  1.00  0.00     0.051 C 
HETATM   31  C29 UNL     1      -9.059 -15.097  15.094  1.00  0.00     0.209 A 
HETATM   32  O7  UNL     1      -9.592 -16.172  14.384  1.00  0.00    -0.373 OA
ENDBRANCH  10  29
ENDBRANCH   6  10
BRANCH   1  33
HETATM   33  C10 UNL     1     -13.544 -21.260  19.016  1.00  0.00     0.131 C 
BRANCH  33  34
HETATM   34  C9  UNL     1     -14.886 -20.808  18.477  1.00  0.00     0.122 C 
BRANCH  34  35
HETATM   35  C8  UNL     1     -15.079 -21.279  17.089  1.00  0.00     0.221 C 
HETATM   36  N1  UNL     1     -15.902 -22.380  16.828  1.00  0.00    -0.349 N 
HETATM   37  C7  UNL     1     -15.987 -22.819  15.449  1.00  0.00     0.153 C 
HETATM   38  O2  UNL     1     -14.492 -20.680  16.171  1.00  0.00    -0.273 OA
BRANCH  36  39
HETATM   39  C5  UNL     1     -16.643 -23.096  17.807  1.00  0.00     0.114 C 
BRANCH  39  40
HETATM   40  C3  UNL     1     -16.009 -24.349  18.337  1.00  0.00     0.006 C 
HETATM   41  C4  UNL     1     -17.015 -25.462  18.135  1.00  0.00     0.012 C 
BRANCH  40  42
HETATM   42  C2  UNL     1     -15.691 -24.289  19.805  1.00  0.00     0.002 C 
HETATM   43  C1  UNL     1     -16.989 -24.468  20.556  1.00  0.00     0.005 C 
ENDBRANCH  40  42
ENDBRANCH  39  40
BRANCH  39  44
HETATM   44  C6  UNL     1     -17.970 -23.535  17.175  1.00  0.00     0.189 C 
BRANCH  44  45
HETATM   45  O1  UNL     1     -19.003 -22.644  17.479  1.00  0.00    -0.399 OA
ATOM     46  H1  UNL     1     -19.191 -22.065  16.750  1.00  0.00     0.209 HD
ENDBRANCH  44  45
ENDBRANCH  39  44
ENDBRANCH  36  39
ENDBRANCH  34  35
ENDBRANCH  33  34
ENDBRANCH   1  33
TORSDOF 15
ENDMDL
MODEL 3
REMARK VINA RESULT: -8.276321046      1.773      3.560
REMARK  15 active torsions:
REMARK  status: ('A' for Active; 'I' for Inactive)
REMARK    1  A    between atoms: C2_2  and  C3_3 
REMARK    2  A    between atoms: C3_3  and  C5_5 
REMARK    3  A    between atoms: C5_5  and  C6_6 
REMARK    4  A    between atoms: C5_5  and  N1_9 
REMARK    5  A    between atoms: C6_6  and  O1_7 
REMARK       I    between atoms: N1_9  and  C8_11 
REMARK    6  A    between atoms: C8_11  and  C9_13 
REMARK    7  A    between atoms: C9_13  and  C10_14 
REMARK    8  A    between atoms: C10_14  and  N2_15 
REMARK       I    between atoms: N3_19  and  C14_20 
REMARK    9  A    between atoms: C14_20  and  C15_22 
REMARK   10  A    between atoms: C15_22  and  N4_23 
REMARK   11  A    between atoms: C15_22  and  C27_41 
REMARK       I    between atoms: N4_23  and  C16_25 
REMARK   12  A    between atoms: C16_25  and  C17_27 
REMARK   13  A    between atoms: C17_27  and  N5_28 
REMARK       I    between atoms: N5_28  and  C18_30 
REMARK   14  A    between atoms: C18_30  and  O6_32 
REMARK   15  A    between atoms: O6_32  and  C19_33 
ROOT
HETATM    1  N2  UNL     1     -15.436 -21.059  15.301  1.00  0.00    -0.391 N 
HETATM    2  C11 UNL     1     -14.240 -21.792  15.388  1.00  0.00     0.059 C 
HETATM    3  C12 UNL     1     -13.229 -21.252  14.408  1.00  0.00     0.064 C 
HETATM    4  C13 UNL     1     -12.446 -20.141  15.047  1.00  0.00     0.131 C 
HETATM    5  N3  UNL     1     -13.170 -19.429  16.076  1.00  0.00    -0.348 N 
HETATM    6  C14 UNL     1     -12.516 -19.173  17.286  1.00  0.00     0.245 C 
HETATM    7  O3  UNL     1     -13.201 -18.532  18.165  1.00  0.00    -0.271 OA
HETATM    8  C30 UNL     1     -14.538 -18.900  16.023  1.00  0.00     0.145 C 
HETATM    9  C31 UNL     1     -15.377 -19.674  15.034  1.00  0.00     0.141 C 
ENDROOT
BRANCH   6  10
HETATM   10  C15 UNL     1     -11.131 -19.549  17.678  1.00  0.00     0.213 C 
BRANCH  10  11
HETATM   11  N4  UNL     1     -10.328 -18.360  17.315  1.00  0.00    -0.343 N 
HETATM   12  C16 UNL     1      -9.294 -18.430  16.373  1.00  0.00     0.246 C 
HETATM   13  O4  UNL     1      -9.034 -19.519  15.810  1.00  0.00    -0.271 OA
ATOM     14  H4  UNL     1     -10.533 -17.467  17.762  1.00  0.00     0.163 HD
BRANCH  12  15
HETATM   15  C17 UNL     1      -8.485 -17.238  16.006  1.00  0.00     0.116 C 
HETATM   16  C23 UNL     1      -7.869 -17.379  14.657  1.00  0.00     0.041 C 
HETATM   17  C24 UNL     1      -8.696 -16.578  13.689  1.00  0.00     0.003 C 
HETATM   18  C25 UNL     1      -9.811 -15.948  14.470  1.00  0.00     0.003 C 
HETATM   19  C26 UNL     1      -9.375 -16.006  15.897  1.00  0.00     0.041 C 
BRANCH  15  20
HETATM   20  N5  UNL     1      -7.476 -16.961  17.000  1.00  0.00    -0.319 N 
HETATM   21  C18 UNL     1      -7.643 -16.180  18.161  1.00  0.00     0.362 C 
HETATM   22  O5  UNL     1      -8.700 -15.608  18.521  1.00  0.00    -0.238 OA
ATOM     23  H5  UNL     1      -6.554 -17.369  16.847  1.00  0.00     0.166 HD
BRANCH  21  24
HETATM   24  O6  UNL     1      -6.545 -16.007  19.009  1.00  0.00    -0.294 OA
BRANCH  24  25
HETATM   25  C19 UNL     1      -6.361 -16.822  20.146  1.00  0.00     0.061 C 
HETATM   26  C20 UNL     1      -7.057 -16.249  21.360  1.00  0.00     0.046 C 
HETATM   27  C21 UNL     1      -6.717 -18.257  19.944  1.00  0.00     0.046 C 
HETATM   28  C22 UNL     1      -4.843 -16.785  20.413  1.00  0.00     0.046 C 
ENDBRANCH  24  25
ENDBRANCH  21  24
ENDBRANCH  15  20
ENDBRANCH  12  15
ENDBRANCH  10  11
BRANCH  10  29
HETATM   29  C27 UNL     1     -10.930 -19.780  19.127  1.00  0.00     0.107 A 
HETATM   30  C28 UNL     1     -10.330 -18.633  19.939  1.00  0.00     0.051 C 
HETATM   31  C29 UNL     1     -10.352 -21.121  19.522  1.00  0.00     0.209 A 
HETATM   32  O7  UNL     1     -11.653 -20.735  19.843  1.00  0.00    -0.373 OA
ENDBRANCH  10  29
ENDBRANCH   6  10
BRANCH   1  33
HETATM   33  C10 UNL     1     -16.604 -21.667  14.794  1.00  0.00     0.131 C 
BRANCH  33  34
HETATM   34  C9  UNL     1     -17.617 -22.042  15.856  1.00  0.00     0.122 C 
BRANCH  34  35
HETATM   35  C8  UNL     1     -17.928 -23.486  15.796  1.00  0.00     0.221 C 
HETATM   36  N1  UNL     1     -17.628 -24.317  16.881  1.00  0.00    -0.349 N 
HETATM   37  C7  UNL     1     -17.904 -25.730  16.717  1.00  0.00     0.153 C 
HETATM   38  O2  UNL     1     -18.453 -23.938  14.764  1.00  0.00    -0.273 OA
BRANCH  36  39
HETATM   39  C5  UNL     1     -17.069 -23.881  18.112  1.00  0.00     0.114 C 
BRANCH  39  40
HETATM   40  C3  UNL     1     -15.593 -23.610  18.114  1.00  0.00     0.006 C 
HETATM   41  C4  UNL     1     -14.904 -24.958  18.164  1.00  0.00     0.012 C 
BRANCH  40  42
HETATM   42  C2  UNL     1     -15.126 -22.821  19.306  1.00  0.00     0.002 C 
HETATM   43  C1  UNL     1     -14.978 -21.383  18.866  1.00  0.00     0.005 C 
ENDBRANCH  40  42
ENDBRANCH  39  40
BRANCH  39  44
HETATM   44  C6  UNL     1     -17.292 -24.983  19.155  1.00  0.00     0.189 C 
BRANCH  44  45
HETATM   45  O1  UNL     1     -18.155 -24.564  20.170  1.00  0.00    -0.399 OA
ATOM     46  H1  UNL     1     -18.289 -25.244  20.819  1.00  0.00     0.209 HD
ENDBRANCH  44  45
ENDBRANCH  39  44
ENDBRANCH  36  39
ENDBRANCH  34  35
ENDBRANCH  33  34
ENDBRANCH   1  33
TORSDOF 15
ENDMDL
MODEL 4
REMARK VINA RESULT: -8.238587826      1.264      1.899
REMARK  15 active torsions:
REMARK  status: ('A' for Active; 'I' for Inactive)
REMARK    1  A    between atoms: C2_2  and  C3_3 
REMARK    2  A    between atoms: C3_3  and  C5_5 
REMARK    3  A    between atoms: C5_5  and  C6_6 
REMARK    4  A    between atoms: C5_5  and  N1_9 
REMARK    5  A    between atoms: C6_6  and  O1_7 
REMARK       I    between atoms: N1_9  and  C8_11 
REMARK    6  A    between atoms: C8_11  and  C9_13 
REMARK    7  A    between atoms: C9_13  and  C10_14 
REMARK    8  A    between atoms: C10_14  and  N2_15 
REMARK       I    between atoms: N3_19  and  C14_20 
REMARK    9  A    between atoms: C14_20  and  C15_22 
REMARK   10  A    between atoms: C15_22  and  N4_23 
REMARK   11  A    between atoms: C15_22  and  C27_41 
REMARK       I    between atoms: N4_23  and  C16_25 
REMARK   12  A    between atoms: C16_25  and  C17_27 
REMARK   13  A    between atoms: C17_27  and  N5_28 
REMARK       I    between atoms: N5_28  and  C18_30 
REMARK   14  A    between atoms: C18_30  and  O6_32 
REMARK   15  A    between atoms: O6_32  and  C19_33 
ROOT
HETATM    1  N2  UNL     1     -13.230 -20.149  15.800  1.00  0.00    -0.391 N 
HETATM    2  C11 UNL     1     -11.991 -20.793  15.964  1.00  0.00     0.059 C 
HETATM    3  C12 UNL     1     -10.879 -19.918  15.444  1.00  0.00     0.064 C 
HETATM    4  C13 UNL     1     -10.402 -19.001  16.535  1.00  0.00     0.131 C 
HETATM    5  N3  UNL     1     -11.415 -18.680  17.516  1.00  0.00    -0.348 N 
HETATM    6  C14 UNL     1     -11.068 -18.758  18.869  1.00  0.00     0.245 C 
HETATM    7  O3  UNL     1     -12.001 -18.457  19.701  1.00  0.00    -0.271 OA
HETATM    8  C30 UNL     1     -12.799 -18.252  17.286  1.00  0.00     0.145 C 
HETATM    9  C31 UNL     1     -13.301 -18.746  15.951  1.00  0.00     0.141 C 
ENDROOT
BRANCH   6  10
HETATM   10  C15 UNL     1      -9.759 -19.141  19.461  1.00  0.00     0.213 C 
BRANCH  10  11
HETATM   11  N4  UNL     1      -9.143 -17.845  19.823  1.00  0.00    -0.343 N 
HETATM   12  C16 UNL     1      -7.783 -17.590  19.604  1.00  0.00     0.246 C 
HETATM   13  O4  UNL     1      -7.058 -18.469  19.085  1.00  0.00    -0.271 OA
ATOM     14  H4  UNL     1      -9.724 -17.120  20.242  1.00  0.00     0.163 HD
BRANCH  12  15
HETATM   15  C17 UNL     1      -7.162 -16.289  19.968  1.00  0.00     0.116 C 
HETATM   16  C23 UNL     1      -7.993 -15.531  20.945  1.00  0.00     0.041 C 
HETATM   17  C24 UNL     1      -7.379 -15.712  22.307  1.00  0.00     0.003 C 
HETATM   18  C25 UNL     1      -6.166 -16.579  22.138  1.00  0.00     0.003 C 
HETATM   19  C26 UNL     1      -5.835 -16.515  20.683  1.00  0.00     0.041 C 
BRANCH  15  20
HETATM   20  N5  UNL     1      -6.896 -15.488  18.797  1.00  0.00    -0.319 N 
HETATM   21  C18 UNL     1      -7.753 -15.320  17.691  1.00  0.00     0.362 C 
HETATM   22  O5  UNL     1      -8.889 -15.833  17.552  1.00  0.00    -0.238 OA
ATOM     23  H5  UNL     1      -6.002 -14.996  18.767  1.00  0.00     0.166 HD
BRANCH  21  24
HETATM   24  O6  UNL     1      -7.322 -14.513  16.634  1.00  0.00    -0.294 OA
BRANCH  24  25
HETATM   25  C19 UNL     1      -6.939 -15.072  15.395  1.00  0.00     0.061 C 
HETATM   26  C20 UNL     1      -6.646 -16.550  15.518  1.00  0.00     0.046 C 
HETATM   27  C21 UNL     1      -7.884 -14.799  14.274  1.00  0.00     0.046 C 
HETATM   28  C22 UNL     1      -5.621 -14.359  15.035  1.00  0.00     0.046 C 
ENDBRANCH  24  25
ENDBRANCH  21  24
ENDBRANCH  15  20
ENDBRANCH  12  15
ENDBRANCH  10  11
BRANCH  10  29
HETATM   29  C27 UNL     1      -9.842 -19.942  20.704  1.00  0.00     0.107 A 
HETATM   30  C28 UNL     1      -9.397 -19.266  22.000  1.00  0.00     0.051 C 
HETATM   31  C29 UNL     1      -9.365 -21.375  20.617  1.00  0.00     0.209 A 
HETATM   32  O7  UNL     1     -10.699 -21.036  20.838  1.00  0.00    -0.373 OA
ENDBRANCH  10  29
ENDBRANCH   6  10
BRANCH   1  33
HETATM   33  C10 UNL     1     -14.173 -20.652  14.880  1.00  0.00     0.131 C 
BRANCH  33  34
HETATM   34  C9  UNL     1     -14.382 -22.150  14.966  1.00  0.00     0.122 C 
BRANCH  34  35
HETATM   35  C8  UNL     1     -15.709 -22.462  15.539  1.00  0.00     0.221 C 
HETATM   36  N1  UNL     1     -15.855 -22.639  16.919  1.00  0.00    -0.349 N 
HETATM   37  C7  UNL     1     -17.175 -23.007  17.393  1.00  0.00     0.153 C 
HETATM   38  O2  UNL     1     -16.679 -22.567  14.768  1.00  0.00    -0.273 OA
BRANCH  36  39
HETATM   39  C5  UNL     1     -14.815 -22.496  17.875  1.00  0.00     0.114 C 
BRANCH  39  40
HETATM   40  C3  UNL     1     -14.729 -23.560  18.930  1.00  0.00     0.006 C 
HETATM   41  C4  UNL     1     -14.392 -24.852  18.217  1.00  0.00     0.012 C 
BRANCH  40  42
HETATM   42  C2  UNL     1     -16.018 -23.778  19.673  1.00  0.00     0.002 C 
HETATM   43  C1  UNL     1     -15.715 -24.675  20.850  1.00  0.00     0.005 C 
ENDBRANCH  40  42
ENDBRANCH  39  40
BRANCH  39  44
HETATM   44  C6  UNL     1     -15.036 -21.178  18.628  1.00  0.00     0.189 C 
BRANCH  44  45
HETATM   45  O1  UNL     1     -13.916 -20.825  19.385  1.00  0.00    -0.399 OA
ATOM     46  H1  UNL     1     -14.130 -20.173  20.042  1.00  0.00     0.209 HD
ENDBRANCH  44  45
ENDBRANCH  39  44
ENDBRANCH  36  39
ENDBRANCH  34  35
ENDBRANCH  33  34
ENDBRANCH   1  33
TORSDOF 15
ENDMDL
MODEL 5
REMARK VINA RESULT: -8.171415423      1.394      2.767
REMARK  15 active torsions:
REMARK  status: ('A' for Active; 'I' for Inactive)
REMARK    1  A    between atoms: C2_2  and  C3_3 
REMARK    2  A    between atoms: C3_3  and  C5_5 
REMARK    3  A    between atoms: C5_5  and  C6_6 
REMARK    4  A    between atoms: C5_5  and  N1_9 
REMARK    5  A    between atoms: C6_6  and  O1_7 
REMARK       I    between atoms: N1_9  and  C8_11 
REMARK    6  A    between atoms: C8_11  and  C9_13 
REMARK    7  A    between atoms: C9_13  and  C10_14 
REMARK    8  A    between atoms: C10_14  and  N2_15 
REMARK       I    between atoms: N3_19  and  C14_20 
REMARK    9  A    between atoms: C14_20  and  C15_22 
REMARK   10  A    between atoms: C15_22  and  N4_23 
REMARK   11  A    between atoms: C15_22  and  C27_41 
REMARK       I    between atoms: N4_23  and  C16_25 
REMARK   12  A    between atoms: C16_25  and  C17_27 
REMARK   13  A    between atoms: C17_27  and  N5_28 
REMARK       I    between atoms: N5_28  and  C18_30 
REMARK   14  A    between atoms: C18_30  and  O6_32 
REMARK   15  A    between atoms: O6_32  and  C19_33 
ROOT
HETATM    1  N2  UNL     1     -14.372 -21.539  18.708  1.00  0.00    -0.391 N 
HETATM    2  C11 UNL     1     -13.190 -22.228  19.027  1.00  0.00     0.059 C 
HETATM    3  C12 UNL     1     -12.299 -22.319  17.814  1.00  0.00     0.064 C 
HETATM    4  C13 UNL     1     -11.419 -21.103  17.738  1.00  0.00     0.131 C 
HETATM    5  N3  UNL     1     -11.994 -19.924  18.346  1.00  0.00    -0.348 N 
HETATM    6  C14 UNL     1     -11.188 -19.163  19.199  1.00  0.00     0.245 C 
HETATM    7  O3  UNL     1     -11.743 -18.122  19.709  1.00  0.00    -0.271 OA
HETATM    8  C30 UNL     1     -13.346 -19.381  18.175  1.00  0.00     0.145 C 
HETATM    9  C31 UNL     1     -14.319 -20.469  17.787  1.00  0.00     0.141 C 
ENDROOT
BRANCH   6  10
HETATM   10  C15 UNL     1      -9.772 -19.409  19.586  1.00  0.00     0.213 C 
BRANCH  10  11
HETATM   11  N4  UNL     1      -9.250 -18.057  19.885  1.00  0.00    -0.343 N 
HETATM   12  C16 UNL     1      -7.938 -17.687  19.565  1.00  0.00     0.246 C 
HETATM   13  O4  UNL     1      -7.176 -18.508  19.005  1.00  0.00    -0.271 OA
ATOM     14  H4  UNL     1      -9.862 -17.377  20.337  1.00  0.00     0.163 HD
BRANCH  12  15
HETATM   15  C17 UNL     1      -7.410 -16.329  19.866  1.00  0.00     0.116 C 
HETATM   16  C23 UNL     1      -8.217 -15.641  20.913  1.00  0.00     0.041 C 
HETATM   17  C24 UNL     1      -7.468 -15.748  22.213  1.00  0.00     0.003 C 
HETATM   18  C25 UNL     1      -6.200 -16.501  21.937  1.00  0.00     0.003 C 
HETATM   19  C26 UNL     1      -6.010 -16.423  20.458  1.00  0.00     0.041 C 
BRANCH  15  20
HETATM   20  N5  UNL     1      -7.327 -15.521  18.673  1.00  0.00    -0.319 N 
HETATM   21  C18 UNL     1      -8.218 -15.554  17.582  1.00  0.00     0.362 C 
HETATM   22  O5  UNL     1      -9.231 -16.287  17.476  1.00  0.00    -0.238 OA
ATOM     23  H5  UNL     1      -6.550 -14.863  18.616  1.00  0.00     0.166 HD
BRANCH  21  24
HETATM   24  O6  UNL     1      -7.972 -14.705  16.499  1.00  0.00    -0.294 OA
BRANCH  24  25
HETATM   25  C19 UNL     1      -7.003 -15.024  15.522  1.00  0.00     0.061 C 
HETATM   26  C20 UNL     1      -5.806 -14.105  15.607  1.00  0.00     0.046 C 
HETATM   27  C21 UNL     1      -6.587 -16.456  15.506  1.00  0.00     0.046 C 
HETATM   28  C22 UNL     1      -7.704 -14.760  14.175  1.00  0.00     0.046 C 
ENDBRANCH  24  25
ENDBRANCH  21  24
ENDBRANCH  15  20
ENDBRANCH  12  15
ENDBRANCH  10  11
BRANCH  10  29
HETATM   29  C27 UNL     1      -9.588 -20.224  20.808  1.00  0.00     0.107 A 
HETATM   30  C28 UNL     1      -8.802 -19.592  21.956  1.00  0.00     0.051 C 
HETATM   31  C29 UNL     1      -9.223 -21.677  20.601  1.00  0.00     0.209 A 
HETATM   32  O7  UNL     1     -10.442 -21.275  21.147  1.00  0.00    -0.373 OA
ENDBRANCH  10  29
ENDBRANCH   6  10
BRANCH   1  33
HETATM   33  C10 UNL     1     -15.606 -22.221  18.687  1.00  0.00     0.131 C 
BRANCH  33  34
HETATM   34  C9  UNL     1     -15.686 -23.325  17.652  1.00  0.00     0.122 C 
BRANCH  34  35
HETATM   35  C8  UNL     1     -16.927 -23.209  16.857  1.00  0.00     0.221 C 
HETATM   36  N1  UNL     1     -16.861 -22.921  15.489  1.00  0.00    -0.349 N 
HETATM   37  C7  UNL     1     -18.124 -22.759  14.796  1.00  0.00     0.153 C 
HETATM   38  O2  UNL     1     -18.017 -23.366  17.432  1.00  0.00    -0.273 OA
BRANCH  36  39
HETATM   39  C5  UNL     1     -15.662 -22.768  14.744  1.00  0.00     0.114 C 
BRANCH  39  40
HETATM   40  C3  UNL     1     -15.010 -21.417  14.801  1.00  0.00     0.006 C 
HETATM   41  C4  UNL     1     -16.098 -20.399  14.532  1.00  0.00     0.012 C 
BRANCH  40  42
HETATM   42  C2  UNL     1     -13.941 -21.219  13.763  1.00  0.00     0.002 C 
HETATM   43  C1  UNL     1     -12.817 -20.448  14.414  1.00  0.00     0.005 C 
ENDBRANCH  40  42
ENDBRANCH  39  40
BRANCH  39  44
HETATM   44  C6  UNL     1     -15.985 -23.014  13.264  1.00  0.00     0.189 C 
BRANCH  44  45
HETATM   45  O1  UNL     1     -15.814 -24.356  12.917  1.00  0.00    -0.399 OA
ATOM     46  H1  UNL     1     -15.225 -24.800  13.516  1.00  0.00     0.209 HD
ENDBRANCH  44  45
ENDBRANCH  39  44
ENDBRANCH  36  39
ENDBRANCH  34  35
ENDBRANCH  33  34
ENDBRANCH   1  33
TORSDOF 15
ENDMDL
