MODEL 1
REMARK VINA RESULT: -8.281178954      0.000      0.000
REMARK  16 active torsions:
REMARK  status: ('A' for Active; 'I' for Inactive)
REMARK    1  A    between atoms: C2_2  and  N1_3 
REMARK    2  A    between atoms: C3_4  and  C4_5 
REMARK       I    between atoms: C4_5  and  N2_7 
REMARK    3  A    between atoms: N2_7  and  C5_8 
REMARK    4  A    between atoms: N2_7  and  C9_12 
REMARK    5  A    between atoms: C5_8  and  C6_9 
REMARK    6  A    between atoms: C9_12  and  C10_13 
REMARK    7  A    between atoms: C10_13  and  C11_14 
REMARK    8  A    between atoms: C10_13  and  C14_17 
REMARK    9  A    between atoms: C14_17  and  O2_18 
REMARK   10  A    between atoms: C14_17  and  N3_20 
REMARK       I    between atoms: N3_20  and  C15_22 
REMARK   11  A    between atoms: C15_22  and  C16_24 
REMARK   12  A    between atoms: C16_24  and  C17_25 
REMARK   13  A    between atoms: C16_24  and  N4_29 
REMARK   14  A    between atoms: C17_25  and  C18_26 
REMARK       I    between atoms: N4_29  and  C21_31 
REMARK   15  A    between atoms: C21_31  and  O5_33 
REMARK   16  A    between atoms: O5_33  and  C22_34 
ROOT
HETATM    1  C10 UNL     1     -11.251 -18.880  17.610  1.00  0.00    -0.013 C 
ENDROOT
BRANCH   1   2
HETATM    2  C9  UNL     1     -10.591 -17.557  17.646  1.00  0.00     0.101 C 
BRANCH   2   3
HETATM    3  N2  UNL     1      -9.280 -17.260  17.265  1.00  0.00    -0.325 N 
HETATM    4  C4  UNL     1      -8.192 -17.136  18.202  1.00  0.00     0.252 C 
HETATM    5  O1  UNL     1      -7.050 -17.019  17.686  1.00  0.00    -0.270 OA
BRANCH   4   6
HETATM    6  C3  UNL     1      -8.260 -17.123  19.657  1.00  0.00     0.227 C 
HETATM    7  N1  UNL     1      -7.396 -18.124  20.197  1.00  0.00    -0.188 NA
HETATM    8  S2  UNL     1      -5.875 -17.606  20.728  1.00  0.00     0.213 S 
HETATM    9  C27 UNL     1      -5.978 -16.582  22.178  1.00  0.00     0.168 C 
HETATM   10  O6  UNL     1      -5.056 -18.838  21.072  1.00  0.00    -0.211 OA
HETATM   11  O7  UNL     1      -5.161 -16.876  19.635  1.00  0.00    -0.211 OA
HETATM   12  C26 UNL     1      -7.306 -15.840  22.125  1.00  0.00     0.092 C 
HETATM   13  S1  UNL     1      -7.817 -15.555  20.418  1.00  0.00    -0.138 SA
BRANCH   7  14
HETATM   14  C2  UNL     1      -8.080 -19.012  21.104  1.00  0.00     0.104 C 
HETATM   15  C1  UNL     1      -8.474 -20.294  20.371  1.00  0.00     0.022 C 
ENDBRANCH   7  14
ENDBRANCH   4   6
BRANCH   3  16
HETATM   16  C5  UNL     1      -8.950 -17.093  15.855  1.00  0.00     0.135 C 
BRANCH  16  17
HETATM   17  C6  UNL     1      -9.555 -15.961  15.138  1.00  0.00    -0.004 C 
HETATM   18  C7  UNL     1     -10.540 -16.330  14.030  1.00  0.00     0.011 C 
HETATM   19  C8  UNL     1      -8.658 -14.858  14.685  1.00  0.00     0.011 C 
ENDBRANCH  16  17
ENDBRANCH   3  16
ENDBRANCH   2   3
ENDBRANCH   1   2
BRANCH   1  20
HETATM   20  C11 UNL     1     -12.231 -19.151  16.533  1.00  0.00     0.012 C 
HETATM   21  C12 UNL     1     -12.837 -17.911  15.895  1.00  0.00     0.014 C 
HETATM   22  C13 UNL     1     -11.588 -19.866  15.321  1.00  0.00     0.014 C 
ENDBRANCH   1  20
BRANCH   1  23
HETATM   23  C14 UNL     1     -11.609 -19.408  18.975  1.00  0.00     0.252 C 
BRANCH  23  24
HETATM   24  O2  UNL     1     -11.651 -18.375  19.900  1.00  0.00    -0.373 OA
ATOM     25  H2  UNL     1     -12.484 -18.371  20.357  1.00  0.00     0.212 HD
ENDBRANCH  23  24
BRANCH  23  26
HETATM   26  N3  UNL     1     -13.021 -19.873  18.939  1.00  0.00    -0.326 N 
HETATM   27  C15 UNL     1     -13.391 -21.213  19.005  1.00  0.00     0.266 C 
HETATM   28  O3  UNL     1     -12.400 -22.042  19.113  1.00  0.00    -0.266 OA
ATOM     29  H3  UNL     1     -13.758 -19.173  18.862  1.00  0.00     0.165 HD
BRANCH  27  30
HETATM   30  C16 UNL     1     -14.704 -21.847  18.981  1.00  0.00     0.082 C 
BRANCH  30  31
HETATM   31  C17 UNL     1     -14.824 -23.279  19.317  1.00  0.00     0.067 C 
BRANCH  31  32
HETATM   32  C18 UNL     1     -16.189 -23.868  19.388  1.00  0.00    -0.017 C 
HETATM   33  C19 UNL     1     -16.423 -24.402  20.809  1.00  0.00     0.010 C 
HETATM   34  C20 UNL     1     -16.321 -25.107  18.497  1.00  0.00     0.010 C 
ENDBRANCH  31  32
ENDBRANCH  30  31
BRANCH  30  35
HETATM   35  N4  UNL     1     -15.519 -21.502  17.826  1.00  0.00    -0.301 N 
HETATM   36  C21 UNL     1     -15.211 -21.808  16.491  1.00  0.00     0.365 C 
HETATM   37  O4  UNL     1     -14.168 -22.428  16.216  1.00  0.00    -0.238 OA
ATOM     38  H4  UNL     1     -16.387 -20.995  18.001  1.00  0.00     0.171 HD
BRANCH  36  39
HETATM   39  O5  UNL     1     -16.050 -21.429  15.476  1.00  0.00    -0.294 OA
BRANCH  39  40
HETATM   40  C22 UNL     1     -16.928 -22.283  14.788  1.00  0.00     0.061 C 
HETATM   41  C23 UNL     1     -16.326 -22.849  13.540  1.00  0.00     0.046 C 
HETATM   42  C24 UNL     1     -17.444 -23.404  15.651  1.00  0.00     0.046 C 
HETATM   43  C25 UNL     1     -18.143 -21.463  14.359  1.00  0.00     0.046 C 
ENDBRANCH  39  40
ENDBRANCH  36  39
ENDBRANCH  30  35
ENDBRANCH  27  30
ENDBRANCH  23  26
ENDBRANCH   1  23
TORSDOF 16
ENDMDL
MODEL 2
REMARK VINA RESULT: -8.184684403      3.345      9.825
REMARK  16 active torsions:
REMARK  status: ('A' for Active; 'I' for Inactive)
REMARK    1  A    between atoms: C2_2  and  N1_3 
REMARK    2  A    between atoms: C3_4  and  C4_5 
REMARK       I    between atoms: C4_5  and  N2_7 
REMARK    3  A    between atoms: N2_7  and  C5_8 
REMARK    4  A    between atoms: N2_7  and  C9_12 
REMARK    5  A    between atoms: C5_8  and  C6_9 
REMARK    6  A    between atoms: C9_12  and  C10_13 
REMARK    7  A    between atoms: C10_13  and  C11_14 
REMARK    8  A    between atoms: C10_13  and  C14_17 
REMARK    9  A    between atoms: C14_17  and  O2_18 
REMARK   10  A    between atoms: C14_17  and  N3_20 
REMARK       I    between atoms: N3_20  and  C15_22 
REMARK   11  A    between atoms: C15_22  and  C16_24 
REMARK   12  A    between atoms: C16_24  and  C17_25 
REMARK   13  A    between atoms: C16_24  and  N4_29 
REMARK   14  A    between atoms: C17_25  and  C18_26 
REMARK       I    between atoms: N4_29  and  C21_31 
REMARK   15  A    between atoms: C21_31  and  O5_33 
REMARK   16  A    between atoms: O5_33  and  C22_34 
ROOT
HETATM    1  C10 UNL     1     -12.454 -19.690  17.928  1.00  0.00    -0.013 C 
ENDROOT
BRANCH   1   2
HETATM    2  C9  UNL     1     -13.660 -20.535  17.800  1.00  0.00     0.101 C 
BRANCH   2   3
HETATM    3  N2  UNL     1     -13.948 -21.440  16.774  1.00  0.00    -0.325 N 
HETATM    4  C4  UNL     1     -15.060 -22.356  16.816  1.00  0.00     0.252 C 
HETATM    5  O1  UNL     1     -15.271 -22.992  15.751  1.00  0.00    -0.270 OA
BRANCH   4   6
HETATM    6  C3  UNL     1     -15.952 -22.632  17.934  1.00  0.00     0.227 C 
HETATM    7  N1  UNL     1     -16.815 -23.725  17.614  1.00  0.00    -0.188 NA
HETATM    8  S2  UNL     1     -16.364 -25.245  18.204  1.00  0.00     0.213 S 
HETATM    9  C27 UNL     1     -16.500 -25.352  19.974  1.00  0.00     0.168 C 
HETATM   10  O6  UNL     1     -17.293 -26.279  17.591  1.00  0.00    -0.211 OA
HETATM   11  O7  UNL     1     -14.969 -25.577  17.777  1.00  0.00    -0.211 OA
HETATM   12  C26 UNL     1     -16.246 -23.962  20.540  1.00  0.00     0.092 C 
HETATM   13  S1  UNL     1     -15.123 -23.030  19.479  1.00  0.00    -0.138 SA
BRANCH   7  14
HETATM   14  C2  UNL     1     -18.208 -23.399  17.795  1.00  0.00     0.104 C 
HETATM   15  C1  UNL     1     -18.772 -22.810  16.502  1.00  0.00     0.022 C 
ENDBRANCH   7  14
ENDBRANCH   4   6
BRANCH   3  16
HETATM   16  C5  UNL     1     -13.126 -21.466  15.571  1.00  0.00     0.135 C 
BRANCH  16  17
HETATM   17  C6  UNL     1     -13.553 -20.643  14.430  1.00  0.00    -0.004 C 
HETATM   18  C7  UNL     1     -14.699 -19.671  14.707  1.00  0.00     0.011 C 
HETATM   19  C8  UNL     1     -13.756 -21.319  13.115  1.00  0.00     0.011 C 
ENDBRANCH  16  17
ENDBRANCH   3  16
ENDBRANCH   2   3
ENDBRANCH   1   2
BRANCH   1  20
HETATM   20  C11 UNL     1     -11.528 -19.948  19.055  1.00  0.00     0.012 C 
HETATM   21  C12 UNL     1     -12.011 -20.990  20.052  1.00  0.00     0.014 C 
HETATM   22  C13 UNL     1     -10.180 -20.544  18.581  1.00  0.00     0.014 C 
ENDBRANCH   1  20
BRANCH   1  23
HETATM   23  C14 UNL     1     -12.699 -18.241  17.596  1.00  0.00     0.252 C 
BRANCH  23  24
HETATM   24  O2  UNL     1     -13.519 -17.656  18.552  1.00  0.00    -0.373 OA
ATOM     25  H2  UNL     1     -13.169 -16.814  18.819  1.00  0.00     0.212 HD
ENDBRANCH  23  24
BRANCH  23  26
HETATM   26  N3  UNL     1     -11.420 -17.501  17.765  1.00  0.00    -0.326 N 
HETATM   27  C15 UNL     1     -10.525 -17.267  16.726  1.00  0.00     0.266 C 
HETATM   28  O3  UNL     1     -10.897 -17.739  15.577  1.00  0.00    -0.266 OA
ATOM     29  H3  UNL     1     -11.186 -17.147  18.692  1.00  0.00     0.165 HD
BRANCH  27  30
HETATM   30  C16 UNL     1      -9.241 -16.576  16.704  1.00  0.00     0.082 C 
BRANCH  30  31
HETATM   31  C17 UNL     1      -8.562 -16.348  15.413  1.00  0.00     0.067 C 
BRANCH  31  32
HETATM   32  C18 UNL     1      -8.276 -14.944  15.013  1.00  0.00    -0.017 C 
HETATM   33  C19 UNL     1      -7.864 -14.928  13.533  1.00  0.00     0.010 C 
HETATM   34  C20 UNL     1      -7.056 -14.379  15.746  1.00  0.00     0.010 C 
ENDBRANCH  31  32
ENDBRANCH  30  31
BRANCH  30  35
HETATM   35  N4  UNL     1      -8.304 -17.010  17.729  1.00  0.00    -0.301 N 
HETATM   36  C21 UNL     1      -7.885 -16.243  18.827  1.00  0.00     0.365 C 
HETATM   37  O4  UNL     1      -8.323 -15.089  18.988  1.00  0.00    -0.238 OA
ATOM     38  H4  UNL     1      -7.920 -17.951  17.642  1.00  0.00     0.171 HD
BRANCH  36  39
HETATM   39  O5  UNL     1      -6.991 -16.750  19.733  1.00  0.00    -0.294 OA
BRANCH  39  40
HETATM   40  C22 UNL     1      -7.327 -17.319  20.972  1.00  0.00     0.061 C 
HETATM   41  C23 UNL     1      -7.159 -16.364  22.113  1.00  0.00     0.046 C 
HETATM   42  C24 UNL     1      -8.722 -17.887  20.993  1.00  0.00     0.046 C 
HETATM   43  C25 UNL     1      -6.375 -18.485  21.229  1.00  0.00     0.046 C 
ENDBRANCH  39  40
ENDBRANCH  36  39
ENDBRANCH  30  35
ENDBRANCH  27  30
ENDBRANCH  23  26
ENDBRANCH   1  23
TORSDOF 16
ENDMDL
MODEL 3
REMARK VINA RESULT: -8.142184194      2.505      4.377
REMARK  16 active torsions:
REMARK  status: ('A' for Active; 'I' for Inactive)
REMARK    1  A    between atoms: C2_2  and  N1_3 
REMARK    2  A    between atoms: C3_4  and  C4_5 
REMARK       I    between atoms: C4_5  and  N2_7 
REMARK    3  A    between atoms: N2_7  and  C5_8 
REMARK    4  A    between atoms: N2_7  and  C9_12 
REMARK    5  A    between atoms: C5_8  and  C6_9 
REMARK    6  A    between atoms: C9_12  and  C10_13 
REMARK    7  A    between atoms: C10_13  and  C11_14 
REMARK    8  A    between atoms: C10_13  and  C14_17 
REMARK    9  A    between atoms: C14_17  and  O2_18 
REMARK   10  A    between atoms: C14_17  and  N3_20 
REMARK       I    between atoms: N3_20  and  C15_22 
REMARK   11  A    between atoms: C15_22  and  C16_24 
REMARK   12  A    between atoms: C16_24  and  C17_25 
REMARK   13  A    between atoms: C16_24  and  N4_29 
REMARK   14  A    between atoms: C17_25  and  C18_26 
REMARK       I    between atoms: N4_29  and  C21_31 
REMARK   15  A    between atoms: C21_31  and  O5_33 
REMARK   16  A    between atoms: O5_33  and  C22_34 
ROOT
HETATM    1  C10 UNL     1     -13.380 -20.236  17.120  1.00  0.00    -0.013 C 
ENDROOT
BRANCH   1   2
HETATM    2  C9  UNL     1     -12.280 -19.267  17.315  1.00  0.00     0.101 C 
BRANCH   2   3
HETATM    3  N2  UNL     1     -10.963 -19.552  17.687  1.00  0.00    -0.325 N 
HETATM    4  C4  UNL     1      -9.882 -18.608  17.558  1.00  0.00     0.252 C 
HETATM    5  O1  UNL     1      -8.794 -18.964  18.080  1.00  0.00    -0.270 OA
BRANCH   4   6
HETATM    6  C3  UNL     1      -9.899 -17.311  16.897  1.00  0.00     0.227 C 
HETATM    7  N1  UNL     1      -8.564 -16.844  16.696  1.00  0.00    -0.188 NA
HETATM    8  S2  UNL     1      -7.897 -17.096  15.161  1.00  0.00     0.213 S 
HETATM    9  C27 UNL     1      -8.680 -16.102  13.912  1.00  0.00     0.168 C 
HETATM   10  O6  UNL     1      -6.428 -16.714  15.223  1.00  0.00    -0.211 OA
HETATM   11  O7  UNL     1      -7.976 -18.543  14.788  1.00  0.00    -0.211 OA
HETATM   12  C26 UNL     1     -10.127 -15.890  14.332  1.00  0.00     0.092 C 
HETATM   13  S1  UNL     1     -10.728 -17.289  15.301  1.00  0.00    -0.138 SA
BRANCH   7  14
HETATM   14  C2  UNL     1      -8.354 -15.523  17.234  1.00  0.00     0.104 C 
HETATM   15  C1  UNL     1      -7.946 -15.625  18.704  1.00  0.00     0.022 C 
ENDBRANCH   7  14
ENDBRANCH   4   6
BRANCH   3  16
HETATM   16  C5  UNL     1     -10.634 -20.846  18.271  1.00  0.00     0.135 C 
BRANCH  16  17
HETATM   17  C6  UNL     1     -10.793 -21.005  19.724  1.00  0.00    -0.004 C 
HETATM   18  C7  UNL     1     -11.326 -19.781  20.469  1.00  0.00     0.011 C 
HETATM   19  C8  UNL     1      -9.674 -21.628  20.489  1.00  0.00     0.011 C 
ENDBRANCH  16  17
ENDBRANCH   3  16
ENDBRANCH   2   3
ENDBRANCH   1   2
BRANCH   1  20
HETATM   20  C11 UNL     1     -13.961 -20.382  15.766  1.00  0.00     0.012 C 
HETATM   21  C12 UNL     1     -14.776 -19.190  15.289  1.00  0.00     0.014 C 
HETATM   22  C13 UNL     1     -12.873 -20.497  14.671  1.00  0.00     0.014 C 
ENDBRANCH   1  20
BRANCH   1  23
HETATM   23  C14 UNL     1     -14.360 -20.267  18.264  1.00  0.00     0.252 C 
BRANCH  23  24
HETATM   24  O2  UNL     1     -15.055 -19.068  18.341  1.00  0.00    -0.373 OA
ATOM     25  H2  UNL     1     -15.915 -19.206  18.721  1.00  0.00     0.212 HD
ENDBRANCH  23  24
BRANCH  23  26
HETATM   26  N3  UNL     1     -15.430 -21.246  17.934  1.00  0.00    -0.326 N 
HETATM   27  C15 UNL     1     -15.287 -22.621  18.085  1.00  0.00     0.266 C 
HETATM   28  O3  UNL     1     -14.137 -22.996  18.552  1.00  0.00    -0.266 OA
ATOM     29  H3  UNL     1     -16.317 -20.890  17.578  1.00  0.00     0.165 HD
BRANCH  27  30
HETATM   30  C16 UNL     1     -16.210 -23.717  17.814  1.00  0.00     0.082 C 
BRANCH  30  31
HETATM   31  C17 UNL     1     -16.009 -25.017  18.483  1.00  0.00     0.067 C 
BRANCH  31  32
HETATM   32  C18 UNL     1     -16.802 -25.301  19.709  1.00  0.00    -0.017 C 
HETATM   33  C19 UNL     1     -18.207 -24.704  19.537  1.00  0.00     0.010 C 
HETATM   34  C20 UNL     1     -16.236 -24.578  20.935  1.00  0.00     0.010 C 
ENDBRANCH  31  32
ENDBRANCH  30  31
BRANCH  30  35
HETATM   35  N4  UNL     1     -16.547 -23.888  16.408  1.00  0.00    -0.301 N 
HETATM   36  C21 UNL     1     -17.828 -23.737  15.855  1.00  0.00     0.365 C 
HETATM   37  O4  UNL     1     -18.792 -23.429  16.580  1.00  0.00    -0.238 OA
ATOM     38  H4  UNL     1     -15.790 -24.138  15.773  1.00  0.00     0.171 HD
BRANCH  36  39
HETATM   39  O5  UNL     1     -18.036 -23.928  14.513  1.00  0.00    -0.294 OA
BRANCH  39  40
HETATM   40  C22 UNL     1     -17.742 -22.994  13.507  1.00  0.00     0.061 C 
HETATM   41  C23 UNL     1     -18.280 -23.397  12.168  1.00  0.00     0.046 C 
HETATM   42  C24 UNL     1     -18.219 -21.606  13.843  1.00  0.00     0.046 C 
HETATM   43  C25 UNL     1     -16.224 -22.915  13.367  1.00  0.00     0.046 C 
ENDBRANCH  39  40
ENDBRANCH  36  39
ENDBRANCH  30  35
ENDBRANCH  27  30
ENDBRANCH  23  26
ENDBRANCH   1  23
TORSDOF 16
ENDMDL
MODEL 4
REMARK VINA RESULT: -7.997285212      3.702      6.099
REMARK  16 active torsions:
REMARK  status: ('A' for Active; 'I' for Inactive)
REMARK    1  A    between atoms: C2_2  and  N1_3 
REMARK    2  A    between atoms: C3_4  and  C4_5 
REMARK       I    between atoms: C4_5  and  N2_7 
REMARK    3  A    between atoms: N2_7  and  C5_8 
REMARK    4  A    between atoms: N2_7  and  C9_12 
REMARK    5  A    between atoms: C5_8  and  C6_9 
REMARK    6  A    between atoms: C9_12  and  C10_13 
REMARK    7  A    between atoms: C10_13  and  C11_14 
REMARK    8  A    between atoms: C10_13  and  C14_17 
REMARK    9  A    between atoms: C14_17  and  O2_18 
REMARK   10  A    between atoms: C14_17  and  N3_20 
REMARK       I    between atoms: N3_20  and  C15_22 
REMARK   11  A    between atoms: C15_22  and  C16_24 
REMARK   12  A    between atoms: C16_24  and  C17_25 
REMARK   13  A    between atoms: C16_24  and  N4_29 
REMARK   14  A    between atoms: C17_25  and  C18_26 
REMARK       I    between atoms: N4_29  and  C21_31 
REMARK   15  A    between atoms: C21_31  and  O5_33 
REMARK   16  A    between atoms: O5_33  and  C22_34 
ROOT
HETATM    1  C10 UNL     1      -6.563 -16.009  19.354  1.00  0.00    -0.013 C 
ENDROOT
BRANCH   1   2
HETATM    2  C9  UNL     1      -6.237 -16.191  17.923  1.00  0.00     0.101 C 
BRANCH   2   3
HETATM    3  N2  UNL     1      -6.086 -15.188  16.960  1.00  0.00    -0.325 N 
HETATM    4  C4  UNL     1      -4.822 -14.571  16.651  1.00  0.00     0.252 C 
HETATM    5  O1  UNL     1      -4.830 -13.800  15.657  1.00  0.00    -0.270 OA
BRANCH   4   6
HETATM    6  C3  UNL     1      -3.554 -14.728  17.350  1.00  0.00     0.227 C 
HETATM    7  N1  UNL     1      -2.853 -15.867  16.846  1.00  0.00    -0.188 NA
HETATM    8  S2  UNL     1      -1.648 -15.568  15.696  1.00  0.00     0.213 S 
HETATM    9  C27 UNL     1      -0.247 -14.721  16.390  1.00  0.00     0.168 C 
HETATM   10  O6  UNL     1      -1.177 -16.906  15.154  1.00  0.00    -0.211 OA
HETATM   11  O7  UNL     1      -2.204 -14.783  14.550  1.00  0.00    -0.211 OA
HETATM   12  C26 UNL     1      -0.752 -13.853  17.533  1.00  0.00     0.092 C 
HETATM   13  S1  UNL     1      -2.448 -13.315  17.232  1.00  0.00    -0.138 SA
BRANCH   7  14
HETATM   14  C2  UNL     1      -2.474 -16.787  17.889  1.00  0.00     0.104 C 
HETATM   15  C1  UNL     1      -3.016 -18.180  17.569  1.00  0.00     0.022 C 
ENDBRANCH   7  14
ENDBRANCH   4   6
BRANCH   3  16
HETATM   16  C5  UNL     1      -7.237 -14.742  16.186  1.00  0.00     0.135 C 
BRANCH  16  17
HETATM   17  C6  UNL     1      -7.647 -15.557  15.033  1.00  0.00    -0.004 C 
HETATM   18  C7  UNL     1      -7.084 -16.977  14.992  1.00  0.00     0.011 C 
HETATM   19  C8  UNL     1      -7.582 -14.938  13.677  1.00  0.00     0.011 C 
ENDBRANCH  16  17
ENDBRANCH   3  16
ENDBRANCH   2   3
ENDBRANCH   1   2
BRANCH   1  20
HETATM   20  C11 UNL     1      -5.690 -16.652  20.363  1.00  0.00     0.012 C 
HETATM   21  C12 UNL     1      -6.195 -16.559  21.795  1.00  0.00     0.014 C 
HETATM   22  C13 UNL     1      -5.578 -18.182  20.152  1.00  0.00     0.014 C 
ENDBRANCH   1  20
BRANCH   1  23
HETATM   23  C14 UNL     1      -8.041 -16.047  19.641  1.00  0.00     0.252 C 
BRANCH  23  24
HETATM   24  O2  UNL     1      -8.615 -14.807  19.399  1.00  0.00    -0.373 OA
ATOM     25  H2  UNL     1      -9.562 -14.876  19.380  1.00  0.00     0.212 HD
ENDBRANCH  23  24
BRANCH  23  26
HETATM   26  N3  UNL     1      -8.692 -16.914  18.622  1.00  0.00    -0.326 N 
HETATM   27  C15 UNL     1      -9.216 -18.171  18.905  1.00  0.00     0.266 C 
HETATM   28  O3  UNL     1      -9.104 -18.537  20.144  1.00  0.00    -0.266 OA
ATOM     29  H3  UNL     1      -8.758 -16.568  17.665  1.00  0.00     0.165 HD
BRANCH  27  30
HETATM   30  C16 UNL     1      -9.876 -19.149  18.048  1.00  0.00     0.082 C 
BRANCH  30  31
HETATM   31  C17 UNL     1      -9.938 -18.914  16.592  1.00  0.00     0.067 C 
BRANCH  31  32
HETATM   32  C18 UNL     1     -11.202 -18.368  16.026  1.00  0.00    -0.017 C 
HETATM   33  C19 UNL     1     -11.856 -19.447  15.150  1.00  0.00     0.010 C 
HETATM   34  C20 UNL     1     -10.939 -17.210  15.059  1.00  0.00     0.010 C 
ENDBRANCH  31  32
ENDBRANCH  30  31
BRANCH  30  35
HETATM   35  N4  UNL     1     -11.145 -19.642  18.562  1.00  0.00    -0.301 N 
HETATM   36  C21 UNL     1     -11.404 -20.963  18.960  1.00  0.00     0.365 C 
HETATM   37  O4  UNL     1     -10.508 -21.824  18.892  1.00  0.00    -0.238 OA
ATOM     38  H4  UNL     1     -11.910 -18.972  18.640  1.00  0.00     0.171 HD
BRANCH  36  39
HETATM   39  O5  UNL     1     -12.642 -21.322  19.426  1.00  0.00    -0.294 OA
BRANCH  39  40
HETATM   40  C22 UNL     1     -13.764 -21.588  18.625  1.00  0.00     0.061 C 
HETATM   41  C23 UNL     1     -14.649 -22.650  19.199  1.00  0.00     0.046 C 
HETATM   42  C24 UNL     1     -14.579 -20.354  18.339  1.00  0.00     0.046 C 
HETATM   43  C25 UNL     1     -13.268 -22.108  17.277  1.00  0.00     0.046 C 
ENDBRANCH  39  40
ENDBRANCH  36  39
ENDBRANCH  30  35
ENDBRANCH  27  30
ENDBRANCH  23  26
ENDBRANCH   1  23
TORSDOF 16
ENDMDL
MODEL 5
REMARK VINA RESULT: -7.971391701      1.659      3.256
REMARK  16 active torsions:
REMARK  status: ('A' for Active; 'I' for Inactive)
REMARK    1  A    between atoms: C2_2  and  N1_3 
REMARK    2  A    between atoms: C3_4  and  C4_5 
REMARK       I    between atoms: C4_5  and  N2_7 
REMARK    3  A    between atoms: N2_7  and  C5_8 
REMARK    4  A    between atoms: N2_7  and  C9_12 
REMARK    5  A    between atoms: C5_8  and  C6_9 
REMARK    6  A    between atoms: C9_12  and  C10_13 
REMARK    7  A    between atoms: C10_13  and  C11_14 
REMARK    8  A    between atoms: C10_13  and  C14_17 
REMARK    9  A    between atoms: C14_17  and  O2_18 
REMARK   10  A    between atoms: C14_17  and  N3_20 
REMARK       I    between atoms: N3_20  and  C15_22 
REMARK   11  A    between atoms: C15_22  and  C16_24 
REMARK   12  A    between atoms: C16_24  and  C17_25 
REMARK   13  A    between atoms: C16_24  and  N4_29 
REMARK   14  A    between atoms: C17_25  and  C18_26 
REMARK       I    between atoms: N4_29  and  C21_31 
REMARK   15  A    between atoms: C21_31  and  O5_33 
REMARK   16  A    between atoms: O5_33  and  C22_34 
ROOT
HETATM    1  C10 UNL     1     -11.352 -19.761  17.209  1.00  0.00    -0.013 C 
ENDROOT
BRANCH   1   2
HETATM    2  C9  UNL     1      -9.971 -19.388  17.582  1.00  0.00     0.101 C 
BRANCH   2   3
HETATM    3  N2  UNL     1      -9.226 -18.314  17.086  1.00  0.00    -0.325 N 
HETATM    4  C4  UNL     1      -8.329 -17.532  17.897  1.00  0.00     0.252 C 
HETATM    5  O1  UNL     1      -7.620 -16.704  17.268  1.00  0.00    -0.270 OA
BRANCH   4   6
HETATM    6  C3  UNL     1      -8.154 -17.581  19.343  1.00  0.00     0.227 C 
HETATM    7  N1  UNL     1      -7.196 -18.584  19.687  1.00  0.00    -0.188 NA
HETATM    8  S2  UNL     1      -5.617 -18.055  19.982  1.00  0.00     0.213 S 
HETATM    9  C27 UNL     1      -5.493 -17.094  21.473  1.00  0.00     0.168 C 
HETATM   10  O6  UNL     1      -4.733 -19.281  20.129  1.00  0.00    -0.211 OA
HETATM   11  O7  UNL     1      -5.106 -17.263  18.819  1.00  0.00    -0.211 OA
HETATM   12  C26 UNL     1      -6.822 -16.382  21.674  1.00  0.00     0.092 C 
HETATM   13  S1  UNL     1      -7.615 -16.037  20.090  1.00  0.00    -0.138 SA
BRANCH   7  14
HETATM   14  C2  UNL     1      -7.706 -19.525  20.654  1.00  0.00     0.104 C 
HETATM   15  C1  UNL     1      -9.063 -19.048  21.170  1.00  0.00     0.022 C 
ENDBRANCH   7  14
ENDBRANCH   4   6
BRANCH   3  16
HETATM   16  C5  UNL     1      -9.308 -17.959  15.675  1.00  0.00     0.135 C 
BRANCH  16  17
HETATM   17  C6  UNL     1     -10.179 -16.835  15.300  1.00  0.00    -0.004 C 
HETATM   18  C7  UNL     1     -11.563 -17.216  14.775  1.00  0.00     0.011 C 
HETATM   19  C8  UNL     1      -9.595 -15.742  14.469  1.00  0.00     0.011 C 
ENDBRANCH  16  17
ENDBRANCH   3  16
ENDBRANCH   2   3
ENDBRANCH   1   2
BRANCH   1  20
HETATM   20  C11 UNL     1     -12.407 -19.694  18.247  1.00  0.00     0.012 C 
HETATM   21  C12 UNL     1     -11.996 -20.232  19.609  1.00  0.00     0.014 C 
HETATM   22  C13 UNL     1     -12.813 -18.237  18.575  1.00  0.00     0.014 C 
ENDBRANCH   1  20
BRANCH   1  23
HETATM   23  C14 UNL     1     -11.422 -20.941  16.274  1.00  0.00     0.252 C 
BRANCH  23  24
HETATM   24  O2  UNL     1     -10.601 -21.966  16.724  1.00  0.00    -0.373 OA
ATOM     25  H2  UNL     1     -10.427 -22.584  16.023  1.00  0.00     0.212 HD
ENDBRANCH  23  24
BRANCH  23  26
HETATM   26  N3  UNL     1     -12.780 -21.539  16.380  1.00  0.00    -0.326 N 
HETATM   27  C15 UNL     1     -13.659 -21.646  15.307  1.00  0.00     0.266 C 
HETATM   28  O3  UNL     1     -13.197 -21.188  14.184  1.00  0.00    -0.266 OA
ATOM     29  H3  UNL     1     -13.084 -21.890  17.288  1.00  0.00     0.165 HD
BRANCH  27  30
HETATM   30  C16 UNL     1     -15.009 -22.189  15.223  1.00  0.00     0.082 C 
BRANCH  30  31
HETATM   31  C17 UNL     1     -16.153 -21.271  15.065  1.00  0.00     0.067 C 
BRANCH  31  32
HETATM   32  C18 UNL     1     -17.214 -21.637  14.088  1.00  0.00    -0.017 C 
HETATM   33  C19 UNL     1     -18.510 -21.934  14.856  1.00  0.00     0.010 C 
HETATM   34  C20 UNL     1     -16.896 -22.952  13.369  1.00  0.00     0.010 C 
ENDBRANCH  31  32
ENDBRANCH  30  31
BRANCH  30  35
HETATM   35  N4  UNL     1     -15.298 -23.238  16.191  1.00  0.00    -0.301 N 
HETATM   36  C21 UNL     1     -15.476 -23.046  17.569  1.00  0.00     0.365 C 
HETATM   37  O4  UNL     1     -15.393 -21.905  18.059  1.00  0.00    -0.238 OA
ATOM     38  H4  UNL     1     -15.378 -24.191  15.837  1.00  0.00     0.171 HD
BRANCH  36  39
HETATM   39  O5  UNL     1     -15.740 -24.109  18.394  1.00  0.00    -0.294 OA
BRANCH  39  40
HETATM   40  C22 UNL     1     -17.011 -24.658  18.626  1.00  0.00     0.061 C 
HETATM   41  C23 UNL     1     -18.113 -23.847  18.016  1.00  0.00     0.046 C 
HETATM   42  C24 UNL     1     -17.122 -26.086  18.163  1.00  0.00     0.046 C 
HETATM   43  C25 UNL     1     -17.253 -24.666  20.134  1.00  0.00     0.046 C 
ENDBRANCH  39  40
ENDBRANCH  36  39
ENDBRANCH  30  35
ENDBRANCH  27  30
ENDBRANCH  23  26
ENDBRANCH   1  23
TORSDOF 16
ENDMDL
