MODEL 1
REMARK VINA RESULT: -10.078163598      0.000      0.000
REMARK  0 active torsions:
REMARK  status: ('A' for Active; 'I' for Inactive)
ROOT
HETATM    1  C1  UNL     1       7.018   0.044  11.820  1.00  0.00     0.000 C 
HETATM    2  C2  UNL     1       6.955   1.212  12.751  1.00  0.00     0.006 C 
HETATM    3  C3  UNL     1       7.723   1.021  14.024  1.00  0.00     0.074 C 
HETATM    4  C4  UNL     1       9.152   0.602  13.795  1.00  0.00     0.230 C 
HETATM    5  C5  UNL     1       9.352  -0.098  12.491  1.00  0.00     0.074 C 
HETATM    6  C6  UNL     1       8.109  -0.926  12.195  1.00  0.00     0.006 C 
HETATM    7  O1  UNL     1       9.505  -0.235  14.878  1.00  0.00    -0.193 OA
HETATM    8  O2  UNL     1       9.688   0.570  15.894  1.00  0.00    -0.166 OA
HETATM    9  C7  UNL     1      10.900   0.396  16.530  1.00  0.00     0.366 C 
HETATM   10  C8  UNL     1      11.494  -0.914  16.052  1.00  0.00     0.104 C 
HETATM   11  C9  UNL     1      10.802  -2.086  16.740  1.00  0.00     0.009 C 
HETATM   12  C10 UNL     1      11.136  -2.108  18.232  1.00  0.00     0.028 C 
HETATM   13  C11 UNL     1      11.588  -0.688  18.570  1.00  0.00     0.239 C 
HETATM   14  N1  UNL     1      10.588   0.193  17.956  1.00  0.00    -0.015 N 
ATOM     15  H11 UNL     1       9.638  -0.152  18.094  1.00  0.00     0.283 HD
ATOM     16  H12 UNL     1      10.500   1.077  18.457  1.00  0.00     0.283 HD
HETATM   17  O3  UNL     1      11.756   1.451  16.455  1.00  0.00    -0.290 OA
HETATM   18  C12 UNL     1      11.628   2.220  15.299  1.00  0.00     0.209 C 
HETATM   19  O4  UNL     1      11.198   1.422  14.264  1.00  0.00    -0.197 OA
HETATM   20  O5  UNL     1       9.995   1.698  13.866  1.00  0.00    -0.195 OA
HETATM   21  C13 UNL     1      13.010   2.797  15.046  1.00  0.00     0.052 C 
HETATM   22  C14 UNL     1      13.491   3.375  16.349  1.00  0.00     0.014 C 
HETATM   23  C15 UNL     1      12.548   4.475  16.775  1.00  0.00    -0.013 C 
HETATM   24  C16 UNL     1      12.546   5.598  15.734  1.00  0.00     0.009 C 
HETATM   25  C17 UNL     1      12.065   5.018  14.444  1.00  0.00    -0.013 C 
HETATM   26  C18 UNL     1      12.997   3.880  14.009  1.00  0.00     0.014 C 
HETATM   27  C19 UNL     1      10.695   4.432  14.558  1.00  0.00     0.014 C 
HETATM   28  C20 UNL     1      10.695   3.348  15.601  1.00  0.00     0.052 C 
HETATM   29  C21 UNL     1      11.137   4.005  16.912  1.00  0.00     0.014 C 
ENDROOT
TORSDOF 0
ENDMDL
MODEL 2
REMARK VINA RESULT: -9.196702330      1.320      1.696
REMARK  0 active torsions:
REMARK  status: ('A' for Active; 'I' for Inactive)
ROOT
HETATM    1  C1  UNL     1       7.478   0.287  12.105  1.00  0.00     0.000 C 
HETATM    2  C2  UNL     1       7.780   1.720  12.405  1.00  0.00     0.006 C 
HETATM    3  C3  UNL     1       8.481   1.937  13.712  1.00  0.00     0.074 C 
HETATM    4  C4  UNL     1       9.717   1.090  13.868  1.00  0.00     0.230 C 
HETATM    5  C5  UNL     1       9.678  -0.155  13.046  1.00  0.00     0.074 C 
HETATM    6  C6  UNL     1       8.240  -0.656  13.002  1.00  0.00     0.006 C 
HETATM    7  O1  UNL     1       9.827   0.786  15.245  1.00  0.00    -0.193 OA
HETATM    8  O2  UNL     1      10.258   1.885  15.809  1.00  0.00    -0.166 OA
HETATM    9  C7  UNL     1      11.376   1.702  16.598  1.00  0.00     0.366 C 
HETATM   10  C8  UNL     1      11.547   0.214  16.828  1.00  0.00     0.104 C 
HETATM   11  C9  UNL     1      10.552  -0.272  17.876  1.00  0.00     0.009 C 
HETATM   12  C10 UNL     1      10.892   0.305  19.251  1.00  0.00     0.028 C 
HETATM   13  C11 UNL     1      11.750   1.539  18.973  1.00  0.00     0.239 C 
HETATM   14  N1  UNL     1      11.044   2.272  17.916  1.00  0.00    -0.015 N 
ATOM     15  H11 UNL     1      10.038   2.301  18.077  1.00  0.00     0.283 HD
ATOM     16  H12 UNL     1      11.231   3.274  17.957  1.00  0.00     0.283 HD
HETATM   17  O3  UNL     1      12.504   2.328  16.165  1.00  0.00    -0.290 OA
HETATM   18  C12 UNL     1      12.588   2.481  14.782  1.00  0.00     0.209 C 
HETATM   19  O4  UNL     1      11.923   1.446  14.166  1.00  0.00    -0.197 OA
HETATM   20  O5  UNL     1      10.848   1.821  13.546  1.00  0.00    -0.195 OA
HETATM   21  C13 UNL     1      14.074   2.477  14.467  1.00  0.00     0.052 C 
HETATM   22  C14 UNL     1      14.728   3.436  15.425  1.00  0.00     0.014 C 
HETATM   23  C15 UNL     1      14.161   4.818  15.200  1.00  0.00    -0.013 C 
HETATM   24  C16 UNL     1      14.472   5.288  13.777  1.00  0.00     0.009 C 
HETATM   25  C17 UNL     1      13.818   4.334  12.831  1.00  0.00    -0.013 C 
HETATM   26  C18 UNL     1      14.363   2.920  13.065  1.00  0.00     0.014 C 
HETATM   27  C19 UNL     1      12.338   4.262  13.028  1.00  0.00     0.014 C 
HETATM   28  C20 UNL     1      12.037   3.826  14.436  1.00  0.00     0.052 C 
HETATM   29  C21 UNL     1      12.677   4.865  15.360  1.00  0.00     0.014 C 
ENDROOT
TORSDOF 0
ENDMDL
MODEL 3
REMARK VINA RESULT: -8.954841344      1.722      4.510
REMARK  0 active torsions:
REMARK  status: ('A' for Active; 'I' for Inactive)
ROOT
HETATM    1  C1  UNL     1       7.327   0.111  12.338  1.00  0.00     0.000 C 
HETATM    2  C2  UNL     1       8.357  -0.827  12.880  1.00  0.00     0.006 C 
HETATM    3  C3  UNL     1       9.699  -0.199  13.107  1.00  0.00     0.074 C 
HETATM    4  C4  UNL     1       9.631   1.055  13.940  1.00  0.00     0.230 C 
HETATM    5  C5  UNL     1       8.303   1.732  13.867  1.00  0.00     0.074 C 
HETATM    6  C6  UNL     1       7.750   1.553  12.459  1.00  0.00     0.006 C 
HETATM    7  O1  UNL     1      10.660   1.905  13.474  1.00  0.00    -0.193 OA
HETATM    8  O2  UNL     1      11.770   1.401  13.950  1.00  0.00    -0.166 OA
HETATM    9  C7  UNL     1      12.549   2.316  14.629  1.00  0.00     0.366 C 
HETATM   10  C8  UNL     1      12.026   3.702  14.311  1.00  0.00     0.104 C 
HETATM   11  C9  UNL     1      12.482   4.128  12.920  1.00  0.00     0.009 C 
HETATM   12  C10 UNL     1      13.997   4.344  12.893  1.00  0.00     0.028 C 
HETATM   13  C11 UNL     1      14.541   3.559  14.085  1.00  0.00     0.239 C 
HETATM   14  N1  UNL     1      13.888   2.247  14.016  1.00  0.00    -0.015 N 
ATOM     15  H11 UNL     1      13.853   1.886  13.063  1.00  0.00     0.283 HD
ATOM     16  H12 UNL     1      14.461   1.512  14.433  1.00  0.00     0.283 HD
HETATM   17  O3  UNL     1      12.707   2.075  15.959  1.00  0.00    -0.290 OA
HETATM   18  C12 UNL     1      11.631   1.425  16.561  1.00  0.00     0.209 C 
HETATM   19  O4  UNL     1      10.467   1.762  15.909  1.00  0.00    -0.197 OA
HETATM   20  O5  UNL     1       9.935   0.774  15.261  1.00  0.00    -0.195 OA
HETATM   21  C13 UNL     1      11.637   1.893  18.006  1.00  0.00     0.052 C 
HETATM   22  C14 UNL     1      13.049   1.752  18.509  1.00  0.00     0.014 C 
HETATM   23  C15 UNL     1      13.450   0.297  18.441  1.00  0.00    -0.013 C 
HETATM   24  C16 UNL     1      12.542  -0.541  19.345  1.00  0.00     0.009 C 
HETATM   25  C17 UNL     1      11.143  -0.398  18.840  1.00  0.00    -0.013 C 
HETATM   26  C18 UNL     1      10.728   1.077  18.877  1.00  0.00     0.014 C 
HETATM   27  C19 UNL     1      11.001  -0.850  17.423  1.00  0.00     0.014 C 
HETATM   28  C20 UNL     1      11.915  -0.043  16.542  1.00  0.00     0.052 C 
HETATM   29  C21 UNL     1      13.336  -0.269  17.064  1.00  0.00     0.014 C 
ENDROOT
TORSDOF 0
ENDMDL
MODEL 4
REMARK VINA RESULT: -8.669634437      2.223      4.685
REMARK  0 active torsions:
REMARK  status: ('A' for Active; 'I' for Inactive)
ROOT
HETATM    1  C1  UNL     1       7.374   2.555  12.727  1.00  0.00     0.000 C 
HETATM    2  C2  UNL     1       8.090   1.360  13.269  1.00  0.00     0.006 C 
HETATM    3  C3  UNL     1       9.580   1.511  13.323  1.00  0.00     0.074 C 
HETATM    4  C4  UNL     1      10.022   2.763  14.035  1.00  0.00     0.230 C 
HETATM    5  C5  UNL     1       8.992   3.844  14.008  1.00  0.00     0.074 C 
HETATM    6  C6  UNL     1       8.259   3.774  12.675  1.00  0.00     0.006 C 
HETATM    7  O1  UNL     1      11.216   3.185  13.406  1.00  0.00    -0.193 OA
HETATM    8  O2  UNL     1      12.142   2.367  13.835  1.00  0.00    -0.166 OA
HETATM    9  C7  UNL     1      13.249   3.005  14.357  1.00  0.00     0.366 C 
HETATM   10  C8  UNL     1      13.181   4.464  13.953  1.00  0.00     0.104 C 
HETATM   11  C9  UNL     1      13.597   4.624  12.495  1.00  0.00     0.009 C 
HETATM   12  C10 UNL     1      15.085   4.313  12.322  1.00  0.00     0.028 C 
HETATM   13  C11 UNL     1      15.467   3.466  13.534  1.00  0.00     0.239 C 
HETATM   14  N1  UNL     1      14.414   2.450  13.645  1.00  0.00    -0.015 N 
ATOM     15  H11 UNL     1      14.158   2.064  12.736  1.00  0.00     0.283 HD
ATOM     16  H12 UNL     1      14.755   1.593  14.080  1.00  0.00     0.283 HD
HETATM   17  O3  UNL     1      13.464   2.809  15.686  1.00  0.00    -0.290 OA
HETATM   18  C12 UNL     1      12.307   2.598  16.435  1.00  0.00     0.209 C 
HETATM   19  O4  UNL     1      11.256   3.267  15.852  1.00  0.00    -0.197 OA
HETATM   20  O5  UNL     1      10.360   2.479  15.348  1.00  0.00    -0.195 OA
HETATM   21  C13 UNL     1      12.626   3.126  17.823  1.00  0.00     0.052 C 
HETATM   22  C14 UNL     1      13.958   2.547  18.218  1.00  0.00     0.014 C 
HETATM   23  C15 UNL     1      13.848   1.042  18.256  1.00  0.00    -0.013 C 
HETATM   24  C16 UNL     1      12.819   0.617  19.308  1.00  0.00     0.009 C 
HETATM   25  C17 UNL     1      11.499   1.192  18.909  1.00  0.00    -0.013 C 
HETATM   26  C18 UNL     1      11.601   2.721  18.840  1.00  0.00     0.014 C 
HETATM   27  C19 UNL     1      11.061   0.728  17.558  1.00  0.00     0.014 C 
HETATM   28  C20 UNL     1      12.087   1.123  16.532  1.00  0.00     0.052 C 
HETATM   29  C21 UNL     1      13.402   0.463  16.954  1.00  0.00     0.014 C 
ENDROOT
TORSDOF 0
ENDMDL
MODEL 5
REMARK VINA RESULT: -8.599630911      2.081      4.498
REMARK  0 active torsions:
REMARK  status: ('A' for Active; 'I' for Inactive)
ROOT
HETATM    1  C1  UNL     1       7.777   0.393  12.741  1.00  0.00     0.000 C 
HETATM    2  C2  UNL     1       8.784  -0.423  13.485  1.00  0.00     0.006 C 
HETATM    3  C3  UNL     1      10.134   0.220  13.593  1.00  0.00     0.074 C 
HETATM    4  C4  UNL     1      10.078   1.623  14.140  1.00  0.00     0.230 C 
HETATM    5  C5  UNL     1       8.763   2.288  13.905  1.00  0.00     0.074 C 
HETATM    6  C6  UNL     1       8.222   1.821  12.559  1.00  0.00     0.006 C 
HETATM    7  O1  UNL     1      11.127   2.340  13.518  1.00  0.00    -0.193 OA
HETATM    8  O2  UNL     1      12.222   1.933  14.108  1.00  0.00    -0.166 OA
HETATM    9  C7  UNL     1      13.009   2.960  14.588  1.00  0.00     0.366 C 
HETATM   10  C8  UNL     1      12.513   4.254  13.975  1.00  0.00     0.104 C 
HETATM   11  C9  UNL     1      12.993   4.368  12.532  1.00  0.00     0.009 C 
HETATM   12  C10 UNL     1      14.511   4.552  12.482  1.00  0.00     0.028 C 
HETATM   13  C11 UNL     1      15.028   4.030  13.822  1.00  0.00     0.239 C 
HETATM   14  N1  UNL     1      14.353   2.743  14.024  1.00  0.00    -0.015 N 
ATOM     15  H11 UNL     1      14.324   2.189  13.168  1.00  0.00     0.283 HD
ATOM     16  H12 UNL     1      14.909   2.106  14.595  1.00  0.00     0.283 HD
HETATM   17  O3  UNL     1      13.147   3.006  15.941  1.00  0.00    -0.290 OA
HETATM   18  C12 UNL     1      12.054   2.513  16.652  1.00  0.00     0.209 C 
HETATM   19  O4  UNL     1      10.904   2.721  15.926  1.00  0.00    -0.197 OA
HETATM   20  O5  UNL     1      10.362   1.625  15.495  1.00  0.00    -0.195 OA
HETATM   21  C13 UNL     1      12.051   3.278  17.964  1.00  0.00     0.052 C 
HETATM   22  C14 UNL     1      13.455   3.226  18.506  1.00  0.00     0.014 C 
HETATM   23  C15 UNL     1      13.832   1.785  18.755  1.00  0.00    -0.013 C 
HETATM   24  C16 UNL     1      12.899   1.172  19.803  1.00  0.00     0.009 C 
HETATM   25  C17 UNL     1      11.509   1.224  19.258  1.00  0.00    -0.013 C 
HETATM   26  C18 UNL     1      11.119   2.679  18.975  1.00  0.00     0.014 C 
HETATM   27  C19 UNL     1      11.375   0.483  17.967  1.00  0.00     0.014 C 
HETATM   28  C20 UNL     1      12.313   1.071  16.949  1.00  0.00     0.052 C 
HETATM   29  C21 UNL     1      13.724   0.941  17.528  1.00  0.00     0.014 C 
ENDROOT
TORSDOF 0
ENDMDL
