MODEL 1
REMARK VINA RESULT: -7.441155489      0.000      0.000
REMARK  3 active torsions:
REMARK  status: ('A' for Active; 'I' for Inactive)
REMARK    1  A    between atoms: C2_2  and  O2_4 
REMARK    2  A    between atoms: O2_4  and  C3_5 
REMARK    3  A    between atoms: C21_26  and  O6_27 
ROOT
HETATM    1  C3  UNL     1      10.483  -1.032  16.833  1.00  0.00     0.160 C 
HETATM    2  C4  UNL     1      11.580   0.018  17.039  1.00  0.00     0.035 C 
HETATM    3  C5  UNL     1      11.656   0.321  18.503  1.00  0.00     0.002 C 
HETATM    4  C6  UNL     1      12.300   1.631  18.824  1.00  0.00     0.000 C 
HETATM    5  C7  UNL     1      13.299   2.092  17.820  1.00  0.00     0.000 C 
HETATM    6  C8  UNL     1      13.298   3.604  17.650  1.00  0.00     0.000 C 
HETATM    7  C9  UNL     1      12.007   4.122  17.103  1.00  0.00     0.002 C 
HETATM    8  C10 UNL     1      12.149   5.360  16.265  1.00  0.00     0.032 C 
HETATM    9  C11 UNL     1      13.205   5.199  15.184  1.00  0.00     0.127 C 
HETATM   10  C12 UNL     1      12.997   6.276  14.173  1.00  0.00     0.040 C 
HETATM   11  O3  UNL     1      13.158   3.897  14.708  1.00  0.00    -0.316 OA
HETATM   12  C13 UNL     1      13.044   3.432  13.434  1.00  0.00     0.259 C 
HETATM   13  O4  UNL     1      13.903   2.665  12.885  1.00  0.00    -0.265 OA
HETATM   14  C14 UNL     1      11.870   3.818  12.617  1.00  0.00     0.111 C 
HETATM   15  C15 UNL     1      10.563   3.654  13.396  1.00  0.00     0.010 C 
HETATM   16  C16 UNL     1       9.439   3.300  12.451  1.00  0.00     0.008 C 
HETATM   17  C17 UNL     1       9.057   1.863  12.468  1.00  0.00     0.078 C 
HETATM   18  C18 UNL     1       9.357   1.151  13.717  1.00  0.00     0.127 C 
HETATM   19  O5  UNL     1       8.775   1.482  14.740  1.00  0.00    -0.298 OA
HETATM   20  C19 UNL     1      10.360   0.030  13.751  1.00  0.00     0.081 C 
HETATM   21  C20 UNL     1       9.733  -1.133  14.454  1.00  0.00     0.041 C 
HETATM   22  C21 UNL     1      10.681  -1.722  15.484  1.00  0.00     0.148 C 
ENDROOT
BRANCH   1  23
HETATM   23  O2  UNL     1      10.653  -2.006  17.828  1.00  0.00    -0.314 OA
BRANCH  23  24
HETATM   24  C2  UNL     1       9.690  -2.386  18.731  1.00  0.00     0.255 C 
HETATM   25  C1  UNL     1       9.186  -1.427  19.746  1.00  0.00     0.126 C 
HETATM   26  O1  UNL     1       9.247  -3.553  18.682  1.00  0.00    -0.266 OA
ENDBRANCH  23  24
ENDBRANCH   1  23
BRANCH  22  27
HETATM   27  O6  UNL     1      10.371  -3.072  15.632  1.00  0.00    -0.393 OA
ATOM     28  H6  UNL     1      10.911  -3.570  15.030  1.00  0.00     0.210 HD
ENDBRANCH  22  27
TORSDOF 3
ENDMDL
MODEL 2
REMARK VINA RESULT: -7.187832980      2.152      7.095
REMARK  3 active torsions:
REMARK  status: ('A' for Active; 'I' for Inactive)
REMARK    1  A    between atoms: C2_2  and  O2_4 
REMARK    2  A    between atoms: O2_4  and  C3_5 
REMARK    3  A    between atoms: C21_26  and  O6_27 
ROOT
HETATM    1  C3  UNL     1      11.355   3.754  13.829  1.00  0.00     0.160 C 
HETATM    2  C4  UNL     1      11.449   2.259  14.150  1.00  0.00     0.035 C 
HETATM    3  C5  UNL     1      10.261   1.583  13.540  1.00  0.00     0.002 C 
HETATM    4  C6  UNL     1       9.934   0.256  14.144  1.00  0.00     0.000 C 
HETATM    5  C7  UNL     1      11.103  -0.465  14.722  1.00  0.00     0.000 C 
HETATM    6  C8  UNL     1      10.739  -1.258  15.969  1.00  0.00     0.000 C 
HETATM    7  C9  UNL     1      10.290  -0.387  17.096  1.00  0.00     0.002 C 
HETATM    8  C10 UNL     1      10.610  -0.933  18.458  1.00  0.00     0.032 C 
HETATM    9  C11 UNL     1      12.072  -1.326  18.586  1.00  0.00     0.127 C 
HETATM   10  C12 UNL     1      12.388  -1.460  20.038  1.00  0.00     0.040 C 
HETATM   11  O3  UNL     1      12.841  -0.416  17.875  1.00  0.00    -0.316 OA
HETATM   12  C13 UNL     1      13.915   0.322  18.268  1.00  0.00     0.259 C 
HETATM   13  O4  UNL     1      15.056   0.257  17.704  1.00  0.00    -0.265 OA
HETATM   14  C14 UNL     1      13.781   1.259  19.407  1.00  0.00     0.111 C 
HETATM   15  C15 UNL     1      12.521   2.121  19.283  1.00  0.00     0.010 C 
HETATM   16  C16 UNL     1      12.756   3.473  19.913  1.00  0.00     0.008 C 
HETATM   17  C17 UNL     1      13.005   4.566  18.937  1.00  0.00     0.078 C 
HETATM   18  C18 UNL     1      12.436   4.353  17.599  1.00  0.00     0.127 C 
HETATM   19  O5  UNL     1      11.221   4.303  17.476  1.00  0.00    -0.298 OA
HETATM   20  C19 UNL     1      13.323   4.196  16.393  1.00  0.00     0.081 C 
HETATM   21  C20 UNL     1      12.819   5.115  15.325  1.00  0.00     0.041 C 
HETATM   22  C21 UNL     1      12.731   4.400  13.988  1.00  0.00     0.148 C 
ENDROOT
BRANCH   1  23
HETATM   23  O2  UNL     1      10.998   3.864  12.476  1.00  0.00    -0.314 OA
BRANCH  23  24
HETATM   24  C2  UNL     1      10.074   4.749  11.977  1.00  0.00     0.255 C 
HETATM   25  C1  UNL     1       8.674   4.740  12.470  1.00  0.00     0.126 C 
HETATM   26  O1  UNL     1      10.433   5.561  11.098  1.00  0.00    -0.266 OA
ENDBRANCH  23  24
ENDBRANCH   1  23
BRANCH  22  27
HETATM   27  O6  UNL     1      12.889   5.349  12.981  1.00  0.00    -0.393 OA
ATOM     28  H6  UNL     1      13.728   5.201  12.560  1.00  0.00     0.210 HD
ENDBRANCH  22  27
TORSDOF 3
ENDMDL
MODEL 3
REMARK VINA RESULT: -7.087831070      2.240      6.225
REMARK  3 active torsions:
REMARK  status: ('A' for Active; 'I' for Inactive)
REMARK    1  A    between atoms: C2_2  and  O2_4 
REMARK    2  A    between atoms: O2_4  and  C3_5 
REMARK    3  A    between atoms: C21_26  and  O6_27 
ROOT
HETATM    1  C3  UNL     1      10.038   2.107  13.876  1.00  0.00     0.160 C 
HETATM    2  C4  UNL     1      10.523   0.839  14.585  1.00  0.00     0.035 C 
HETATM    3  C5  UNL     1       9.404  -0.155  14.563  1.00  0.00     0.002 C 
HETATM    4  C6  UNL     1       9.516  -1.226  15.600  1.00  0.00     0.000 C 
HETATM    5  C7  UNL     1      10.912  -1.545  16.010  1.00  0.00     0.000 C 
HETATM    6  C8  UNL     1      11.017  -1.905  17.485  1.00  0.00     0.000 C 
HETATM    7  C9  UNL     1      10.654  -0.767  18.383  1.00  0.00     0.002 C 
HETATM    8  C10 UNL     1      11.381  -0.767  19.698  1.00  0.00     0.032 C 
HETATM    9  C11 UNL     1      12.884  -0.897  19.518  1.00  0.00     0.127 C 
HETATM   10  C12 UNL     1      13.539  -0.483  20.792  1.00  0.00     0.040 C 
HETATM   11  O3  UNL     1      13.259  -0.192  18.382  1.00  0.00    -0.316 OA
HETATM   12  C13 UNL     1      14.207   0.770  18.219  1.00  0.00     0.259 C 
HETATM   13  O4  UNL     1      15.180   0.667  17.402  1.00  0.00    -0.265 OA
HETATM   14  C14 UNL     1      14.132   2.014  19.020  1.00  0.00     0.111 C 
HETATM   15  C15 UNL     1      12.721   2.607  19.007  1.00  0.00     0.010 C 
HETATM   16  C16 UNL     1      12.792   4.112  19.116  1.00  0.00     0.008 C 
HETATM   17  C17 UNL     1      12.573   4.828  17.832  1.00  0.00     0.078 C 
HETATM   18  C18 UNL     1      11.779   4.097  16.835  1.00  0.00     0.127 C 
HETATM   19  O5  UNL     1      10.607   3.848  17.080  1.00  0.00    -0.298 OA
HETATM   20  C19 UNL     1      12.386   3.655  15.530  1.00  0.00     0.081 C 
HETATM   21  C20 UNL     1      11.468   4.078  14.426  1.00  0.00     0.041 C 
HETATM   22  C21 UNL     1      11.241   2.944  13.443  1.00  0.00     0.148 C 
ENDROOT
BRANCH   1  23
HETATM   23  O2  UNL     1       9.371   1.700  12.711  1.00  0.00    -0.314 OA
BRANCH  23  24
HETATM   24  C2  UNL     1       8.022   1.831  12.489  1.00  0.00     0.255 C 
HETATM   25  C1  UNL     1       7.291   3.031  12.966  1.00  0.00     0.126 C 
HETATM   26  O1  UNL     1       7.423   0.920  11.880  1.00  0.00    -0.266 OA
ENDBRANCH  23  24
ENDBRANCH   1  23
BRANCH  22  27
HETATM   27  O6  UNL     1      10.960   3.503  12.198  1.00  0.00    -0.393 OA
ATOM     28  H6  UNL     1      11.754   3.485  11.677  1.00  0.00     0.210 HD
ENDBRANCH  22  27
TORSDOF 3
ENDMDL
MODEL 4
REMARK VINA RESULT: -6.933839391      1.735      4.732
REMARK  3 active torsions:
REMARK  status: ('A' for Active; 'I' for Inactive)
REMARK    1  A    between atoms: C2_2  and  O2_4 
REMARK    2  A    between atoms: O2_4  and  C3_5 
REMARK    3  A    between atoms: C21_26  and  O6_27 
ROOT
HETATM    1  C3  UNL     1      10.519  -1.434  18.367  1.00  0.00     0.160 C 
HETATM    2  C4  UNL     1      10.257  -0.588  17.116  1.00  0.00     0.035 C 
HETATM    3  C5  UNL     1      10.049  -1.522  15.966  1.00  0.00     0.002 C 
HETATM    4  C6  UNL     1      10.264  -0.899  14.624  1.00  0.00     0.000 C 
HETATM    5  C7  UNL     1       9.998   0.566  14.574  1.00  0.00     0.000 C 
HETATM    6  C8  UNL     1      10.941   1.297  13.629  1.00  0.00     0.000 C 
HETATM    7  C9  UNL     1      12.366   1.229  14.072  1.00  0.00     0.002 C 
HETATM    8  C10 UNL     1      13.186   2.427  13.683  1.00  0.00     0.032 C 
HETATM    9  C11 UNL     1      12.521   3.730  14.092  1.00  0.00     0.127 C 
HETATM   10  C12 UNL     1      13.551   4.808  14.049  1.00  0.00     0.040 C 
HETATM   11  O3  UNL     1      11.885   3.542  15.311  1.00  0.00    -0.316 OA
HETATM   12  C13 UNL     1      11.982   4.249  16.470  1.00  0.00     0.259 C 
HETATM   13  O4  UNL     1      10.986   4.808  17.037  1.00  0.00    -0.265 OA
HETATM   14  C14 UNL     1      13.300   4.394  17.130  1.00  0.00     0.111 C 
HETATM   15  C15 UNL     1      14.032   3.052  17.226  1.00  0.00     0.010 C 
HETATM   16  C16 UNL     1      14.898   3.024  18.463  1.00  0.00     0.008 C 
HETATM   17  C17 UNL     1      14.330   2.235  19.588  1.00  0.00     0.078 C 
HETATM   18  C18 UNL     1      13.392   1.174  19.197  1.00  0.00     0.127 C 
HETATM   19  O5  UNL     1      13.807   0.232  18.536  1.00  0.00    -0.298 OA
HETATM   20  C19 UNL     1      11.942   1.232  19.596  1.00  0.00     0.081 C 
HETATM   21  C20 UNL     1      11.571  -0.091  20.189  1.00  0.00     0.041 C 
HETATM   22  C21 UNL     1      10.258  -0.596  19.617  1.00  0.00     0.148 C 
ENDROOT
BRANCH   1  23
HETATM   23  O2  UNL     1       9.581  -2.478  18.362  1.00  0.00    -0.314 OA
BRANCH  23  24
HETATM   24  C2  UNL     1       9.883  -3.806  18.180  1.00  0.00     0.255 C 
HETATM   25  C1  UNL     1      11.289  -4.242  17.986  1.00  0.00     0.126 C 
HETATM   26  O1  UNL     1       8.952  -4.639  18.181  1.00  0.00    -0.266 OA
ENDBRANCH  23  24
ENDBRANCH   1  23
BRANCH  22  27
HETATM   27  O6  UNL     1       9.656  -1.410  20.574  1.00  0.00    -0.393 OA
ATOM     28  H6  UNL     1      10.340  -1.830  21.081  1.00  0.00     0.210 HD
ENDBRANCH  22  27
TORSDOF 3
ENDMDL
MODEL 5
REMARK VINA RESULT: -6.854365275      2.029      6.375
REMARK  3 active torsions:
REMARK  status: ('A' for Active; 'I' for Inactive)
REMARK    1  A    between atoms: C2_2  and  O2_4 
REMARK    2  A    between atoms: O2_4  and  C3_5 
REMARK    3  A    between atoms: C21_26  and  O6_27 
ROOT
HETATM    1  C3  UNL     1      10.415   2.776  14.159  1.00  0.00     0.160 C 
HETATM    2  C4  UNL     1      10.730   3.143  15.613  1.00  0.00     0.035 C 
HETATM    3  C5  UNL     1      11.690   4.291  15.598  1.00  0.00     0.002 C 
HETATM    4  C6  UNL     1      12.465   4.457  16.865  1.00  0.00     0.000 C 
HETATM    5  C7  UNL     1      11.767   3.964  18.086  1.00  0.00     0.000 C 
HETATM    6  C8  UNL     1      12.726   3.356  19.099  1.00  0.00     0.000 C 
HETATM    7  C9  UNL     1      13.408   2.131  18.584  1.00  0.00     0.002 C 
HETATM    8  C10 UNL     1      13.749   1.126  19.647  1.00  0.00     0.032 C 
HETATM    9  C11 UNL     1      12.551   0.789  20.518  1.00  0.00     0.127 C 
HETATM   10  C12 UNL     1      12.853  -0.475  21.250  1.00  0.00     0.040 C 
HETATM   11  O3  UNL     1      11.413   0.778  19.725  1.00  0.00    -0.316 OA
HETATM   12  C13 UNL     1      10.459  -0.181  19.571  1.00  0.00     0.259 C 
HETATM   13  O4  UNL     1       9.221   0.014  19.807  1.00  0.00    -0.265 OA
HETATM   14  C14 UNL     1      10.849  -1.532  19.107  1.00  0.00     0.111 C 
HETATM   15  C15 UNL     1      11.780  -1.464  17.892  1.00  0.00     0.010 C 
HETATM   16  C16 UNL     1      11.563  -2.668  17.007  1.00  0.00     0.008 C 
HETATM   17  C17 UNL     1      10.758  -2.392  15.788  1.00  0.00     0.078 C 
HETATM   18  C18 UNL     1      10.792  -1.000  15.317  1.00  0.00     0.127 C 
HETATM   19  O5  UNL     1      11.851  -0.538  14.916  1.00  0.00    -0.298 OA
HETATM   20  C19 UNL     1       9.552  -0.148  15.323  1.00  0.00     0.081 C 
HETATM   21  C20 UNL     1       9.423   0.492  13.975  1.00  0.00     0.041 C 
HETATM   22  C21 UNL     1       9.116   1.974  14.103  1.00  0.00     0.148 C 
ENDROOT
BRANCH   1  23
HETATM   23  O2  UNL     1      10.192   3.977  13.469  1.00  0.00    -0.314 OA
BRANCH  23  24
HETATM   24  C2  UNL     1      10.736   4.296  12.249  1.00  0.00     0.255 C 
HETATM   25  C1  UNL     1      11.876   5.242  12.154  1.00  0.00     0.126 C 
HETATM   26  O1  UNL     1      10.253   3.776  11.221  1.00  0.00    -0.266 OA
ENDBRANCH  23  24
ENDBRANCH   1  23
BRANCH  22  27
HETATM   27  O6  UNL     1       8.406   2.365  12.970  1.00  0.00    -0.393 OA
ATOM     28  H6  UNL     1       7.916   3.151  13.181  1.00  0.00     0.210 HD
ENDBRANCH  22  27
TORSDOF 3
ENDMDL
