MODEL 1
REMARK VINA RESULT: -7.414370189      0.000      0.000
REMARK  5 active torsions:
REMARK  status: ('A' for Active; 'I' for Inactive)
REMARK    1  A    between atoms: C2_2  and  C3_3 
REMARK    2  A    between atoms: C2_2  and  C4_6 
REMARK    3  A    between atoms: C4_6  and  C5_7 
REMARK    4  A    between atoms: C4_6  and  N2_14 
REMARK    5  A    between atoms: C5_7  and  C6_8 
ROOT
HETATM    1  C4  UNL     1       8.357  10.459   6.377  1.00  0.00     0.118 C 
ENDROOT
BRANCH   1   2
HETATM    2  C2  UNL     1       9.399  11.156   5.492  1.00  0.00    -0.009 C 
HETATM    3  C1  UNL     1       9.360  10.854   4.203  1.00  0.00     0.024 C 
BRANCH   2   4
HETATM    4  C3  UNL     1      10.396  12.043   6.006  1.00  0.00     0.120 C 
HETATM    5  N1  UNL     1      10.058  13.364   6.356  1.00  0.00    -0.089 NA
HETATM    6  S1  UNL     1      11.927  11.553   6.196  1.00  0.00    -0.063 SA
ENDBRANCH   2   4
ENDBRANCH   1   2
BRANCH   1   7
HETATM    7  C5  UNL     1       7.147  11.281   6.281  1.00  0.00     0.068 C 
BRANCH   7   8
HETATM    8  C6  UNL     1       5.938  10.879   7.003  1.00  0.00    -0.056 A 
HETATM    9  C7  UNL     1       5.151  11.810   7.620  1.00  0.00     0.007 A 
HETATM   10  C8  UNL     1       3.994  11.442   8.318  1.00  0.00     0.001 A 
HETATM   11  C9  UNL     1       3.617  10.121   8.399  1.00  0.00     0.000 A 
HETATM   12  C10 UNL     1       4.399   9.185   7.784  1.00  0.00     0.001 A 
HETATM   13  C11 UNL     1       5.538   9.555   7.099  1.00  0.00     0.007 A 
ENDBRANCH   7   8
ENDBRANCH   1   7
BRANCH   1  14
HETATM   14  N2  UNL     1       8.995  10.090   7.521  1.00  0.00    -0.400 N 
HETATM   15  C12 UNL     1       8.852  11.033   8.588  1.00  0.00     0.144 C 
HETATM   16  C13 UNL     1      10.153  11.231   9.349  1.00  0.00     0.187 C 
HETATM   17  O1  UNL     1      10.617  10.021   9.861  1.00  0.00    -0.388 OA
HETATM   18  C14 UNL     1       9.966   8.924   9.320  1.00  0.00     0.187 C 
HETATM   19  C15 UNL     1       9.891   9.075   7.765  1.00  0.00     0.144 C 
ENDBRANCH   1  14
TORSDOF 5
ENDMDL
MODEL 2
REMARK VINA RESULT: -7.410012876      0.020      1.078
REMARK  5 active torsions:
REMARK  status: ('A' for Active; 'I' for Inactive)
REMARK    1  A    between atoms: C2_2  and  C3_3 
REMARK    2  A    between atoms: C2_2  and  C4_6 
REMARK    3  A    between atoms: C4_6  and  C5_7 
REMARK    4  A    between atoms: C4_6  and  N2_14 
REMARK    5  A    between atoms: C5_7  and  C6_8 
ROOT
HETATM    1  C4  UNL     1       8.355  10.460   6.387  1.00  0.00     0.118 C 
ENDROOT
BRANCH   1   2
HETATM    2  C2  UNL     1       9.395  11.156   5.499  1.00  0.00    -0.009 C 
HETATM    3  C1  UNL     1       9.355  10.852   4.211  1.00  0.00     0.024 C 
BRANCH   2   4
HETATM    4  C3  UNL     1      10.392  12.046   6.010  1.00  0.00     0.120 C 
HETATM    5  N1  UNL     1      10.053  13.368   6.355  1.00  0.00    -0.089 NA
HETATM    6  S1  UNL     1      11.923  11.557   6.202  1.00  0.00    -0.063 SA
ENDBRANCH   2   4
ENDBRANCH   1   2
BRANCH   1   7
HETATM    7  C5  UNL     1       7.145  11.283   6.296  1.00  0.00     0.068 C 
BRANCH   7   8
HETATM    8  C6  UNL     1       5.939  10.882   7.021  1.00  0.00    -0.056 A 
HETATM    9  C7  UNL     1       5.575   9.568   7.102  1.00  0.00     0.007 A 
HETATM   10  C8  UNL     1       4.422   9.169   7.788  1.00  0.00     0.001 A 
HETATM   11  C9  UNL     1       3.618  10.100   8.405  1.00  0.00     0.000 A 
HETATM   12  C10 UNL     1       3.976  11.417   8.329  1.00  0.00     0.001 A 
HETATM   13  C11 UNL     1       5.113  11.802   7.650  1.00  0.00     0.007 A 
ENDBRANCH   7   8
ENDBRANCH   1   7
BRANCH   1  14
HETATM   14  N2  UNL     1       8.996  10.090   7.529  1.00  0.00    -0.400 N 
HETATM   15  C12 UNL     1       8.857  11.032   8.597  1.00  0.00     0.144 C 
HETATM   16  C13 UNL     1      10.160  11.229   9.355  1.00  0.00     0.187 C 
HETATM   17  O1  UNL     1      10.624  10.019   9.865  1.00  0.00    -0.388 OA
HETATM   18  C14 UNL     1       9.972   8.922   9.325  1.00  0.00     0.187 C 
HETATM   19  C15 UNL     1       9.892   9.074   7.770  1.00  0.00     0.144 C 
ENDBRANCH   1  14
TORSDOF 5
ENDMDL
MODEL 3
REMARK VINA RESULT: -7.069898465      0.405      1.544
REMARK  5 active torsions:
REMARK  status: ('A' for Active; 'I' for Inactive)
REMARK    1  A    between atoms: C2_2  and  C3_3 
REMARK    2  A    between atoms: C2_2  and  C4_6 
REMARK    3  A    between atoms: C4_6  and  C5_7 
REMARK    4  A    between atoms: C4_6  and  N2_14 
REMARK    5  A    between atoms: C5_7  and  C6_8 
ROOT
HETATM    1  C4  UNL     1       8.484  10.629   6.506  1.00  0.00     0.118 C 
ENDROOT
BRANCH   1   2
HETATM    2  C2  UNL     1       9.454  11.286   5.515  1.00  0.00    -0.009 C 
HETATM    3  C1  UNL     1       9.289  10.962   4.242  1.00  0.00     0.024 C 
BRANCH   2   4
HETATM    4  C3  UNL     1      10.513  12.158   5.917  1.00  0.00     0.120 C 
HETATM    5  N1  UNL     1      10.247  13.509   6.212  1.00  0.00    -0.089 NA
HETATM    6  S1  UNL     1      12.034  11.617   6.042  1.00  0.00    -0.063 SA
ENDBRANCH   2   4
ENDBRANCH   1   2
BRANCH   1   7
HETATM    7  C5  UNL     1       7.244  11.407   6.417  1.00  0.00     0.068 C 
BRANCH   7   8
HETATM    8  C6  UNL     1       6.035  10.926   7.088  1.00  0.00    -0.056 A 
HETATM    9  C7  UNL     1       5.751   9.591   7.144  1.00  0.00     0.007 A 
HETATM   10  C8  UNL     1       4.597   9.114   7.777  1.00  0.00     0.001 A 
HETATM   11  C9  UNL     1       3.712   9.988   8.366  1.00  0.00     0.000 A 
HETATM   12  C10 UNL     1       3.990  11.325   8.315  1.00  0.00     0.001 A 
HETATM   13  C11 UNL     1       5.128  11.786   7.688  1.00  0.00     0.007 A 
ENDBRANCH   7   8
ENDBRANCH   1   7
BRANCH   1  14
HETATM   14  N2  UNL     1       9.193  10.367   7.638  1.00  0.00    -0.400 N 
HETATM   15  C12 UNL     1       9.644   9.012   7.730  1.00  0.00     0.144 C 
HETATM   16  C13 UNL     1       9.490   8.456   9.137  1.00  0.00     0.187 C 
HETATM   17  O1  UNL     1      10.186   9.239  10.057  1.00  0.00    -0.388 OA
HETATM   18  C14 UNL     1      10.586  10.457   9.533  1.00  0.00     0.187 C 
HETATM   19  C15 UNL     1       9.389  11.118   8.773  1.00  0.00     0.144 C 
ENDBRANCH   1  14
TORSDOF 5
ENDMDL
MODEL 4
REMARK VINA RESULT: -6.140505979      1.875      3.426
REMARK  5 active torsions:
REMARK  status: ('A' for Active; 'I' for Inactive)
REMARK    1  A    between atoms: C2_2  and  C3_3 
REMARK    2  A    between atoms: C2_2  and  C4_6 
REMARK    3  A    between atoms: C4_6  and  C5_7 
REMARK    4  A    between atoms: C4_6  and  N2_14 
REMARK    5  A    between atoms: C5_7  and  C6_8 
ROOT
HETATM    1  C4  UNL     1       8.528  10.500   7.724  1.00  0.00     0.118 C 
ENDROOT
BRANCH   1   2
HETATM    2  C2  UNL     1       9.791   9.753   8.170  1.00  0.00    -0.009 C 
HETATM    3  C1  UNL     1       9.674   9.017   9.265  1.00  0.00     0.024 C 
BRANCH   2   4
HETATM    4  C3  UNL     1      11.047   9.864   7.495  1.00  0.00     0.120 C 
HETATM    5  N1  UNL     1      11.321   9.063   6.370  1.00  0.00    -0.089 NA
HETATM    6  S1  UNL     1      12.176  10.906   8.005  1.00  0.00    -0.063 SA
ENDBRANCH   2   4
ENDBRANCH   1   2
BRANCH   1   7
HETATM    7  C5  UNL     1       7.462   9.494   7.703  1.00  0.00     0.068 C 
BRANCH   7   8
HETATM    8  C6  UNL     1       6.063   9.917   7.777  1.00  0.00    -0.056 A 
HETATM    9  C7  UNL     1       5.050   9.009   7.648  1.00  0.00     0.007 A 
HETATM   10  C8  UNL     1       3.707   9.397   7.711  1.00  0.00     0.001 A 
HETATM   11  C9  UNL     1       3.370  10.716   7.907  1.00  0.00     0.000 A 
HETATM   12  C10 UNL     1       4.377  11.631   8.037  1.00  0.00     0.001 A 
HETATM   13  C11 UNL     1       5.697  11.240   7.973  1.00  0.00     0.007 A 
ENDBRANCH   7   8
ENDBRANCH   1   7
BRANCH   1  14
HETATM   14  N2  UNL     1       8.893  11.313   6.695  1.00  0.00    -0.400 N 
HETATM   15  C12 UNL     1       8.366  10.906   5.428  1.00  0.00     0.144 C 
HETATM   16  C13 UNL     1       9.394  11.039   4.316  1.00  0.00     0.187 C 
HETATM   17  O1  UNL     1       9.858  12.349   4.224  1.00  0.00    -0.388 OA
HETATM   18  C14 UNL     1       9.509  13.121   5.320  1.00  0.00     0.187 C 
HETATM   19  C15 UNL     1       9.816  12.331   6.635  1.00  0.00     0.144 C 
ENDBRANCH   1  14
TORSDOF 5
ENDMDL
MODEL 5
REMARK VINA RESULT: -6.135477025      1.945      3.211
REMARK  5 active torsions:
REMARK  status: ('A' for Active; 'I' for Inactive)
REMARK    1  A    between atoms: C2_2  and  C3_3 
REMARK    2  A    between atoms: C2_2  and  C4_6 
REMARK    3  A    between atoms: C4_6  and  C5_7 
REMARK    4  A    between atoms: C4_6  and  N2_14 
REMARK    5  A    between atoms: C5_7  and  C6_8 
ROOT
HETATM    1  C4  UNL     1       8.109  10.754   7.566  1.00  0.00     0.118 C 
ENDROOT
BRANCH   1   2
HETATM    2  C2  UNL     1       9.391  10.318   8.289  1.00  0.00    -0.009 C 
HETATM    3  C1  UNL     1       9.346   9.139   8.890  1.00  0.00     0.024 C 
BRANCH   2   4
HETATM    4  C3  UNL     1      10.562  11.136   8.369  1.00  0.00     0.120 C 
HETATM    5  N1  UNL     1      10.517  12.374   9.039  1.00  0.00    -0.089 NA
HETATM    6  S1  UNL     1      11.956  10.662   7.697  1.00  0.00    -0.063 SA
ENDBRANCH   2   4
ENDBRANCH   1   2
BRANCH   1   7
HETATM    7  C5  UNL     1       7.163   9.648   7.742  1.00  0.00     0.068 C 
BRANCH   7   8
HETATM    8  C6  UNL     1       5.733   9.931   7.875  1.00  0.00    -0.056 A 
HETATM    9  C7  UNL     1       5.294  11.188   8.183  1.00  0.00     0.007 A 
HETATM   10  C8  UNL     1       3.931  11.473   8.319  1.00  0.00     0.001 A 
HETATM   11  C9  UNL     1       2.989  10.486   8.143  1.00  0.00     0.000 A 
HETATM   12  C10 UNL     1       3.420   9.226   7.834  1.00  0.00     0.001 A 
HETATM   13  C11 UNL     1       4.765   8.953   7.703  1.00  0.00     0.007 A 
ENDBRANCH   7   8
ENDBRANCH   1   7
BRANCH   1  14
HETATM   14  N2  UNL     1       8.492  11.310   6.385  1.00  0.00    -0.400 N 
HETATM   15  C12 UNL     1       8.524  10.381   5.297  1.00  0.00     0.144 C 
HETATM   16  C13 UNL     1       9.742  10.585   4.410  1.00  0.00     0.187 C 
HETATM   17  O1  UNL     1       9.777  11.885   3.909  1.00  0.00    -0.388 OA
HETATM   18  C14 UNL     1       8.893  12.734   4.554  1.00  0.00     0.187 C 
HETATM   19  C15 UNL     1       9.023  12.547   6.101  1.00  0.00     0.144 C 
ENDBRANCH   1  14
TORSDOF 5
ENDMDL
