MODEL 1
REMARK VINA RESULT: -7.646492561      0.000      0.000
REMARK  5 active torsions:
REMARK  status: ('A' for Active; 'I' for Inactive)
REMARK    1  A    between atoms: C2_2  and  C4_4 
REMARK    2  A    between atoms: C6_7  and  S2_8 
REMARK    3  A    between atoms: S2_8  and  C7_9 
REMARK    4  A    between atoms: C7_9  and  C8_10 
REMARK       I    between atoms: C8_10  and  N1_12 
REMARK    5  A    between atoms: N1_12  and  C9_14 
ROOT
HETATM    1  S2  UNL     1     -29.592  27.433  16.427  1.00  0.00    -0.096 SA
ENDROOT
BRANCH   1   2
HETATM    2  C6  UNL     1     -30.360  26.875  17.971  1.00  0.00     0.112 A 
HETATM    3  S1  UNL     1     -30.249  27.518  19.545  1.00  0.00    -0.075 SA
HETATM    4  C5  UNL     1     -31.258  26.403  20.350  1.00  0.00     0.077 A 
HETATM    5  C4  UNL     1     -31.636  25.570  19.319  1.00  0.00     0.020 A 
HETATM    6  N2  UNL     1     -31.163  25.843  18.144  1.00  0.00    -0.348 N 
ATOM      7  H2  UNL     1     -31.413  25.256  17.348  1.00  0.00     0.167 HD
BRANCH   5   8
HETATM    8  C2  UNL     1     -32.565  24.385  19.551  1.00  0.00     0.028 C 
HETATM    9  C1  UNL     1     -32.938  24.361  21.035  1.00  0.00     0.016 C 
HETATM   10  C3  UNL     1     -33.804  24.697  18.736  1.00  0.00     0.016 C 
ENDBRANCH   5   8
ENDBRANCH   1   2
BRANCH   1  11
HETATM   11  C7  UNL     1     -29.884  26.153  15.209  1.00  0.00     0.184 C 
BRANCH  11  12
HETATM   12  C8  UNL     1     -28.918  26.366  14.080  1.00  0.00     0.227 C 
HETATM   13  O1  UNL     1     -29.284  26.340  12.879  1.00  0.00    -0.273 OA
HETATM   14  N1  UNL     1     -27.562  26.599  14.435  1.00  0.00    -0.356 N 
ATOM     15  H1  UNL     1     -27.274  26.617  15.414  1.00  0.00     0.162 HD
BRANCH  14  16
HETATM   16  C9  UNL     1     -26.600  26.809  13.376  1.00  0.00     0.084 C 
HETATM   17  C10 UNL     1     -26.412  28.280  13.071  1.00  0.00     0.025 C 
HETATM   18  C11 UNL     1     -25.056  28.273  12.395  1.00  0.00     0.002 C 
HETATM   19  C12 UNL     1     -24.255  27.450  13.395  1.00  0.00     0.002 C 
HETATM   20  C13 UNL     1     -25.230  26.322  13.729  1.00  0.00     0.025 C 
ENDBRANCH  14  16
ENDBRANCH  11  12
ENDBRANCH   1  11
TORSDOF 5
ENDMDL
MODEL 2
REMARK VINA RESULT: -7.409544130      1.157      1.920
REMARK  5 active torsions:
REMARK  status: ('A' for Active; 'I' for Inactive)
REMARK    1  A    between atoms: C2_2  and  C4_4 
REMARK    2  A    between atoms: C6_7  and  S2_8 
REMARK    3  A    between atoms: S2_8  and  C7_9 
REMARK    4  A    between atoms: C7_9  and  C8_10 
REMARK       I    between atoms: C8_10  and  N1_12 
REMARK    5  A    between atoms: N1_12  and  C9_14 
ROOT
HETATM    1  S2  UNL     1     -29.527  27.127  16.414  1.00  0.00    -0.096 SA
ENDROOT
BRANCH   1   2
HETATM    2  C6  UNL     1     -30.597  26.625  17.790  1.00  0.00     0.112 A 
HETATM    3  S1  UNL     1     -31.755  25.378  17.878  1.00  0.00    -0.075 SA
HETATM    4  C5  UNL     1     -32.266  25.616  19.488  1.00  0.00     0.077 A 
HETATM    5  C4  UNL     1     -31.485  26.683  19.877  1.00  0.00     0.020 A 
HETATM    6  N2  UNL     1     -30.662  27.157  18.994  1.00  0.00    -0.348 N 
ATOM      7  H2  UNL     1     -30.062  27.947  19.234  1.00  0.00     0.167 HD
BRANCH   5   8
HETATM    8  C2  UNL     1     -31.583  27.275  21.277  1.00  0.00     0.028 C 
HETATM    9  C1  UNL     1     -31.644  26.117  22.276  1.00  0.00     0.016 C 
HETATM   10  C3  UNL     1     -30.283  28.028  21.473  1.00  0.00     0.016 C 
ENDBRANCH   5   8
ENDBRANCH   1   2
BRANCH   1  11
HETATM   11  C7  UNL     1     -29.805  25.956  15.087  1.00  0.00     0.184 C 
BRANCH  11  12
HETATM   12  C8  UNL     1     -28.867  26.304  13.967  1.00  0.00     0.227 C 
HETATM   13  O1  UNL     1     -29.259  26.399  12.779  1.00  0.00    -0.273 OA
HETATM   14  N1  UNL     1     -27.507  26.519  14.317  1.00  0.00    -0.356 N 
ATOM     15  H1  UNL     1     -27.197  26.438  15.286  1.00  0.00     0.162 HD
BRANCH  14  16
HETATM   16  C9  UNL     1     -26.572  26.855  13.266  1.00  0.00     0.084 C 
HETATM   17  C10 UNL     1     -26.380  28.352  13.142  1.00  0.00     0.025 C 
HETATM   18  C11 UNL     1     -25.044  28.424  12.434  1.00  0.00     0.002 C 
HETATM   19  C12 UNL     1     -24.223  27.479  13.301  1.00  0.00     0.002 C 
HETATM   20  C13 UNL     1     -25.197  26.322  13.519  1.00  0.00     0.025 C 
ENDBRANCH  14  16
ENDBRANCH  11  12
ENDBRANCH   1  11
TORSDOF 5
ENDMDL
MODEL 3
REMARK VINA RESULT: -7.326097127      1.847      8.313
REMARK  5 active torsions:
REMARK  status: ('A' for Active; 'I' for Inactive)
REMARK    1  A    between atoms: C2_2  and  C4_4 
REMARK    2  A    between atoms: C6_7  and  S2_8 
REMARK    3  A    between atoms: S2_8  and  C7_9 
REMARK    4  A    between atoms: C7_9  and  C8_10 
REMARK       I    between atoms: C8_10  and  N1_12 
REMARK    5  A    between atoms: N1_12  and  C9_14 
ROOT
HETATM    1  S2  UNL     1     -30.215  27.711  15.757  1.00  0.00    -0.096 SA
ENDROOT
BRANCH   1   2
HETATM    2  C6  UNL     1     -28.978  27.415  14.465  1.00  0.00     0.112 A 
HETATM    3  S1  UNL     1     -29.109  26.555  12.999  1.00  0.00    -0.075 SA
HETATM    4  C5  UNL     1     -27.518  26.780  12.426  1.00  0.00     0.077 A 
HETATM    5  C4  UNL     1     -26.958  27.533  13.436  1.00  0.00     0.020 A 
HETATM    6  N2  UNL     1     -27.726  27.828  14.438  1.00  0.00    -0.348 N 
ATOM      7  H2  UNL     1     -27.358  28.384  15.211  1.00  0.00     0.167 HD
BRANCH   5   8
HETATM    8  C2  UNL     1     -25.509  27.996  13.377  1.00  0.00     0.028 C 
HETATM    9  C1  UNL     1     -24.614  26.754  13.431  1.00  0.00     0.016 C 
HETATM   10  C3  UNL     1     -25.364  28.649  12.016  1.00  0.00     0.016 C 
ENDBRANCH   5   8
ENDBRANCH   1   2
BRANCH   1  11
HETATM   11  C7  UNL     1     -30.883  26.113  16.211  1.00  0.00     0.184 C 
BRANCH  11  12
HETATM   12  C8  UNL     1     -30.663  25.927  17.684  1.00  0.00     0.227 C 
HETATM   13  O1  UNL     1     -29.566  26.200  18.231  1.00  0.00    -0.273 OA
HETATM   14  N1  UNL     1     -31.759  25.423  18.436  1.00  0.00    -0.356 N 
ATOM     15  H1  UNL     1     -32.646  25.203  17.982  1.00  0.00     0.162 HD
BRANCH  14  16
HETATM   16  C9  UNL     1     -31.586  25.230  19.859  1.00  0.00     0.084 C 
HETATM   17  C10 UNL     1     -32.080  26.422  20.651  1.00  0.00     0.025 C 
HETATM   18  C11 UNL     1     -32.309  25.800  22.013  1.00  0.00     0.002 C 
HETATM   19  C12 UNL     1     -33.127  24.577  21.622  1.00  0.00     0.002 C 
HETATM   20  C13 UNL     1     -32.376  24.075  20.388  1.00  0.00     0.025 C 
ENDBRANCH  14  16
ENDBRANCH  11  12
ENDBRANCH   1  11
TORSDOF 5
ENDMDL
MODEL 4
REMARK VINA RESULT: -7.249807659      1.493      1.611
REMARK  5 active torsions:
REMARK  status: ('A' for Active; 'I' for Inactive)
REMARK    1  A    between atoms: C2_2  and  C4_4 
REMARK    2  A    between atoms: C6_7  and  S2_8 
REMARK    3  A    between atoms: S2_8  and  C7_9 
REMARK    4  A    between atoms: C7_9  and  C8_10 
REMARK       I    between atoms: C8_10  and  N1_12 
REMARK    5  A    between atoms: N1_12  and  C9_14 
ROOT
HETATM    1  S2  UNL     1     -29.844  25.950  15.994  1.00  0.00    -0.096 SA
ENDROOT
BRANCH   1   2
HETATM    2  C6  UNL     1     -30.110  26.654  17.645  1.00  0.00     0.112 A 
HETATM    3  S1  UNL     1     -30.213  28.282  18.138  1.00  0.00    -0.075 SA
HETATM    4  C5  UNL     1     -30.466  28.029  19.805  1.00  0.00     0.077 A 
HETATM    5  C4  UNL     1     -30.455  26.653  19.887  1.00  0.00     0.020 A 
HETATM    6  N2  UNL     1     -30.274  26.004  18.780  1.00  0.00    -0.348 N 
ATOM      7  H2  UNL     1     -30.258  24.984  18.788  1.00  0.00     0.167 HD
BRANCH   5   8
HETATM    8  C2  UNL     1     -30.648  25.931  21.214  1.00  0.00     0.028 C 
HETATM    9  C1  UNL     1     -32.063  26.234  21.714  1.00  0.00     0.016 C 
HETATM   10  C3  UNL     1     -30.550  24.457  20.873  1.00  0.00     0.016 C 
ENDBRANCH   5   8
ENDBRANCH   1   2
BRANCH   1  11
HETATM   11  C7  UNL     1     -30.057  27.287  14.821  1.00  0.00     0.184 C 
BRANCH  11  12
HETATM   12  C8  UNL     1     -28.991  27.149  13.773  1.00  0.00     0.227 C 
HETATM   13  O1  UNL     1     -29.224  26.636  12.651  1.00  0.00    -0.273 OA
HETATM   14  N1  UNL     1     -27.696  27.629  14.112  1.00  0.00    -0.356 N 
ATOM     15  H1  UNL     1     -27.516  28.044  15.027  1.00  0.00     0.162 HD
BRANCH  14  16
HETATM   16  C9  UNL     1     -26.641  27.515  13.129  1.00  0.00     0.084 C 
HETATM   17  C10 UNL     1     -25.972  28.847  12.866  1.00  0.00     0.025 C 
HETATM   18  C11 UNL     1     -24.643  28.404  12.290  1.00  0.00     0.002 C 
HETATM   19  C12 UNL     1     -24.223  27.375  13.331  1.00  0.00     0.002 C 
HETATM   20  C13 UNL     1     -25.529  26.619  13.573  1.00  0.00     0.025 C 
ENDBRANCH  14  16
ENDBRANCH  11  12
ENDBRANCH   1  11
TORSDOF 5
ENDMDL
MODEL 5
REMARK VINA RESULT: -7.248243624      3.308      5.237
REMARK  5 active torsions:
REMARK  status: ('A' for Active; 'I' for Inactive)
REMARK    1  A    between atoms: C2_2  and  C4_4 
REMARK    2  A    between atoms: C6_7  and  S2_8 
REMARK    3  A    between atoms: S2_8  and  C7_9 
REMARK    4  A    between atoms: C7_9  and  C8_10 
REMARK       I    between atoms: C8_10  and  N1_12 
REMARK    5  A    between atoms: N1_12  and  C9_14 
ROOT
HETATM    1  S2  UNL     1     -26.283  26.385  13.047  1.00  0.00    -0.096 SA
ENDROOT
BRANCH   1   2
HETATM    2  C6  UNL     1     -27.902  26.532  13.851  1.00  0.00     0.112 A 
HETATM    3  S1  UNL     1     -29.464  26.567  13.170  1.00  0.00    -0.075 SA
HETATM    4  C5  UNL     1     -30.368  26.722  14.607  1.00  0.00     0.077 A 
HETATM    5  C4  UNL     1     -29.376  26.739  15.564  1.00  0.00     0.020 A 
HETATM    6  N2  UNL     1     -28.154  26.641  15.140  1.00  0.00    -0.348 N 
ATOM      7  H2  UNL     1     -27.384  26.648  15.809  1.00  0.00     0.167 HD
BRANCH   5   8
HETATM    8  C2  UNL     1     -29.699  26.865  17.047  1.00  0.00     0.028 C 
HETATM    9  C1  UNL     1     -30.155  28.303  17.310  1.00  0.00     0.016 C 
HETATM   10  C3  UNL     1     -30.869  25.928  17.272  1.00  0.00     0.016 C 
ENDBRANCH   5   8
ENDBRANCH   1   2
BRANCH   1  11
HETATM   11  C7  UNL     1     -25.989  27.928  12.186  1.00  0.00     0.184 C 
BRANCH  11  12
HETATM   12  C8  UNL     1     -24.564  28.327  12.437  1.00  0.00     0.227 C 
HETATM   13  O1  UNL     1     -23.912  27.882  13.414  1.00  0.00    -0.273 OA
HETATM   14  N1  UNL     1     -23.983  29.238  11.513  1.00  0.00    -0.356 N 
ATOM     15  H1  UNL     1     -24.522  29.594  10.723  1.00  0.00     0.162 HD
BRANCH  14  16
HETATM   16  C9  UNL     1     -22.612  29.647  11.720  1.00  0.00     0.084 C 
HETATM   17  C10 UNL     1     -21.655  28.868  10.842  1.00  0.00     0.025 C 
HETATM   18  C11 UNL     1     -20.455  29.793  10.817  1.00  0.00     0.002 C 
HETATM   19  C12 UNL     1     -21.131  31.111  10.466  1.00  0.00     0.002 C 
HETATM   20  C13 UNL     1     -22.371  31.078  11.359  1.00  0.00     0.025 C 
ENDBRANCH  14  16
ENDBRANCH  11  12
ENDBRANCH   1  11
TORSDOF 5
ENDMDL
