MODEL 1
REMARK VINA RESULT: -12.190222101      0.000      0.000
REMARK  8 active torsions:
REMARK  status: ('A' for Active; 'I' for Inactive)
REMARK    1  A    between atoms: N1_1  and  C1_4 
REMARK    2  A    between atoms: C4_7  and  N2_8 
REMARK    3  A    between atoms: N2_8  and  C5_10 
REMARK    4  A    between atoms: C5_10  and  C6_11 
REMARK    5  A    between atoms: C9_14  and  C10_15 
REMARK    6  A    between atoms: C14_19  and  O1_20 
REMARK    7  A    between atoms: O1_20  and  C15_21 
REMARK    8  A    between atoms: C15_21  and  C16_22 
ROOT
HETATM    1  C6  UNL     1     -16.565  27.430  -2.596  1.00  0.00    -0.029 A 
HETATM    2  C7  UNL     1     -16.838  26.194  -2.058  1.00  0.00     0.010 A 
HETATM    3  C8  UNL     1     -16.763  25.033  -2.792  1.00  0.00     0.014 A 
HETATM    4  C9  UNL     1     -16.400  25.042  -4.149  1.00  0.00    -0.015 A 
HETATM    5  C23 UNL     1     -16.126  26.275  -4.686  1.00  0.00    -0.014 A 
HETATM    6  C24 UNL     1     -15.747  26.336  -6.025  1.00  0.00     0.013 A 
HETATM    7  C25 UNL     1     -15.460  27.571  -6.573  1.00  0.00     0.001 A 
HETATM    8  C26 UNL     1     -15.547  28.724  -5.806  1.00  0.00     0.001 A 
HETATM    9  C27 UNL     1     -15.918  28.683  -4.481  1.00  0.00     0.013 A 
HETATM   10  C28 UNL     1     -16.203  27.446  -3.942  1.00  0.00    -0.017 A 
ENDROOT
BRANCH   4  11
HETATM   11  C10 UNL     1     -16.379  23.781  -4.882  1.00  0.00    -0.022 A 
HETATM   12  C11 UNL     1     -17.432  23.236  -5.571  1.00  0.00     0.012 A 
HETATM   13  C12 UNL     1     -17.368  22.040  -6.251  1.00  0.00     0.004 A 
HETATM   14  C13 UNL     1     -16.191  21.346  -6.244  1.00  0.00     0.037 A 
HETATM   15  C14 UNL     1     -15.106  21.838  -5.573  1.00  0.00     0.070 A 
HETATM   16  C22 UNL     1     -15.202  23.037  -4.903  1.00  0.00     0.049 A 
BRANCH  15  17
HETATM   17  O1  UNL     1     -13.914  21.142  -5.562  1.00  0.00    -0.347 OA
BRANCH  17  18
HETATM   18  C15 UNL     1     -12.891  21.541  -6.436  1.00  0.00     0.214 C 
BRANCH  18  19
HETATM   19  C16 UNL     1     -11.555  21.125  -5.935  1.00  0.00    -0.034 A 
HETATM   20  C17 UNL     1     -11.478  19.994  -5.157  1.00  0.00     0.009 A 
HETATM   21  C18 UNL     1     -10.256  19.579  -4.675  1.00  0.00     0.001 A 
HETATM   22  C19 UNL     1      -9.108  20.303  -4.975  1.00  0.00     0.000 A 
HETATM   23  C20 UNL     1      -9.211  21.430  -5.754  1.00  0.00     0.001 A 
HETATM   24  C21 UNL     1     -10.432  21.858  -6.245  1.00  0.00     0.009 A 
ENDBRANCH  18  19
ENDBRANCH  17  18
ENDBRANCH  15  17
ENDBRANCH   4  11
BRANCH   1  25
HETATM   25  C5  UNL     1     -16.617  28.693  -1.823  1.00  0.00     0.159 C 
BRANCH  25  26
HETATM   26  N2  UNL     1     -17.384  28.647  -0.627  1.00  0.00    -0.385 N 
ATOM     27  H2  UNL     1     -18.402  28.654  -0.689  1.00  0.00     0.160 HD
BRANCH  26  28
HETATM   28  C4  UNL     1     -16.773  28.593   0.643  1.00  0.00     0.043 A 
HETATM   29  C3  UNL     1     -16.980  29.589   1.563  1.00  0.00     0.034 A 
HETATM   30  C2  UNL     1     -16.359  29.480   2.784  1.00  0.00     0.050 A 
HETATM   31  C1  UNL     1     -15.544  28.415   3.114  1.00  0.00     0.098 A 
HETATM   32  N3  UNL     1     -15.357  27.449   2.190  1.00  0.00    -0.351 N 
HETATM   33  C29 UNL     1     -15.966  27.541   0.973  1.00  0.00     0.118 A 
ATOM     34  H3  UNL     1     -14.761  26.649   2.403  1.00  0.00     0.166 HD
BRANCH  31  35
HETATM   35  N1  UNL     1     -14.958  28.302   4.253  1.00  0.00    -0.385 N 
ATOM     36  H12 UNL     1     -14.502  29.122   4.654  1.00  0.00     0.157 HD
ATOM     37  H11 UNL     1     -14.925  27.429   4.781  1.00  0.00     0.157 HD
ENDBRANCH  31  35
ENDBRANCH  26  28
ENDBRANCH  25  26
ENDBRANCH   1  25
TORSDOF 8
ENDMDL
MODEL 2
REMARK VINA RESULT: -12.033628946      1.200      1.554
REMARK  8 active torsions:
REMARK  status: ('A' for Active; 'I' for Inactive)
REMARK    1  A    between atoms: N1_1  and  C1_4 
REMARK    2  A    between atoms: C4_7  and  N2_8 
REMARK    3  A    between atoms: N2_8  and  C5_10 
REMARK    4  A    between atoms: C5_10  and  C6_11 
REMARK    5  A    between atoms: C9_14  and  C10_15 
REMARK    6  A    between atoms: C14_19  and  O1_20 
REMARK    7  A    between atoms: O1_20  and  C15_21 
REMARK    8  A    between atoms: C15_21  and  C16_22 
ROOT
HETATM    1  C6  UNL     1     -15.923  27.058  -2.591  1.00  0.00    -0.029 A 
HETATM    2  C7  UNL     1     -15.656  25.794  -2.120  1.00  0.00     0.010 A 
HETATM    3  C8  UNL     1     -15.225  24.775  -2.936  1.00  0.00     0.014 A 
HETATM    4  C9  UNL     1     -15.031  24.966  -4.314  1.00  0.00    -0.015 A 
HETATM    5  C23 UNL     1     -15.296  26.228  -4.785  1.00  0.00    -0.014 A 
HETATM    6  C24 UNL     1     -15.105  26.474  -6.143  1.00  0.00     0.013 A 
HETATM    7  C25 UNL     1     -15.360  27.742  -6.625  1.00  0.00     0.001 A 
HETATM    8  C26 UNL     1     -15.796  28.749  -5.775  1.00  0.00     0.001 A 
HETATM    9  C27 UNL     1     -15.988  28.525  -4.431  1.00  0.00     0.013 A 
HETATM   10  C28 UNL     1     -15.732  27.256  -3.958  1.00  0.00    -0.017 A 
ENDROOT
BRANCH   4  11
HETATM   11  C10 UNL     1     -14.612  23.833  -5.131  1.00  0.00    -0.022 A 
HETATM   12  C11 UNL     1     -15.284  22.645  -5.261  1.00  0.00     0.012 A 
HETATM   13  C12 UNL     1     -14.852  21.599  -6.045  1.00  0.00     0.004 A 
HETATM   14  C13 UNL     1     -13.684  21.742  -6.740  1.00  0.00     0.037 A 
HETATM   15  C14 UNL     1     -12.968  22.905  -6.650  1.00  0.00     0.070 A 
HETATM   16  C22 UNL     1     -13.427  23.931  -5.857  1.00  0.00     0.049 A 
BRANCH  15  17
HETATM   17  O1  UNL     1     -11.787  23.056  -7.350  1.00  0.00    -0.347 OA
BRANCH  17  18
HETATM   18  C15 UNL     1     -10.578  23.075  -6.637  1.00  0.00     0.214 C 
BRANCH  18  19
HETATM   19  C16 UNL     1     -10.137  21.703  -6.277  1.00  0.00    -0.034 A 
HETATM   20  C17 UNL     1     -10.011  21.393  -4.943  1.00  0.00     0.009 A 
HETATM   21  C18 UNL     1      -9.605  20.130  -4.572  1.00  0.00     0.001 A 
HETATM   22  C19 UNL     1      -9.325  19.175  -5.542  1.00  0.00     0.000 A 
HETATM   23  C20 UNL     1      -9.459  19.509  -6.869  1.00  0.00     0.001 A 
HETATM   24  C21 UNL     1      -9.866  20.775  -7.256  1.00  0.00     0.009 A 
ENDBRANCH  18  19
ENDBRANCH  17  18
ENDBRANCH  15  17
ENDBRANCH   4  11
BRANCH   1  25
HETATM   25  C5  UNL     1     -16.368  28.180  -1.731  1.00  0.00     0.159 C 
BRANCH  25  26
HETATM   26  N2  UNL     1     -17.100  27.808  -0.570  1.00  0.00    -0.385 N 
ATOM     27  H2  UNL     1     -17.978  27.299  -0.678  1.00  0.00     0.160 HD
BRANCH  26  28
HETATM   28  C4  UNL     1     -16.644  28.124   0.726  1.00  0.00     0.043 A 
HETATM   29  C3  UNL     1     -16.891  29.356   1.274  1.00  0.00     0.034 A 
HETATM   30  C2  UNL     1     -16.423  29.606   2.543  1.00  0.00     0.050 A 
HETATM   31  C1  UNL     1     -15.721  28.669   3.276  1.00  0.00     0.098 A 
HETATM   32  N3  UNL     1     -15.492  27.464   2.713  1.00  0.00    -0.351 N 
HETATM   33  C29 UNL     1     -15.949  27.200   1.454  1.00  0.00     0.118 A 
ATOM     34  H3  UNL     1     -14.977  26.750   3.228  1.00  0.00     0.166 HD
BRANCH  31  35
HETATM   35  N1  UNL     1     -15.279  28.890   4.463  1.00  0.00    -0.385 N 
ATOM     36  H12 UNL     1     -14.714  28.173   4.918  1.00  0.00     0.157 HD
ATOM     37  H11 UNL     1     -15.465  29.752   4.977  1.00  0.00     0.157 HD
ENDBRANCH  31  35
ENDBRANCH  26  28
ENDBRANCH  25  26
ENDBRANCH   1  25
TORSDOF 8
ENDMDL
MODEL 3
REMARK VINA RESULT: -11.513222572      3.949      9.251
REMARK  8 active torsions:
REMARK  status: ('A' for Active; 'I' for Inactive)
REMARK    1  A    between atoms: N1_1  and  C1_4 
REMARK    2  A    between atoms: C4_7  and  N2_8 
REMARK    3  A    between atoms: N2_8  and  C5_10 
REMARK    4  A    between atoms: C5_10  and  C6_11 
REMARK    5  A    between atoms: C9_14  and  C10_15 
REMARK    6  A    between atoms: C14_19  and  O1_20 
REMARK    7  A    between atoms: O1_20  and  C15_21 
REMARK    8  A    between atoms: C15_21  and  C16_22 
ROOT
HETATM    1  C6  UNL     1     -14.219  24.088  -6.546  1.00  0.00    -0.029 A 
HETATM    2  C7  UNL     1     -13.632  25.280  -6.189  1.00  0.00     0.010 A 
HETATM    3  C8  UNL     1     -14.087  26.045  -5.141  1.00  0.00     0.014 A 
HETATM    4  C9  UNL     1     -15.191  25.651  -4.366  1.00  0.00    -0.015 A 
HETATM    5  C23 UNL     1     -15.776  24.462  -4.720  1.00  0.00    -0.014 A 
HETATM    6  C24 UNL     1     -16.865  24.020  -3.973  1.00  0.00     0.013 A 
HETATM    7  C25 UNL     1     -17.455  22.820  -4.316  1.00  0.00     0.001 A 
HETATM    8  C26 UNL     1     -16.973  22.071  -5.380  1.00  0.00     0.001 A 
HETATM    9  C27 UNL     1     -15.898  22.491  -6.128  1.00  0.00     0.013 A 
HETATM   10  C28 UNL     1     -15.314  23.690  -5.780  1.00  0.00    -0.017 A 
ENDROOT
BRANCH   4  11
HETATM   11  C10 UNL     1     -15.648  26.529  -3.294  1.00  0.00    -0.022 A 
HETATM   12  C11 UNL     1     -16.216  27.766  -3.458  1.00  0.00     0.012 A 
HETATM   13  C12 UNL     1     -16.636  28.563  -2.416  1.00  0.00     0.004 A 
HETATM   14  C13 UNL     1     -16.481  28.104  -1.138  1.00  0.00     0.037 A 
HETATM   15  C14 UNL     1     -15.919  26.877  -0.911  1.00  0.00     0.070 A 
HETATM   16  C22 UNL     1     -15.510  26.105  -1.975  1.00  0.00     0.049 A 
BRANCH  15  17
HETATM   17  O1  UNL     1     -15.759  26.407   0.377  1.00  0.00    -0.347 OA
BRANCH  17  18
HETATM   18  C15 UNL     1     -16.747  26.700   1.330  1.00  0.00     0.214 C 
BRANCH  18  19
HETATM   19  C16 UNL     1     -16.234  27.617   2.380  1.00  0.00    -0.034 A 
HETATM   20  C17 UNL     1     -15.221  27.169   3.194  1.00  0.00     0.009 A 
HETATM   21  C18 UNL     1     -14.721  27.992   4.178  1.00  0.00     0.001 A 
HETATM   22  C19 UNL     1     -15.239  29.270   4.346  1.00  0.00     0.000 A 
HETATM   23  C20 UNL     1     -16.252  29.696   3.520  1.00  0.00     0.001 A 
HETATM   24  C21 UNL     1     -16.764  28.879   2.527  1.00  0.00     0.009 A 
ENDBRANCH  18  19
ENDBRANCH  17  18
ENDBRANCH  15  17
ENDBRANCH   4  11
BRANCH   1  25
HETATM   25  C5  UNL     1     -13.737  23.234  -7.656  1.00  0.00     0.159 C 
BRANCH  25  26
HETATM   26  N2  UNL     1     -12.327  23.064  -7.730  1.00  0.00    -0.385 N 
ATOM     27  H2  UNL     1     -11.809  23.528  -8.477  1.00  0.00     0.160 HD
BRANCH  26  28
HETATM   28  C4  UNL     1     -11.627  22.270  -6.798  1.00  0.00     0.043 A 
HETATM   29  C3  UNL     1     -12.222  21.180  -6.219  1.00  0.00     0.034 A 
HETATM   30  C2  UNL     1     -11.488  20.444  -5.319  1.00  0.00     0.050 A 
HETATM   31  C1  UNL     1     -10.186  20.760  -4.983  1.00  0.00     0.098 A 
HETATM   32  N3  UNL     1      -9.624  21.838  -5.568  1.00  0.00    -0.351 N 
HETATM   33  C29 UNL     1     -10.339  22.581  -6.463  1.00  0.00     0.118 A 
ATOM     34  H3  UNL     1      -8.664  22.099  -5.341  1.00  0.00     0.166 HD
BRANCH  31  35
HETATM   35  N1  UNL     1      -9.490  20.079  -4.143  1.00  0.00    -0.385 N 
ATOM     36  H12 UNL     1      -9.121  19.173  -4.433  1.00  0.00     0.157 HD
ATOM     37  H11 UNL     1      -9.286  20.400  -3.197  1.00  0.00     0.157 HD
ENDBRANCH  31  35
ENDBRANCH  26  28
ENDBRANCH  25  26
ENDBRANCH   1  25
TORSDOF 8
ENDMDL
MODEL 4
REMARK VINA RESULT: -11.143812326      4.443      9.962
REMARK  8 active torsions:
REMARK  status: ('A' for Active; 'I' for Inactive)
REMARK    1  A    between atoms: N1_1  and  C1_4 
REMARK    2  A    between atoms: C4_7  and  N2_8 
REMARK    3  A    between atoms: N2_8  and  C5_10 
REMARK    4  A    between atoms: C5_10  and  C6_11 
REMARK    5  A    between atoms: C9_14  and  C10_15 
REMARK    6  A    between atoms: C14_19  and  O1_20 
REMARK    7  A    between atoms: O1_20  and  C15_21 
REMARK    8  A    between atoms: C15_21  and  C16_22 
ROOT
HETATM    1  C6  UNL     1     -14.075  23.766  -5.551  1.00  0.00    -0.029 A 
HETATM    2  C7  UNL     1     -13.370  24.905  -5.241  1.00  0.00     0.010 A 
HETATM    3  C8  UNL     1     -13.876  25.892  -4.429  1.00  0.00     0.014 A 
HETATM    4  C9  UNL     1     -15.158  25.794  -3.862  1.00  0.00    -0.015 A 
HETATM    5  C23 UNL     1     -15.862  24.657  -4.169  1.00  0.00    -0.014 A 
HETATM    6  C24 UNL     1     -17.133  24.505  -3.620  1.00  0.00     0.013 A 
HETATM    7  C25 UNL     1     -17.845  23.360  -3.916  1.00  0.00     0.001 A 
HETATM    8  C26 UNL     1     -17.307  22.382  -4.741  1.00  0.00     0.001 A 
HETATM    9  C27 UNL     1     -16.052  22.515  -5.290  1.00  0.00     0.013 A 
HETATM   10  C28 UNL     1     -15.347  23.661  -4.991  1.00  0.00    -0.017 A 
ENDROOT
BRANCH   4  11
HETATM   11  C10 UNL     1     -15.653  26.895  -3.042  1.00  0.00    -0.022 A 
HETATM   12  C11 UNL     1     -15.864  28.181  -3.469  1.00  0.00     0.012 A 
HETATM   13  C12 UNL     1     -16.334  29.191  -2.660  1.00  0.00     0.004 A 
HETATM   14  C13 UNL     1     -16.608  28.907  -1.351  1.00  0.00     0.037 A 
HETATM   15  C14 UNL     1     -16.416  27.642  -0.867  1.00  0.00     0.070 A 
HETATM   16  C22 UNL     1     -15.945  26.655  -1.702  1.00  0.00     0.049 A 
BRANCH  15  17
HETATM   17  O1  UNL     1     -16.690  27.349   0.454  1.00  0.00    -0.347 OA
BRANCH  17  18
HETATM   18  C15 UNL     1     -17.126  28.381   1.299  1.00  0.00     0.214 C 
BRANCH  18  19
HETATM   19  C16 UNL     1     -16.279  28.482   2.515  1.00  0.00    -0.034 A 
HETATM   20  C17 UNL     1     -15.124  27.738   2.563  1.00  0.00     0.009 A 
HETATM   21  C18 UNL     1     -14.313  27.807   3.675  1.00  0.00     0.001 A 
HETATM   22  C19 UNL     1     -14.664  28.625   4.742  1.00  0.00     0.000 A 
HETATM   23  C20 UNL     1     -15.824  29.360   4.670  1.00  0.00     0.001 A 
HETATM   24  C21 UNL     1     -16.647  29.299   3.559  1.00  0.00     0.009 A 
ENDBRANCH  18  19
ENDBRANCH  17  18
ENDBRANCH  15  17
ENDBRANCH   4  11
BRANCH   1  25
HETATM   25  C5  UNL     1     -13.545  22.678  -6.406  1.00  0.00     0.159 C 
BRANCH  25  26
HETATM   26  N2  UNL     1     -12.230  22.877  -6.906  1.00  0.00    -0.385 N 
ATOM     27  H2  UNL     1     -11.896  23.829  -7.058  1.00  0.00     0.160 HD
BRANCH  26  28
HETATM   28  C4  UNL     1     -11.376  21.794  -7.198  1.00  0.00     0.043 A 
HETATM   29  C3  UNL     1     -11.447  20.631  -6.477  1.00  0.00     0.034 A 
HETATM   30  C2  UNL     1     -10.590  19.609  -6.810  1.00  0.00     0.050 A 
HETATM   31  C1  UNL     1      -9.669  19.713  -7.835  1.00  0.00     0.098 A 
HETATM   32  N3  UNL     1      -9.620  20.869  -8.529  1.00  0.00    -0.351 N 
HETATM   33  C29 UNL     1     -10.464  21.893  -8.212  1.00  0.00     0.118 A 
ATOM     34  H3  UNL     1      -8.952  20.977  -9.292  1.00  0.00     0.166 HD
BRANCH  31  35
HETATM   35  N1  UNL     1      -8.862  18.764  -8.155  1.00  0.00    -0.385 N 
ATOM     36  H12 UNL     1      -7.926  18.759  -7.750  1.00  0.00     0.157 HD
ATOM     37  H11 UNL     1      -9.112  18.012  -8.798  1.00  0.00     0.157 HD
ENDBRANCH  31  35
ENDBRANCH  26  28
ENDBRANCH  25  26
ENDBRANCH   1  25
TORSDOF 8
ENDMDL
MODEL 5
REMARK VINA RESULT: -11.134557159      1.949      3.199
REMARK  8 active torsions:
REMARK  status: ('A' for Active; 'I' for Inactive)
REMARK    1  A    between atoms: N1_1  and  C1_4 
REMARK    2  A    between atoms: C4_7  and  N2_8 
REMARK    3  A    between atoms: N2_8  and  C5_10 
REMARK    4  A    between atoms: C5_10  and  C6_11 
REMARK    5  A    between atoms: C9_14  and  C10_15 
REMARK    6  A    between atoms: C14_19  and  O1_20 
REMARK    7  A    between atoms: O1_20  and  C15_21 
REMARK    8  A    between atoms: C15_21  and  C16_22 
ROOT
HETATM    1  C6  UNL     1     -16.157  26.811  -3.811  1.00  0.00    -0.029 A 
HETATM    2  C7  UNL     1     -15.064  27.353  -4.446  1.00  0.00     0.010 A 
HETATM    3  C8  UNL     1     -14.207  26.601  -5.215  1.00  0.00     0.014 A 
HETATM    4  C9  UNL     1     -14.400  25.222  -5.399  1.00  0.00    -0.015 A 
HETATM    5  C23 UNL     1     -15.491  24.681  -4.767  1.00  0.00    -0.014 A 
HETATM    6  C24 UNL     1     -15.735  23.319  -4.930  1.00  0.00     0.013 A 
HETATM    7  C25 UNL     1     -16.836  22.768  -4.305  1.00  0.00     0.001 A 
HETATM    8  C26 UNL     1     -17.681  23.553  -3.534  1.00  0.00     0.001 A 
HETATM    9  C27 UNL     1     -17.457  24.900  -3.363  1.00  0.00     0.013 A 
HETATM   10  C28 UNL     1     -16.356  25.443  -3.990  1.00  0.00    -0.017 A 
ENDROOT
BRANCH   4  11
HETATM   11  C10 UNL     1     -13.432  24.475  -6.194  1.00  0.00    -0.022 A 
HETATM   12  C11 UNL     1     -13.443  24.346  -7.560  1.00  0.00     0.012 A 
HETATM   13  C12 UNL     1     -12.507  23.630  -8.272  1.00  0.00     0.004 A 
HETATM   14  C13 UNL     1     -11.502  23.006  -7.587  1.00  0.00     0.037 A 
HETATM   15  C14 UNL     1     -11.438  23.097  -6.224  1.00  0.00     0.070 A 
HETATM   16  C22 UNL     1     -12.390  23.820  -5.542  1.00  0.00     0.049 A 
BRANCH  15  17
HETATM   17  O1  UNL     1     -10.426  22.469  -5.526  1.00  0.00    -0.347 OA
BRANCH  17  18
HETATM   18  C15 UNL     1     -10.581  21.117  -5.182  1.00  0.00     0.214 C 
BRANCH  18  19
HETATM   19  C16 UNL     1     -10.220  20.223  -6.313  1.00  0.00    -0.034 A 
HETATM   20  C17 UNL     1     -11.219  19.482  -6.897  1.00  0.00     0.009 A 
HETATM   21  C18 UNL     1     -10.922  18.643  -7.948  1.00  0.00     0.001 A 
HETATM   22  C19 UNL     1      -9.616  18.548  -8.414  1.00  0.00     0.000 A 
HETATM   23  C20 UNL     1      -8.634  19.299  -7.814  1.00  0.00     0.001 A 
HETATM   24  C21 UNL     1      -8.920  20.146  -6.757  1.00  0.00     0.009 A 
ENDBRANCH  18  19
ENDBRANCH  17  18
ENDBRANCH  15  17
ENDBRANCH   4  11
BRANCH   1  25
HETATM   25  C5  UNL     1     -17.108  27.601  -2.993  1.00  0.00     0.159 C 
BRANCH  25  26
HETATM   26  N2  UNL     1     -16.523  28.601  -2.170  1.00  0.00    -0.385 N 
ATOM     27  H2  UNL     1     -16.276  29.501  -2.582  1.00  0.00     0.160 HD
BRANCH  26  28
HETATM   28  C4  UNL     1     -16.275  28.382  -0.799  1.00  0.00     0.043 A 
HETATM   29  C3  UNL     1     -16.209  29.433   0.078  1.00  0.00     0.034 A 
HETATM   30  C2  UNL     1     -15.966  29.156   1.403  1.00  0.00     0.050 A 
HETATM   31  C1  UNL     1     -15.790  27.870   1.875  1.00  0.00     0.098 A 
HETATM   32  N3  UNL     1     -15.860  26.854   0.991  1.00  0.00    -0.351 N 
HETATM   33  C29 UNL     1     -16.100  27.111  -0.328  1.00  0.00     0.118 A 
ATOM     34  H3  UNL     1     -15.734  25.892   1.308  1.00  0.00     0.166 HD
BRANCH  31  35
HETATM   35  N1  UNL     1     -15.562  27.599   3.112  1.00  0.00    -0.385 N 
ATOM     36  H12 UNL     1     -15.415  28.370   3.764  1.00  0.00     0.157 HD
ATOM     37  H11 UNL     1     -15.521  26.647   3.477  1.00  0.00     0.157 HD
ENDBRANCH  31  35
ENDBRANCH  26  28
ENDBRANCH  25  26
ENDBRANCH   1  25
TORSDOF 8
ENDMDL
