MODEL 1
REMARK VINA RESULT: -7.489294308      0.000      0.000
REMARK  4 active torsions:
REMARK  status: ('A' for Active; 'I' for Inactive)
REMARK    1  A    between atoms: C2_2  and  C4_4 
REMARK    2  A    between atoms: C6_6  and  O1_7 
REMARK    3  A    between atoms: O1_7  and  C7_8 
REMARK       I    between atoms: C7_8  and  N1_10 
REMARK    4  A    between atoms: C17_21  and  O3_22 
ROOT
HETATM    1  C4  UNL     1       3.828  14.696 -34.498  1.00  0.00     0.019 C 
HETATM    2  C5  UNL     1       4.801  14.302 -33.427  1.00  0.00     0.045 C 
HETATM    3  C6  UNL     1       5.360  12.908 -33.547  1.00  0.00     0.157 C 
HETATM    4  C9  UNL     1       5.481  12.471 -34.962  1.00  0.00     0.008 C 
HETATM    5  C10 UNL     1       4.860  11.398 -35.429  1.00  0.00    -0.085 C 
HETATM    6  C11 UNL     1       5.080  11.090 -36.872  1.00  0.00     0.043 C 
HETATM    7  C12 UNL     1       3.993  10.507 -34.657  1.00  0.00     0.037 C 
HETATM    8  C13 UNL     1       2.591  10.999 -34.462  1.00  0.00     0.032 C 
HETATM    9  C14 UNL     1       2.103  11.874 -35.520  1.00  0.00    -0.021 C 
HETATM   10  C15 UNL     1       1.614  13.097 -35.429  1.00  0.00    -0.059 C 
HETATM   11  C16 UNL     1       1.154  13.846 -36.668  1.00  0.00     0.046 C 
HETATM   12  C17 UNL     1       1.458  13.852 -34.174  1.00  0.00     0.147 C 
HETATM   13  C18 UNL     1       2.450  14.983 -34.029  1.00  0.00     0.045 C 
ENDROOT
BRANCH   3  14
HETATM   14  O1  UNL     1       6.658  12.900 -32.927  1.00  0.00    -0.295 OA
BRANCH  14  15
HETATM   15  C7  UNL     1       7.208  11.750 -32.377  1.00  0.00     0.360 C 
HETATM   16  O2  UNL     1       8.186  11.924 -31.603  1.00  0.00    -0.239 OA
HETATM   17  N1  UNL     1       6.724  10.455 -32.650  1.00  0.00    -0.341 N 
HETATM   18  C8  UNL     1       7.352   9.317 -32.039  1.00  0.00     0.151 C 
ATOM     19  H1  UNL     1       5.931  10.326 -33.278  1.00  0.00     0.164 HD
ENDBRANCH  14  15
ENDBRANCH   3  14
BRANCH   1  20
HETATM   20  C2  UNL     1       4.387  15.893 -35.191  1.00  0.00    -0.089 C 
HETATM   21  C1  UNL     1       5.670  16.215 -35.117  1.00  0.00     0.014 C 
HETATM   22  C3  UNL     1       3.483  16.758 -35.996  1.00  0.00     0.043 C 
ENDBRANCH   1  20
BRANCH  12  23
HETATM   23  O3  UNL     1       0.133  14.363 -34.157  1.00  0.00    -0.391 OA
ATOM     24  H3  UNL     1       0.195  15.304 -34.266  1.00  0.00     0.210 HD
ENDBRANCH  12  23
TORSDOF 4
ENDMDL
MODEL 2
REMARK VINA RESULT: -7.151625877      4.384      7.106
REMARK  4 active torsions:
REMARK  status: ('A' for Active; 'I' for Inactive)
REMARK    1  A    between atoms: C2_2  and  C4_4 
REMARK    2  A    between atoms: C6_6  and  O1_7 
REMARK    3  A    between atoms: O1_7  and  C7_8 
REMARK       I    between atoms: C7_8  and  N1_10 
REMARK    4  A    between atoms: C17_21  and  O3_22 
ROOT
HETATM    1  C4  UNL     1       3.754  17.128 -35.614  1.00  0.00     0.019 C 
HETATM    2  C5  UNL     1       3.086  18.463 -35.478  1.00  0.00     0.045 C 
HETATM    3  C6  UNL     1       2.752  18.874 -34.067  1.00  0.00     0.157 C 
HETATM    4  C9  UNL     1       3.730  18.345 -33.082  1.00  0.00     0.008 C 
HETATM    5  C10 UNL     1       3.372  17.553 -32.082  1.00  0.00    -0.085 C 
HETATM    6  C11 UNL     1       4.471  17.105 -31.177  1.00  0.00     0.043 C 
HETATM    7  C12 UNL     1       2.012  17.094 -31.798  1.00  0.00     0.037 C 
HETATM    8  C13 UNL     1       1.548  15.936 -32.629  1.00  0.00     0.032 C 
HETATM    9  C14 UNL     1       2.614  15.054 -33.088  1.00  0.00    -0.021 C 
HETATM   10  C15 UNL     1       2.918  14.688 -34.319  1.00  0.00    -0.059 C 
HETATM   11  C16 UNL     1       4.081  13.747 -34.587  1.00  0.00     0.046 C 
HETATM   12  C17 UNL     1       2.202  15.123 -35.530  1.00  0.00     0.147 C 
HETATM   13  C18 UNL     1       2.986  16.107 -36.369  1.00  0.00     0.045 C 
ENDROOT
BRANCH   3  14
HETATM   14  O1  UNL     1       2.747  20.311 -34.018  1.00  0.00    -0.295 OA
BRANCH  14  15
HETATM   15  C7  UNL     1       1.679  21.030 -33.497  1.00  0.00     0.360 C 
HETATM   16  O2  UNL     1       1.539  20.977 -32.247  1.00  0.00    -0.239 OA
HETATM   17  N1  UNL     1       0.790  21.780 -34.293  1.00  0.00    -0.341 N 
HETATM   18  C8  UNL     1      -0.291  22.494 -33.673  1.00  0.00     0.151 C 
ATOM     19  H1  UNL     1       0.913  21.815 -35.305  1.00  0.00     0.164 HD
ENDBRANCH  14  15
ENDBRANCH   3  14
BRANCH   1  20
HETATM   20  C2  UNL     1       5.075  17.354 -36.270  1.00  0.00    -0.089 C 
HETATM   21  C1  UNL     1       5.177  17.719 -37.540  1.00  0.00     0.014 C 
HETATM   22  C3  UNL     1       6.322  17.170 -35.482  1.00  0.00     0.043 C 
ENDBRANCH   1  20
BRANCH  12  23
HETATM   23  O3  UNL     1       1.919  13.956 -36.288  1.00  0.00    -0.391 OA
ATOM     24  H3  UNL     1       1.891  14.216 -37.202  1.00  0.00     0.210 HD
ENDBRANCH  12  23
TORSDOF 4
ENDMDL
MODEL 3
REMARK VINA RESULT: -7.078597147      4.040      6.905
REMARK  4 active torsions:
REMARK  status: ('A' for Active; 'I' for Inactive)
REMARK    1  A    between atoms: C2_2  and  C4_4 
REMARK    2  A    between atoms: C6_6  and  O1_7 
REMARK    3  A    between atoms: O1_7  and  C7_8 
REMARK       I    between atoms: C7_8  and  N1_10 
REMARK    4  A    between atoms: C17_21  and  O3_22 
ROOT
HETATM    1  C4  UNL     1       5.634  17.603 -34.717  1.00  0.00     0.019 C 
HETATM    2  C5  UNL     1       4.646  17.113 -35.732  1.00  0.00     0.045 C 
HETATM    3  C6  UNL     1       3.197  17.276 -35.349  1.00  0.00     0.157 C 
HETATM    4  C9  UNL     1       2.972  18.474 -34.500  1.00  0.00     0.008 C 
HETATM    5  C10 UNL     1       2.452  18.394 -33.285  1.00  0.00    -0.085 C 
HETATM    6  C11 UNL     1       2.288  19.686 -32.557  1.00  0.00     0.043 C 
HETATM    7  C12 UNL     1       2.032  17.164 -32.612  1.00  0.00     0.037 C 
HETATM    8  C13 UNL     1       3.140  16.376 -31.983  1.00  0.00     0.032 C 
HETATM    9  C14 UNL     1       4.284  17.172 -31.558  1.00  0.00    -0.021 C 
HETATM   10  C15 UNL     1       5.556  17.042 -31.887  1.00  0.00    -0.059 C 
HETATM   11  C16 UNL     1       6.606  17.987 -31.326  1.00  0.00     0.046 C 
HETATM   12  C17 UNL     1       6.093  16.013 -32.793  1.00  0.00     0.147 C 
HETATM   13  C18 UNL     1       6.518  16.561 -34.136  1.00  0.00     0.045 C 
ENDROOT
BRANCH   3  14
HETATM   14  O1  UNL     1       2.433  17.393 -36.563  1.00  0.00    -0.295 OA
BRANCH  14  15
HETATM   15  C7  UNL     1       1.918  16.285 -37.222  1.00  0.00     0.360 C 
HETATM   16  O2  UNL     1       2.026  16.293 -38.477  1.00  0.00    -0.239 OA
HETATM   17  N1  UNL     1       1.306  15.205 -36.556  1.00  0.00    -0.341 N 
HETATM   18  C8  UNL     1       0.797  14.096 -37.315  1.00  0.00     0.151 C 
ATOM     19  H1  UNL     1       1.224  15.210 -35.539  1.00  0.00     0.164 HD
ENDBRANCH  14  15
ENDBRANCH   3  14
BRANCH   1  20
HETATM   20  C2  UNL     1       6.459  18.660 -35.370  1.00  0.00    -0.089 C 
HETATM   21  C1  UNL     1       5.927  19.583 -36.157  1.00  0.00     0.014 C 
HETATM   22  C3  UNL     1       7.928  18.688 -35.135  1.00  0.00     0.043 C 
ENDBRANCH   1  20
BRANCH  12  23
HETATM   23  O3  UNL     1       7.203  15.418 -32.138  1.00  0.00    -0.391 OA
ATOM     24  H3  UNL     1       7.795  16.121 -31.897  1.00  0.00     0.210 HD
ENDBRANCH  12  23
TORSDOF 4
ENDMDL
MODEL 4
REMARK VINA RESULT: -7.020331421      2.703      5.230
REMARK  4 active torsions:
REMARK  status: ('A' for Active; 'I' for Inactive)
REMARK    1  A    between atoms: C2_2  and  C4_4 
REMARK    2  A    between atoms: C6_6  and  O1_7 
REMARK    3  A    between atoms: O1_7  and  C7_8 
REMARK       I    between atoms: C7_8  and  N1_10 
REMARK    4  A    between atoms: C17_21  and  O3_22 
ROOT
HETATM    1  C4  UNL     1       2.039  13.332 -35.134  1.00  0.00     0.019 C 
HETATM    2  C5  UNL     1       1.553  14.193 -34.007  1.00  0.00     0.045 C 
HETATM    3  C6  UNL     1       2.568  15.161 -33.454  1.00  0.00     0.157 C 
HETATM    4  C9  UNL     1       3.517  15.634 -34.493  1.00  0.00     0.008 C 
HETATM    5  C10 UNL     1       4.826  15.451 -34.395  1.00  0.00    -0.085 C 
HETATM    6  C11 UNL     1       5.648  15.984 -35.520  1.00  0.00     0.043 C 
HETATM    7  C12 UNL     1       5.516  14.784 -33.290  1.00  0.00     0.037 C 
HETATM    8  C13 UNL     1       5.504  13.287 -33.348  1.00  0.00     0.032 C 
HETATM    9  C14 UNL     1       5.420  12.733 -34.693  1.00  0.00    -0.021 C 
HETATM   10  C15 UNL     1       4.536  11.888 -35.191  1.00  0.00    -0.059 C 
HETATM   11  C16 UNL     1       4.628  11.427 -36.636  1.00  0.00     0.046 C 
HETATM   12  C17 UNL     1       3.406  11.310 -34.444  1.00  0.00     0.147 C 
HETATM   13  C18 UNL     1       2.066  11.875 -34.854  1.00  0.00     0.045 C 
ENDROOT
BRANCH   3  14
HETATM   14  O1  UNL     1       1.852  16.283 -32.907  1.00  0.00    -0.295 OA
BRANCH  14  15
HETATM   15  C7  UNL     1       2.493  17.308 -32.225  1.00  0.00     0.360 C 
HETATM   16  O2  UNL     1       2.094  18.474 -32.484  1.00  0.00    -0.239 OA
HETATM   17  N1  UNL     1       3.530  17.089 -31.296  1.00  0.00    -0.341 N 
HETATM   18  C8  UNL     1       4.141  18.207 -30.634  1.00  0.00     0.151 C 
ATOM     19  H1  UNL     1       3.844  16.139 -31.095  1.00  0.00     0.164 HD
ENDBRANCH  14  15
ENDBRANCH   3  14
BRANCH   1  20
HETATM   20  C2  UNL     1       1.166  13.605 -36.313  1.00  0.00    -0.089 C 
HETATM   21  C1  UNL     1       1.621  14.206 -37.402  1.00  0.00     0.014 C 
HETATM   22  C3  UNL     1      -0.262  13.190 -36.275  1.00  0.00     0.043 C 
ENDBRANCH   1  20
BRANCH  12  23
HETATM   23  O3  UNL     1       3.432   9.908 -34.667  1.00  0.00    -0.391 OA
ATOM     24  H3  UNL     1       2.925   9.505 -33.972  1.00  0.00     0.210 HD
ENDBRANCH  12  23
TORSDOF 4
ENDMDL
MODEL 5
REMARK VINA RESULT: -6.979124939      3.940      5.921
REMARK  4 active torsions:
REMARK  status: ('A' for Active; 'I' for Inactive)
REMARK    1  A    between atoms: C2_2  and  C4_4 
REMARK    2  A    between atoms: C6_6  and  O1_7 
REMARK    3  A    between atoms: O1_7  and  C7_8 
REMARK       I    between atoms: C7_8  and  N1_10 
REMARK    4  A    between atoms: C17_21  and  O3_22 
ROOT
HETATM    1  C4  UNL     1       3.418  16.994 -35.046  1.00  0.00     0.019 C 
HETATM    2  C5  UNL     1       4.627  17.447 -35.807  1.00  0.00     0.045 C 
HETATM    3  C6  UNL     1       5.950  17.017 -35.226  1.00  0.00     0.157 C 
HETATM    4  C9  UNL     1       5.861  15.703 -34.538  1.00  0.00     0.008 C 
HETATM    5  C10 UNL     1       6.161  15.552 -33.257  1.00  0.00    -0.085 C 
HETATM    6  C11 UNL     1       6.021  14.170 -32.711  1.00  0.00     0.043 C 
HETATM    7  C12 UNL     1       6.610  16.610 -32.351  1.00  0.00     0.037 C 
HETATM    8  C13 UNL     1       5.520  17.476 -31.798  1.00  0.00     0.032 C 
HETATM    9  C14 UNL     1       4.224  16.819 -31.683  1.00  0.00    -0.021 C 
HETATM   10  C15 UNL     1       3.060  17.182 -32.188  1.00  0.00    -0.059 C 
HETATM   11  C16 UNL     1       1.812  16.349 -31.948  1.00  0.00     0.046 C 
HETATM   12  C17 UNL     1       2.833  18.386 -33.007  1.00  0.00     0.147 C 
HETATM   13  C18 UNL     1       2.588  18.080 -34.466  1.00  0.00     0.045 C 
ENDROOT
BRANCH   3  14
HETATM   14  O1  UNL     1       6.897  16.934 -36.305  1.00  0.00    -0.295 OA
BRANCH  14  15
HETATM   15  C7  UNL     1       7.842  17.924 -36.538  1.00  0.00     0.360 C 
HETATM   16  O2  UNL     1       8.601  17.739 -37.525  1.00  0.00    -0.239 OA
HETATM   17  N1  UNL     1       7.968  19.076 -35.736  1.00  0.00    -0.341 N 
HETATM   18  C8  UNL     1       8.975  20.053 -36.045  1.00  0.00     0.151 C 
ATOM     19  H1  UNL     1       7.347  19.216 -34.938  1.00  0.00     0.164 HD
ENDBRANCH  14  15
ENDBRANCH   3  14
BRANCH   1  20
HETATM   20  C2  UNL     1       2.592  16.165 -35.971  1.00  0.00    -0.089 C 
HETATM   21  C1  UNL     1       2.220  16.601 -37.166  1.00  0.00     0.014 C 
HETATM   22  C3  UNL     1       2.169  14.803 -35.550  1.00  0.00     0.043 C 
ENDBRANCH   1  20
BRANCH  12  23
HETATM   23  O3  UNL     1       1.710  19.059 -32.456  1.00  0.00    -0.391 OA
ATOM     24  H3  UNL     1       1.402  19.672 -33.114  1.00  0.00     0.210 HD
ENDBRANCH  12  23
TORSDOF 4
ENDMDL
