MODEL 1
REMARK VINA RESULT: -6.827097129      0.000      0.000
REMARK  4 active torsions:
REMARK  status: ('A' for Active; 'I' for Inactive)
REMARK       I    between atoms: N1_5  and  C5_6 
REMARK    1  A    between atoms: C5_6  and  O2_8 
REMARK    2  A    between atoms: O2_8  and  C6_9 
REMARK    3  A    between atoms: N2_15  and  S1_16 
REMARK    4  A    between atoms: S1_16  and  C12_19 
ROOT
HETATM    1  C1  UNL     1       4.094  18.336 -32.584  1.00  0.00     0.027 C 
HETATM    2  C2  UNL     1       3.853  17.241 -33.551  1.00  0.00     0.071 C 
HETATM    3  C3  UNL     1       2.568  16.549 -33.078  1.00  0.00     0.040 C 
HETATM    4  C4  UNL     1       1.797  15.975 -34.245  1.00  0.00     0.129 C 
HETATM    5  N1  UNL     1       2.258  14.598 -34.472  1.00  0.00    -0.327 N 
HETATM    6  C5  UNL     1       1.363  13.625 -34.922  1.00  0.00     0.363 C 
HETATM    7  O1  UNL     1       1.797  12.468 -35.102  1.00  0.00    -0.238 OA
HETATM    8  C10 UNL     1       3.663  14.219 -34.230  1.00  0.00     0.143 C 
HETATM    9  C11 UNL     1       4.479  15.332 -34.774  1.00  0.00     0.127 C 
HETATM   10  N2  UNL     1       4.900  16.342 -33.821  1.00  0.00    -0.204 NA
ENDROOT
BRANCH   6  11
HETATM   11  O2  UNL     1       0.056  13.931 -35.158  1.00  0.00    -0.294 OA
BRANCH  11  12
HETATM   12  C6  UNL     1      -0.454  13.917 -36.485  1.00  0.00     0.061 C 
HETATM   13  C7  UNL     1      -1.450  15.030 -36.715  1.00  0.00     0.046 C 
HETATM   14  C8  UNL     1       0.699  14.072 -37.434  1.00  0.00     0.046 C 
HETATM   15  C9  UNL     1      -1.199  12.605 -36.709  1.00  0.00     0.046 C 
ENDBRANCH  11  12
ENDBRANCH   6  11
BRANCH  10  16
HETATM   16  S1  UNL     1       6.453  16.879 -34.128  1.00  0.00     0.219 S 
HETATM   17  O3  UNL     1       7.072  17.533 -32.915  1.00  0.00    -0.210 OA
HETATM   18  O4  UNL     1       7.315  15.615 -34.314  1.00  0.00    -0.210 OA
BRANCH  16  19
HETATM   19  C12 UNL     1       6.724  17.815 -35.587  1.00  0.00     0.067 C 
HETATM   20  C13 UNL     1       5.479  18.502 -36.086  1.00  0.00     0.033 C 
HETATM   21  C14 UNL     1       7.114  16.879 -36.759  1.00  0.00     0.033 C 
HETATM   22  C15 UNL     1       7.910  18.710 -35.439  1.00  0.00     0.033 C 
ENDBRANCH  16  19
ENDBRANCH  10  16
TORSDOF 4
ENDMDL
MODEL 2
REMARK VINA RESULT: -6.770933319      1.520      2.075
REMARK  4 active torsions:
REMARK  status: ('A' for Active; 'I' for Inactive)
REMARK       I    between atoms: N1_5  and  C5_6 
REMARK    1  A    between atoms: C5_6  and  O2_8 
REMARK    2  A    between atoms: O2_8  and  C6_9 
REMARK    3  A    between atoms: N2_15  and  S1_16 
REMARK    4  A    between atoms: S1_16  and  C12_19 
ROOT
HETATM    1  C1  UNL     1       5.748  14.987 -32.837  1.00  0.00     0.027 C 
HETATM    2  C2  UNL     1       4.785  15.624 -33.764  1.00  0.00     0.071 C 
HETATM    3  C3  UNL     1       3.800  14.516 -34.159  1.00  0.00     0.040 C 
HETATM    4  C4  UNL     1       2.426  15.083 -34.438  1.00  0.00     0.129 C 
HETATM    5  N1  UNL     1       2.350  15.430 -35.864  1.00  0.00    -0.327 N 
HETATM    6  C5  UNL     1       1.143  15.297 -36.555  1.00  0.00     0.363 C 
HETATM    7  O1  UNL     1       1.124  15.603 -37.765  1.00  0.00    -0.238 OA
HETATM    8  C10 UNL     1       3.537  15.924 -36.589  1.00  0.00     0.143 C 
HETATM    9  C11 UNL     1       4.203  16.876 -35.667  1.00  0.00     0.127 C 
HETATM   10  N2  UNL     1       5.286  16.340 -34.866  1.00  0.00    -0.204 NA
ENDROOT
BRANCH   6  11
HETATM   11  O2  UNL     1       0.022  14.844 -35.924  1.00  0.00    -0.294 OA
BRANCH  11  12
HETATM   12  C6  UNL     1      -0.268  13.453 -35.892  1.00  0.00     0.061 C 
HETATM   13  C7  UNL     1       0.775  12.646 -36.629  1.00  0.00     0.046 C 
HETATM   14  C8  UNL     1      -0.318  13.016 -34.457  1.00  0.00     0.046 C 
HETATM   15  C9  UNL     1      -1.596  13.213 -36.603  1.00  0.00     0.046 C 
ENDBRANCH  11  12
ENDBRANCH   6  11
BRANCH  10  16
HETATM   16  S1  UNL     1       6.539  17.434 -34.698  1.00  0.00     0.219 S 
HETATM   17  O3  UNL     1       6.331  18.349 -33.514  1.00  0.00    -0.210 OA
HETATM   18  O4  UNL     1       7.773  16.611 -34.284  1.00  0.00    -0.210 OA
BRANCH  16  19
HETATM   19  C12 UNL     1       7.055  18.315 -36.124  1.00  0.00     0.067 C 
HETATM   20  C13 UNL     1       6.032  19.312 -36.604  1.00  0.00     0.033 C 
HETATM   21  C14 UNL     1       7.207  17.347 -37.326  1.00  0.00     0.033 C 
HETATM   22  C15 UNL     1       8.428  18.872 -35.944  1.00  0.00     0.033 C 
ENDBRANCH  16  19
ENDBRANCH  10  16
TORSDOF 4
ENDMDL
MODEL 3
REMARK VINA RESULT: -6.745515844      0.296      1.311
REMARK  4 active torsions:
REMARK  status: ('A' for Active; 'I' for Inactive)
REMARK       I    between atoms: N1_5  and  C5_6 
REMARK    1  A    between atoms: C5_6  and  O2_8 
REMARK    2  A    between atoms: O2_8  and  C6_9 
REMARK    3  A    between atoms: N2_15  and  S1_16 
REMARK    4  A    between atoms: S1_16  and  C12_19 
ROOT
HETATM    1  C1  UNL     1       3.909  18.393 -32.575  1.00  0.00     0.027 C 
HETATM    2  C2  UNL     1       3.743  17.299 -33.558  1.00  0.00     0.071 C 
HETATM    3  C3  UNL     1       2.549  16.475 -33.057  1.00  0.00     0.040 C 
HETATM    4  C4  UNL     1       1.796  15.851 -34.211  1.00  0.00     0.129 C 
HETATM    5  N1  UNL     1       2.381  14.531 -34.484  1.00  0.00    -0.327 N 
HETATM    6  C5  UNL     1       1.570  13.483 -34.927  1.00  0.00     0.363 C 
HETATM    7  O1  UNL     1       2.108  12.378 -35.147  1.00  0.00    -0.238 OA
HETATM    8  C10 UNL     1       3.824  14.287 -34.299  1.00  0.00     0.143 C 
HETATM    9  C11 UNL     1       4.507  15.485 -34.844  1.00  0.00     0.127 C 
HETATM   10  N2  UNL     1       4.862  16.512 -33.883  1.00  0.00    -0.204 NA
ENDROOT
BRANCH   6  11
HETATM   11  O2  UNL     1       0.231  13.664 -35.112  1.00  0.00    -0.294 OA
BRANCH  11  12
HETATM   12  C6  UNL     1      -0.305  13.746 -36.426  1.00  0.00     0.061 C 
HETATM   13  C7  UNL     1       0.778  13.939 -37.462  1.00  0.00     0.046 C 
HETATM   14  C8  UNL     1      -1.050  12.474 -36.710  1.00  0.00     0.046 C 
HETATM   15  C9  UNL     1      -1.217  14.966 -36.509  1.00  0.00     0.046 C 
ENDBRANCH  11  12
ENDBRANCH   6  11
BRANCH  10  16
HETATM   16  S1  UNL     1       6.343  17.205 -34.230  1.00  0.00     0.219 S 
HETATM   17  O3  UNL     1       6.796  18.141 -33.134  1.00  0.00    -0.210 OA
HETATM   18  O4  UNL     1       7.377  16.065 -34.158  1.00  0.00    -0.210 OA
BRANCH  16  19
HETATM   19  C12 UNL     1       6.569  17.904 -35.823  1.00  0.00     0.067 C 
HETATM   20  C13 UNL     1       6.995  16.893 -36.856  1.00  0.00     0.033 C 
HETATM   21  C14 UNL     1       7.743  18.916 -35.803  1.00  0.00     0.033 C 
HETATM   22  C15 UNL     1       5.393  18.736 -36.217  1.00  0.00     0.033 C 
ENDBRANCH  16  19
ENDBRANCH  10  16
TORSDOF 4
ENDMDL
MODEL 4
REMARK VINA RESULT: -6.677564927      2.052      3.229
REMARK  4 active torsions:
REMARK  status: ('A' for Active; 'I' for Inactive)
REMARK       I    between atoms: N1_5  and  C5_6 
REMARK    1  A    between atoms: C5_6  and  O2_8 
REMARK    2  A    between atoms: O2_8  and  C6_9 
REMARK    3  A    between atoms: N2_15  and  S1_16 
REMARK    4  A    between atoms: S1_16  and  C12_19 
ROOT
HETATM    1  C1  UNL     1       5.900  13.759 -33.509  1.00  0.00     0.027 C 
HETATM    2  C2  UNL     1       4.767  14.478 -34.135  1.00  0.00     0.071 C 
HETATM    3  C3  UNL     1       4.193  13.512 -35.178  1.00  0.00     0.040 C 
HETATM    4  C4  UNL     1       2.705  13.719 -35.351  1.00  0.00     0.129 C 
HETATM    5  N1  UNL     1       2.497  14.721 -36.407  1.00  0.00    -0.327 N 
HETATM    6  C5  UNL     1       1.390  14.628 -37.253  1.00  0.00     0.363 C 
HETATM    7  O1  UNL     1       1.252  15.500 -38.136  1.00  0.00    -0.238 OA
HETATM    8  C10 UNL     1       3.446  15.836 -36.592  1.00  0.00     0.143 C 
HETATM    9  C11 UNL     1       3.778  16.311 -35.227  1.00  0.00     0.127 C 
HETATM   10  N2  UNL     1       4.990  15.772 -34.639  1.00  0.00    -0.204 NA
ENDROOT
BRANCH   6  11
HETATM   11  O2  UNL     1       0.489  13.613 -37.117  1.00  0.00    -0.294 OA
BRANCH  11  12
HETATM   12  C6  UNL     1      -0.699  13.808 -36.361  1.00  0.00     0.061 C 
HETATM   13  C7  UNL     1      -1.605  12.599 -36.420  1.00  0.00     0.046 C 
HETATM   14  C8  UNL     1      -0.311  14.075 -34.936  1.00  0.00     0.046 C 
HETATM   15  C9  UNL     1      -1.478  14.973 -36.963  1.00  0.00     0.046 C 
ENDBRANCH  11  12
ENDBRANCH   6  11
BRANCH  10  16
HETATM   16  S1  UNL     1       5.818  16.923 -33.753  1.00  0.00     0.219 S 
HETATM   17  O3  UNL     1       7.311  16.831 -33.969  1.00  0.00    -0.210 OA
HETATM   18  O4  UNL     1       5.463  18.284 -34.381  1.00  0.00    -0.210 OA
BRANCH  16  19
HETATM   19  C12 UNL     1       5.411  17.101 -32.056  1.00  0.00     0.067 C 
HETATM   20  C13 UNL     1       3.929  17.024 -31.794  1.00  0.00     0.033 C 
HETATM   21  C14 UNL     1       5.792  18.519 -31.560  1.00  0.00     0.033 C 
HETATM   22  C15 UNL     1       6.239  16.194 -31.206  1.00  0.00     0.033 C 
ENDBRANCH  16  19
ENDBRANCH  10  16
TORSDOF 4
ENDMDL
MODEL 5
REMARK VINA RESULT: -6.675502527      2.768      6.819
REMARK  4 active torsions:
REMARK  status: ('A' for Active; 'I' for Inactive)
REMARK       I    between atoms: N1_5  and  C5_6 
REMARK    1  A    between atoms: C5_6  and  O2_8 
REMARK    2  A    between atoms: O2_8  and  C6_9 
REMARK    3  A    between atoms: N2_15  and  S1_16 
REMARK    4  A    between atoms: S1_16  and  C12_19 
ROOT
HETATM    1  C1  UNL     1       5.094  13.890 -34.147  1.00  0.00     0.027 C 
HETATM    2  C2  UNL     1       4.255  15.108 -34.214  1.00  0.00     0.071 C 
HETATM    3  C3  UNL     1       4.503  15.851 -32.895  1.00  0.00     0.040 C 
HETATM    4  C4  UNL     1       4.373  17.346 -33.079  1.00  0.00     0.129 C 
HETATM    5  N1  UNL     1       2.973  17.722 -32.836  1.00  0.00    -0.327 N 
HETATM    6  C5  UNL     1       2.669  18.954 -32.253  1.00  0.00     0.363 C 
HETATM    7  O1  UNL     1       1.466  19.233 -32.065  1.00  0.00    -0.238 OA
HETATM    8  C10 UNL     1       1.869  16.813 -33.201  1.00  0.00     0.143 C 
HETATM    9  C11 UNL     1       2.228  16.258 -34.529  1.00  0.00     0.127 C 
HETATM   10  N2  UNL     1       2.891  14.967 -34.525  1.00  0.00    -0.204 NA
ENDROOT
BRANCH   6  11
HETATM   11  O2  UNL     1       3.657  19.825 -31.900  1.00  0.00    -0.294 OA
BRANCH  11  12
HETATM   12  C6  UNL     1       3.941  20.067 -30.529  1.00  0.00     0.061 C 
HETATM   13  C7  UNL     1       2.745  20.640 -29.803  1.00  0.00     0.046 C 
HETATM   14  C8  UNL     1       4.338  18.767 -29.893  1.00  0.00     0.046 C 
HETATM   15  C9  UNL     1       5.053  21.106 -30.434  1.00  0.00     0.046 C 
ENDBRANCH  11  12
ENDBRANCH   6  11
BRANCH  10  16
HETATM   16  S1  UNL     1       2.380  14.000 -35.788  1.00  0.00     0.219 S 
HETATM   17  O3  UNL     1       2.926  14.473 -37.115  1.00  0.00    -0.210 OA
HETATM   18  O4  UNL     1       3.077  12.640 -35.595  1.00  0.00    -0.210 OA
BRANCH  16  19
HETATM   19  C12 UNL     1       0.673  13.610 -35.884  1.00  0.00     0.067 C 
HETATM   20  C13 UNL     1      -0.054  13.819 -34.580  1.00  0.00     0.033 C 
HETATM   21  C14 UNL     1       0.484  12.096 -36.163  1.00  0.00     0.033 C 
HETATM   22  C15 UNL     1       0.035  14.268 -37.062  1.00  0.00     0.033 C 
ENDBRANCH  16  19
ENDBRANCH  10  16
TORSDOF 4
ENDMDL
