MODEL 1
REMARK VINA RESULT: -5.579677547      0.000      0.000
REMARK  3 active torsions:
REMARK  status: ('A' for Active; 'I' for Inactive)
REMARK    1  A    between atoms: N1_1  and  N2_4 
REMARK    2  A    between atoms: C3_9  and  N4_10 
REMARK    3  A    between atoms: N4_10  and  C4_12 
ROOT
HETATM    1  N2  UNL     1      24.151  -0.606  28.048  1.00  0.00    -0.129 N 
HETATM    2  C1  UNL     1      23.918  -1.419  29.220  1.00  0.00     0.187 C 
HETATM    3  C2  UNL     1      23.479  -0.360  30.201  1.00  0.00     0.160 C 
HETATM    4  N3  UNL     1      24.277   0.766  29.791  1.00  0.00    -0.223 N 
ATOM      5  H3  UNL     1      24.510   1.563  30.382  1.00  0.00     0.177 HD
HETATM    6  C3  UNL     1      24.652   0.616  28.566  1.00  0.00     0.697 C 
ENDROOT
BRANCH   6   7
HETATM    7  N4  UNL     1      25.462   1.526  27.791  1.00  0.00    -0.160 N 
ATOM      8  H4  UNL     1      25.913   1.197  26.938  1.00  0.00     0.187 HD
BRANCH   7   9
HETATM    9  C4  UNL     1      25.640   2.890  28.205  1.00  0.00     0.190 C 
HETATM   10  N5  UNL     1      24.922   3.885  27.824  1.00  0.00    -0.360 N 
HETATM   11  C5  UNL     1      25.344   5.125  28.408  1.00  0.00     0.142 C 
ATOM     12  H5  UNL     1      24.138   3.802  27.177  1.00  0.00     0.162 HD
HETATM   13  C6  UNL     1      26.389   4.733  29.434  1.00  0.00     0.142 C 
HETATM   14  N6  UNL     1      26.630   3.353  29.093  1.00  0.00    -0.360 N 
ATOM     15  H6  UNL     1      27.407   2.793  29.444  1.00  0.00     0.162 HD
ENDBRANCH   7   9
ENDBRANCH   6   7
BRANCH   1  16
HETATM   16  N1  UNL     1      23.922  -0.980  26.739  1.00  0.00    -0.329 N 
ATOM     17  H12 UNL     1      23.053  -1.267  26.286  1.00  0.00     0.177 HD
ATOM     18  H11 UNL     1      24.618  -1.027  25.995  1.00  0.00     0.177 HD
ENDBRANCH   1  16
TORSDOF 3
ENDMDL
MODEL 2
REMARK VINA RESULT: -5.461839264      0.453      1.176
REMARK  3 active torsions:
REMARK  status: ('A' for Active; 'I' for Inactive)
REMARK    1  A    between atoms: N1_1  and  N2_4 
REMARK    2  A    between atoms: C3_9  and  N4_10 
REMARK    3  A    between atoms: N4_10  and  C4_12 
ROOT
HETATM    1  N2  UNL     1      23.744  -0.615  27.973  1.00  0.00    -0.129 N 
HETATM    2  C1  UNL     1      23.172  -1.322  29.096  1.00  0.00     0.187 C 
HETATM    3  C2  UNL     1      22.671  -0.163  29.921  1.00  0.00     0.160 C 
HETATM    4  N3  UNL     1      23.668   0.839  29.652  1.00  0.00    -0.223 N 
ATOM      5  H3  UNL     1      23.868   1.640  30.250  1.00  0.00     0.177 HD
HETATM    6  C3  UNL     1      24.272   0.574  28.543  1.00  0.00     0.697 C 
ENDROOT
BRANCH   6   7
HETATM    7  N4  UNL     1      25.331   1.338  27.929  1.00  0.00    -0.160 N 
ATOM      8  H4  UNL     1      25.907   0.908  27.206  1.00  0.00     0.187 HD
BRANCH   7   9
HETATM    9  C4  UNL     1      25.584   2.696  28.322  1.00  0.00     0.190 C 
HETATM   10  N5  UNL     1      26.514   3.081  29.119  1.00  0.00    -0.360 N 
HETATM   11  C5  UNL     1      26.516   4.500  29.320  1.00  0.00     0.142 C 
ATOM     12  H5  UNL     1      27.179   2.445  29.561  1.00  0.00     0.162 HD
HETATM   13  C6  UNL     1      25.504   5.033  28.327  1.00  0.00     0.142 C 
HETATM   14  N6  UNL     1      24.852   3.822  27.896  1.00  0.00    -0.360 N 
ATOM     15  H6  UNL     1      23.985   3.785  27.359  1.00  0.00     0.162 HD
ENDBRANCH   7   9
ENDBRANCH   6   7
BRANCH   1  16
HETATM   16  N1  UNL     1      23.750  -1.040  26.660  1.00  0.00    -0.329 N 
ATOM     17  H12 UNL     1      23.894  -1.976  26.279  1.00  0.00     0.177 HD
ATOM     18  H11 UNL     1      23.606  -0.455  25.837  1.00  0.00     0.177 HD
ENDBRANCH   1  16
TORSDOF 3
ENDMDL
MODEL 3
REMARK VINA RESULT: -5.141611789      1.968      4.855
REMARK  3 active torsions:
REMARK  status: ('A' for Active; 'I' for Inactive)
REMARK    1  A    between atoms: N1_1  and  N2_4 
REMARK    2  A    between atoms: C3_9  and  N4_10 
REMARK    3  A    between atoms: N4_10  and  C4_12 
ROOT
HETATM    1  N2  UNL     1      25.052   4.784  29.903  1.00  0.00    -0.129 N 
HETATM    2  C1  UNL     1      24.306   5.304  31.026  1.00  0.00     0.187 C 
HETATM    3  C2  UNL     1      24.160   4.052  31.857  1.00  0.00     0.160 C 
HETATM    4  N3  UNL     1      24.044   3.040  30.841  1.00  0.00    -0.223 N 
ATOM      5  H3  UNL     1      23.621   2.122  30.975  1.00  0.00     0.177 HD
HETATM    6  C3  UNL     1      24.555   3.465  29.735  1.00  0.00     0.697 C 
ENDROOT
BRANCH   6   7
HETATM    7  N4  UNL     1      24.635   2.747  28.485  1.00  0.00    -0.160 N 
ATOM      8  H4  UNL     1      24.852   3.253  27.627  1.00  0.00     0.187 HD
BRANCH   7   9
HETATM    9  C4  UNL     1      24.412   1.330  28.433  1.00  0.00     0.190 C 
HETATM   10  N5  UNL     1      25.064   0.498  27.703  1.00  0.00    -0.360 N 
HETATM   11  C5  UNL     1      24.612  -0.853  27.867  1.00  0.00     0.142 C 
ATOM     12  H5  UNL     1      25.820   0.769  27.075  1.00  0.00     0.162 HD
HETATM   13  C6  UNL     1      23.635  -0.796  29.024  1.00  0.00     0.142 C 
HETATM   14  N6  UNL     1      23.443   0.625  29.175  1.00  0.00    -0.360 N 
ATOM     15  H6  UNL     1      22.711   1.058  29.737  1.00  0.00     0.162 HD
ENDBRANCH   7   9
ENDBRANCH   6   7
BRANCH   1  16
HETATM   16  N1  UNL     1      26.021   5.458  29.187  1.00  0.00    -0.329 N 
ATOM     17  H12 UNL     1      26.554   5.157  28.370  1.00  0.00     0.177 HD
ATOM     18  H11 UNL     1      26.363   6.400  29.376  1.00  0.00     0.177 HD
ENDBRANCH   1  16
TORSDOF 3
ENDMDL
MODEL 4
REMARK VINA RESULT: -5.111120939      1.820      5.117
REMARK  3 active torsions:
REMARK  status: ('A' for Active; 'I' for Inactive)
REMARK    1  A    between atoms: N1_1  and  N2_4 
REMARK    2  A    between atoms: C3_9  and  N4_10 
REMARK    3  A    between atoms: N4_10  and  C4_12 
ROOT
HETATM    1  N2  UNL     1      24.598   3.796  30.342  1.00  0.00    -0.129 N 
HETATM    2  C1  UNL     1      25.312   4.954  29.853  1.00  0.00     0.187 C 
HETATM    3  C2  UNL     1      25.082   4.807  28.369  1.00  0.00     0.160 C 
HETATM    4  N3  UNL     1      25.081   3.377  28.213  1.00  0.00    -0.223 N 
ATOM      5  H3  UNL     1      25.270   2.883  27.342  1.00  0.00     0.177 HD
HETATM    6  C3  UNL     1      24.804   2.812  29.340  1.00  0.00     0.697 C 
ENDROOT
BRANCH   6   7
HETATM    7  N4  UNL     1      24.706   1.395  29.597  1.00  0.00    -0.160 N 
ATOM      8  H4  UNL     1      25.510   0.895  29.975  1.00  0.00     0.187 HD
BRANCH   7   9
HETATM    9  C4  UNL     1      23.490   0.679  29.327  1.00  0.00     0.190 C 
HETATM   10  N5  UNL     1      23.131   0.223  28.181  1.00  0.00    -0.360 N 
HETATM   11  C5  UNL     1      21.865  -0.447  28.226  1.00  0.00     0.142 C 
ATOM     12  H5  UNL     1      23.687   0.328  27.332  1.00  0.00     0.162 HD
HETATM   13  C6  UNL     1      21.523  -0.528  29.700  1.00  0.00     0.142 C 
HETATM   14  N6  UNL     1      22.498   0.363  30.276  1.00  0.00    -0.360 N 
ATOM     15  H6  UNL     1      22.474   0.714  31.233  1.00  0.00     0.162 HD
ENDBRANCH   7   9
ENDBRANCH   6   7
BRANCH   1  16
HETATM   16  N1  UNL     1      23.890   3.715  31.524  1.00  0.00    -0.329 N 
ATOM     17  H12 UNL     1      23.636   4.453  32.182  1.00  0.00     0.177 HD
ATOM     18  H11 UNL     1      23.498   2.868  31.934  1.00  0.00     0.177 HD
ENDBRANCH   1  16
TORSDOF 3
ENDMDL
MODEL 5
REMARK VINA RESULT: -5.107751770      1.672      5.020
REMARK  3 active torsions:
REMARK  status: ('A' for Active; 'I' for Inactive)
REMARK    1  A    between atoms: N1_1  and  N2_4 
REMARK    2  A    between atoms: C3_9  and  N4_10 
REMARK    3  A    between atoms: N4_10  and  C4_12 
ROOT
HETATM    1  N2  UNL     1      24.587   3.713  30.244  1.00  0.00    -0.129 N 
HETATM    2  C1  UNL     1      25.212   4.938  29.799  1.00  0.00     0.187 C 
HETATM    3  C2  UNL     1      25.066   4.788  28.305  1.00  0.00     0.160 C 
HETATM    4  N3  UNL     1      25.206   3.366  28.139  1.00  0.00    -0.223 N 
ATOM      5  H3  UNL     1      25.481   2.903  27.273  1.00  0.00     0.177 HD
HETATM    6  C3  UNL     1      24.930   2.764  29.246  1.00  0.00     0.697 C 
ENDROOT
BRANCH   6   7
HETATM    7  N4  UNL     1      24.952   1.341  29.487  1.00  0.00    -0.160 N 
ATOM      8  H4  UNL     1      25.522   0.968  30.246  1.00  0.00     0.187 HD
BRANCH   7   9
HETATM    9  C4  UNL     1      24.181   0.443  28.674  1.00  0.00     0.190 C 
HETATM   10  N5  UNL     1      24.625  -0.216  27.664  1.00  0.00    -0.360 N 
HETATM   11  C5  UNL     1      23.617  -1.030  27.051  1.00  0.00     0.142 C 
ATOM     12  H5  UNL     1      25.589  -0.164  27.335  1.00  0.00     0.162 HD
HETATM   13  C6  UNL     1      22.427  -0.941  27.985  1.00  0.00     0.142 C 
HETATM   14  N6  UNL     1      22.817   0.142  28.852  1.00  0.00    -0.360 N 
ATOM     15  H6  UNL     1      22.194   0.623  29.502  1.00  0.00     0.162 HD
ENDBRANCH   7   9
ENDBRANCH   6   7
BRANCH   1  16
HETATM   16  N1  UNL     1      23.835   3.553  31.391  1.00  0.00    -0.329 N 
ATOM     17  H12 UNL     1      24.053   3.810  32.354  1.00  0.00     0.177 HD
ATOM     18  H11 UNL     1      22.906   3.135  31.448  1.00  0.00     0.177 HD
ENDBRANCH   1  16
TORSDOF 3
ENDMDL
