MODEL 1
REMARK VINA RESULT: -6.295219849      0.000      0.000
REMARK  3 active torsions:
REMARK  status: ('A' for Active; 'I' for Inactive)
REMARK    1  A    between atoms: N1_2  and  C2_5 
REMARK    2  A    between atoms: C4_8  and  N2_9 
REMARK    3  A    between atoms: C6_15  and  C7_16 
ROOT
HETATM    1  C2  UNL     1      30.490 -25.825 -32.586  1.00  0.00     0.248 C 
HETATM    2  C3  UNL     1      31.039 -26.995 -31.835  1.00  0.00     0.206 C 
HETATM    3  O1  UNL     1      31.053 -26.886 -30.476  1.00  0.00    -0.364 OA
HETATM    4  C4  UNL     1      30.010 -26.331 -29.852  1.00  0.00     0.233 C 
HETATM    5  C10 UNL     1      28.890 -25.884 -30.803  1.00  0.00     0.099 C 
HETATM    6  C11 UNL     1      29.591 -24.942 -31.761  1.00  0.00     0.134 C 
HETATM    7  C12 UNL     1      28.620 -24.161 -32.615  1.00  0.00     0.054 C 
HETATM    8  F1  UNL     1      30.405 -24.054 -31.080  1.00  0.00    -0.241 F 
ENDROOT
BRANCH   4   9
HETATM    9  N2  UNL     1      29.372 -27.038 -28.793  1.00  0.00    -0.302 N 
HETATM   10  C5  UNL     1      28.091 -27.475 -28.940  1.00  0.00     0.203 A 
HETATM   11  N3  UNL     1      27.714 -28.100 -27.840  1.00  0.00    -0.295 N 
HETATM   12  N4  UNL     1      28.718 -28.064 -27.018  1.00  0.00    -0.287 N 
ATOM     13  H3  UNL     1      26.805 -28.529 -27.668  1.00  0.00     0.187 HD
HETATM   14  C6  UNL     1      29.749 -27.419 -27.577  1.00  0.00     0.105 A 
ATOM     15  H4  UNL     1      28.721 -28.470 -26.082  1.00  0.00     0.188 HD
BRANCH  14  16
HETATM   16  C7  UNL     1      31.042 -27.185 -26.945  1.00  0.00     0.055 A 
HETATM   17  C8  UNL     1      31.507 -25.696 -26.876  1.00  0.00     0.013 A 
HETATM   18  C9  UNL     1      30.954 -26.344 -25.676  1.00  0.00     0.013 A 
ENDBRANCH  14  16
ENDBRANCH   4   9
BRANCH   1  19
HETATM   19  N1  UNL     1      29.684 -26.331 -33.682  1.00  0.00    -0.070 N 
HETATM   20  C1  UNL     1      29.569 -27.772 -33.649  1.00  0.00     0.267 C 
ATOM     21  H12 UNL     1      30.040 -26.008 -34.582  1.00  0.00     0.277 HD
ATOM     22  H11 UNL     1      28.767 -25.886 -33.703  1.00  0.00     0.277 HD
ENDBRANCH   1  19
TORSDOF 3
ENDMDL
MODEL 2
REMARK VINA RESULT: -5.688719953      2.015      2.898
REMARK  3 active torsions:
REMARK  status: ('A' for Active; 'I' for Inactive)
REMARK    1  A    between atoms: N1_2  and  C2_5 
REMARK    2  A    between atoms: C4_8  and  N2_9 
REMARK    3  A    between atoms: C6_15  and  C7_16 
ROOT
HETATM    1  C2  UNL     1      29.142 -25.188 -31.973  1.00  0.00     0.248 C 
HETATM    2  C3  UNL     1      29.567 -24.365 -30.800  1.00  0.00     0.206 C 
HETATM    3  O1  UNL     1      29.602 -25.003 -29.596  1.00  0.00    -0.364 OA
HETATM    4  C4  UNL     1      30.068 -26.253 -29.530  1.00  0.00     0.233 C 
HETATM    5  C10 UNL     1      30.529 -26.812 -30.884  1.00  0.00     0.099 C 
HETATM    6  C11 UNL     1      29.303 -26.671 -31.763  1.00  0.00     0.134 C 
HETATM    7  C12 UNL     1      29.440 -27.419 -33.068  1.00  0.00     0.054 C 
HETATM    8  F1  UNL     1      28.167 -27.115 -31.109  1.00  0.00    -0.241 F 
ENDROOT
BRANCH   4   9
HETATM    9  N2  UNL     1      31.101 -26.566 -28.601  1.00  0.00    -0.302 N 
HETATM   10  C5  UNL     1      32.239 -27.181 -29.028  1.00  0.00     0.203 A 
HETATM   11  N3  UNL     1      33.046 -27.366 -28.000  1.00  0.00    -0.295 N 
HETATM   12  N4  UNL     1      32.448 -26.888 -26.953  1.00  0.00    -0.287 N 
ATOM     13  H3  UNL     1      33.968 -27.804 -28.024  1.00  0.00     0.187 HD
HETATM   14  C6  UNL     1      31.253 -26.390 -27.293  1.00  0.00     0.105 A 
ATOM     15  H4  UNL     1      32.832 -26.890 -26.008  1.00  0.00     0.188 HD
BRANCH  14  16
HETATM   16  C7  UNL     1      30.302 -25.773 -26.374  1.00  0.00     0.055 A 
HETATM   17  C8  UNL     1      29.217 -26.725 -25.777  1.00  0.00     0.013 A 
HETATM   18  C9  UNL     1      30.375 -26.335 -24.957  1.00  0.00     0.013 A 
ENDBRANCH  14  16
ENDBRANCH   4   9
BRANCH   1  19
HETATM   19  N1  UNL     1      29.984 -24.834 -33.101  1.00  0.00    -0.070 N 
HETATM   20  C1  UNL     1      29.537 -23.623 -33.752  1.00  0.00     0.267 C 
ATOM     21  H12 UNL     1      30.057 -25.605 -33.764  1.00  0.00     0.277 HD
ATOM     22  H11 UNL     1      30.964 -24.766 -32.825  1.00  0.00     0.277 HD
ENDBRANCH   1  19
TORSDOF 3
ENDMDL
MODEL 3
REMARK VINA RESULT: -5.607821230      2.023      2.995
REMARK  3 active torsions:
REMARK  status: ('A' for Active; 'I' for Inactive)
REMARK    1  A    between atoms: N1_2  and  C2_5 
REMARK    2  A    between atoms: C4_8  and  N2_9 
REMARK    3  A    between atoms: C6_15  and  C7_16 
ROOT
HETATM    1  C2  UNL     1      29.102 -25.538 -32.169  1.00  0.00     0.248 C 
HETATM    2  C3  UNL     1      28.720 -25.194 -30.765  1.00  0.00     0.206 C 
HETATM    3  O1  UNL     1      28.958 -26.152 -29.824  1.00  0.00    -0.364 OA
HETATM    4  C4  UNL     1      30.090 -26.860 -29.880  1.00  0.00     0.233 C 
HETATM    5  C10 UNL     1      31.007 -26.464 -31.047  1.00  0.00     0.099 C 
HETATM    6  C11 UNL     1      30.125 -26.639 -32.268  1.00  0.00     0.134 C 
HETATM    7  C12 UNL     1      30.907 -26.576 -33.558  1.00  0.00     0.054 C 
HETATM    8  F1  UNL     1      29.438 -27.839 -32.218  1.00  0.00    -0.241 F 
ENDROOT
BRANCH   4   9
HETATM    9  N2  UNL     1      30.925 -26.935 -28.730  1.00  0.00    -0.302 N 
HETATM   10  C5  UNL     1      32.241 -27.260 -28.862  1.00  0.00     0.203 A 
HETATM   11  N3  UNL     1      32.811 -27.265 -27.671  1.00  0.00    -0.295 N 
HETATM   12  N4  UNL     1      31.893 -26.956 -26.807  1.00  0.00    -0.287 N 
ATOM     13  H3  UNL     1      33.789 -27.474 -27.468  1.00  0.00     0.187 HD
HETATM   14  C6  UNL     1      30.727 -26.748 -27.429  1.00  0.00     0.105 A 
ATOM     15  H4  UNL     1      32.040 -26.882 -25.800  1.00  0.00     0.188 HD
BRANCH  14  16
HETATM   16  C7  UNL     1      29.474 -26.384 -26.776  1.00  0.00     0.055 A 
HETATM   17  C8  UNL     1      28.461 -27.551 -26.549  1.00  0.00     0.013 A 
HETATM   18  C9  UNL     1      29.275 -27.063 -25.424  1.00  0.00     0.013 A 
ENDBRANCH  14  16
ENDBRANCH   4   9
BRANCH   1  19
HETATM   19  N1  UNL     1      29.697 -24.362 -32.775  1.00  0.00    -0.070 N 
HETATM   20  C1  UNL     1      29.698 -23.230 -31.875  1.00  0.00     0.267 C 
ATOM     21  H12 UNL     1      29.244 -24.131 -33.659  1.00  0.00     0.277 HD
ATOM     22  H11 UNL     1      30.636 -24.559 -33.122  1.00  0.00     0.277 HD
ENDBRANCH   1  19
TORSDOF 3
ENDMDL
MODEL 4
REMARK VINA RESULT: -5.249228289      8.128     10.329
REMARK  3 active torsions:
REMARK  status: ('A' for Active; 'I' for Inactive)
REMARK    1  A    between atoms: N1_2  and  C2_5 
REMARK    2  A    between atoms: C4_8  and  N2_9 
REMARK    3  A    between atoms: C6_15  and  C7_16 
ROOT
HETATM    1  C2  UNL     1      21.399 -29.578 -33.822  1.00  0.00     0.248 C 
HETATM    2  C3  UNL     1      21.726 -29.572 -35.281  1.00  0.00     0.206 C 
HETATM    3  O1  UNL     1      23.002 -29.223 -35.611  1.00  0.00    -0.364 OA
HETATM    4  C4  UNL     1      24.018 -29.672 -34.869  1.00  0.00     0.233 C 
HETATM    5  C10 UNL     1      23.579 -30.568 -33.701  1.00  0.00     0.099 C 
HETATM    6  C11 UNL     1      22.607 -29.698 -32.930  1.00  0.00     0.134 C 
HETATM    7  C12 UNL     1      22.262 -30.277 -31.579  1.00  0.00     0.054 C 
HETATM    8  F1  UNL     1      23.112 -28.421 -32.756  1.00  0.00    -0.241 F 
ENDROOT
BRANCH   4   9
HETATM    9  N2  UNL     1      25.100 -30.348 -35.501  1.00  0.00    -0.302 N 
HETATM   10  C5  UNL     1      26.382 -29.947 -35.273  1.00  0.00     0.203 A 
HETATM   11  N3  UNL     1      27.208 -30.716 -35.957  1.00  0.00    -0.295 N 
HETATM   12  N4  UNL     1      26.483 -31.578 -36.600  1.00  0.00    -0.287 N 
ATOM     13  H3  UNL     1      28.226 -30.645 -35.977  1.00  0.00     0.187 HD
HETATM   14  C6  UNL     1      25.186 -31.376 -36.338  1.00  0.00     0.105 A 
ATOM     15  H4  UNL     1      26.848 -32.305 -37.216  1.00  0.00     0.188 HD
BRANCH  14  16
HETATM   16  C7  UNL     1      24.081 -32.155 -36.888  1.00  0.00     0.055 A 
HETATM   17  C8  UNL     1      23.494 -31.642 -38.241  1.00  0.00     0.013 A 
HETATM   18  C9  UNL     1      24.403 -32.799 -38.233  1.00  0.00     0.013 A 
ENDBRANCH  14  16
ENDBRANCH   4   9
BRANCH   1  19
HETATM   19  N1  UNL     1      20.568 -30.736 -33.552  1.00  0.00    -0.070 N 
HETATM   20  C1  UNL     1      20.482 -31.621 -34.693  1.00  0.00     0.267 C 
ATOM     21  H12 UNL     1      19.640 -30.459 -33.229  1.00  0.00     0.277 HD
ATOM     22  H11 UNL     1      20.885 -31.235 -32.721  1.00  0.00     0.277 HD
ENDBRANCH   1  19
TORSDOF 3
ENDMDL
MODEL 5
REMARK VINA RESULT: -5.173753661      8.743     10.717
REMARK  3 active torsions:
REMARK  status: ('A' for Active; 'I' for Inactive)
REMARK    1  A    between atoms: N1_2  and  C2_5 
REMARK    2  A    between atoms: C4_8  and  N2_9 
REMARK    3  A    between atoms: C6_15  and  C7_16 
ROOT
HETATM    1  C2  UNL     1      21.273 -30.841 -37.329  1.00  0.00     0.248 C 
HETATM    2  C3  UNL     1      22.406 -31.645 -37.879  1.00  0.00     0.206 C 
HETATM    3  O1  UNL     1      23.590 -30.988 -38.041  1.00  0.00    -0.364 OA
HETATM    4  C4  UNL     1      23.993 -30.124 -37.106  1.00  0.00     0.233 C 
HETATM    5  C10 UNL     1      23.022 -30.000 -35.922  1.00  0.00     0.099 C 
HETATM    6  C11 UNL     1      21.712 -29.612 -36.576  1.00  0.00     0.134 C 
HETATM    7  C12 UNL     1      20.678 -29.160 -35.572  1.00  0.00     0.054 C 
HETATM    8  F1  UNL     1      21.899 -28.608 -37.510  1.00  0.00    -0.241 F 
ENDROOT
BRANCH   4   9
HETATM    9  N2  UNL     1      25.292 -30.263 -36.538  1.00  0.00    -0.302 N 
HETATM   10  C5  UNL     1      26.090 -29.171 -36.386  1.00  0.00     0.203 A 
HETATM   11  N3  UNL     1      27.236 -29.540 -35.842  1.00  0.00    -0.295 N 
HETATM   12  N4  UNL     1      27.173 -30.822 -35.653  1.00  0.00    -0.287 N 
ATOM     13  H3  UNL     1      28.022 -28.931 -35.613  1.00  0.00     0.187 HD
HETATM   14  C6  UNL     1      25.991 -31.292 -36.071  1.00  0.00     0.105 A 
ATOM     15  H4  UNL     1      27.916 -31.390 -35.245  1.00  0.00     0.188 HD
BRANCH  14  16
HETATM   16  C7  UNL     1      25.570 -32.688 -36.017  1.00  0.00     0.055 A 
HETATM   17  C8  UNL     1      25.951 -33.562 -37.253  1.00  0.00     0.013 A 
HETATM   18  C9  UNL     1      26.734 -33.674 -36.012  1.00  0.00     0.013 A 
ENDBRANCH  14  16
ENDBRANCH   4   9
BRANCH   1  19
HETATM   19  N1  UNL     1      20.550 -31.671 -36.383  1.00  0.00    -0.070 N 
HETATM   20  C1  UNL     1      20.904 -33.067 -36.506  1.00  0.00     0.267 C 
ATOM     21  H12 UNL     1      19.542 -31.536 -36.468  1.00  0.00     0.277 HD
ATOM     22  H11 UNL     1      20.676 -31.339 -35.427  1.00  0.00     0.277 HD
ENDBRANCH   1  19
TORSDOF 3
ENDMDL
