MODEL 1
REMARK VINA RESULT: -5.245314771      0.000      0.000
REMARK  3 active torsions:
REMARK  status: ('A' for Active; 'I' for Inactive)
REMARK    1  A    between atoms: C2_2  and  O1_3 
REMARK    2  A    between atoms: O1_3  and  C3_4 
REMARK    3  A    between atoms: C3_4  and  C4_6 
REMARK       I    between atoms: N1_12  and  C9_13 
REMARK       I    between atoms: C9_13  and  N2_15 
ROOT
HETATM    1  C4  UNL     1      58.574 -13.726 -26.873  1.00  0.00     0.199 C 
HETATM    2  C5  UNL     1      58.702 -12.403 -27.487  1.00  0.00     0.112 C 
HETATM    3  S1  UNL     1      58.530 -11.286 -26.071  1.00  0.00    -0.136 SA
HETATM    4  C6  UNL     1      57.534 -12.490 -25.097  1.00  0.00     0.079 C 
HETATM    5  C7  UNL     1      57.617 -12.244 -23.639  1.00  0.00     0.051 C 
HETATM    6  C8  UNL     1      56.126 -12.370 -25.637  1.00  0.00     0.051 C 
HETATM    7  N1  UNL     1      58.105 -13.735 -25.551  1.00  0.00    -0.300 N 
HETATM    8  C9  UNL     1      58.188 -14.877 -24.709  1.00  0.00     0.348 C 
HETATM    9  O3  UNL     1      57.756 -14.875 -23.525  1.00  0.00    -0.245 OA
HETATM   10  N2  UNL     1      58.771 -16.116 -25.148  1.00  0.00    -0.173 N 
ATOM     11  H2  UNL     1      59.138 -16.175 -26.098  1.00  0.00     0.204 HD
HETATM   12  F1  UNL     1      58.852 -17.196 -24.361  1.00  0.00    -0.097 F 
ENDROOT
BRANCH   1  13
HETATM   13  C3  UNL     1      57.763 -14.630 -27.771  1.00  0.00     0.282 C 
HETATM   14  O2  UNL     1      58.119 -15.818 -27.978  1.00  0.00    -0.263 OA
BRANCH  13  15
HETATM   15  O1  UNL     1      56.605 -14.203 -28.404  1.00  0.00    -0.320 OA
BRANCH  15  16
HETATM   16  C2  UNL     1      56.519 -14.265 -29.837  1.00  0.00     0.174 C 
HETATM   17  C1  UNL     1      55.114 -14.463 -30.292  1.00  0.00     0.034 C 
ENDBRANCH  15  16
ENDBRANCH  13  15
ENDBRANCH   1  13
TORSDOF 3
ENDMDL
MODEL 2
REMARK VINA RESULT: -4.608964893      9.170     10.330
REMARK  3 active torsions:
REMARK  status: ('A' for Active; 'I' for Inactive)
REMARK    1  A    between atoms: C2_2  and  O1_3 
REMARK    2  A    between atoms: O1_3  and  C3_4 
REMARK    3  A    between atoms: C3_4  and  C4_6 
REMARK       I    between atoms: N1_12  and  C9_13 
REMARK       I    between atoms: C9_13  and  N2_15 
ROOT
HETATM    1  C4  UNL     1      60.466 -21.430 -32.082  1.00  0.00     0.199 C 
HETATM    2  C5  UNL     1      60.886 -22.775 -31.685  1.00  0.00     0.112 C 
HETATM    3  S1  UNL     1      62.621 -22.533 -31.222  1.00  0.00    -0.136 SA
HETATM    4  C6  UNL     1      62.827 -21.068 -32.318  1.00  0.00     0.079 C 
HETATM    5  C7  UNL     1      63.925 -20.179 -31.874  1.00  0.00     0.051 C 
HETATM    6  C8  UNL     1      63.052 -21.637 -33.702  1.00  0.00     0.051 C 
HETATM    7  N1  UNL     1      61.502 -20.500 -32.255  1.00  0.00    -0.300 N 
HETATM    8  C9  UNL     1      61.277 -19.100 -32.355  1.00  0.00     0.348 C 
HETATM    9  O3  UNL     1      62.217 -18.277 -32.519  1.00  0.00    -0.245 OA
HETATM   10  N2  UNL     1      59.962 -18.525 -32.275  1.00  0.00    -0.173 N 
ATOM     11  H2  UNL     1      59.164 -19.146 -32.142  1.00  0.00     0.204 HD
HETATM   12  F1  UNL     1      59.742 -17.208 -32.368  1.00  0.00    -0.097 F 
ENDROOT
BRANCH   1  13
HETATM   13  C3  UNL     1      59.565 -21.512 -33.292  1.00  0.00     0.282 C 
HETATM   14  O2  UNL     1      59.797 -22.336 -34.212  1.00  0.00    -0.263 OA
BRANCH  13  15
HETATM   15  O1  UNL     1      58.455 -20.695 -33.447  1.00  0.00    -0.320 OA
BRANCH  15  16
HETATM   16  C2  UNL     1      57.231 -21.254 -33.950  1.00  0.00     0.174 C 
HETATM   17  C1  UNL     1      56.590 -22.154 -32.949  1.00  0.00     0.034 C 
ENDBRANCH  15  16
ENDBRANCH  13  15
ENDBRANCH   1  13
TORSDOF 3
ENDMDL
MODEL 3
REMARK VINA RESULT: -4.333140466      3.286      3.980
REMARK  3 active torsions:
REMARK  status: ('A' for Active; 'I' for Inactive)
REMARK    1  A    between atoms: C2_2  and  O1_3 
REMARK    2  A    between atoms: O1_3  and  C3_4 
REMARK    3  A    between atoms: C3_4  and  C4_6 
REMARK       I    between atoms: N1_12  and  C9_13 
REMARK       I    between atoms: C9_13  and  N2_15 
ROOT
HETATM    1  C4  UNL     1      57.815 -14.351 -28.112  1.00  0.00     0.199 C 
HETATM    2  C5  UNL     1      58.946 -14.980 -27.427  1.00  0.00     0.112 C 
HETATM    3  S1  UNL     1      58.634 -14.579 -25.688  1.00  0.00    -0.136 SA
HETATM    4  C6  UNL     1      57.671 -13.062 -26.092  1.00  0.00     0.079 C 
HETATM    5  C7  UNL     1      56.733 -12.682 -25.011  1.00  0.00     0.051 C 
HETATM    6  C8  UNL     1      58.709 -11.998 -26.374  1.00  0.00     0.051 C 
HETATM    7  N1  UNL     1      57.058 -13.460 -27.336  1.00  0.00    -0.300 N 
HETATM    8  C9  UNL     1      55.779 -12.984 -27.731  1.00  0.00     0.348 C 
HETATM    9  O3  UNL     1      55.113 -12.177 -27.029  1.00  0.00    -0.245 OA
HETATM   10  N2  UNL     1      55.154 -13.389 -28.961  1.00  0.00    -0.173 N 
ATOM     11  H2  UNL     1      55.648 -14.042 -29.569  1.00  0.00     0.204 HD
HETATM   12  F1  UNL     1      53.949 -12.945 -29.340  1.00  0.00    -0.097 F 
ENDROOT
BRANCH   1  13
HETATM   13  C3  UNL     1      58.284 -13.725 -29.404  1.00  0.00     0.282 C 
HETATM   14  O2  UNL     1      58.277 -12.476 -29.553  1.00  0.00    -0.263 OA
BRANCH  13  15
HETATM   15  O1  UNL     1      58.739 -14.482 -30.473  1.00  0.00    -0.320 OA
BRANCH  15  16
HETATM   16  C2  UNL     1      59.326 -13.822 -31.607  1.00  0.00     0.174 C 
HETATM   17  C1  UNL     1      60.548 -14.532 -32.079  1.00  0.00     0.034 C 
ENDBRANCH  15  16
ENDBRANCH  13  15
ENDBRANCH   1  13
TORSDOF 3
ENDMDL
MODEL 4
REMARK VINA RESULT: -4.313375061      3.034      3.526
REMARK  3 active torsions:
REMARK  status: ('A' for Active; 'I' for Inactive)
REMARK    1  A    between atoms: C2_2  and  O1_3 
REMARK    2  A    between atoms: O1_3  and  C3_4 
REMARK    3  A    between atoms: C3_4  and  C4_6 
REMARK       I    between atoms: N1_12  and  C9_13 
REMARK       I    between atoms: C9_13  and  N2_15 
ROOT
HETATM    1  C4  UNL     1      57.852 -14.313 -27.564  1.00  0.00     0.199 C 
HETATM    2  C5  UNL     1      58.944 -14.911 -26.795  1.00  0.00     0.112 C 
HETATM    3  S1  UNL     1      58.490 -14.521 -25.085  1.00  0.00    -0.136 SA
HETATM    4  C6  UNL     1      57.519 -13.031 -25.562  1.00  0.00     0.079 C 
HETATM    5  C7  UNL     1      56.491 -12.679 -24.556  1.00  0.00     0.051 C 
HETATM    6  C8  UNL     1      58.544 -11.938 -25.766  1.00  0.00     0.051 C 
HETATM    7  N1  UNL     1      57.014 -13.445 -26.850  1.00  0.00    -0.300 N 
HETATM    8  C9  UNL     1      55.755 -13.004 -27.341  1.00  0.00     0.348 C 
HETATM    9  O3  UNL     1      55.015 -12.217 -26.692  1.00  0.00    -0.245 OA
HETATM   10  N2  UNL     1      55.237 -13.425 -28.614  1.00  0.00    -0.173 N 
ATOM     11  H2  UNL     1      55.794 -14.062 -29.183  1.00  0.00     0.204 HD
HETATM   12  F1  UNL     1      54.052 -13.014 -29.085  1.00  0.00    -0.097 F 
ENDROOT
BRANCH   1  13
HETATM   13  C3  UNL     1      58.400 -13.672 -28.818  1.00  0.00     0.282 C 
HETATM   14  O2  UNL     1      58.382 -12.423 -28.962  1.00  0.00    -0.263 OA
BRANCH  13  15
HETATM   15  O1  UNL     1      58.941 -14.415 -29.856  1.00  0.00    -0.320 OA
BRANCH  15  16
HETATM   16  C2  UNL     1      58.400 -14.277 -31.180  1.00  0.00     0.174 C 
HETATM   17  C1  UNL     1      56.912 -14.349 -31.173  1.00  0.00     0.034 C 
ENDBRANCH  15  16
ENDBRANCH  13  15
ENDBRANCH   1  13
TORSDOF 3
ENDMDL
MODEL 5
REMARK VINA RESULT: -4.245856701      9.747     11.248
REMARK  3 active torsions:
REMARK  status: ('A' for Active; 'I' for Inactive)
REMARK    1  A    between atoms: C2_2  and  O1_3 
REMARK    2  A    between atoms: O1_3  and  C3_4 
REMARK    3  A    between atoms: C3_4  and  C4_6 
REMARK       I    between atoms: N1_12  and  C9_13 
REMARK       I    between atoms: C9_13  and  N2_15 
ROOT
HETATM    1  C4  UNL     1      61.812 -20.809 -33.833  1.00  0.00     0.199 C 
HETATM    2  C5  UNL     1      62.531 -21.931 -34.439  1.00  0.00     0.112 C 
HETATM    3  S1  UNL     1      61.210 -23.129 -34.756  1.00  0.00    -0.136 SA
HETATM    4  C6  UNL     1      60.139 -22.477 -33.407  1.00  0.00     0.079 C 
HETATM    5  C7  UNL     1      58.706 -22.779 -33.626  1.00  0.00     0.051 C 
HETATM    6  C8  UNL     1      60.684 -23.090 -32.136  1.00  0.00     0.051 C 
HETATM    7  N1  UNL     1      60.493 -21.078 -33.441  1.00  0.00    -0.300 N 
HETATM    8  C9  UNL     1      59.561 -20.058 -33.107  1.00  0.00     0.348 C 
HETATM    9  O3  UNL     1      58.380 -20.314 -32.748  1.00  0.00    -0.245 OA
HETATM   10  N2  UNL     1      59.899 -18.661 -33.155  1.00  0.00    -0.173 N 
ATOM     11  H2  UNL     1      60.842 -18.396 -33.439  1.00  0.00     0.204 HD
HETATM   12  F1  UNL     1      59.027 -17.695 -32.842  1.00  0.00    -0.097 F 
ENDROOT
BRANCH   1  13
HETATM   13  C3  UNL     1      62.632 -20.223 -32.708  1.00  0.00     0.282 C 
HETATM   14  O2  UNL     1      62.715 -18.978 -32.553  1.00  0.00    -0.263 OA
BRANCH  13  15
HETATM   15  O1  UNL     1      63.325 -21.014 -31.804  1.00  0.00    -0.320 OA
BRANCH  15  16
HETATM   16  C2  UNL     1      64.673 -20.665 -31.447  1.00  0.00     0.174 C 
HETATM   17  C1  UNL     1      65.125 -21.402 -30.234  1.00  0.00     0.034 C 
ENDBRANCH  15  16
ENDBRANCH  13  15
ENDBRANCH   1  13
TORSDOF 3
ENDMDL
