MODEL 1
REMARK VINA RESULT: -4.983525934      0.000      0.000
REMARK  3 active torsions:
REMARK  status: ('A' for Active; 'I' for Inactive)
REMARK    1  A    between atoms: C2_2  and  C4_4 
REMARK    2  A    between atoms: C4_4  and  C5_9 
REMARK    3  A    between atoms: N1_5  and  O1_7 
ROOT
HETATM    1  C4  UNL     1       1.462  16.624  13.053  1.00  0.00     0.031 C 
HETATM    2  N1  UNL     1       0.942  16.499  14.168  1.00  0.00    -0.276 N 
ATOM      3  H1  UNL     1       1.353  17.082  14.897  1.00  0.00     0.193 HD
ENDROOT
BRANCH   1   4
HETATM    4  C2  UNL     1       1.052  15.902  11.864  1.00  0.00     0.026 C 
HETATM    5  C1  UNL     1       2.131  15.851  10.816  1.00  0.00     0.016 C 
HETATM    6  C3  UNL     1      -0.192  16.387  11.160  1.00  0.00     0.016 C 
ENDBRANCH   1   4
BRANCH   1   7
HETATM    7  C5  UNL     1       2.599  17.611  12.980  1.00  0.00     0.183 C 
HETATM    8  C6  UNL     1       2.304  18.875  13.770  1.00  0.00     0.274 C 
HETATM    9  O2  UNL     1       1.907  20.035  13.532  1.00  0.00    -0.264 OA
HETATM   10  O3  UNL     1       2.673  18.174  14.900  1.00  0.00    -0.292 OA
HETATM   11  C7  UNL     1       3.636  17.532  14.037  1.00  0.00     0.160 C 
HETATM   12  C8  UNL     1       4.718  18.581  13.751  1.00  0.00     0.066 C 
HETATM   13 CL1  UNL     1       4.217  16.006  14.623  1.00  0.00    -0.087 Cl
ENDBRANCH   1   7
BRANCH   2  14
HETATM   14  O1  UNL     1      -0.056  15.736  14.569  1.00  0.00    -0.290 OA
ATOM     15  H1  UNL     1      -0.072  14.819  14.817  1.00  0.00     0.244 HD
ENDBRANCH   2  14
TORSDOF 3
ENDMDL
MODEL 2
REMARK VINA RESULT: -4.670246011      3.070      5.083
REMARK  3 active torsions:
REMARK  status: ('A' for Active; 'I' for Inactive)
REMARK    1  A    between atoms: C2_2  and  C4_4 
REMARK    2  A    between atoms: C4_4  and  C5_9 
REMARK    3  A    between atoms: N1_5  and  O1_7 
ROOT
HETATM    1  C4  UNL     1       2.498  21.079  14.392  1.00  0.00     0.031 C 
HETATM    2  N1  UNL     1       1.506  21.219  13.668  1.00  0.00    -0.276 N 
ATOM      3  H1  UNL     1       1.080  20.346  13.357  1.00  0.00     0.193 HD
ENDROOT
BRANCH   1   4
HETATM    4  C2  UNL     1       3.270  22.170  14.956  1.00  0.00     0.026 C 
HETATM    5  C1  UNL     1       2.491  22.970  15.966  1.00  0.00     0.016 C 
HETATM    6  C3  UNL     1       3.855  23.170  13.989  1.00  0.00     0.016 C 
ENDBRANCH   1   4
BRANCH   1   7
HETATM    7  C5  UNL     1       2.890  19.653  14.680  1.00  0.00     0.183 C 
HETATM    8  C6  UNL     1       2.554  18.727  13.522  1.00  0.00     0.274 C 
HETATM    9  O2  UNL     1       1.649  17.920  13.224  1.00  0.00    -0.264 OA
HETATM   10  O3  UNL     1       3.713  19.173  12.918  1.00  0.00    -0.292 OA
HETATM   11  C7  UNL     1       4.245  19.222  14.260  1.00  0.00     0.160 C 
HETATM   12  C8  UNL     1       4.459  17.766  14.687  1.00  0.00     0.066 C 
HETATM   13 CL1  UNL     1       5.622  20.261  14.444  1.00  0.00    -0.087 Cl
ENDBRANCH   1   7
BRANCH   2  14
HETATM   14  O1  UNL     1       0.908  22.310  13.233  1.00  0.00    -0.290 OA
ATOM     15  H1  UNL     1       0.153  22.779  13.569  1.00  0.00     0.244 HD
ENDBRANCH   2  14
TORSDOF 3
ENDMDL
MODEL 3
REMARK VINA RESULT: -4.656419514      4.066      5.597
REMARK  3 active torsions:
REMARK  status: ('A' for Active; 'I' for Inactive)
REMARK    1  A    between atoms: C2_2  and  C4_4 
REMARK    2  A    between atoms: C4_4  and  C5_9 
REMARK    3  A    between atoms: N1_5  and  O1_7 
ROOT
HETATM    1  C4  UNL     1       3.159  21.038  14.365  1.00  0.00     0.031 C 
HETATM    2  N1  UNL     1       2.154  20.752  13.705  1.00  0.00    -0.276 N 
ATOM      3  H1  UNL     1       1.600  21.554  13.404  1.00  0.00     0.193 HD
ENDROOT
BRANCH   1   4
HETATM    4  C2  UNL     1       4.099  20.072  14.901  1.00  0.00     0.026 C 
HETATM    5  C1  UNL     1       5.482  20.230  14.329  1.00  0.00     0.016 C 
HETATM    6  C3  UNL     1       3.746  18.612  14.750  1.00  0.00     0.016 C 
ENDBRANCH   1   4
BRANCH   1   7
HETATM    7  C5  UNL     1       3.379  22.511  14.599  1.00  0.00     0.183 C 
HETATM    8  C6  UNL     1       3.025  23.339  13.375  1.00  0.00     0.274 C 
HETATM    9  O2  UNL     1       3.629  23.883  12.428  1.00  0.00    -0.264 OA
HETATM   10  O3  UNL     1       1.705  23.232  13.768  1.00  0.00    -0.292 OA
HETATM   11  C7  UNL     1       2.230  23.296  15.112  1.00  0.00     0.160 C 
HETATM   12  C8  UNL     1       2.675  24.747  15.327  1.00  0.00     0.066 C 
HETATM   13 CL1  UNL     1       1.167  22.657  16.325  1.00  0.00    -0.087 Cl
ENDBRANCH   1   7
BRANCH   2  14
HETATM   14  O1  UNL     1       1.681  19.581  13.326  1.00  0.00    -0.290 OA
ATOM     15  H1  UNL     1       0.789  19.253  13.301  1.00  0.00     0.244 HD
ENDBRANCH   2  14
TORSDOF 3
ENDMDL
MODEL 4
REMARK VINA RESULT: -4.366078121      3.493      4.721
REMARK  3 active torsions:
REMARK  status: ('A' for Active; 'I' for Inactive)
REMARK    1  A    between atoms: C2_2  and  C4_4 
REMARK    2  A    between atoms: C4_4  and  C5_9 
REMARK    3  A    between atoms: N1_5  and  O1_7 
ROOT
HETATM    1  C4  UNL     1      -0.719  15.548   9.283  1.00  0.00     0.031 C 
HETATM    2  N1  UNL     1      -1.733  14.899   9.564  1.00  0.00    -0.276 N 
ATOM      3  H1  UNL     1      -2.009  14.945  10.545  1.00  0.00     0.193 HD
ENDROOT
BRANCH   1   4
HETATM    4  C2  UNL     1      -0.135  15.637   7.959  1.00  0.00     0.026 C 
HETATM    5  C1  UNL     1       0.589  14.379   7.560  1.00  0.00     0.016 C 
HETATM    6  C3  UNL     1       0.827  16.773   7.706  1.00  0.00     0.016 C 
ENDBRANCH   1   4
BRANCH   1   7
HETATM    7  C5  UNL     1      -0.085  16.284  10.436  1.00  0.00     0.183 C 
HETATM    8  C6  UNL     1      -0.701  15.889  11.768  1.00  0.00     0.274 C 
HETATM    9  O2  UNL     1      -1.550  16.349  12.560  1.00  0.00    -0.264 OA
HETATM   10  O3  UNL     1       0.105  14.769  11.732  1.00  0.00    -0.292 OA
HETATM   11  C7  UNL     1       1.072  15.636  11.101  1.00  0.00     0.160 C 
HETATM   12  C8  UNL     1       1.595  16.564  12.204  1.00  0.00     0.066 C 
HETATM   13 CL1  UNL     1       2.291  14.804  10.189  1.00  0.00    -0.087 Cl
ENDBRANCH   1   7
BRANCH   2  14
HETATM   14  O1  UNL     1      -2.515  14.158   8.805  1.00  0.00    -0.290 OA
ATOM     15  H1  UNL     1      -2.619  13.215   8.758  1.00  0.00     0.244 HD
ENDBRANCH   2  14
TORSDOF 3
ENDMDL
MODEL 5
REMARK VINA RESULT: -4.359439207      3.048      4.854
REMARK  3 active torsions:
REMARK  status: ('A' for Active; 'I' for Inactive)
REMARK    1  A    between atoms: C2_2  and  C4_4 
REMARK    2  A    between atoms: C4_4  and  C5_9 
REMARK    3  A    between atoms: N1_5  and  O1_7 
ROOT
HETATM    1  C4  UNL     1       2.894  20.867  14.519  1.00  0.00     0.031 C 
HETATM    2  N1  UNL     1       3.982  21.437  14.373  1.00  0.00    -0.276 N 
ATOM      3  H1  UNL     1       4.789  20.815  14.352  1.00  0.00     0.193 HD
ENDROOT
BRANCH   1   4
HETATM    4  C2  UNL     1       1.611  21.539  14.580  1.00  0.00     0.026 C 
HETATM    5  C1  UNL     1       1.232  22.186  13.274  1.00  0.00     0.016 C 
HETATM    6  C3  UNL     1       1.439  22.600  15.639  1.00  0.00     0.016 C 
ENDBRANCH   1   4
BRANCH   1   7
HETATM    7  C5  UNL     1       2.965  19.366  14.634  1.00  0.00     0.183 C 
HETATM    8  C6  UNL     1       2.560  18.678  13.340  1.00  0.00     0.274 C 
HETATM    9  O2  UNL     1       1.544  18.121  12.875  1.00  0.00    -0.264 OA
HETATM   10  O3  UNL     1       3.836  18.939  12.882  1.00  0.00    -0.292 OA
HETATM   11  C7  UNL     1       4.240  18.714  14.250  1.00  0.00     0.160 C 
HETATM   12  C8  UNL     1       4.118  17.205  14.487  1.00  0.00     0.066 C 
HETATM   13 CL1  UNL     1       5.774  19.411  14.666  1.00  0.00    -0.087 Cl
ENDBRANCH   1   7
BRANCH   2  14
HETATM   14  O1  UNL     1       4.269  22.718  14.242  1.00  0.00    -0.290 OA
ATOM     15  H1  UNL     1       3.705  23.482  14.245  1.00  0.00     0.244 HD
ENDBRANCH   2  14
TORSDOF 3
ENDMDL
