MODEL 1
REMARK VINA RESULT: -4.679920940      0.000      0.000
REMARK  4 active torsions:
REMARK  status: ('A' for Active; 'I' for Inactive)
REMARK    1  A    between atoms: C2_2  and  C3_3 
REMARK    2  A    between atoms: C3_3  and  N1_4 
REMARK    3  A    between atoms: N1_4  and  N2_6 
REMARK    4  A    between atoms: C6_15  and  O3_16 
ROOT
HETATM    1  C3  UNL     1     -22.209  -4.034  23.429  1.00  0.00     0.203 C 
HETATM    2  O1  UNL     1     -21.558  -3.081  22.609  1.00  0.00    -0.283 OA
HETATM    3  C4  UNL     1     -21.631  -1.884  23.311  1.00  0.00     0.265 C 
HETATM    4  O2  UNL     1     -20.858  -0.892  23.086  1.00  0.00    -0.265 OA
HETATM    5  C5  UNL     1     -22.718  -1.946  24.330  1.00  0.00     0.171 C 
HETATM    6  C6  UNL     1     -23.396  -3.264  23.923  1.00  0.00     0.195 C 
HETATM    7 CL1  UNL     1     -24.186  -4.029  25.295  1.00  0.00    -0.082 Cl
ENDROOT
BRANCH   1   8
HETATM    8  C2  UNL     1     -22.562  -5.285  22.686  1.00  0.00     0.063 C 
HETATM    9  C1  UNL     1     -22.336  -5.192  21.214  1.00  0.00     0.010 C 
ENDBRANCH   1   8
BRANCH   1  10
HETATM   10  N1  UNL     1     -21.341  -4.284  24.558  1.00  0.00    -0.283 N 
ATOM     11  H1  UNL     1     -20.655  -3.576  24.819  1.00  0.00     0.185 HD
BRANCH  10  12
HETATM   12  N2  UNL     1     -21.404  -5.326  25.213  1.00  0.00    -0.251 N 
HETATM   13  N3  UNL     1     -21.718  -6.086  26.137  1.00  0.00    -0.331 N 
ATOM     14  H32 UNL     1     -22.261  -5.419  26.686  1.00  0.00     0.178 HD
ATOM     15  H31 UNL     1     -21.770  -6.948  26.679  1.00  0.00     0.178 HD
ATOM     16  H2  UNL     1     -20.852  -5.954  24.629  1.00  0.00     0.207 HD
ENDBRANCH  10  12
ENDBRANCH   1  10
BRANCH   6  17
HETATM   17  O3  UNL     1     -24.283  -2.915  22.909  1.00  0.00    -0.370 OA
ATOM     18  H3  UNL     1     -24.808  -2.151  23.118  1.00  0.00     0.212 HD
ENDBRANCH   6  17
TORSDOF 4
ENDMDL
MODEL 2
REMARK VINA RESULT: -4.540217143      5.856      6.624
REMARK  4 active torsions:
REMARK  status: ('A' for Active; 'I' for Inactive)
REMARK    1  A    between atoms: C2_2  and  C3_3 
REMARK    2  A    between atoms: C3_3  and  N1_4 
REMARK    3  A    between atoms: N1_4  and  N2_6 
REMARK    4  A    between atoms: C6_15  and  O3_16 
ROOT
HETATM    1  C3  UNL     1     -26.695  -7.566  27.029  1.00  0.00     0.203 C 
HETATM    2  O1  UNL     1     -25.485  -7.351  26.325  1.00  0.00    -0.283 OA
HETATM    3  C4  UNL     1     -25.185  -6.008  26.516  1.00  0.00     0.265 C 
HETATM    4  O2  UNL     1     -24.014  -5.522  26.356  1.00  0.00    -0.265 OA
HETATM    5  C5  UNL     1     -26.408  -5.255  26.921  1.00  0.00     0.171 C 
HETATM    6  C6  UNL     1     -27.478  -6.334  26.690  1.00  0.00     0.195 C 
HETATM    7 CL1  UNL     1     -28.867  -6.095  27.740  1.00  0.00    -0.082 Cl
ENDROOT
BRANCH   1   8
HETATM    8  C2  UNL     1     -27.368  -8.844  26.633  1.00  0.00     0.063 C 
HETATM    9  C1  UNL     1     -26.865  -9.415  25.351  1.00  0.00     0.010 C 
ENDBRANCH   1   8
BRANCH   1  10
HETATM   10  N1  UNL     1     -26.379  -7.517  28.438  1.00  0.00    -0.283 N 
ATOM     11  H1  UNL     1     -25.716  -6.817  28.771  1.00  0.00     0.185 HD
BRANCH  10  12
HETATM   12  N2  UNL     1     -26.884  -8.296  29.249  1.00  0.00    -0.251 N 
HETATM   13  N3  UNL     1     -27.367  -8.689  30.317  1.00  0.00    -0.331 N 
ATOM     14  H32 UNL     1     -27.293  -7.813  30.834  1.00  0.00     0.178 HD
ATOM     15  H31 UNL     1     -27.785  -9.333  30.988  1.00  0.00     0.178 HD
ATOM     16  H2  UNL     1     -26.936  -9.147  28.690  1.00  0.00     0.207 HD
ENDBRANCH  10  12
ENDBRANCH   1  10
BRANCH   6  17
HETATM   17  O3  UNL     1     -27.795  -6.242  25.337  1.00  0.00    -0.370 OA
ATOM     18  H3  UNL     1     -28.731  -6.211  25.174  1.00  0.00     0.212 HD
ENDBRANCH   6  17
TORSDOF 4
ENDMDL
MODEL 3
REMARK VINA RESULT: -4.207873270      2.059      3.305
REMARK  4 active torsions:
REMARK  status: ('A' for Active; 'I' for Inactive)
REMARK    1  A    between atoms: C2_2  and  C3_3 
REMARK    2  A    between atoms: C3_3  and  N1_4 
REMARK    3  A    between atoms: N1_4  and  N2_6 
REMARK    4  A    between atoms: C6_15  and  O3_16 
ROOT
HETATM    1  C3  UNL     1     -22.492  -3.942  23.278  1.00  0.00     0.203 C 
HETATM    2  O1  UNL     1     -23.003  -5.152  22.750  1.00  0.00    -0.283 OA
HETATM    3  C4  UNL     1     -22.110  -5.523  21.753  1.00  0.00     0.265 C 
HETATM    4  O2  UNL     1     -22.018  -6.714  21.302  1.00  0.00    -0.265 OA
HETATM    5  C5  UNL     1     -21.307  -4.345  21.312  1.00  0.00     0.171 C 
HETATM    6  C6  UNL     1     -22.057  -3.218  22.040  1.00  0.00     0.195 C 
HETATM    7 CL1  UNL     1     -20.998  -1.856  22.379  1.00  0.00    -0.082 Cl
ENDROOT
BRANCH   1   8
HETATM    8  C2  UNL     1     -23.504  -3.199  24.094  1.00  0.00     0.063 C 
HETATM    9  C1  UNL     1     -22.938  -2.042  24.846  1.00  0.00     0.010 C 
ENDBRANCH   1   8
BRANCH   1  10
HETATM   10  N1  UNL     1     -21.307  -4.278  24.035  1.00  0.00    -0.283 N 
ATOM     11  H1  UNL     1     -20.409  -3.893  23.743  1.00  0.00     0.185 HD
BRANCH  10  12
HETATM   12  N2  UNL     1     -21.348  -5.016  25.021  1.00  0.00    -0.251 N 
HETATM   13  N3  UNL     1     -21.744  -5.923  25.762  1.00  0.00    -0.331 N 
ATOM     14  H32 UNL     1     -22.513  -6.254  25.179  1.00  0.00     0.178 HD
ATOM     15  H31 UNL     1     -21.778  -6.534  26.579  1.00  0.00     0.178 HD
ATOM     16  H2  UNL     1     -20.569  -4.649  25.568  1.00  0.00     0.207 HD
ENDBRANCH  10  12
ENDBRANCH   1  10
BRANCH   6  17
HETATM   17  O3  UNL     1     -23.116  -2.888  21.198  1.00  0.00    -0.370 OA
ATOM     18  H3  UNL     1     -23.279  -1.953  21.151  1.00  0.00     0.212 HD
ENDBRANCH   6  17
TORSDOF 4
ENDMDL
MODEL 4
REMARK VINA RESULT: -4.028952343      2.776      3.468
REMARK  4 active torsions:
REMARK  status: ('A' for Active; 'I' for Inactive)
REMARK    1  A    between atoms: C2_2  and  C3_3 
REMARK    2  A    between atoms: C3_3  and  N1_4 
REMARK    3  A    between atoms: N1_4  and  N2_6 
REMARK    4  A    between atoms: C6_15  and  O3_16 
ROOT
HETATM    1  C3  UNL     1     -22.115  -4.400  23.456  1.00  0.00     0.203 C 
HETATM    2  O1  UNL     1     -21.505  -5.058  24.551  1.00  0.00    -0.283 OA
HETATM    3  C4  UNL     1     -22.552  -5.416  25.392  1.00  0.00     0.265 C 
HETATM    4  O2  UNL     1     -22.455  -6.327  26.282  1.00  0.00    -0.265 OA
HETATM    5  C5  UNL     1     -23.760  -4.592  25.096  1.00  0.00     0.171 C 
HETATM    6  C6  UNL     1     -23.153  -3.558  24.134  1.00  0.00     0.195 C 
HETATM    7 CL1  UNL     1     -24.361  -2.932  23.021  1.00  0.00    -0.082 Cl
ENDROOT
BRANCH   1   8
HETATM    8  C2  UNL     1     -21.134  -3.617  22.639  1.00  0.00     0.063 C 
HETATM    9  C1  UNL     1     -21.764  -2.561  21.795  1.00  0.00     0.010 C 
ENDBRANCH   1   8
BRANCH   1  10
HETATM   10  N1  UNL     1     -22.799  -5.412  22.683  1.00  0.00    -0.283 N 
ATOM     11  H1  UNL     1     -23.696  -5.765  23.017  1.00  0.00     0.185 HD
BRANCH  10  12
HETATM   12  N2  UNL     1     -22.333  -5.861  21.634  1.00  0.00    -0.251 N 
HETATM   13  N3  UNL     1     -22.261  -6.125  20.429  1.00  0.00    -0.331 N 
ATOM     14  H32 UNL     1     -23.141  -5.698  20.141  1.00  0.00     0.178 HD
ATOM     15  H31 UNL     1     -21.875  -6.497  19.561  1.00  0.00     0.178 HD
ATOM     16  H2  UNL     1     -21.464  -6.274  21.973  1.00  0.00     0.207 HD
ENDBRANCH  10  12
ENDBRANCH   1  10
BRANCH   6  17
HETATM   17  O3  UNL     1     -22.609  -2.576  24.957  1.00  0.00    -0.370 OA
ATOM     18  H3  UNL     1     -23.244  -2.189  25.548  1.00  0.00     0.212 HD
ENDBRANCH   6  17
TORSDOF 4
ENDMDL
MODEL 5
REMARK VINA RESULT: -4.023530706      6.672      7.692
REMARK  4 active torsions:
REMARK  status: ('A' for Active; 'I' for Inactive)
REMARK    1  A    between atoms: C2_2  and  C3_3 
REMARK    2  A    between atoms: C3_3  and  N1_4 
REMARK    3  A    between atoms: N1_4  and  N2_6 
REMARK    4  A    between atoms: C6_15  and  O3_16 
ROOT
HETATM    1  C3  UNL     1     -26.738  -7.713  26.577  1.00  0.00     0.203 C 
HETATM    2  O1  UNL     1     -26.464  -7.723  27.966  1.00  0.00    -0.283 OA
HETATM    3  C4  UNL     1     -27.680  -8.003  28.577  1.00  0.00     0.265 C 
HETATM    4  O2  UNL     1     -27.778  -8.452  29.769  1.00  0.00    -0.265 OA
HETATM    5  C5  UNL     1     -28.808  -7.704  27.648  1.00  0.00     0.171 C 
HETATM    6  C6  UNL     1     -28.047  -6.986  26.521  1.00  0.00     0.195 C 
HETATM    7 CL1  UNL     1     -28.867  -7.170  24.976  1.00  0.00    -0.082 Cl
ENDROOT
BRANCH   1   8
HETATM    8  C2  UNL     1     -25.647  -7.064  25.783  1.00  0.00     0.063 C 
HETATM    9  C1  UNL     1     -24.649  -6.335  26.617  1.00  0.00     0.010 C 
ENDBRANCH   1   8
BRANCH   1  10
HETATM   10  N1  UNL     1     -26.973  -9.083  26.183  1.00  0.00    -0.283 N 
ATOM     11  H1  UNL     1     -27.393  -9.725  26.855  1.00  0.00     0.185 HD
BRANCH  10  12
HETATM   12  N2  UNL     1     -26.681  -9.500  25.060  1.00  0.00    -0.251 N 
HETATM   13  N3  UNL     1     -26.851  -9.939  23.918  1.00  0.00    -0.331 N 
ATOM     14  H32 UNL     1     -27.871  -9.965  23.929  1.00  0.00     0.178 HD
ATOM     15  H31 UNL     1     -26.609 -10.284  22.988  1.00  0.00     0.178 HD
ATOM     16  H2  UNL     1     -25.663  -9.456  25.099  1.00  0.00     0.207 HD
ENDBRANCH  10  12
ENDBRANCH   1  10
BRANCH   6  17
HETATM   17  O3  UNL     1     -27.956  -5.660  26.936  1.00  0.00    -0.370 OA
ATOM     18  H3  UNL     1     -28.790  -5.297  27.213  1.00  0.00     0.212 HD
ENDBRANCH   6  17
TORSDOF 4
ENDMDL
