MODEL 1
REMARK VINA RESULT: -7.770467056      0.000      0.000
REMARK  10 active torsions:
REMARK  status: ('A' for Active; 'I' for Inactive)
REMARK    1  A    between atoms: C2_2  and  C4_4 
REMARK    2  A    between atoms: C4_4  and  C5_5 
REMARK    3  A    between atoms: C7_10  and  C8_11 
REMARK    4  A    between atoms: C8_11  and  C9_12 
REMARK    5  A    between atoms: C9_12  and  C10_13 
REMARK    6  A    between atoms: C10_13  and  C11_14 
REMARK    7  A    between atoms: C11_14  and  C12_15 
REMARK    8  A    between atoms: C12_15  and  C13_16 
REMARK    9  A    between atoms: C15_23  and  C16_24 
REMARK   10  A    between atoms: C16_24  and  C17_25 
ROOT
HETATM    1  C5  UNL     1      45.119   5.499   9.580  1.00  0.00     0.154 C 
HETATM    2  N1  UNL     1      43.783   5.733   9.998  1.00  0.00    -0.348 N 
ATOM      3  H1  UNL     1      43.671   5.997  10.976  1.00  0.00     0.163 HD
HETATM    4  C6  UNL     1      42.594   5.651   9.257  1.00  0.00     0.241 C 
HETATM    5  O1  UNL     1      41.628   6.388   9.619  1.00  0.00    -0.271 OA
HETATM    6  C7  UNL     1      42.317   4.803   8.089  1.00  0.00     0.176 C 
HETATM    7  N2  UNL     1      41.071   4.076   8.277  1.00  0.00    -0.347 N 
ATOM      8  H2  UNL     1      40.252   4.666   8.420  1.00  0.00     0.163 HD
HETATM    9  C14 UNL     1      40.811   2.724   8.295  1.00  0.00     0.222 C 
HETATM   10  O4  UNL     1      39.941   2.260   7.505  1.00  0.00    -0.273 OA
HETATM   11  C15 UNL     1      41.463   1.662   9.182  1.00  0.00     0.078 C 
HETATM   12  C21 UNL     1      41.619   2.156  10.564  1.00  0.00     0.014 C 
HETATM   13  C22 UNL     1      42.979   2.276  11.136  1.00  0.00     0.001 C 
HETATM   14  C23 UNL     1      44.153   2.130  10.257  1.00  0.00     0.007 C 
HETATM   15  C24 UNL     1      45.208   3.149  10.730  1.00  0.00     0.080 C 
HETATM   16  C25 UNL     1      45.562   4.091   9.627  1.00  0.00     0.149 C 
HETATM   17  O5  UNL     1      46.259   3.623   8.740  1.00  0.00    -0.296 OA
ENDROOT
BRANCH   6  18
HETATM   18  C8  UNL     1      42.221   5.594   6.794  1.00  0.00     0.035 C 
BRANCH  18  19
HETATM   19  C9  UNL     1      43.145   6.751   6.690  1.00  0.00     0.002 C 
BRANCH  19  20
HETATM   20  C10 UNL     1      42.696   7.544   5.451  1.00  0.00     0.001 C 
BRANCH  20  21
HETATM   21  C11 UNL     1      42.286   8.947   5.855  1.00  0.00     0.010 C 
BRANCH  21  22
HETATM   22  C12 UNL     1      40.904   9.286   5.363  1.00  0.00     0.113 C 
BRANCH  22  23
HETATM   23  C13 UNL     1      39.864   8.333   5.764  1.00  0.00     0.172 C 
HETATM   24  O2  UNL     1      39.189   7.740   4.889  1.00  0.00    -0.648 OA
HETATM   25  O3  UNL     1      39.572   8.037   7.092  1.00  0.00    -0.648 OA
ENDBRANCH  22  23
ENDBRANCH  21  22
ENDBRANCH  20  21
ENDBRANCH  19  20
ENDBRANCH  18  19
ENDBRANCH   6  18
BRANCH   1  26
HETATM   26  C4  UNL     1      46.106   6.268  10.449  1.00  0.00     0.037 C 
BRANCH  26  27
HETATM   27  C2  UNL     1      47.161   6.962   9.637  1.00  0.00    -0.020 C 
HETATM   28  C1  UNL     1      47.979   7.948  10.395  1.00  0.00     0.009 C 
HETATM   29  C3  UNL     1      46.480   7.693   8.491  1.00  0.00     0.009 C 
ENDBRANCH  26  27
ENDBRANCH   1  26
BRANCH  11  30
HETATM   30  C16 UNL     1      40.595   0.436   9.142  1.00  0.00     0.022 C 
BRANCH  30  31
HETATM   31  C17 UNL     1      41.160  -0.892   8.970  1.00  0.00    -0.051 C 
HETATM   32  C18 UNL     1      42.430  -0.657   8.067  1.00  0.00     0.014 C 
HETATM   33  C19 UNL     1      40.438  -1.964   8.252  1.00  0.00     0.014 C 
HETATM   34  C20 UNL     1      41.747  -1.499  10.232  1.00  0.00     0.014 C 
ENDBRANCH  30  31
ENDBRANCH  11  30
TORSDOF 10
ENDMDL
MODEL 2
REMARK VINA RESULT: -7.756713623      1.359      1.850
REMARK  10 active torsions:
REMARK  status: ('A' for Active; 'I' for Inactive)
REMARK    1  A    between atoms: C2_2  and  C4_4 
REMARK    2  A    between atoms: C4_4  and  C5_5 
REMARK    3  A    between atoms: C7_10  and  C8_11 
REMARK    4  A    between atoms: C8_11  and  C9_12 
REMARK    5  A    between atoms: C9_12  and  C10_13 
REMARK    6  A    between atoms: C10_13  and  C11_14 
REMARK    7  A    between atoms: C11_14  and  C12_15 
REMARK    8  A    between atoms: C12_15  and  C13_16 
REMARK    9  A    between atoms: C15_23  and  C16_24 
REMARK   10  A    between atoms: C16_24  and  C17_25 
ROOT
HETATM    1  C5  UNL     1      45.208   5.622   9.355  1.00  0.00     0.154 C 
HETATM    2  N1  UNL     1      43.862   5.902   9.707  1.00  0.00    -0.348 N 
ATOM      3  H1  UNL     1      43.720   6.239  10.660  1.00  0.00     0.163 HD
HETATM    4  C6  UNL     1      42.698   5.781   8.933  1.00  0.00     0.241 C 
HETATM    5  O1  UNL     1      41.731   6.553   9.206  1.00  0.00    -0.271 OA
HETATM    6  C7  UNL     1      42.448   4.853   7.821  1.00  0.00     0.176 C 
HETATM    7  N2  UNL     1      41.186   4.156   8.018  1.00  0.00    -0.347 N 
ATOM      8  H2  UNL     1      40.372   4.765   8.088  1.00  0.00     0.163 HD
HETATM    9  C14 UNL     1      40.906   2.812   8.125  1.00  0.00     0.222 C 
HETATM   10  O4  UNL     1      40.057   2.303   7.341  1.00  0.00    -0.273 OA
HETATM   11  C15 UNL     1      41.512   1.810   9.109  1.00  0.00     0.078 C 
HETATM   12  C21 UNL     1      41.628   2.403  10.457  1.00  0.00     0.014 C 
HETATM   13  C22 UNL     1      42.969   2.548  11.066  1.00  0.00     0.001 C 
HETATM   14  C23 UNL     1      44.170   2.324  10.242  1.00  0.00     0.007 C 
HETATM   15  C24 UNL     1      45.223   3.361  10.676  1.00  0.00     0.080 C 
HETATM   16  C25 UNL     1      45.628   4.216   9.521  1.00  0.00     0.149 C 
HETATM   17  O5  UNL     1      46.348   3.675   8.695  1.00  0.00    -0.296 OA
ENDROOT
BRANCH   6  18
HETATM   18  C8  UNL     1      42.408   5.547   6.469  1.00  0.00     0.035 C 
BRANCH  18  19
HETATM   19  C9  UNL     1      41.049   5.751   5.905  1.00  0.00     0.002 C 
BRANCH  19  20
HETATM   20  C10 UNL     1      40.860   7.274   5.795  1.00  0.00     0.001 C 
BRANCH  20  21
HETATM   21  C11 UNL     1      42.206   7.951   5.621  1.00  0.00     0.010 C 
BRANCH  21  22
HETATM   22  C12 UNL     1      42.256   9.280   6.327  1.00  0.00     0.113 C 
BRANCH  22  23
HETATM   23  C13 UNL     1      43.254   9.364   7.398  1.00  0.00     0.172 C 
HETATM   24  O2  UNL     1      44.078   8.432   7.559  1.00  0.00    -0.648 OA
HETATM   25  O3  UNL     1      43.347  10.443   8.270  1.00  0.00    -0.648 OA
ENDBRANCH  22  23
ENDBRANCH  21  22
ENDBRANCH  20  21
ENDBRANCH  19  20
ENDBRANCH  18  19
ENDBRANCH   6  18
BRANCH   1  26
HETATM   26  C4  UNL     1      46.176   6.440  10.200  1.00  0.00     0.037 C 
BRANCH  26  27
HETATM   27  C2  UNL     1      45.485   7.533  10.963  1.00  0.00    -0.020 C 
HETATM   28  C1  UNL     1      45.742   8.906  10.451  1.00  0.00     0.009 C 
HETATM   29  C3  UNL     1      45.946   7.472  12.410  1.00  0.00     0.009 C 
ENDBRANCH  26  27
ENDBRANCH   1  26
BRANCH  11  30
HETATM   30  C16 UNL     1      40.628   0.595   9.129  1.00  0.00     0.022 C 
BRANCH  30  31
HETATM   31  C17 UNL     1      41.176  -0.748   9.036  1.00  0.00    -0.051 C 
HETATM   32  C18 UNL     1      42.438  -0.584   8.106  1.00  0.00     0.014 C 
HETATM   33  C19 UNL     1      40.435  -1.855   8.396  1.00  0.00     0.014 C 
HETATM   34  C20 UNL     1      41.771  -1.279  10.327  1.00  0.00     0.014 C 
ENDBRANCH  30  31
ENDBRANCH  11  30
TORSDOF 10
ENDMDL
MODEL 3
REMARK VINA RESULT: -7.710957743      1.070      1.407
REMARK  10 active torsions:
REMARK  status: ('A' for Active; 'I' for Inactive)
REMARK    1  A    between atoms: C2_2  and  C4_4 
REMARK    2  A    between atoms: C4_4  and  C5_5 
REMARK    3  A    between atoms: C7_10  and  C8_11 
REMARK    4  A    between atoms: C8_11  and  C9_12 
REMARK    5  A    between atoms: C9_12  and  C10_13 
REMARK    6  A    between atoms: C10_13  and  C11_14 
REMARK    7  A    between atoms: C11_14  and  C12_15 
REMARK    8  A    between atoms: C12_15  and  C13_16 
REMARK    9  A    between atoms: C15_23  and  C16_24 
REMARK   10  A    between atoms: C16_24  and  C17_25 
ROOT
HETATM    1  C5  UNL     1      44.976   5.500   9.500  1.00  0.00     0.154 C 
HETATM    2  N1  UNL     1      43.650   5.719   9.957  1.00  0.00    -0.348 N 
ATOM      3  H1  UNL     1      43.565   6.012  10.929  1.00  0.00     0.163 HD
HETATM    4  C6  UNL     1      42.439   5.588   9.261  1.00  0.00     0.241 C 
HETATM    5  O1  UNL     1      41.469   6.315   9.632  1.00  0.00    -0.271 OA
HETATM    6  C7  UNL     1      42.141   4.697   8.131  1.00  0.00     0.176 C 
HETATM    7  N2  UNL     1      40.919   3.949   8.385  1.00  0.00    -0.347 N 
ATOM      8  H2  UNL     1      40.093   4.527   8.537  1.00  0.00     0.163 HD
HETATM    9  C14 UNL     1      40.690   2.593   8.455  1.00  0.00     0.222 C 
HETATM   10  O4  UNL     1      39.805   2.086   7.711  1.00  0.00    -0.273 OA
HETATM   11  C15 UNL     1      41.396   1.575   9.352  1.00  0.00     0.078 C 
HETATM   12  C21 UNL     1      41.588   2.117  10.712  1.00  0.00     0.014 C 
HETATM   13  C22 UNL     1      42.964   2.284  11.232  1.00  0.00     0.001 C 
HETATM   14  C23 UNL     1      44.110   2.136  10.318  1.00  0.00     0.007 C 
HETATM   15  C24 UNL     1      45.157   3.191  10.721  1.00  0.00     0.080 C 
HETATM   16  C25 UNL     1      45.452   4.105   9.577  1.00  0.00     0.149 C 
HETATM   17  O5  UNL     1      46.129   3.622   8.682  1.00  0.00    -0.296 OA
ENDROOT
BRANCH   6  18
HETATM   18  C8  UNL     1      41.983   5.442   6.815  1.00  0.00     0.035 C 
BRANCH  18  19
HETATM   19  C9  UNL     1      42.920   6.577   6.616  1.00  0.00     0.002 C 
BRANCH  19  20
HETATM   20  C10 UNL     1      42.291   7.461   5.526  1.00  0.00     0.001 C 
BRANCH  20  21
HETATM   21  C11 UNL     1      42.778   8.890   5.675  1.00  0.00     0.010 C 
BRANCH  21  22
HETATM   22  C12 UNL     1      42.986   9.259   7.119  1.00  0.00     0.113 C 
BRANCH  22  23
HETATM   23  C13 UNL     1      42.114  10.333   7.606  1.00  0.00     0.172 C 
HETATM   24  O2  UNL     1      42.614  11.346   8.152  1.00  0.00    -0.648 OA
HETATM   25  O3  UNL     1      40.727  10.297   7.496  1.00  0.00    -0.648 OA
ENDBRANCH  22  23
ENDBRANCH  21  22
ENDBRANCH  20  21
ENDBRANCH  19  20
ENDBRANCH  18  19
ENDBRANCH   6  18
BRANCH   1  26
HETATM   26  C4  UNL     1      45.974   6.318  10.310  1.00  0.00     0.037 C 
BRANCH  26  27
HETATM   27  C2  UNL     1      47.027   6.950   9.447  1.00  0.00    -0.020 C 
HETATM   28  C1  UNL     1      47.962   7.855  10.169  1.00  0.00     0.009 C 
HETATM   29  C3  UNL     1      46.335   7.755   8.359  1.00  0.00     0.009 C 
ENDBRANCH  26  27
ENDBRANCH   1  26
BRANCH  11  30
HETATM   30  C16 UNL     1      40.555   0.330   9.381  1.00  0.00     0.022 C 
BRANCH  30  31
HETATM   31  C17 UNL     1      41.132  -0.985   9.158  1.00  0.00    -0.051 C 
HETATM   32  C18 UNL     1      42.352  -0.712   8.199  1.00  0.00     0.014 C 
HETATM   33  C19 UNL     1      40.394  -2.057   8.456  1.00  0.00     0.014 C 
HETATM   34  C20 UNL     1      41.790  -1.604  10.378  1.00  0.00     0.014 C 
ENDBRANCH  30  31
ENDBRANCH  11  30
TORSDOF 10
ENDMDL
MODEL 4
REMARK VINA RESULT: -7.693142854      2.545      6.169
REMARK  10 active torsions:
REMARK  status: ('A' for Active; 'I' for Inactive)
REMARK    1  A    between atoms: C2_2  and  C4_4 
REMARK    2  A    between atoms: C4_4  and  C5_5 
REMARK    3  A    between atoms: C7_10  and  C8_11 
REMARK    4  A    between atoms: C8_11  and  C9_12 
REMARK    5  A    between atoms: C9_12  and  C10_13 
REMARK    6  A    between atoms: C10_13  and  C11_14 
REMARK    7  A    between atoms: C11_14  and  C12_15 
REMARK    8  A    between atoms: C12_15  and  C13_16 
REMARK    9  A    between atoms: C15_23  and  C16_24 
REMARK   10  A    between atoms: C16_24  and  C17_25 
ROOT
HETATM    1  C5  UNL     1      41.801   2.445   9.940  1.00  0.00     0.154 C 
HETATM    2  N1  UNL     1      41.260   3.752  10.056  1.00  0.00    -0.348 N 
ATOM      3  H1  UNL     1      40.562   3.873  10.790  1.00  0.00     0.163 HD
HETATM    4  C6  UNL     1      41.547   4.902   9.305  1.00  0.00     0.241 C 
HETATM    5  O1  UNL     1      41.398   6.024   9.873  1.00  0.00    -0.271 OA
HETATM    6  C7  UNL     1      42.009   4.975   7.911  1.00  0.00     0.176 C 
HETATM    7  N2  UNL     1      41.185   5.904   7.154  1.00  0.00    -0.347 N 
ATOM      8  H2  UNL     1      41.177   6.857   7.517  1.00  0.00     0.163 HD
HETATM    9  C14 UNL     1      40.414   5.715   6.029  1.00  0.00     0.222 C 
HETATM   10  O4  UNL     1      40.621   6.444   5.019  1.00  0.00    -0.273 OA
HETATM   11  C15 UNL     1      39.291   4.695   5.830  1.00  0.00     0.078 C 
HETATM   12  C21 UNL     1      38.442   4.607   7.035  1.00  0.00     0.014 C 
HETATM   13  C22 UNL     1      38.354   3.320   7.762  1.00  0.00     0.001 C 
HETATM   14  C23 UNL     1      39.282   2.228   7.420  1.00  0.00     0.007 C 
HETATM   15  C24 UNL     1      39.666   1.524   8.736  1.00  0.00     0.080 C 
HETATM   16  C25 UNL     1      41.143   1.571   8.948  1.00  0.00     0.149 C 
HETATM   17  O5  UNL     1      41.799   0.826   8.236  1.00  0.00    -0.296 OA
ENDROOT
BRANCH   6  18
HETATM   18  C8  UNL     1      43.460   5.412   7.791  1.00  0.00     0.035 C 
BRANCH  18  19
HETATM   19  C9  UNL     1      43.662   6.844   7.455  1.00  0.00     0.002 C 
BRANCH  19  20
HETATM   20  C10 UNL     1      44.724   7.365   8.438  1.00  0.00     0.001 C 
BRANCH  20  21
HETATM   21  C11 UNL     1      44.968   6.338   9.527  1.00  0.00     0.010 C 
BRANCH  21  22
HETATM   22  C12 UNL     1      46.436   6.175   9.820  1.00  0.00     0.113 C 
BRANCH  22  23
HETATM   23  C13 UNL     1      46.851   4.797  10.104  1.00  0.00     0.172 C 
HETATM   24  O2  UNL     1      47.408   4.524  11.194  1.00  0.00    -0.648 OA
HETATM   25  O3  UNL     1      46.659   3.744   9.214  1.00  0.00    -0.648 OA
ENDBRANCH  22  23
ENDBRANCH  21  22
ENDBRANCH  20  21
ENDBRANCH  19  20
ENDBRANCH  18  19
ENDBRANCH   6  18
BRANCH   1  26
HETATM   26  C4  UNL     1      41.713   1.698  11.265  1.00  0.00     0.037 C 
BRANCH  26  27
HETATM   27  C2  UNL     1      43.050   1.196  11.726  1.00  0.00    -0.020 C 
HETATM   28  C1  UNL     1      44.217   1.914  11.147  1.00  0.00     0.009 C 
HETATM   29  C3  UNL     1      43.165  -0.274  11.354  1.00  0.00     0.009 C 
ENDBRANCH  26  27
ENDBRANCH   1  26
BRANCH  11  30
HETATM   30  C16 UNL     1      38.489   5.124   4.634  1.00  0.00     0.022 C 
BRANCH  30  31
HETATM   31  C17 UNL     1      38.150   4.194   3.570  1.00  0.00    -0.051 C 
HETATM   32  C18 UNL     1      39.544   3.655   3.072  1.00  0.00     0.014 C 
HETATM   33  C19 UNL     1      37.499   4.637   2.319  1.00  0.00     0.014 C 
HETATM   34  C20 UNL     1      37.444   2.932   4.033  1.00  0.00     0.014 C 
ENDBRANCH  30  31
ENDBRANCH  11  30
TORSDOF 10
ENDMDL
MODEL 5
REMARK VINA RESULT: -7.686961430      1.536      2.228
REMARK  10 active torsions:
REMARK  status: ('A' for Active; 'I' for Inactive)
REMARK    1  A    between atoms: C2_2  and  C4_4 
REMARK    2  A    between atoms: C4_4  and  C5_5 
REMARK    3  A    between atoms: C7_10  and  C8_11 
REMARK    4  A    between atoms: C8_11  and  C9_12 
REMARK    5  A    between atoms: C9_12  and  C10_13 
REMARK    6  A    between atoms: C10_13  and  C11_14 
REMARK    7  A    between atoms: C11_14  and  C12_15 
REMARK    8  A    between atoms: C12_15  and  C13_16 
REMARK    9  A    between atoms: C15_23  and  C16_24 
REMARK   10  A    between atoms: C16_24  and  C17_25 
ROOT
HETATM    1  C5  UNL     1      45.230   5.431   9.672  1.00  0.00     0.154 C 
HETATM    2  N1  UNL     1      43.912   5.657  10.147  1.00  0.00    -0.348 N 
ATOM      3  H1  UNL     1      43.838   5.889  11.138  1.00  0.00     0.163 HD
HETATM    4  C6  UNL     1      42.696   5.607   9.450  1.00  0.00     0.241 C 
HETATM    5  O1  UNL     1      41.749   6.336   9.872  1.00  0.00    -0.271 OA
HETATM    6  C7  UNL     1      42.370   4.801   8.265  1.00  0.00     0.176 C 
HETATM    7  N2  UNL     1      41.127   4.074   8.475  1.00  0.00    -0.347 N 
ATOM      8  H2  UNL     1      40.318   4.664   8.668  1.00  0.00     0.163 HD
HETATM    9  C14 UNL     1      40.859   2.724   8.456  1.00  0.00     0.222 C 
HETATM   10  O4  UNL     1      39.958   2.292   7.685  1.00  0.00    -0.273 OA
HETATM   11  C15 UNL     1      41.537   1.628   9.282  1.00  0.00     0.078 C 
HETATM   12  C21 UNL     1      41.747   2.075  10.674  1.00  0.00     0.014 C 
HETATM   13  C22 UNL     1      43.129   2.168  11.198  1.00  0.00     0.001 C 
HETATM   14  C23 UNL     1      44.268   2.046  10.271  1.00  0.00     0.007 C 
HETATM   15  C24 UNL     1      45.347   3.042  10.738  1.00  0.00     0.080 C 
HETATM   16  C25 UNL     1      45.665   4.020   9.656  1.00  0.00     0.149 C 
HETATM   17  O5  UNL     1      46.326   3.578   8.728  1.00  0.00    -0.296 OA
ENDROOT
BRANCH   6  18
HETATM   18  C8  UNL     1      42.231   5.636   7.001  1.00  0.00     0.035 C 
BRANCH  18  19
HETATM   19  C9  UNL     1      41.024   6.500   6.946  1.00  0.00     0.002 C 
BRANCH  19  20
HETATM   20  C10 UNL     1      40.446   6.331   5.530  1.00  0.00     0.001 C 
BRANCH  20  21
HETATM   21  C11 UNL     1      39.376   5.255   5.534  1.00  0.00     0.010 C 
BRANCH  21  22
HETATM   22  C12 UNL     1      39.527   4.316   4.368  1.00  0.00     0.113 C 
BRANCH  22  23
HETATM   23  C13 UNL     1      40.909   3.917   4.082  1.00  0.00     0.172 C 
HETATM   24  O2  UNL     1      41.476   4.328   3.040  1.00  0.00    -0.648 OA
HETATM   25  O3  UNL     1      41.652   3.089   4.917  1.00  0.00    -0.648 OA
ENDBRANCH  22  23
ENDBRANCH  21  22
ENDBRANCH  20  21
ENDBRANCH  19  20
ENDBRANCH  18  19
ENDBRANCH   6  18
BRANCH   1  26
HETATM   26  C4  UNL     1      46.254   6.164  10.529  1.00  0.00     0.037 C 
BRANCH  26  27
HETATM   27  C2  UNL     1      47.260   6.911   9.703  1.00  0.00    -0.020 C 
HETATM   28  C1  UNL     1      48.066   7.909  10.458  1.00  0.00     0.009 C 
HETATM   29  C3  UNL     1      46.521   7.641   8.593  1.00  0.00     0.009 C 
ENDBRANCH  26  27
ENDBRANCH   1  26
BRANCH  11  30
HETATM   30  C16 UNL     1      40.660   0.409   9.233  1.00  0.00     0.022 C 
BRANCH  30  31
HETATM   31  C17 UNL     1      41.220  -0.931   9.191  1.00  0.00    -0.051 C 
HETATM   32  C18 UNL     1      39.979  -1.858   8.903  1.00  0.00     0.014 C 
HETATM   33  C19 UNL     1      41.835  -1.561  10.378  1.00  0.00     0.014 C 
HETATM   34  C20 UNL     1      42.129  -1.201   8.006  1.00  0.00     0.014 C 
ENDBRANCH  30  31
ENDBRANCH  11  30
TORSDOF 10
ENDMDL
