MODEL 1
REMARK VINA RESULT: -8.855877700      0.000      0.000
REMARK  6 active torsions:
REMARK  status: ('A' for Active; 'I' for Inactive)
REMARK    1  A    between atoms: C5_7  and  N2_8 
REMARK    2  A    between atoms: N2_8  and  C6_10 
REMARK    3  A    between atoms: C6_10  and  C7_11 
REMARK    4  A    between atoms: C10_14  and  C11_15 
REMARK    5  A    between atoms: C11_15  and  C12_16 
REMARK    6  A    between atoms: C12_16  and  N3_17 
ROOT
HETATM    1  C7  UNL     1       7.832 -18.770   7.189  1.00  0.00    -0.040 A 
HETATM    2  C8  UNL     1       6.494 -18.698   7.449  1.00  0.00     0.009 A 
HETATM    3  C9  UNL     1       5.597 -18.426   6.427  1.00  0.00     0.007 A 
HETATM    4  C10 UNL     1       6.035 -18.222   5.121  1.00  0.00    -0.057 A 
HETATM    5  C13 UNL     1       7.391 -18.303   4.894  1.00  0.00     0.007 A 
HETATM    6  C14 UNL     1       8.283 -18.570   5.899  1.00  0.00     0.009 A 
ENDROOT
BRANCH   1   7
HETATM    7  C6  UNL     1       8.862 -19.056   8.224  1.00  0.00     0.176 C 
BRANCH   7   8
HETATM    8  N2  UNL     1      10.135 -19.390   7.664  1.00  0.00    -0.222 N 
ATOM      9  H2  UNL     1      10.627 -18.705   7.090  1.00  0.00     0.178 HD
BRANCH   8  10
HETATM   10  C5  UNL     1      10.676 -20.560   7.876  1.00  0.00     0.678 A 
HETATM   11  N1  UNL     1      12.013 -20.708   7.906  1.00  0.00    -0.202 N 
HETATM   12  C4  UNL     1      12.628 -21.885   8.120  1.00  0.00     0.108 A 
ATOM     13  H1  UNL     1      12.593 -19.882   7.758  1.00  0.00     0.183 HD
HETATM   14  C3  UNL     1      11.863 -23.016   8.321  1.00  0.00     0.042 A 
HETATM   15  C2  UNL     1      10.491 -22.871   8.291  1.00  0.00     0.024 A 
HETATM   16  C1  UNL     1       9.649 -24.073   8.505  1.00  0.00     0.068 C 
HETATM   17  N4  UNL     1       9.936 -21.666   8.073  1.00  0.00    -0.196 N 
ATOM     18  H4  UNL     1       8.920 -21.588   8.056  1.00  0.00     0.184 HD
ENDBRANCH   8  10
ENDBRANCH   7   8
ENDBRANCH   1   7
BRANCH   4  19
HETATM   19  C11 UNL     1       5.059 -17.932   4.037  1.00  0.00     0.065 C 
BRANCH  19  20
HETATM   20  C12 UNL     1       5.745 -17.850   2.693  1.00  0.00     0.234 C 
BRANCH  20  21
HETATM   21  N3  UNL     1       5.818 -16.462   2.231  1.00  0.00    -0.079 N 
ATOM     22  H33 UNL     1       6.328 -16.383   1.351  1.00  0.00     0.274 HD
ATOM     23  H32 UNL     1       4.910 -16.121   1.913  1.00  0.00     0.274 HD
ATOM     24  H31 UNL     1       6.215 -15.861   2.952  1.00  0.00     0.274 HD
ENDBRANCH  20  21
ENDBRANCH  19  20
ENDBRANCH   4  19
TORSDOF 6
ENDMDL
MODEL 2
REMARK VINA RESULT: -8.418041412      0.781      1.961
REMARK  6 active torsions:
REMARK  status: ('A' for Active; 'I' for Inactive)
REMARK    1  A    between atoms: C5_7  and  N2_8 
REMARK    2  A    between atoms: N2_8  and  C6_10 
REMARK    3  A    between atoms: C6_10  and  C7_11 
REMARK    4  A    between atoms: C10_14  and  C11_15 
REMARK    5  A    between atoms: C11_15  and  C12_16 
REMARK    6  A    between atoms: C12_16  and  N3_17 
ROOT
HETATM    1  C7  UNL     1       8.420 -19.057   7.147  1.00  0.00    -0.040 A 
HETATM    2  C8  UNL     1       8.691 -19.041   5.809  1.00  0.00     0.009 A 
HETATM    3  C9  UNL     1       7.693 -18.735   4.897  1.00  0.00     0.007 A 
HETATM    4  C10 UNL     1       6.400 -18.437   5.318  1.00  0.00    -0.057 A 
HETATM    5  C13 UNL     1       6.161 -18.461   6.675  1.00  0.00     0.007 A 
HETATM    6  C14 UNL     1       7.142 -18.764   7.582  1.00  0.00     0.009 A 
ENDROOT
BRANCH   1   7
HETATM    7  C6  UNL     1       9.429 -19.375   8.194  1.00  0.00     0.176 C 
BRANCH   7   8
HETATM    8  N2  UNL     1      10.613 -19.975   7.661  1.00  0.00    -0.222 N 
ATOM      9  H2  UNL     1      11.223 -19.429   7.052  1.00  0.00     0.178 HD
BRANCH   8  10
HETATM   10  C5  UNL     1      10.924 -21.211   7.943  1.00  0.00     0.678 A 
HETATM   11  N1  UNL     1       9.991 -22.181   7.928  1.00  0.00    -0.202 N 
HETATM   12  C4  UNL     1      10.253 -23.470   8.209  1.00  0.00     0.108 A 
ATOM     13  H1  UNL     1       9.034 -21.924   7.690  1.00  0.00     0.183 HD
HETATM   14  C3  UNL     1      11.541 -23.840   8.535  1.00  0.00     0.042 A 
HETATM   15  C2  UNL     1      12.503 -22.850   8.553  1.00  0.00     0.024 A 
HETATM   16  C1  UNL     1      13.895 -23.225   8.899  1.00  0.00     0.068 C 
HETATM   17  N4  UNL     1      12.180 -21.579   8.261  1.00  0.00    -0.196 N 
ATOM     18  H4  UNL     1      12.910 -20.867   8.282  1.00  0.00     0.184 HD
ENDBRANCH   8  10
ENDBRANCH   7   8
ENDBRANCH   1   7
BRANCH   4  19
HETATM   19  C11 UNL     1       5.342 -18.110   4.326  1.00  0.00     0.065 C 
BRANCH  19  20
HETATM   20  C12 UNL     1       5.913 -18.019   2.929  1.00  0.00     0.234 C 
BRANCH  20  21
HETATM   21  N3  UNL     1       5.900 -16.634   2.453  1.00  0.00    -0.079 N 
ATOM     22  H33 UNL     1       4.964 -16.230   2.489  1.00  0.00     0.274 HD
ATOM     23  H32 UNL     1       6.364 -16.005   3.108  1.00  0.00     0.274 HD
ATOM     24  H31 UNL     1       6.302 -16.569   1.518  1.00  0.00     0.274 HD
ENDBRANCH  20  21
ENDBRANCH  19  20
ENDBRANCH   4  19
TORSDOF 6
ENDMDL
MODEL 3
REMARK VINA RESULT: -8.378731539      3.601      6.499
REMARK  6 active torsions:
REMARK  status: ('A' for Active; 'I' for Inactive)
REMARK    1  A    between atoms: C5_7  and  N2_8 
REMARK    2  A    between atoms: N2_8  and  C6_10 
REMARK    3  A    between atoms: C6_10  and  C7_11 
REMARK    4  A    between atoms: C10_14  and  C11_15 
REMARK    5  A    between atoms: C11_15  and  C12_16 
REMARK    6  A    between atoms: C12_16  and  N3_17 
ROOT
HETATM    1  C7  UNL     1       4.475 -17.224   1.758  1.00  0.00    -0.040 A 
HETATM    2  C8  UNL     1       4.308 -18.546   1.463  1.00  0.00     0.009 A 
HETATM    3  C9  UNL     1       3.272 -18.953   0.636  1.00  0.00     0.007 A 
HETATM    4  C10 UNL     1       2.384 -18.031   0.089  1.00  0.00    -0.057 A 
HETATM    5  C13 UNL     1       2.582 -16.705   0.406  1.00  0.00     0.007 A 
HETATM    6  C14 UNL     1       3.603 -16.296   1.223  1.00  0.00     0.009 A 
ENDROOT
BRANCH   1   7
HETATM    7  C6  UNL     1       5.558 -16.701   2.635  1.00  0.00     0.176 C 
BRANCH   7   8
HETATM    8  N2  UNL     1       6.489 -17.711   3.032  1.00  0.00    -0.222 N 
ATOM      9  H2  UNL     1       7.151 -18.080   2.349  1.00  0.00     0.178 HD
BRANCH   8  10
HETATM   10  C5  UNL     1       6.505 -18.167   4.255  1.00  0.00     0.678 A 
HETATM   11  N1  UNL     1       5.516 -17.867   5.118  1.00  0.00    -0.202 N 
HETATM   12  C4  UNL     1       5.478 -18.306   6.389  1.00  0.00     0.108 A 
ATOM     13  H1  UNL     1       4.755 -17.273   4.790  1.00  0.00     0.183 HD
HETATM   14  C3  UNL     1       6.498 -19.110   6.854  1.00  0.00     0.042 A 
HETATM   15  C2  UNL     1       7.516 -19.421   5.974  1.00  0.00     0.024 A 
HETATM   16  C1  UNL     1       8.623 -20.284   6.452  1.00  0.00     0.068 C 
HETATM   17  N4  UNL     1       7.497 -18.951   4.715  1.00  0.00    -0.196 N 
ATOM     18  H4  UNL     1       8.261 -19.197   4.086  1.00  0.00     0.184 HD
ENDBRANCH   8  10
ENDBRANCH   7   8
ENDBRANCH   1   7
BRANCH   4  19
HETATM   19  C11 UNL     1       1.279 -18.484  -0.796  1.00  0.00     0.065 C 
BRANCH  19  20
HETATM   20  C12 UNL     1       0.163 -19.117   0.004  1.00  0.00     0.234 C 
BRANCH  20  21
HETATM   21  N3  UNL     1      -1.123 -18.951  -0.678  1.00  0.00    -0.079 N 
ATOM     22  H33 UNL     1      -1.535 -18.037  -0.489  1.00  0.00     0.274 HD
ATOM     23  H32 UNL     1      -1.006 -18.862  -1.688  1.00  0.00     0.274 HD
ATOM     24  H31 UNL     1      -1.760 -19.709  -0.437  1.00  0.00     0.274 HD
ENDBRANCH  20  21
ENDBRANCH  19  20
ENDBRANCH   4  19
TORSDOF 6
ENDMDL
MODEL 4
REMARK VINA RESULT: -8.369992423      2.040      8.039
REMARK  6 active torsions:
REMARK  status: ('A' for Active; 'I' for Inactive)
REMARK    1  A    between atoms: C5_7  and  N2_8 
REMARK    2  A    between atoms: N2_8  and  C6_10 
REMARK    3  A    between atoms: C6_10  and  C7_11 
REMARK    4  A    between atoms: C10_14  and  C11_15 
REMARK    5  A    between atoms: C11_15  and  C12_16 
REMARK    6  A    between atoms: C12_16  and  N3_17 
ROOT
HETATM    1  C7  UNL     1       6.190 -18.613   5.714  1.00  0.00    -0.040 A 
HETATM    2  C8  UNL     1       6.105 -18.446   7.066  1.00  0.00     0.009 A 
HETATM    3  C9  UNL     1       7.202 -18.704   7.873  1.00  0.00     0.007 A 
HETATM    4  C10 UNL     1       8.410 -19.136   7.330  1.00  0.00    -0.057 A 
HETATM    5  C13 UNL     1       8.461 -19.293   5.962  1.00  0.00     0.007 A 
HETATM    6  C14 UNL     1       7.381 -19.041   5.158  1.00  0.00     0.009 A 
ENDROOT
BRANCH   1   7
HETATM    7  C6  UNL     1       5.064 -18.360   4.775  1.00  0.00     0.176 C 
BRANCH   7   8
HETATM    8  N2  UNL     1       5.495 -18.188   3.423  1.00  0.00    -0.222 N 
ATOM      9  H2  UNL     1       6.441 -18.465   3.158  1.00  0.00     0.178 HD
BRANCH   8  10
HETATM   10  C5  UNL     1       4.697 -17.681   2.522  1.00  0.00     0.678 A 
HETATM   11  N1  UNL     1       4.894 -16.439   2.044  1.00  0.00    -0.202 N 
HETATM   12  C4  UNL     1       4.107 -15.864   1.117  1.00  0.00     0.108 A 
ATOM     13  H1  UNL     1       5.684 -15.903   2.404  1.00  0.00     0.183 HD
HETATM   14  C3  UNL     1       3.032 -16.569   0.616  1.00  0.00     0.042 A 
HETATM   15  C2  UNL     1       2.824 -17.845   1.103  1.00  0.00     0.024 A 
HETATM   16  C1  UNL     1       1.675 -18.622   0.579  1.00  0.00     0.068 C 
HETATM   17  N4  UNL     1       3.648 -18.364   2.029  1.00  0.00    -0.196 N 
ATOM     18  H4  UNL     1       3.471 -19.309   2.371  1.00  0.00     0.184 HD
ENDBRANCH   8  10
ENDBRANCH   7   8
ENDBRANCH   1   7
BRANCH   4  19
HETATM   19  C11 UNL     1       9.576 -19.407   8.210  1.00  0.00     0.065 C 
BRANCH  19  20
HETATM   20  C12 UNL     1      10.272 -20.690   7.815  1.00  0.00     0.234 C 
BRANCH  20  21
HETATM   21  N3  UNL     1      11.727 -20.519   7.838  1.00  0.00    -0.079 N 
ATOM     22  H33 UNL     1      12.025 -19.737   7.256  1.00  0.00     0.274 HD
ATOM     23  H32 UNL     1      12.052 -20.173   8.741  1.00  0.00     0.274 HD
ATOM     24  H31 UNL     1      12.196 -21.385   7.575  1.00  0.00     0.274 HD
ENDBRANCH  20  21
ENDBRANCH  19  20
ENDBRANCH   4  19
TORSDOF 6
ENDMDL
MODEL 5
REMARK VINA RESULT: -8.364168617      2.083      8.166
REMARK  6 active torsions:
REMARK  status: ('A' for Active; 'I' for Inactive)
REMARK    1  A    between atoms: C5_7  and  N2_8 
REMARK    2  A    between atoms: N2_8  and  C6_10 
REMARK    3  A    between atoms: C6_10  and  C7_11 
REMARK    4  A    between atoms: C10_14  and  C11_15 
REMARK    5  A    between atoms: C11_15  and  C12_16 
REMARK    6  A    between atoms: C12_16  and  N3_17 
ROOT
HETATM    1  C7  UNL     1       6.310 -18.595   5.528  1.00  0.00    -0.040 A 
HETATM    2  C8  UNL     1       7.519 -19.007   5.046  1.00  0.00     0.009 A 
HETATM    3  C9  UNL     1       8.558 -19.293   5.918  1.00  0.00     0.007 A 
HETATM    4  C10 UNL     1       8.397 -19.169   7.296  1.00  0.00    -0.057 A 
HETATM    5  C13 UNL     1       7.165 -18.753   7.748  1.00  0.00     0.007 A 
HETATM    6  C14 UNL     1       6.133 -18.467   6.893  1.00  0.00     0.009 A 
ENDROOT
BRANCH   1   7
HETATM    7  C6  UNL     1       5.142 -18.267   4.667  1.00  0.00     0.176 C 
BRANCH   7   8
HETATM    8  N2  UNL     1       5.476 -18.201   3.278  1.00  0.00    -0.222 N 
ATOM      9  H2  UNL     1       6.377 -18.559   2.960  1.00  0.00     0.178 HD
BRANCH   8  10
HETATM   10  C5  UNL     1       4.645 -17.688   2.411  1.00  0.00     0.678 A 
HETATM   11  N1  UNL     1       4.807 -16.432   1.957  1.00  0.00    -0.202 N 
HETATM   12  C4  UNL     1       3.985 -15.851   1.065  1.00  0.00     0.108 A 
ATOM     13  H1  UNL     1       5.595 -15.890   2.310  1.00  0.00     0.183 HD
HETATM   14  C3  UNL     1       2.910 -16.565   0.575  1.00  0.00     0.042 A 
HETATM   15  C2  UNL     1       2.739 -17.855   1.037  1.00  0.00     0.024 A 
HETATM   16  C1  UNL     1       1.592 -18.641   0.524  1.00  0.00     0.068 C 
HETATM   17  N4  UNL     1       3.596 -18.380   1.929  1.00  0.00    -0.196 N 
ATOM     18  H4  UNL     1       3.446 -19.335   2.253  1.00  0.00     0.184 HD
ENDBRANCH   8  10
ENDBRANCH   7   8
ENDBRANCH   1   7
BRANCH   4  19
HETATM   19  C11 UNL     1       9.523 -19.481   8.215  1.00  0.00     0.065 C 
BRANCH  19  20
HETATM   20  C12 UNL     1      10.286 -20.700   7.751  1.00  0.00     0.234 C 
BRANCH  20  21
HETATM   21  N3  UNL     1      11.731 -20.467   7.826  1.00  0.00    -0.079 N 
ATOM     22  H33 UNL     1      11.946 -19.499   8.066  1.00  0.00     0.274 HD
ATOM     23  H32 UNL     1      12.145 -20.923   8.638  1.00  0.00     0.274 HD
ATOM     24  H31 UNL     1      12.188 -20.750   6.960  1.00  0.00     0.274 HD
ENDBRANCH  20  21
ENDBRANCH  19  20
ENDBRANCH   4  19
TORSDOF 6
ENDMDL
