MODEL 1
REMARK VINA RESULT: -7.576693353      0.000      0.000
REMARK  13 active torsions:
REMARK  status: ('A' for Active; 'I' for Inactive)
REMARK    1  A    between atoms: C2_2  and  C3_3 
REMARK    2  A    between atoms: C3_3  and  N1_4 
REMARK    3  A    between atoms: N1_4  and  C4_7 
REMARK    4  A    between atoms: C4_7  and  O1_8 
REMARK    5  A    between atoms: C4_7  and  C5_10 
REMARK    6  A    between atoms: C5_10  and  O2_11 
REMARK    7  A    between atoms: C5_10  and  C6_13 
REMARK    8  A    between atoms: C6_13  and  C7_14 
REMARK    9  A    between atoms: C6_13  and  C11_18 
REMARK   10  A    between atoms: C7_14  and  C8_15 
REMARK   11  A    between atoms: C11_18  and  C12_20 
REMARK   12  A    between atoms: C12_20  and  N2_21 
REMARK   13  A    between atoms: C16_25  and  C17_26 
ROOT
HETATM    1  C6  UNL     1      24.783 -77.943  12.414  1.00  0.00     0.090 C 
ENDROOT
BRANCH   1   2
HETATM    2  C5  UNL     1      23.632 -77.739  13.372  1.00  0.00     0.185 C 
BRANCH   2   3
HETATM    3  C4  UNL     1      23.850 -77.995  14.808  1.00  0.00     0.348 C 
BRANCH   3   4
HETATM    4  N1  UNL     1      23.350 -76.980  15.688  1.00  0.00    -0.043 N 
ATOM      5  H12 UNL     1      23.766 -77.078  16.615  1.00  0.00     0.280 HD
ATOM      6  H11 UNL     1      22.372 -77.158  15.914  1.00  0.00     0.280 HD
BRANCH   4   7
HETATM    7  C3  UNL     1      23.515 -75.634  15.205  1.00  0.00     0.262 C 
BRANCH   7   8
HETATM    8  C2  UNL     1      24.904 -75.165  15.466  1.00  0.00    -0.010 C 
HETATM    9  C1  UNL     1      25.503 -74.259  14.709  1.00  0.00     0.008 C 
ENDBRANCH   7   8
ENDBRANCH   4   7
ENDBRANCH   3   4
BRANCH   3  10
HETATM   10  O1  UNL     1      23.386 -79.275  15.195  1.00  0.00    -0.368 OA
ATOM     11  H1  UNL     1      23.344 -79.861  14.448  1.00  0.00     0.212 HD
ENDBRANCH   3  10
ENDBRANCH   2   3
BRANCH   2  12
HETATM   12  O2  UNL     1      22.475 -78.284  12.869  1.00  0.00    -0.390 OA
ATOM     13  H2  UNL     1      22.174 -79.058  13.330  1.00  0.00     0.210 HD
ENDBRANCH   2  12
ENDBRANCH   1   2
BRANCH   1  14
HETATM   14  C7  UNL     1      24.524 -79.192  11.662  1.00  0.00     0.018 C 
BRANCH  14  15
HETATM   15  C8  UNL     1      25.672 -80.074  11.310  1.00  0.00    -0.022 C 
HETATM   16  C9  UNL     1      25.414 -80.573   9.856  1.00  0.00     0.009 C 
HETATM   17  C10 UNL     1      25.702 -81.342  12.130  1.00  0.00     0.009 C 
ENDBRANCH  14  15
ENDBRANCH   1  14
BRANCH   1  18
HETATM   18  C11 UNL     1      24.913 -76.699  11.624  1.00  0.00     0.151 C 
HETATM   19  O3  UNL     1      23.902 -76.419  10.900  1.00  0.00    -0.296 OA
BRANCH  18  20
HETATM   20  C12 UNL     1      26.019 -75.752  11.550  1.00  0.00     0.206 C 
BRANCH  20  21
HETATM   21  N2  UNL     1      26.816 -75.852  10.309  1.00  0.00    -0.359 N 
HETATM   22  C13 UNL     1      27.487 -74.846   9.774  1.00  0.00     0.091 A 
HETATM   23  C14 UNL     1      28.184 -74.938   8.581  1.00  0.00     0.018 A 
HETATM   24  C15 UNL     1      28.179 -76.130   7.919  1.00  0.00     0.019 A 
HETATM   25  C16 UNL     1      27.485 -77.204   8.459  1.00  0.00     0.044 A 
HETATM   26  C18 UNL     1      26.815 -77.028   9.658  1.00  0.00     0.107 A 
BRANCH  25  27
HETATM   27  C17 UNL     1      27.483 -78.443   7.712  1.00  0.00     0.266 C 
HETATM   28  N3  UNL     1      26.378 -78.750   6.885  1.00  0.00    -0.057 NA
HETATM   29  O4  UNL     1      28.432 -79.249   7.782  1.00  0.00    -0.271 OA
ENDBRANCH  25  27
ENDBRANCH  20  21
ENDBRANCH  18  20
ENDBRANCH   1  18
TORSDOF 13
ENDMDL
MODEL 2
REMARK VINA RESULT: -7.287945667      1.832      3.779
REMARK  13 active torsions:
REMARK  status: ('A' for Active; 'I' for Inactive)
REMARK    1  A    between atoms: C2_2  and  C3_3 
REMARK    2  A    between atoms: C3_3  and  N1_4 
REMARK    3  A    between atoms: N1_4  and  C4_7 
REMARK    4  A    between atoms: C4_7  and  O1_8 
REMARK    5  A    between atoms: C4_7  and  C5_10 
REMARK    6  A    between atoms: C5_10  and  O2_11 
REMARK    7  A    between atoms: C5_10  and  C6_13 
REMARK    8  A    between atoms: C6_13  and  C7_14 
REMARK    9  A    between atoms: C6_13  and  C11_18 
REMARK   10  A    between atoms: C7_14  and  C8_15 
REMARK   11  A    between atoms: C11_18  and  C12_20 
REMARK   12  A    between atoms: C12_20  and  N2_21 
REMARK   13  A    between atoms: C16_25  and  C17_26 
ROOT
HETATM    1  C6  UNL     1      24.249 -77.221  11.278  1.00  0.00     0.090 C 
ENDROOT
BRANCH   1   2
HETATM    2  C5  UNL     1      24.021 -77.881  12.619  1.00  0.00     0.185 C 
BRANCH   2   3
HETATM    3  C4  UNL     1      22.965 -77.349  13.502  1.00  0.00     0.348 C 
BRANCH   3   4
HETATM    4  N1  UNL     1      23.368 -77.117  14.857  1.00  0.00    -0.043 N 
ATOM      5  H12 UNL     1      24.270 -77.556  15.040  1.00  0.00     0.280 HD
ATOM      6  H11 UNL     1      22.780 -77.650  15.498  1.00  0.00     0.280 HD
BRANCH   4   7
HETATM    7  C3  UNL     1      23.400 -75.730  15.244  1.00  0.00     0.262 C 
BRANCH   7   8
HETATM    8  C2  UNL     1      24.809 -75.262  15.349  1.00  0.00    -0.010 C 
HETATM    9  C1  UNL     1      25.394 -74.548  14.400  1.00  0.00     0.008 C 
ENDBRANCH   7   8
ENDBRANCH   4   7
ENDBRANCH   3   4
BRANCH   3  10
HETATM   10  O1  UNL     1      22.346 -76.201  12.953  1.00  0.00    -0.368 OA
ATOM     11  H1  UNL     1      21.820 -76.428  12.195  1.00  0.00     0.212 HD
ENDBRANCH   3  10
ENDBRANCH   2   3
BRANCH   2  12
HETATM   12  O2  UNL     1      25.217 -78.129  13.251  1.00  0.00    -0.390 OA
ATOM     13  H2  UNL     1      25.851 -78.594  12.719  1.00  0.00     0.210 HD
ENDBRANCH   2  12
ENDBRANCH   1   2
BRANCH   1  14
HETATM   14  C7  UNL     1      25.705 -76.994  11.133  1.00  0.00     0.018 C 
BRANCH  14  15
HETATM   15  C8  UNL     1      26.200 -76.210   9.967  1.00  0.00    -0.022 C 
HETATM   16  C9  UNL     1      27.157 -77.154   9.176  1.00  0.00     0.009 C 
HETATM   17  C10 UNL     1      27.085 -75.057  10.378  1.00  0.00     0.009 C 
ENDBRANCH  14  15
ENDBRANCH   1  14
BRANCH   1  18
HETATM   18  C11 UNL     1      23.598 -78.075  10.261  1.00  0.00     0.151 C 
HETATM   19  O3  UNL     1      23.177 -77.451   9.232  1.00  0.00    -0.296 OA
BRANCH  18  20
HETATM   20  C12 UNL     1      23.365 -79.514  10.262  1.00  0.00     0.206 C 
BRANCH  20  21
HETATM   21  N2  UNL     1      24.594 -80.323  10.119  1.00  0.00    -0.359 N 
HETATM   22  C13 UNL     1      25.119 -81.053  11.088  1.00  0.00     0.091 A 
HETATM   23  C14 UNL     1      26.302 -81.762  10.959  1.00  0.00     0.018 A 
HETATM   24  C15 UNL     1      26.964 -81.705   9.769  1.00  0.00     0.019 A 
HETATM   25  C16 UNL     1      26.434 -80.947   8.732  1.00  0.00     0.044 A 
HETATM   26  C18 UNL     1      25.246 -80.270   8.945  1.00  0.00     0.107 A 
BRANCH  25  27
HETATM   27  C17 UNL     1      27.181 -80.892   7.495  1.00  0.00     0.266 C 
HETATM   28  N3  UNL     1      27.416 -82.087   6.776  1.00  0.00    -0.057 NA
HETATM   29  O4  UNL     1      27.628 -79.817   7.048  1.00  0.00    -0.271 OA
ENDBRANCH  25  27
ENDBRANCH  20  21
ENDBRANCH  18  20
ENDBRANCH   1  18
TORSDOF 13
ENDMDL
MODEL 3
REMARK VINA RESULT: -7.149246842      2.088      6.897
REMARK  13 active torsions:
REMARK  status: ('A' for Active; 'I' for Inactive)
REMARK    1  A    between atoms: C2_2  and  C3_3 
REMARK    2  A    between atoms: C3_3  and  N1_4 
REMARK    3  A    between atoms: N1_4  and  C4_7 
REMARK    4  A    between atoms: C4_7  and  O1_8 
REMARK    5  A    between atoms: C4_7  and  C5_10 
REMARK    6  A    between atoms: C5_10  and  O2_11 
REMARK    7  A    between atoms: C5_10  and  C6_13 
REMARK    8  A    between atoms: C6_13  and  C7_14 
REMARK    9  A    between atoms: C6_13  and  C11_18 
REMARK   10  A    between atoms: C7_14  and  C8_15 
REMARK   11  A    between atoms: C11_18  and  C12_20 
REMARK   12  A    between atoms: C12_20  and  N2_21 
REMARK   13  A    between atoms: C16_25  and  C17_26 
ROOT
HETATM    1  C6  UNL     1      26.185 -78.407   9.771  1.00  0.00     0.090 C 
ENDROOT
BRANCH   1   2
HETATM    2  C5  UNL     1      26.176 -79.238   8.509  1.00  0.00     0.185 C 
BRANCH   2   3
HETATM    3  C4  UNL     1      27.354 -80.073   8.202  1.00  0.00     0.348 C 
BRANCH   3   4
HETATM    4  N1  UNL     1      27.083 -81.472   8.054  1.00  0.00    -0.043 N 
ATOM      5  H12 UNL     1      27.954 -82.002   8.035  1.00  0.00     0.280 HD
ATOM      6  H11 UNL     1      26.737 -81.669   7.115  1.00  0.00     0.280 HD
BRANCH   4   7
HETATM    7  C3  UNL     1      26.188 -82.017   9.041  1.00  0.00     0.262 C 
BRANCH   7   8
HETATM    8  C2  UNL     1      26.936 -82.337  10.287  1.00  0.00    -0.010 C 
HETATM    9  C1  UNL     1      26.430 -82.135  11.493  1.00  0.00     0.008 C 
ENDBRANCH   7   8
ENDBRANCH   4   7
ENDBRANCH   3   4
BRANCH   3  10
HETATM   10  O1  UNL     1      28.079 -79.576   7.093  1.00  0.00    -0.368 OA
ATOM     11  H1  UNL     1      28.051 -80.188   6.366  1.00  0.00     0.212 HD
ENDBRANCH   3  10
ENDBRANCH   2   3
BRANCH   2  12
HETATM   12  O2  UNL     1      25.707 -78.506   7.444  1.00  0.00    -0.390 OA
ATOM     13  H2  UNL     1      25.822 -78.926   6.600  1.00  0.00     0.210 HD
ENDBRANCH   2  12
ENDBRANCH   1   2
BRANCH   1  14
HETATM   14  C7  UNL     1      26.167 -76.982   9.368  1.00  0.00     0.018 C 
BRANCH  14  15
HETATM   15  C8  UNL     1      27.195 -76.060   9.931  1.00  0.00    -0.022 C 
HETATM   16  C9  UNL     1      26.491 -75.258  11.068  1.00  0.00     0.009 C 
HETATM   17  C10 UNL     1      27.620 -74.997   8.946  1.00  0.00     0.009 C 
ENDBRANCH  14  15
ENDBRANCH   1  14
BRANCH   1  18
HETATM   18  C11 UNL     1      25.062 -78.881  10.608  1.00  0.00     0.151 C 
HETATM   19  O3  UNL     1      24.048 -79.295   9.956  1.00  0.00    -0.296 OA
BRANCH  18  20
HETATM   20  C12 UNL     1      24.942 -78.944  12.060  1.00  0.00     0.206 C 
BRANCH  20  21
HETATM   21  N2  UNL     1      24.234 -77.792  12.657  1.00  0.00    -0.359 N 
HETATM   22  C13 UNL     1      23.011 -77.419  12.323  1.00  0.00     0.091 A 
HETATM   23  C14 UNL     1      22.379 -76.303  12.849  1.00  0.00     0.018 A 
HETATM   24  C15 UNL     1      23.054 -75.549  13.762  1.00  0.00     0.019 A 
HETATM   25  C16 UNL     1      24.340 -75.920  14.133  1.00  0.00     0.044 A 
HETATM   26  C18 UNL     1      24.897 -77.050  13.560  1.00  0.00     0.107 A 
BRANCH  25  27
HETATM   27  C17 UNL     1      25.030 -75.077  15.084  1.00  0.00     0.266 C 
HETATM   28  N3  UNL     1      25.788 -73.980  14.613  1.00  0.00    -0.057 NA
HETATM   29  O4  UNL     1      24.976 -75.295  16.311  1.00  0.00    -0.271 OA
ENDBRANCH  25  27
ENDBRANCH  20  21
ENDBRANCH  18  20
ENDBRANCH   1  18
TORSDOF 13
ENDMDL
MODEL 4
REMARK VINA RESULT: -7.138924118      1.733      2.321
REMARK  13 active torsions:
REMARK  status: ('A' for Active; 'I' for Inactive)
REMARK    1  A    between atoms: C2_2  and  C3_3 
REMARK    2  A    between atoms: C3_3  and  N1_4 
REMARK    3  A    between atoms: N1_4  and  C4_7 
REMARK    4  A    between atoms: C4_7  and  O1_8 
REMARK    5  A    between atoms: C4_7  and  C5_10 
REMARK    6  A    between atoms: C5_10  and  O2_11 
REMARK    7  A    between atoms: C5_10  and  C6_13 
REMARK    8  A    between atoms: C6_13  and  C7_14 
REMARK    9  A    between atoms: C6_13  and  C11_18 
REMARK   10  A    between atoms: C7_14  and  C8_15 
REMARK   11  A    between atoms: C11_18  and  C12_20 
REMARK   12  A    between atoms: C12_20  and  N2_21 
REMARK   13  A    between atoms: C16_25  and  C17_26 
ROOT
HETATM    1  C6  UNL     1      24.727 -77.939  12.401  1.00  0.00     0.090 C 
ENDROOT
BRANCH   1   2
HETATM    2  C5  UNL     1      23.497 -77.694  13.246  1.00  0.00     0.185 C 
BRANCH   2   3
HETATM    3  C4  UNL     1      23.594 -77.872  14.707  1.00  0.00     0.348 C 
BRANCH   3   4
HETATM    4  N1  UNL     1      23.299 -76.703  15.481  1.00  0.00    -0.043 N 
ATOM      5  H12 UNL     1      22.847 -76.962  16.358  1.00  0.00     0.280 HD
ATOM      6  H11 UNL     1      22.546 -76.170  15.046  1.00  0.00     0.280 HD
BRANCH   4   7
HETATM    7  C3  UNL     1      24.432 -75.851  15.736  1.00  0.00     0.262 C 
BRANCH   7   8
HETATM    8  C2  UNL     1      24.489 -74.763  14.723  1.00  0.00    -0.010 C 
HETATM    9  C1  UNL     1      25.572 -74.027  14.529  1.00  0.00     0.008 C 
ENDBRANCH   7   8
ENDBRANCH   4   7
ENDBRANCH   3   4
BRANCH   3  10
HETATM   10  O1  UNL     1      22.838 -78.981  15.156  1.00  0.00    -0.368 OA
ATOM     11  H1  UNL     1      22.822 -79.670  14.501  1.00  0.00     0.212 HD
ENDBRANCH   3  10
ENDBRANCH   2   3
BRANCH   2  12
HETATM   12  O2  UNL     1      22.389 -78.274  12.676  1.00  0.00    -0.390 OA
ATOM     13  H2  UNL     1      22.077 -77.836  11.893  1.00  0.00     0.210 HD
ENDBRANCH   2  12
ENDBRANCH   1   2
BRANCH   1  14
HETATM   14  C7  UNL     1      24.537 -79.229  11.699  1.00  0.00     0.018 C 
BRANCH  14  15
HETATM   15  C8  UNL     1      25.737 -80.028  11.322  1.00  0.00    -0.022 C 
HETATM   16  C9  UNL     1      25.643 -80.264   9.783  1.00  0.00     0.009 C 
HETATM   17  C10 UNL     1      25.712 -81.421  11.905  1.00  0.00     0.009 C 
ENDBRANCH  14  15
ENDBRANCH   1  14
BRANCH   1  18
HETATM   18  C11 UNL     1      24.919 -76.739  11.559  1.00  0.00     0.151 C 
HETATM   19  O3  UNL     1      23.932 -76.454  10.804  1.00  0.00    -0.296 OA
BRANCH  18  20
HETATM   20  C12 UNL     1      26.062 -75.838  11.464  1.00  0.00     0.206 C 
BRANCH  20  21
HETATM   21  N2  UNL     1      26.710 -75.827  10.135  1.00  0.00    -0.359 N 
HETATM   22  C13 UNL     1      27.143 -76.908   9.511  1.00  0.00     0.091 A 
HETATM   23  C14 UNL     1      27.798 -76.879   8.291  1.00  0.00     0.018 A 
HETATM   24  C15 UNL     1      28.010 -75.669   7.700  1.00  0.00     0.019 A 
HETATM   25  C16 UNL     1      27.564 -74.516   8.333  1.00  0.00     0.044 A 
HETATM   26  C18 UNL     1      26.916 -74.634   9.551  1.00  0.00     0.107 A 
BRANCH  25  27
HETATM   27  C17 UNL     1      27.833 -73.251   7.685  1.00  0.00     0.266 C 
HETATM   28  N3  UNL     1      27.656 -73.140   6.286  1.00  0.00    -0.057 NA
HETATM   29  O4  UNL     1      28.221 -72.256   8.328  1.00  0.00    -0.271 OA
ENDBRANCH  25  27
ENDBRANCH  20  21
ENDBRANCH  18  20
ENDBRANCH   1  18
TORSDOF 13
ENDMDL
MODEL 5
REMARK VINA RESULT: -7.132348625      1.559      4.122
REMARK  13 active torsions:
REMARK  status: ('A' for Active; 'I' for Inactive)
REMARK    1  A    between atoms: C2_2  and  C3_3 
REMARK    2  A    between atoms: C3_3  and  N1_4 
REMARK    3  A    between atoms: N1_4  and  C4_7 
REMARK    4  A    between atoms: C4_7  and  O1_8 
REMARK    5  A    between atoms: C4_7  and  C5_10 
REMARK    6  A    between atoms: C5_10  and  O2_11 
REMARK    7  A    between atoms: C5_10  and  C6_13 
REMARK    8  A    between atoms: C6_13  and  C7_14 
REMARK    9  A    between atoms: C6_13  and  C11_18 
REMARK   10  A    between atoms: C7_14  and  C8_15 
REMARK   11  A    between atoms: C11_18  and  C12_20 
REMARK   12  A    between atoms: C12_20  and  N2_21 
REMARK   13  A    between atoms: C16_25  and  C17_26 
ROOT
HETATM    1  C6  UNL     1      24.233 -76.919  12.665  1.00  0.00     0.090 C 
ENDROOT
BRANCH   1   2
HETATM    2  C5  UNL     1      23.959 -78.355  12.281  1.00  0.00     0.185 C 
BRANCH   2   3
HETATM    3  C4  UNL     1      25.020 -79.122  11.600  1.00  0.00     0.348 C 
BRANCH   3   4
HETATM    4  N1  UNL     1      25.419 -80.327  12.265  1.00  0.00    -0.043 N 
ATOM      5  H12 UNL     1      24.907 -80.435  13.141  1.00  0.00     0.280 HD
ATOM      6  H11 UNL     1      26.368 -80.235  12.627  1.00  0.00     0.280 HD
BRANCH   4   7
HETATM    7  C3  UNL     1      25.302 -81.519  11.467  1.00  0.00     0.262 C 
BRANCH   7   8
HETATM    8  C2  UNL     1      26.653 -82.023  11.100  1.00  0.00    -0.010 C 
HETATM    9  C1  UNL     1      27.542 -82.400  12.004  1.00  0.00     0.008 C 
ENDBRANCH   7   8
ENDBRANCH   4   7
ENDBRANCH   3   4
BRANCH   3  10
HETATM   10  O1  UNL     1      24.705 -79.372  10.244  1.00  0.00    -0.368 OA
ATOM     11  H1  UNL     1      23.853 -79.014  10.021  1.00  0.00     0.212 HD
ENDBRANCH   3  10
ENDBRANCH   2   3
BRANCH   2  12
HETATM   12  O2  UNL     1      22.715 -78.480  11.711  1.00  0.00    -0.390 OA
ATOM     13  H2  UNL     1      21.994 -78.285  12.298  1.00  0.00     0.210 HD
ENDBRANCH   2  12
ENDBRANCH   1   2
BRANCH   1  14
HETATM   14  C7  UNL     1      24.966 -76.933  13.952  1.00  0.00     0.018 C 
BRANCH  14  15
HETATM   15  C8  UNL     1      24.580 -75.960  15.013  1.00  0.00    -0.022 C 
HETATM   16  C9  UNL     1      23.119 -75.517  14.692  1.00  0.00     0.009 C 
HETATM   17  C10 UNL     1      25.373 -74.677  14.940  1.00  0.00     0.009 C 
ENDBRANCH  14  15
ENDBRANCH   1  14
BRANCH   1  18
HETATM   18  C11 UNL     1      24.910 -76.286  11.513  1.00  0.00     0.151 C 
HETATM   19  O3  UNL     1      24.276 -76.367  10.411  1.00  0.00    -0.296 OA
BRANCH  18  20
HETATM   20  C12 UNL     1      26.189 -75.588  11.451  1.00  0.00     0.206 C 
BRANCH  20  21
HETATM   21  N2  UNL     1      26.883 -75.717  10.152  1.00  0.00    -0.359 N 
HETATM   22  C13 UNL     1      27.246 -74.693   9.400  1.00  0.00     0.091 A 
HETATM   23  C14 UNL     1      27.846 -74.829   8.158  1.00  0.00     0.018 A 
HETATM   24  C15 UNL     1      28.076 -76.086   7.685  1.00  0.00     0.019 A 
HETATM   25  C16 UNL     1      27.706 -77.181   8.456  1.00  0.00     0.044 A 
HETATM   26  C18 UNL     1      27.113 -76.957   9.686  1.00  0.00     0.107 A 
BRANCH  25  27
HETATM   27  C17 UNL     1      27.943 -78.497   7.905  1.00  0.00     0.266 C 
HETATM   28  N3  UNL     1      27.168 -79.588   8.363  1.00  0.00    -0.057 NA
HETATM   29  O4  UNL     1      28.818 -78.695   7.038  1.00  0.00    -0.271 OA
ENDBRANCH  25  27
ENDBRANCH  20  21
ENDBRANCH  18  20
ENDBRANCH   1  18
TORSDOF 13
ENDMDL
