MODEL 1
REMARK VINA RESULT: -8.339908858      0.000      0.000
REMARK  7 active torsions:
REMARK  status: ('A' for Active; 'I' for Inactive)
REMARK    1  A    between atoms: C3_3  and  C4_4 
REMARK    2  A    between atoms: C5_5  and  C6_6 
REMARK    3  A    between atoms: C6_6  and  O1_9 
REMARK    4  A    between atoms: O1_9  and  C9_10 
REMARK    5  A    between atoms: C9_10  and  C10_12 
REMARK    6  A    between atoms: C12_14  and  O3_15 
REMARK    7  A    between atoms: C16_20  and  N1_21 
ROOT
HETATM    1  C1  UNL     1      25.729   9.075  44.641  1.00  0.00     0.113 C 
HETATM    2  C2  UNL     1      24.879   8.912  43.455  1.00  0.00    -0.097 C 
HETATM    3  C3  UNL     1      24.159   8.781  42.488  1.00  0.00    -0.015 C 
ENDROOT
BRANCH   3   4
HETATM    4  C4  UNL     1      23.307   8.653  41.355  1.00  0.00    -0.012 C 
HETATM    5  C5  UNL     1      22.579   8.564  40.395  1.00  0.00    -0.054 C 
BRANCH   5   6
HETATM    6  C6  UNL     1      21.696   8.480  39.229  1.00  0.00     0.127 C 
HETATM    7  C7  UNL     1      22.369   9.022  37.985  1.00  0.00     0.061 C 
HETATM    8  C8  UNL     1      21.256   7.064  39.065  1.00  0.00     0.061 C 
BRANCH   6   9
HETATM    9  O1  UNL     1      20.575   9.289  39.485  1.00  0.00    -0.294 OA
BRANCH   9  10
HETATM   10  C9  UNL     1      19.739   9.147  40.579  1.00  0.00     0.295 C 
HETATM   11  O2  UNL     1      19.443   8.005  40.950  1.00  0.00    -0.259 OA
BRANCH  10  12
HETATM   12  C10 UNL     1      19.242  10.353  41.250  1.00  0.00     0.043 A 
HETATM   13  C11 UNL     1      18.532  11.303  40.551  1.00  0.00     0.057 A 
HETATM   14  C12 UNL     1      18.051  12.449  41.158  1.00  0.00     0.103 A 
HETATM   15  C14 UNL     1      18.275  12.671  42.501  1.00  0.00     0.121 A 
HETATM   16  O4  UNL     1      17.929  13.653  43.275  1.00  0.00    -0.316 OA
HETATM   17  C17 UNL     1      18.989  11.725  43.222  1.00  0.00     0.036 A 
HETATM   18  C15 UNL     1      18.389  13.397  44.500  1.00  0.00     0.179 A 
HETATM   19  C16 UNL     1      19.052  12.211  44.510  1.00  0.00     0.138 A 
HETATM   20  C18 UNL     1      19.462  10.583  42.592  1.00  0.00     0.034 A 
BRANCH  14  21
HETATM   21  O3  UNL     1      17.348  13.360  40.404  1.00  0.00    -0.353 OA
HETATM   22  C13 UNL     1      17.395  13.307  39.008  1.00  0.00     0.210 C 
ENDBRANCH  14  21
BRANCH  19  23
HETATM   23  N1  UNL     1      19.697  11.553  45.585  1.00  0.00    -0.113 N 
HETATM   24  O5  UNL     1      20.953  11.626  45.707  1.00  0.00    -0.532 OA
HETATM   25  O6  UNL     1      19.034  10.826  46.519  1.00  0.00    -0.532 OA
ENDBRANCH  19  23
ENDBRANCH  10  12
ENDBRANCH   9  10
ENDBRANCH   6   9
ENDBRANCH   5   6
ENDBRANCH   3   4
TORSDOF 7
ENDMDL
MODEL 2
REMARK VINA RESULT: -7.862466206      2.608      7.241
REMARK  7 active torsions:
REMARK  status: ('A' for Active; 'I' for Inactive)
REMARK    1  A    between atoms: C3_3  and  C4_4 
REMARK    2  A    between atoms: C5_5  and  C6_6 
REMARK    3  A    between atoms: C6_6  and  O1_9 
REMARK    4  A    between atoms: O1_9  and  C9_10 
REMARK    5  A    between atoms: C9_10  and  C10_12 
REMARK    6  A    between atoms: C12_14  and  O3_15 
REMARK    7  A    between atoms: C16_20  and  N1_21 
ROOT
HETATM    1  C1  UNL     1      18.431   9.886  37.583  1.00  0.00     0.113 C 
HETATM    2  C2  UNL     1      18.523  10.380  38.964  1.00  0.00    -0.097 C 
HETATM    3  C3  UNL     1      18.617  10.774  40.106  1.00  0.00    -0.015 C 
ENDROOT
BRANCH   3   4
HETATM    4  C4  UNL     1      18.750  11.249  41.441  1.00  0.00    -0.012 C 
HETATM    5  C5  UNL     1      18.883  11.656  42.571  1.00  0.00    -0.054 C 
BRANCH   5   6
HETATM    6  C6  UNL     1      19.065  12.158  43.934  1.00  0.00     0.127 C 
HETATM    7  C7  UNL     1      18.229  13.397  44.184  1.00  0.00     0.061 C 
HETATM    8  C8  UNL     1      18.751  11.060  44.894  1.00  0.00     0.061 C 
BRANCH   6   9
HETATM    9  O1  UNL     1      20.414  12.529  44.076  1.00  0.00    -0.294 OA
BRANCH   9  10
HETATM   10  C9  UNL     1      21.294  11.950  44.974  1.00  0.00     0.295 C 
HETATM   11  O2  UNL     1      21.165  12.210  46.177  1.00  0.00    -0.259 OA
BRANCH  10  12
HETATM   12  C10 UNL     1      22.340  11.056  44.464  1.00  0.00     0.043 A 
HETATM   13  C11 UNL     1      23.521  10.894  45.151  1.00  0.00     0.057 A 
HETATM   14  C12 UNL     1      24.523  10.058  44.694  1.00  0.00     0.103 A 
HETATM   15  C14 UNL     1      24.360   9.355  43.519  1.00  0.00     0.121 A 
HETATM   16  O4  UNL     1      25.144   8.526  42.902  1.00  0.00    -0.316 OA
HETATM   17  C17 UNL     1      23.176   9.506  42.812  1.00  0.00     0.036 A 
HETATM   18  C15 UNL     1      24.523   8.112  41.796  1.00  0.00     0.179 A 
HETATM   19  C16 UNL     1      23.300   8.696  41.704  1.00  0.00     0.138 A 
HETATM   20  C18 UNL     1      22.185  10.349  43.290  1.00  0.00     0.034 A 
BRANCH  14  21
HETATM   21  O3  UNL     1      25.681   9.938  45.428  1.00  0.00    -0.353 OA
HETATM   22  C13 UNL     1      26.771  10.773  45.168  1.00  0.00     0.210 C 
ENDBRANCH  14  21
BRANCH  19  23
HETATM   23  N1  UNL     1      22.309   8.548  40.704  1.00  0.00    -0.113 N 
HETATM   24  O5  UNL     1      22.589   8.792  39.496  1.00  0.00    -0.532 OA
HETATM   25  O6  UNL     1      21.039   8.148  40.967  1.00  0.00    -0.532 OA
ENDBRANCH  19  23
ENDBRANCH  10  12
ENDBRANCH   9  10
ENDBRANCH   6   9
ENDBRANCH   5   6
ENDBRANCH   3   4
TORSDOF 7
ENDMDL
MODEL 3
REMARK VINA RESULT: -7.753467486      2.622      6.468
REMARK  7 active torsions:
REMARK  status: ('A' for Active; 'I' for Inactive)
REMARK    1  A    between atoms: C3_3  and  C4_4 
REMARK    2  A    between atoms: C5_5  and  C6_6 
REMARK    3  A    between atoms: C6_6  and  O1_9 
REMARK    4  A    between atoms: O1_9  and  C9_10 
REMARK    5  A    between atoms: C9_10  and  C10_12 
REMARK    6  A    between atoms: C12_14  and  O3_15 
REMARK    7  A    between atoms: C16_20  and  N1_21 
ROOT
HETATM    1  C1  UNL     1      24.953  11.762  46.418  1.00  0.00     0.113 C 
HETATM    2  C2  UNL     1      23.486  11.829  46.381  1.00  0.00    -0.097 C 
HETATM    3  C3  UNL     1      22.276  11.899  46.336  1.00  0.00    -0.015 C 
ENDROOT
BRANCH   3   4
HETATM    4  C4  UNL     1      20.857  11.973  46.257  1.00  0.00    -0.012 C 
HETATM    5  C5  UNL     1      19.651  12.023  46.207  1.00  0.00    -0.054 C 
BRANCH   5   6
HETATM    6  C6  UNL     1      18.188  12.074  46.167  1.00  0.00     0.127 C 
HETATM    7  C7  UNL     1      17.573  11.073  47.123  1.00  0.00     0.061 C 
HETATM    8  C8  UNL     1      17.751  13.472  46.451  1.00  0.00     0.061 C 
BRANCH   6   9
HETATM    9  O1  UNL     1      17.784  11.715  44.868  1.00  0.00    -0.294 OA
BRANCH   9  10
HETATM   10  C9  UNL     1      18.372  12.186  43.707  1.00  0.00     0.295 C 
HETATM   11  O2  UNL     1      18.431  13.409  43.530  1.00  0.00    -0.259 OA
BRANCH  10  12
HETATM   12  C10 UNL     1      18.899  11.218  42.738  1.00  0.00     0.043 A 
HETATM   13  C11 UNL     1      19.771  10.231  43.138  1.00  0.00     0.057 A 
HETATM   14  C12 UNL     1      20.284   9.306  42.247  1.00  0.00     0.103 A 
HETATM   15  C14 UNL     1      19.927   9.350  40.916  1.00  0.00     0.121 A 
HETATM   16  O4  UNL     1      20.271   8.603  39.912  1.00  0.00    -0.316 OA
HETATM   17  C17 UNL     1      19.049  10.338  40.494  1.00  0.00     0.036 A 
HETATM   18  C15 UNL     1      19.649   9.059  38.824  1.00  0.00     0.179 A 
HETATM   19  C16 UNL     1      18.882  10.134  39.142  1.00  0.00     0.138 A 
HETATM   20  C18 UNL     1      18.547  11.256  41.405  1.00  0.00     0.034 A 
BRANCH  14  21
HETATM   21  O3  UNL     1      21.152   8.343  42.709  1.00  0.00    -0.353 OA
HETATM   22  C13 UNL     1      22.532   8.551  42.650  1.00  0.00     0.210 C 
ENDBRANCH  14  21
BRANCH  19  23
HETATM   23  N1  UNL     1      18.057  10.926  38.307  1.00  0.00    -0.113 N 
HETATM   24  O5  UNL     1      17.458  10.398  37.327  1.00  0.00    -0.532 OA
HETATM   25  O6  UNL     1      17.863  12.255  38.497  1.00  0.00    -0.532 OA
ENDBRANCH  19  23
ENDBRANCH  10  12
ENDBRANCH   9  10
ENDBRANCH   6   9
ENDBRANCH   5   6
ENDBRANCH   3   4
TORSDOF 7
ENDMDL
MODEL 4
REMARK VINA RESULT: -7.663832686      3.385      6.975
REMARK  7 active torsions:
REMARK  status: ('A' for Active; 'I' for Inactive)
REMARK    1  A    between atoms: C3_3  and  C4_4 
REMARK    2  A    between atoms: C5_5  and  C6_6 
REMARK    3  A    between atoms: C6_6  and  O1_9 
REMARK    4  A    between atoms: O1_9  and  C9_10 
REMARK    5  A    between atoms: C9_10  and  C10_12 
REMARK    6  A    between atoms: C12_14  and  O3_15 
REMARK    7  A    between atoms: C16_20  and  N1_21 
ROOT
HETATM    1  C1  UNL     1      19.283   7.341  51.191  1.00  0.00     0.113 C 
HETATM    2  C2  UNL     1      19.238   8.337  50.111  1.00  0.00    -0.097 C 
HETATM    3  C3  UNL     1      19.180   9.162  49.225  1.00  0.00    -0.015 C 
ENDROOT
BRANCH   3   4
HETATM    4  C4  UNL     1      19.106  10.149  48.202  1.00  0.00    -0.012 C 
HETATM    5  C5  UNL     1      19.063  10.983  47.329  1.00  0.00    -0.054 C 
BRANCH   5   6
HETATM    6  C6  UNL     1      19.031  11.985  46.262  1.00  0.00     0.127 C 
HETATM    7  C7  UNL     1      18.262  13.220  46.685  1.00  0.00     0.061 C 
HETATM    8  C8  UNL     1      20.434  12.301  45.862  1.00  0.00     0.061 C 
BRANCH   6   9
HETATM    9  O1  UNL     1      18.351  11.423  45.167  1.00  0.00    -0.294 OA
BRANCH   9  10
HETATM   10  C9  UNL     1      18.437  11.891  43.867  1.00  0.00     0.295 C 
HETATM   11  O2  UNL     1      18.030  13.034  43.624  1.00  0.00    -0.259 OA
BRANCH  10  12
HETATM   12  C10 UNL     1      19.004  11.015  42.836  1.00  0.00     0.043 A 
HETATM   13  C11 UNL     1      19.932  10.053  43.166  1.00  0.00     0.057 A 
HETATM   14  C12 UNL     1      20.483   9.214  42.216  1.00  0.00     0.103 A 
HETATM   15  C14 UNL     1      20.110   9.322  40.892  1.00  0.00     0.121 A 
HETATM   16  O4  UNL     1      20.483   8.659  39.841  1.00  0.00    -0.316 OA
HETATM   17  C17 UNL     1      19.177  10.286  40.540  1.00  0.00     0.036 A 
HETATM   18  C15 UNL     1      19.827   9.148  38.788  1.00  0.00     0.179 A 
HETATM   19  C16 UNL     1      19.007  10.158  39.179  1.00  0.00     0.138 A 
HETATM   20  C18 UNL     1      18.637  11.117  41.511  1.00  0.00     0.034 A 
BRANCH  14  21
HETATM   21  O3  UNL     1      21.405   8.271  42.609  1.00  0.00    -0.353 OA
HETATM   22  C13 UNL     1      22.759   8.604  42.700  1.00  0.00     0.210 C 
ENDBRANCH  14  21
BRANCH  19  23
HETATM   23  N1  UNL     1      18.133  10.956  38.401  1.00  0.00    -0.113 N 
HETATM   24  O5  UNL     1      18.010  12.188  38.655  1.00  0.00    -0.532 OA
HETATM   25  O6  UNL     1      17.397  10.468  37.371  1.00  0.00    -0.532 OA
ENDBRANCH  19  23
ENDBRANCH  10  12
ENDBRANCH   9  10
ENDBRANCH   6   9
ENDBRANCH   5   6
ENDBRANCH   3   4
TORSDOF 7
ENDMDL
MODEL 5
REMARK VINA RESULT: -7.652457929      2.790      7.330
REMARK  7 active torsions:
REMARK  status: ('A' for Active; 'I' for Inactive)
REMARK    1  A    between atoms: C3_3  and  C4_4 
REMARK    2  A    between atoms: C5_5  and  C6_6 
REMARK    3  A    between atoms: C6_6  and  O1_9 
REMARK    4  A    between atoms: O1_9  and  C9_10 
REMARK    5  A    between atoms: C9_10  and  C10_12 
REMARK    6  A    between atoms: C12_14  and  O3_15 
REMARK    7  A    between atoms: C16_20  and  N1_21 
ROOT
HETATM    1  C1  UNL     1      18.393  10.228  37.430  1.00  0.00     0.113 C 
HETATM    2  C2  UNL     1      18.446  10.692  38.823  1.00  0.00    -0.097 C 
HETATM    3  C3  UNL     1      18.496  11.054  39.978  1.00  0.00    -0.015 C 
ENDROOT
BRANCH   3   4
HETATM    4  C4  UNL     1      18.579  11.474  41.336  1.00  0.00    -0.012 C 
HETATM    5  C5  UNL     1      18.668  11.820  42.490  1.00  0.00    -0.054 C 
BRANCH   5   6
HETATM    6  C6  UNL     1      18.798  12.232  43.889  1.00  0.00     0.127 C 
HETATM    7  C7  UNL     1      17.939  13.443  44.193  1.00  0.00     0.061 C 
HETATM    8  C8  UNL     1      18.466  11.068  44.763  1.00  0.00     0.061 C 
BRANCH   6   9
HETATM    9  O1  UNL     1      20.137  12.605  44.101  1.00  0.00    -0.294 OA
BRANCH   9  10
HETATM   10  C9  UNL     1      20.879  12.259  45.218  1.00  0.00     0.295 C 
HETATM   11  O2  UNL     1      20.440  12.559  46.334  1.00  0.00    -0.259 OA
BRANCH  10  12
HETATM   12  C10 UNL     1      22.151  11.551  45.029  1.00  0.00     0.043 A 
HETATM   13  C11 UNL     1      23.185  11.716  45.924  1.00  0.00     0.057 A 
HETATM   14  C12 UNL     1      24.393  11.063  45.772  1.00  0.00     0.103 A 
HETATM   15  C14 UNL     1      24.596  10.216  44.702  1.00  0.00     0.121 A 
HETATM   16  O4  UNL     1      25.625   9.506  44.356  1.00  0.00    -0.316 OA
HETATM   17  C17 UNL     1      23.567  10.037  43.790  1.00  0.00     0.036 A 
HETATM   18  C15 UNL     1      25.320   8.852  43.235  1.00  0.00     0.179 A 
HETATM   19  C16 UNL     1      24.053   9.154  42.850  1.00  0.00     0.138 A 
HETATM   20  C18 UNL     1      22.363  10.703  43.963  1.00  0.00     0.034 A 
BRANCH  14  21
HETATM   21  O3  UNL     1      25.387  11.269  46.701  1.00  0.00    -0.353 OA
HETATM   22  C13 UNL     1      26.325  12.289  46.517  1.00  0.00     0.210 C 
ENDBRANCH  14  21
BRANCH  19  23
HETATM   23  N1  UNL     1      23.321   8.693  41.729  1.00  0.00    -0.113 N 
HETATM   24  O5  UNL     1      23.759   8.899  40.562  1.00  0.00    -0.532 OA
HETATM   25  O6  UNL     1      22.145   8.024  41.831  1.00  0.00    -0.532 OA
ENDBRANCH  19  23
ENDBRANCH  10  12
ENDBRANCH   9  10
ENDBRANCH   6   9
ENDBRANCH   5   6
ENDBRANCH   3   4
TORSDOF 7
ENDMDL
