MODEL 1
REMARK VINA RESULT: -7.263792310      0.000      0.000
REMARK  7 active torsions:
REMARK  status: ('A' for Active; 'I' for Inactive)
REMARK    1  A    between atoms: C3_3  and  C4_4 
REMARK    2  A    between atoms: C4_4  and  N1_5 
REMARK    3  A    between atoms: N1_5  and  C5_7 
REMARK    4  A    between atoms: C6_10  and  N3_11 
REMARK    5  A    between atoms: N3_11  and  C7_13 
REMARK    6  A    between atoms: C7_13  and  C8_14 
REMARK    7  A    between atoms: N7_24  and  C12_26 
ROOT
HETATM    1  C5  UNL     1     -13.320  15.380  23.743  1.00  0.00     0.707 A 
HETATM    2  N2  UNL     1     -12.013  15.581  23.496  1.00  0.00    -0.022 N 
ATOM      3  H2  UNL     1     -11.679  15.538  22.533  1.00  0.00     0.203 HD
HETATM    4  C6  UNL     1     -11.133  15.836  24.482  1.00  0.00     0.707 A 
HETATM    5  N6  UNL     1     -11.596  15.888  25.744  1.00  0.00    -0.021 N 
ATOM      6  H6  UNL     1     -10.944  16.081  26.504  1.00  0.00     0.203 HD
HETATM    7  C11 UNL     1     -12.901  15.693  26.030  1.00  0.00     0.707 A 
HETATM    8  N7  UNL     1     -13.298  15.750  27.236  1.00  0.00    -0.218 N 
ATOM      9  H7  UNL     1     -14.292  15.595  27.404  1.00  0.00     0.178 HD
HETATM   10  N8  UNL     1     -13.744  15.441  25.013  1.00  0.00    -0.021 N 
ATOM     11  H8  UNL     1     -14.733  15.291  25.214  1.00  0.00     0.203 HD
ENDROOT
BRANCH   1  12
HETATM   12  N1  UNL     1     -14.144  15.136  22.778  1.00  0.00    -0.219 N 
ATOM     13  H1  UNL     1     -14.151  15.747  21.961  1.00  0.00     0.178 HD
BRANCH  12  14
HETATM   14  C4  UNL     1     -15.050  14.025  22.831  1.00  0.00     0.195 C 
BRANCH  14  15
HETATM   15  C3  UNL     1     -15.035  13.318  21.509  1.00  0.00     0.029 A 
HETATM   16  C2  UNL     1     -15.871  13.788  20.519  1.00  0.00     0.044 A 
HETATM   17  C1  UNL     1     -15.859  13.134  19.295  1.00  0.00     0.091 A 
HETATM   18  N10 UNL     1     -15.058  12.075  19.079  1.00  0.00    -0.362 N 
HETATM   19  C16 UNL     1     -14.260  11.656  20.081  1.00  0.00     0.180 A 
ATOM     20  H10 UNL     1     -15.055  11.600  18.177  1.00  0.00     0.165 HD
HETATM   21  N9  UNL     1     -14.241  12.266  21.291  1.00  0.00    -0.354 N 
ATOM     22  H9  UNL     1     -13.627  11.924  22.029  1.00  0.00     0.166 HD
ENDBRANCH  14  15
ENDBRANCH  12  14
ENDBRANCH   1  12
BRANCH   4  23
HETATM   23  N3  UNL     1      -9.864  16.027  24.211  1.00  0.00    -0.218 N 
ATOM     24  H3  UNL     1      -9.247  15.239  24.016  1.00  0.00     0.178 HD
BRANCH  23  25
HETATM   25  C7  UNL     1      -9.364  17.382  24.195  1.00  0.00     0.214 C 
BRANCH  25  26
HETATM   26  C8  UNL     1      -7.939  17.316  23.749  1.00  0.00     0.099 A 
HETATM   27  N4  UNL     1      -7.453  16.417  22.899  1.00  0.00    -0.353 N 
HETATM   28  C9  UNL     1      -6.130  16.711  22.767  1.00  0.00     0.106 A 
ATOM     29  H4  UNL     1      -7.964  15.663  22.441  1.00  0.00     0.166 HD
HETATM   30  C10 UNL     1      -5.824  17.798  23.547  1.00  0.00     0.106 A 
HETATM   31  N5  UNL     1      -6.968  18.160  24.151  1.00  0.00    -0.353 N 
ATOM     32  H5  UNL     1      -7.082  18.938  24.802  1.00  0.00     0.166 HD
ENDBRANCH  25  26
ENDBRANCH  23  25
ENDBRANCH   4  23
BRANCH   8  33
HETATM   33  C12 UNL     1     -12.480  16.012  28.376  1.00  0.00     0.125 C 
HETATM   34  C13 UNL     1     -12.767  17.336  29.025  1.00  0.00     0.054 C 
HETATM   35  C14 UNL     1     -13.528  16.961  30.256  1.00  0.00     0.169 C 
HETATM   36  O1  UNL     1     -13.603  15.595  30.341  1.00  0.00    -0.389 OA
HETATM   37  C15 UNL     1     -12.673  15.029  29.503  1.00  0.00     0.193 C 
ENDBRANCH   8  33
TORSDOF 7
ENDMDL
MODEL 2
REMARK VINA RESULT: -7.028433634      2.570      7.434
REMARK  7 active torsions:
REMARK  status: ('A' for Active; 'I' for Inactive)
REMARK    1  A    between atoms: C3_3  and  C4_4 
REMARK    2  A    between atoms: C4_4  and  N1_5 
REMARK    3  A    between atoms: N1_5  and  C5_7 
REMARK    4  A    between atoms: C6_10  and  N3_11 
REMARK    5  A    between atoms: N3_11  and  C7_13 
REMARK    6  A    between atoms: C7_13  and  C8_14 
REMARK    7  A    between atoms: N7_24  and  C12_26 
ROOT
HETATM    1  C5  UNL     1     -10.796  15.996  24.462  1.00  0.00     0.707 A 
HETATM    2  N2  UNL     1     -11.293  16.256  25.685  1.00  0.00    -0.022 N 
ATOM      3  H2  UNL     1     -10.650  16.498  26.439  1.00  0.00     0.203 HD
HETATM    4  C6  UNL     1     -12.613  16.205  25.943  1.00  0.00     0.707 A 
HETATM    5  N6  UNL     1     -13.442  15.885  24.933  1.00  0.00    -0.021 N 
ATOM      6  H6  UNL     1     -14.446  15.843  25.109  1.00  0.00     0.203 HD
HETATM    7  C11 UNL     1     -12.981  15.619  23.692  1.00  0.00     0.707 A 
HETATM    8  N7  UNL     1     -13.797  15.319  22.766  1.00  0.00    -0.218 N 
ATOM      9  H7  UNL     1     -13.403  15.124  21.846  1.00  0.00     0.178 HD
HETATM   10  N8  UNL     1     -11.654  15.681  23.482  1.00  0.00    -0.021 N 
ATOM     11  H8  UNL     1     -11.291  15.482  22.549  1.00  0.00     0.203 HD
ENDROOT
BRANCH   1  12
HETATM   12  N1  UNL     1      -9.524  16.051  24.241  1.00  0.00    -0.219 N 
ATOM     13  H1  UNL     1      -9.004  15.185  24.100  1.00  0.00     0.178 HD
BRANCH  12  14
HETATM   14  C4  UNL     1      -8.828  17.304  24.191  1.00  0.00     0.195 C 
BRANCH  14  15
HETATM   15  C3  UNL     1      -7.814  17.257  23.089  1.00  0.00     0.029 A 
HETATM   16  C2  UNL     1      -6.486  17.136  23.441  1.00  0.00     0.044 A 
HETATM   17  C1  UNL     1      -5.546  17.093  22.421  1.00  0.00     0.091 A 
HETATM   18  N10 UNL     1      -5.915  17.167  21.130  1.00  0.00    -0.362 N 
HETATM   19  C16 UNL     1      -7.226  17.285  20.840  1.00  0.00     0.180 A 
ATOM     20  H10 UNL     1      -5.219  17.135  20.386  1.00  0.00     0.165 HD
HETATM   21  N9  UNL     1      -8.176  17.331  21.805  1.00  0.00    -0.354 N 
ATOM     22  H9  UNL     1      -9.160  17.421  21.553  1.00  0.00     0.166 HD
ENDBRANCH  14  15
ENDBRANCH  12  14
ENDBRANCH   1  12
BRANCH   4  23
HETATM   23  N3  UNL     1     -13.068  16.463  27.145  1.00  0.00    -0.218 N 
ATOM     24  H3  UNL     1     -14.063  16.382  27.357  1.00  0.00     0.178 HD
BRANCH  23  25
HETATM   25  C7  UNL     1     -12.125  16.866  28.163  1.00  0.00     0.214 C 
BRANCH  25  26
HETATM   26  C8  UNL     1     -12.130  15.798  29.209  1.00  0.00     0.099 A 
HETATM   27  N4  UNL     1     -11.356  15.795  30.290  1.00  0.00    -0.353 N 
HETATM   28  C9  UNL     1     -11.674  14.658  30.969  1.00  0.00     0.106 A 
ATOM     29  H4  UNL     1     -10.666  16.498  30.556  1.00  0.00     0.166 HD
HETATM   30  C10 UNL     1     -12.648  13.976  30.284  1.00  0.00     0.106 A 
HETATM   31  N5  UNL     1     -12.918  14.705  29.189  1.00  0.00    -0.353 N 
ATOM     32  H5  UNL     1     -13.601  14.473  28.467  1.00  0.00     0.166 HD
ENDBRANCH  25  26
ENDBRANCH  23  25
ENDBRANCH   4  23
BRANCH   8  33
HETATM   33  C12 UNL     1     -15.215  15.230  22.896  1.00  0.00     0.125 C 
HETATM   34  C13 UNL     1     -15.958  16.171  21.990  1.00  0.00     0.054 C 
HETATM   35  C14 UNL     1     -16.482  15.274  20.914  1.00  0.00     0.169 C 
HETATM   36  O1  UNL     1     -16.147  13.978  21.205  1.00  0.00    -0.389 OA
HETATM   37  C15 UNL     1     -15.778  13.882  22.525  1.00  0.00     0.193 C 
ENDBRANCH   8  33
TORSDOF 7
ENDMDL
MODEL 3
REMARK VINA RESULT: -6.919970789      5.848      9.265
REMARK  7 active torsions:
REMARK  status: ('A' for Active; 'I' for Inactive)
REMARK    1  A    between atoms: C3_3  and  C4_4 
REMARK    2  A    between atoms: C4_4  and  N1_5 
REMARK    3  A    between atoms: N1_5  and  C5_7 
REMARK    4  A    between atoms: C6_10  and  N3_11 
REMARK    5  A    between atoms: N3_11  and  C7_13 
REMARK    6  A    between atoms: C7_13  and  C8_14 
REMARK    7  A    between atoms: N7_24  and  C12_26 
ROOT
HETATM    1  C5  UNL     1      -4.873  17.427  22.854  1.00  0.00     0.707 A 
HETATM    2  N2  UNL     1      -4.027  17.980  21.966  1.00  0.00    -0.022 N 
ATOM      3  H2  UNL     1      -4.047  17.659  20.997  1.00  0.00     0.203 HD
HETATM    4  C6  UNL     1      -3.156  18.945  22.316  1.00  0.00     0.707 A 
HETATM    5  N6  UNL     1      -3.149  19.353  23.598  1.00  0.00    -0.021 N 
ATOM      6  H6  UNL     1      -2.497  20.084  23.883  1.00  0.00     0.203 HD
HETATM    7  C11 UNL     1      -3.984  18.822  24.518  1.00  0.00     0.707 A 
HETATM    8  N7  UNL     1      -3.944  19.235  25.719  1.00  0.00    -0.218 N 
ATOM      9  H7  UNL     1      -4.591  18.804  26.378  1.00  0.00     0.178 HD
HETATM   10  N8  UNL     1      -4.836  17.860  24.121  1.00  0.00    -0.021 N 
ATOM     11  H8  UNL     1      -5.473  17.450  24.805  1.00  0.00     0.203 HD
ENDROOT
BRANCH   1  12
HETATM   12  N1  UNL     1      -5.699  16.502  22.490  1.00  0.00    -0.219 N 
ATOM     13  H1  UNL     1      -5.525  15.538  22.773  1.00  0.00     0.178 HD
BRANCH  12  14
HETATM   14  C4  UNL     1      -6.857  16.804  21.698  1.00  0.00     0.195 C 
BRANCH  14  15
HETATM   15  C3  UNL     1      -7.958  17.272  22.600  1.00  0.00     0.029 A 
HETATM   16  C2  UNL     1      -8.564  18.475  22.306  1.00  0.00     0.044 A 
HETATM   17  C1  UNL     1      -9.584  18.910  23.140  1.00  0.00     0.091 A 
HETATM   18  N10 UNL     1      -9.970  18.184  24.203  1.00  0.00    -0.362 N 
HETATM   19  C16 UNL     1      -9.345  17.014  24.448  1.00  0.00     0.180 A 
ATOM     20  H10 UNL     1     -10.720  18.510  24.813  1.00  0.00     0.165 HD
HETATM   21  N9  UNL     1      -8.346  16.554  23.658  1.00  0.00    -0.354 N 
ATOM     22  H9  UNL     1      -7.892  15.665  23.870  1.00  0.00     0.166 HD
ENDBRANCH  14  15
ENDBRANCH  12  14
ENDBRANCH   1  12
BRANCH   4  23
HETATM   23  N3  UNL     1      -2.344  19.465  21.429  1.00  0.00    -0.218 N 
ATOM     24  H3  UNL     1      -2.692  20.102  20.712  1.00  0.00     0.178 HD
BRANCH  23  25
HETATM   25  C7  UNL     1      -0.944  19.114  21.492  1.00  0.00     0.214 C 
BRANCH  25  26
HETATM   26  C8  UNL     1      -0.524  18.741  20.107  1.00  0.00     0.099 A 
HETATM   27  N4  UNL     1       0.492  17.934  19.815  1.00  0.00    -0.353 N 
HETATM   28  C9  UNL     1       0.529  17.864  18.456  1.00  0.00     0.106 A 
ATOM     29  H4  UNL     1       1.114  17.465  20.474  1.00  0.00     0.166 HD
HETATM   30  C10 UNL     1      -0.476  18.638  17.931  1.00  0.00     0.106 A 
HETATM   31  N5  UNL     1      -1.121  19.176  18.979  1.00  0.00    -0.353 N 
ATOM     32  H5  UNL     1      -1.923  19.805  18.931  1.00  0.00     0.166 HD
ENDBRANCH  25  26
ENDBRANCH  23  25
ENDBRANCH   4  23
BRANCH   8  33
HETATM   33  C12 UNL     1      -3.077  20.247  26.229  1.00  0.00     0.125 C 
HETATM   34  C13 UNL     1      -3.718  21.108  27.280  1.00  0.00     0.054 C 
HETATM   35  C14 UNL     1      -3.104  20.616  28.552  1.00  0.00     0.169 C 
HETATM   36  O1  UNL     1      -2.177  19.650  28.261  1.00  0.00    -0.389 OA
HETATM   37  C15 UNL     1      -1.855  19.707  26.927  1.00  0.00     0.193 C 
ENDBRANCH   8  33
TORSDOF 7
ENDMDL
MODEL 4
REMARK VINA RESULT: -6.833815354      1.596      6.799
REMARK  7 active torsions:
REMARK  status: ('A' for Active; 'I' for Inactive)
REMARK    1  A    between atoms: C3_3  and  C4_4 
REMARK    2  A    between atoms: C4_4  and  N1_5 
REMARK    3  A    between atoms: N1_5  and  C5_7 
REMARK    4  A    between atoms: C6_10  and  N3_11 
REMARK    5  A    between atoms: N3_11  and  C7_13 
REMARK    6  A    between atoms: C7_13  and  C8_14 
REMARK    7  A    between atoms: N7_24  and  C12_26 
ROOT
HETATM    1  C5  UNL     1     -10.988  16.021  24.318  1.00  0.00     0.707 A 
HETATM    2  N2  UNL     1     -11.889  15.565  23.430  1.00  0.00    -0.022 N 
ATOM      3  H2  UNL     1     -11.561  15.192  22.538  1.00  0.00     0.203 HD
HETATM    4  C6  UNL     1     -13.212  15.584  23.681  1.00  0.00     0.707 A 
HETATM    5  N6  UNL     1     -13.621  16.078  24.863  1.00  0.00    -0.021 N 
ATOM      6  H6  UNL     1     -14.620  16.100  25.073  1.00  0.00     0.203 HD
HETATM    7  C11 UNL     1     -12.747  16.544  25.781  1.00  0.00     0.707 A 
HETATM    8  N7  UNL     1     -13.176  17.003  26.885  1.00  0.00    -0.218 N 
ATOM      9  H7  UNL     1     -12.479  17.346  27.546  1.00  0.00     0.178 HD
HETATM   10  N8  UNL     1     -11.436  16.505  25.485  1.00  0.00    -0.021 N 
ATOM     11  H8  UNL     1     -10.763  16.853  26.169  1.00  0.00     0.203 HD
ENDROOT
BRANCH   1  12
HETATM   12  N1  UNL     1      -9.724  15.991  24.051  1.00  0.00    -0.219 N 
ATOM     13  H1  UNL     1      -9.303  15.120  23.728  1.00  0.00     0.178 HD
BRANCH  12  14
HETATM   14  C4  UNL     1      -8.901  17.156  24.201  1.00  0.00     0.195 C 
BRANCH  14  15
HETATM   15  C3  UNL     1      -7.872  17.171  23.111  1.00  0.00     0.029 A 
HETATM   16  C2  UNL     1      -6.544  17.115  23.479  1.00  0.00     0.044 A 
HETATM   17  C1  UNL     1      -5.590  17.129  22.472  1.00  0.00     0.091 A 
HETATM   18  N10 UNL     1      -5.947  17.196  21.177  1.00  0.00    -0.362 N 
HETATM   19  C16 UNL     1      -7.258  17.250  20.871  1.00  0.00     0.180 A 
ATOM     20  H10 UNL     1      -5.240  17.207  20.442  1.00  0.00     0.165 HD
HETATM   21  N9  UNL     1      -8.221  17.238  21.823  1.00  0.00    -0.354 N 
ATOM     22  H9  UNL     1      -9.205  17.281  21.560  1.00  0.00     0.166 HD
ENDBRANCH  14  15
ENDBRANCH  12  14
ENDBRANCH   1  12
BRANCH   4  23
HETATM   23  N3  UNL     1     -14.066  15.133  22.795  1.00  0.00    -0.218 N 
ATOM     24  H3  UNL     1     -14.305  15.684  21.971  1.00  0.00     0.178 HD
BRANCH  23  25
HETATM   25  C7  UNL     1     -14.660  13.835  23.017  1.00  0.00     0.214 C 
BRANCH  25  26
HETATM   26  C8  UNL     1     -14.725  13.152  21.689  1.00  0.00     0.099 A 
HETATM   27  N4  UNL     1     -14.328  11.904  21.460  1.00  0.00    -0.353 N 
HETATM   28  C9  UNL     1     -14.557  11.681  20.136  1.00  0.00     0.106 A 
ATOM     29  H4  UNL     1     -13.933  11.249  22.135  1.00  0.00     0.166 HD
HETATM   30  C10 UNL     1     -15.097  12.808  19.570  1.00  0.00     0.106 A 
HETATM   31  N5  UNL     1     -15.193  13.714  20.557  1.00  0.00    -0.353 N 
ATOM     32  H5  UNL     1     -15.557  14.663  20.466  1.00  0.00     0.166 HD
ENDBRANCH  25  26
ENDBRANCH  23  25
ENDBRANCH   4  23
BRANCH   8  33
HETATM   33  C12 UNL     1     -14.543  17.084  27.285  1.00  0.00     0.125 C 
HETATM   34  C13 UNL     1     -14.748  16.870  28.758  1.00  0.00     0.054 C 
HETATM   35  C14 UNL     1     -15.016  18.248  29.274  1.00  0.00     0.169 C 
HETATM   36  O1  UNL     1     -15.035  19.127  28.223  1.00  0.00    -0.389 OA
HETATM   37  C15 UNL     1     -15.170  18.434  27.044  1.00  0.00     0.193 C 
ENDBRANCH   8  33
TORSDOF 7
ENDMDL
MODEL 5
REMARK VINA RESULT: -6.832382740      3.368      4.570
REMARK  7 active torsions:
REMARK  status: ('A' for Active; 'I' for Inactive)
REMARK    1  A    between atoms: C3_3  and  C4_4 
REMARK    2  A    between atoms: C4_4  and  N1_5 
REMARK    3  A    between atoms: N1_5  and  C5_7 
REMARK    4  A    between atoms: C6_10  and  N3_11 
REMARK    5  A    between atoms: N3_11  and  C7_13 
REMARK    6  A    between atoms: C7_13  and  C8_14 
REMARK    7  A    between atoms: N7_24  and  C12_26 
ROOT
HETATM    1  C5  UNL     1     -13.439  15.347  23.279  1.00  0.00     0.707 A 
HETATM    2  N2  UNL     1     -12.183  15.196  23.736  1.00  0.00    -0.022 N 
ATOM      3  H2  UNL     1     -11.915  14.310  24.166  1.00  0.00     0.203 HD
HETATM    4  C6  UNL     1     -11.268  16.179  23.644  1.00  0.00     0.707 A 
HETATM    5  N6  UNL     1     -11.642  17.338  23.072  1.00  0.00    -0.021 N 
ATOM      6  H6  UNL     1     -10.963  18.094  22.992  1.00  0.00     0.203 HD
HETATM    7  C11 UNL     1     -12.894  17.526  22.601  1.00  0.00     0.707 A 
HETATM    8  N7  UNL     1     -13.208  18.636  22.069  1.00  0.00    -0.218 N 
ATOM      9  H7  UNL     1     -14.165  18.733  21.729  1.00  0.00     0.178 HD
HETATM   10  N8  UNL     1     -13.774  16.516  22.716  1.00  0.00    -0.021 N 
ATOM     11  H8  UNL     1     -14.723  16.643  22.364  1.00  0.00     0.203 HD
ENDROOT
BRANCH   1  12
HETATM   12  N1  UNL     1     -14.298  14.387  23.381  1.00  0.00    -0.219 N 
ATOM     13  H1  UNL     1     -14.148  13.654  24.074  1.00  0.00     0.178 HD
BRANCH  12  14
HETATM   14  C4  UNL     1     -15.459  14.330  22.540  1.00  0.00     0.195 C 
BRANCH  14  15
HETATM   15  C3  UNL     1     -15.148  13.498  21.333  1.00  0.00     0.029 A 
HETATM   16  C2  UNL     1     -14.507  12.293  21.530  1.00  0.00     0.044 A 
HETATM   17  C1  UNL     1     -14.218  11.521  20.414  1.00  0.00     0.091 A 
HETATM   18  N10 UNL     1     -14.551  11.933  19.178  1.00  0.00    -0.362 N 
HETATM   19  C16 UNL     1     -15.175  13.120  19.040  1.00  0.00     0.180 A 
ATOM     20  H10 UNL     1     -14.335  11.360  18.362  1.00  0.00     0.165 HD
HETATM   21  N9  UNL     1     -15.476  13.903  20.103  1.00  0.00    -0.354 N 
ATOM     22  H9  UNL     1     -15.948  14.797  19.966  1.00  0.00     0.166 HD
ENDBRANCH  14  15
ENDBRANCH  12  14
ENDBRANCH   1  12
BRANCH   4  23
HETATM   23  N3  UNL     1     -10.051  16.003  24.098  1.00  0.00    -0.218 N 
ATOM     24  H3  UNL     1      -9.702  15.068  24.309  1.00  0.00     0.178 HD
BRANCH  23  25
HETATM   25  C7  UNL     1      -9.217  17.167  24.293  1.00  0.00     0.214 C 
BRANCH  25  26
HETATM   26  C8  UNL     1      -8.146  17.117  23.252  1.00  0.00     0.099 A 
HETATM   27  N4  UNL     1      -6.879  16.790  23.486  1.00  0.00    -0.353 N 
HETATM   28  C9  UNL     1      -6.249  16.869  22.281  1.00  0.00     0.106 A 
ATOM     29  H4  UNL     1      -6.464  16.534  24.382  1.00  0.00     0.166 HD
HETATM   30  C10 UNL     1      -7.152  17.246  21.319  1.00  0.00     0.106 A 
HETATM   31  N5  UNL     1      -8.330  17.396  21.947  1.00  0.00    -0.353 N 
ATOM     32  H5  UNL     1      -9.210  17.672  21.511  1.00  0.00     0.166 HD
ENDBRANCH  25  26
ENDBRANCH  23  25
ENDBRANCH   4  23
BRANCH   8  33
HETATM   33  C12 UNL     1     -12.344  19.760  21.903  1.00  0.00     0.125 C 
HETATM   34  C13 UNL     1     -12.103  20.121  20.465  1.00  0.00     0.054 C 
HETATM   35  C14 UNL     1     -12.941  21.345  20.271  1.00  0.00     0.169 C 
HETATM   36  O1  UNL     1     -13.527  21.684  21.462  1.00  0.00    -0.389 OA
HETATM   37  C15 UNL     1     -12.887  21.038  22.491  1.00  0.00     0.193 C 
ENDBRANCH   8  33
TORSDOF 7
ENDMDL
