MODEL 1
REMARK VINA RESULT: -7.866569804      0.000      0.000
REMARK  7 active torsions:
REMARK  status: ('A' for Active; 'I' for Inactive)
REMARK    1  A    between atoms: C10_11  and  C11_12 
REMARK    2  A    between atoms: C11_12  and  C12_13 
REMARK    3  A    between atoms: C12_13  and  O2_14 
REMARK    4  A    between atoms: C12_13  and  C13_16 
REMARK    5  A    between atoms: C15_18  and  C16_19 
REMARK    6  A    between atoms: C17_20  and  O3_21 
REMARK    7  A    between atoms: C19_24  and  O4_25 
ROOT
HETATM    1  C1  UNL     1     -28.210  10.247 -10.140  1.00  0.00     0.015 C 
HETATM    2  C2  UNL     1     -27.108  10.651 -10.676  1.00  0.00    -0.082 C 
HETATM    3  C3  UNL     1     -27.131  11.864 -11.488  1.00  0.00     0.036 C 
HETATM    4  C4  UNL     1     -26.038  12.857 -11.134  1.00  0.00     0.036 C 
HETATM    5  C5  UNL     1     -25.806  12.990  -9.670  1.00  0.00     0.126 C 
HETATM    6  O1  UNL     1     -25.842  11.753  -9.010  1.00  0.00    -0.380 OA
HETATM    7  C6  UNL     1     -25.001  10.881  -9.701  1.00  0.00     0.130 C 
HETATM    8  C7  UNL     1     -24.036  10.410  -8.687  1.00  0.00     0.033 C 
HETATM    9  C8  UNL     1     -23.068  11.619  -8.560  1.00  0.00     0.003 C 
HETATM   10  C9  UNL     1     -23.821  12.808  -8.117  1.00  0.00     0.007 C 
HETATM   11  C10 UNL     1     -24.507  13.610  -9.256  1.00  0.00     0.017 C 
HETATM   12  C15 UNL     1     -25.871   9.860 -10.386  1.00  0.00     0.052 C 
ENDROOT
BRANCH  12  13
HETATM   13  C16 UNL     1     -25.330   9.415 -11.697  1.00  0.00     0.062 C 
HETATM   14  C17 UNL     1     -25.392   7.970 -11.967  1.00  0.00     0.131 C 
HETATM   15  C18 UNL     1     -24.223   7.205 -11.325  1.00  0.00     0.106 C 
HETATM   16  C19 UNL     1     -22.959   7.851 -11.876  1.00  0.00     0.198 C 
HETATM   17  O5  UNL     1     -22.971   9.167 -11.304  1.00  0.00    -0.337 OA
HETATM   18  C23 UNL     1     -23.118   8.116 -13.293  1.00  0.00     0.043 C 
HETATM   19  C21 UNL     1     -23.922   9.881 -11.978  1.00  0.00     0.207 C 
HETATM   20  C22 UNL     1     -23.604   9.517 -13.382  1.00  0.00     0.189 C 
HETATM   21  O6  UNL     1     -23.721  10.228 -14.400  1.00  0.00    -0.290 OA
HETATM   22  C24 UNL     1     -22.942   7.372 -14.362  1.00  0.00     0.028 C 
BRANCH  14  23
HETATM   23  O3  UNL     1     -26.531   7.280 -11.690  1.00  0.00    -0.395 OA
ATOM     24  H3  UNL     1     -27.257   7.306 -12.301  1.00  0.00     0.210 HD
ENDBRANCH  14  23
BRANCH  16  25
HETATM   25  O4  UNL     1     -21.822   7.308 -11.409  1.00  0.00    -0.356 OA
HETATM   26  C20 UNL     1     -21.274   7.625 -10.234  1.00  0.00     0.206 C 
ENDBRANCH  16  25
ENDBRANCH  12  13
BRANCH  11  27
HETATM   27  C11 UNL     1     -24.718  14.946  -8.609  1.00  0.00     0.038 C 
BRANCH  27  28
HETATM   28  C12 UNL     1     -24.230  15.213  -7.256  1.00  0.00     0.118 C 
BRANCH  28  29
HETATM   29  O2  UNL     1     -23.256  16.178  -7.104  1.00  0.00    -0.396 OA
ATOM     30  H2  UNL     1     -22.394  15.895  -6.823  1.00  0.00     0.210 HD
ENDBRANCH  28  29
BRANCH  28  31
HETATM   31  C13 UNL     1     -25.433  15.761  -6.452  1.00  0.00     0.027 C 
HETATM   32  C14 UNL     1     -26.723  15.505  -7.163  1.00  0.00     0.007 C 
ENDBRANCH  28  31
ENDBRANCH  27  28
ENDBRANCH  11  27
TORSDOF 7
ENDMDL
MODEL 2
REMARK VINA RESULT: -7.800402212      0.917      1.467
REMARK  7 active torsions:
REMARK  status: ('A' for Active; 'I' for Inactive)
REMARK    1  A    between atoms: C10_11  and  C11_12 
REMARK    2  A    between atoms: C11_12  and  C12_13 
REMARK    3  A    between atoms: C12_13  and  O2_14 
REMARK    4  A    between atoms: C12_13  and  C13_16 
REMARK    5  A    between atoms: C15_18  and  C16_19 
REMARK    6  A    between atoms: C17_20  and  O3_21 
REMARK    7  A    between atoms: C19_24  and  O4_25 
ROOT
HETATM    1  C1  UNL     1     -28.174  10.279 -10.214  1.00  0.00     0.015 C 
HETATM    2  C2  UNL     1     -27.062  10.660 -10.746  1.00  0.00    -0.082 C 
HETATM    3  C3  UNL     1     -27.062  11.861 -11.577  1.00  0.00     0.036 C 
HETATM    4  C4  UNL     1     -25.961  12.845 -11.228  1.00  0.00     0.036 C 
HETATM    5  C5  UNL     1     -25.741  13.000  -9.765  1.00  0.00     0.126 C 
HETATM    6  O1  UNL     1     -25.798  11.773  -9.085  1.00  0.00    -0.380 OA
HETATM    7  C6  UNL     1     -24.961  10.880  -9.754  1.00  0.00     0.130 C 
HETATM    8  C7  UNL     1     -24.012  10.414  -8.723  1.00  0.00     0.033 C 
HETATM    9  C8  UNL     1     -23.030  11.612  -8.606  1.00  0.00     0.003 C 
HETATM   10  C9  UNL     1     -23.773  12.818  -8.189  1.00  0.00     0.007 C 
HETATM   11  C10 UNL     1     -24.438  13.610  -9.348  1.00  0.00     0.017 C 
HETATM   12  C15 UNL     1     -25.837   9.860 -10.431  1.00  0.00     0.052 C 
ENDROOT
BRANCH  12  13
HETATM   13  C16 UNL     1     -25.290   9.386 -11.730  1.00  0.00     0.062 C 
HETATM   14  C17 UNL     1     -25.372   7.939 -11.980  1.00  0.00     0.131 C 
HETATM   15  C18 UNL     1     -24.222   7.165 -11.314  1.00  0.00     0.106 C 
HETATM   16  C19 UNL     1     -22.942   7.783 -11.860  1.00  0.00     0.198 C 
HETATM   17  O5  UNL     1     -22.939   9.107 -11.307  1.00  0.00    -0.337 OA
HETATM   18  C23 UNL     1     -23.081   8.030 -13.282  1.00  0.00     0.043 C 
HETATM   19  C21 UNL     1     -23.871   9.827 -12.002  1.00  0.00     0.207 C 
HETATM   20  C22 UNL     1     -23.544   9.437 -13.397  1.00  0.00     0.189 C 
HETATM   21  O6  UNL     1     -23.639  10.135 -14.426  1.00  0.00    -0.290 OA
HETATM   22  C24 UNL     1     -22.905   7.268 -14.339  1.00  0.00     0.028 C 
BRANCH  14  23
HETATM   23  O3  UNL     1     -26.524   7.272 -11.706  1.00  0.00    -0.395 OA
ATOM     24  H3  UNL     1     -26.643   6.866 -10.855  1.00  0.00     0.210 HD
ENDBRANCH  14  23
BRANCH  16  25
HETATM   25  O4  UNL     1     -21.819   7.229 -11.373  1.00  0.00    -0.356 OA
HETATM   26  C20 UNL     1     -21.271   7.564 -10.203  1.00  0.00     0.206 C 
ENDBRANCH  16  25
ENDBRANCH  12  13
BRANCH  11  27
HETATM   27  C11 UNL     1     -24.639  14.959  -8.724  1.00  0.00     0.038 C 
BRANCH  27  28
HETATM   28  C12 UNL     1     -23.827  16.105  -9.132  1.00  0.00     0.118 C 
BRANCH  28  29
HETATM   29  O2  UNL     1     -22.589  16.257  -8.542  1.00  0.00    -0.396 OA
ATOM     30  H2  UNL     1     -22.056  15.479  -8.426  1.00  0.00     0.210 HD
ENDBRANCH  28  29
BRANCH  28  31
HETATM   31  C13 UNL     1     -23.508  15.910 -10.634  1.00  0.00     0.027 C 
HETATM   32  C14 UNL     1     -22.043  16.048 -10.900  1.00  0.00     0.007 C 
ENDBRANCH  28  31
ENDBRANCH  27  28
ENDBRANCH  11  27
TORSDOF 7
ENDMDL
MODEL 3
REMARK VINA RESULT: -7.579975362      8.359     12.373
REMARK  7 active torsions:
REMARK  status: ('A' for Active; 'I' for Inactive)
REMARK    1  A    between atoms: C10_11  and  C11_12 
REMARK    2  A    between atoms: C11_12  and  C12_13 
REMARK    3  A    between atoms: C12_13  and  O2_14 
REMARK    4  A    between atoms: C12_13  and  C13_16 
REMARK    5  A    between atoms: C15_18  and  C16_19 
REMARK    6  A    between atoms: C17_20  and  O3_21 
REMARK    7  A    between atoms: C19_24  and  O4_25 
ROOT
HETATM    1  C1  UNL     1     -17.092   8.403   0.999  1.00  0.00     0.015 C 
HETATM    2  C2  UNL     1     -17.084   8.792  -0.231  1.00  0.00    -0.082 C 
HETATM    3  C3  UNL     1     -16.007   8.329  -1.101  1.00  0.00     0.036 C 
HETATM    4  C4  UNL     1     -16.491   7.775  -2.430  1.00  0.00     0.036 C 
HETATM    5  C5  UNL     1     -17.717   6.939  -2.316  1.00  0.00     0.126 C 
HETATM    6  O1  UNL     1     -18.653   7.485  -1.424  1.00  0.00    -0.380 OA
HETATM    7  C6  UNL     1     -18.837   8.823  -1.771  1.00  0.00     0.130 C 
HETATM    8  C7  UNL     1     -20.289   8.953  -2.008  1.00  0.00     0.033 C 
HETATM    9  C8  UNL     1     -20.455   8.320  -3.417  1.00  0.00     0.003 C 
HETATM   10  C9  UNL     1     -20.009   6.913  -3.381  1.00  0.00     0.007 C 
HETATM   11  C10 UNL     1     -18.483   6.706  -3.581  1.00  0.00     0.017 C 
HETATM   12  C15 UNL     1     -18.213   9.662  -0.686  1.00  0.00     0.052 C 
ENDROOT
BRANCH  12  13
HETATM   13  C16 UNL     1     -17.607  10.921  -1.194  1.00  0.00     0.062 C 
HETATM   14  C17 UNL     1     -18.165  12.172  -0.657  1.00  0.00     0.131 C 
HETATM   15  C18 UNL     1     -19.448  12.600  -1.387  1.00  0.00     0.106 C 
HETATM   16  C19 UNL     1     -19.065  12.711  -2.857  1.00  0.00     0.198 C 
HETATM   17  O5  UNL     1     -18.789  11.356  -3.241  1.00  0.00    -0.337 OA
HETATM   18  C23 UNL     1     -17.770  13.350  -2.982  1.00  0.00     0.043 C 
HETATM   19  C21 UNL     1     -17.578  11.031  -2.699  1.00  0.00     0.207 C 
HETATM   20  C22 UNL     1     -16.784  12.239  -3.041  1.00  0.00     0.189 C 
HETATM   21  O6  UNL     1     -15.569  12.302  -3.313  1.00  0.00    -0.290 OA
HETATM   22  C24 UNL     1     -17.398  14.610  -3.016  1.00  0.00     0.028 C 
BRANCH  14  23
HETATM   23  O3  UNL     1     -18.397  12.289   0.677  1.00  0.00    -0.395 OA
ATOM     24  H3  UNL     1     -19.287  12.241   1.007  1.00  0.00     0.210 HD
ENDBRANCH  14  23
BRANCH  16  25
HETATM   25  O4  UNL     1     -20.082  13.072  -3.659  1.00  0.00    -0.356 OA
HETATM   26  C20 UNL     1     -20.287  12.562  -4.875  1.00  0.00     0.206 C 
ENDBRANCH  16  25
ENDBRANCH  12  13
BRANCH  11  27
HETATM   27  C11 UNL     1     -18.420   5.268  -4.003  1.00  0.00     0.038 C 
BRANCH  27  28
HETATM   28  C12 UNL     1     -18.790   4.864  -5.360  1.00  0.00     0.118 C 
BRANCH  28  29
HETATM   29  O2  UNL     1     -17.885   5.110  -6.372  1.00  0.00    -0.396 OA
ATOM     30  H2  UNL     1     -17.300   4.405  -6.622  1.00  0.00     0.210 HD
ENDBRANCH  28  29
BRANCH  28  31
HETATM   31  C13 UNL     1     -18.927   3.323  -5.342  1.00  0.00     0.027 C 
HETATM   32  C14 UNL     1     -18.866   2.789  -3.946  1.00  0.00     0.007 C 
ENDBRANCH  28  31
ENDBRANCH  27  28
ENDBRANCH  11  27
TORSDOF 7
ENDMDL
MODEL 4
REMARK VINA RESULT: -7.512490145      8.244     10.877
REMARK  7 active torsions:
REMARK  status: ('A' for Active; 'I' for Inactive)
REMARK    1  A    between atoms: C10_11  and  C11_12 
REMARK    2  A    between atoms: C11_12  and  C12_13 
REMARK    3  A    between atoms: C12_13  and  O2_14 
REMARK    4  A    between atoms: C12_13  and  C13_16 
REMARK    5  A    between atoms: C15_18  and  C16_19 
REMARK    6  A    between atoms: C17_20  and  O3_21 
REMARK    7  A    between atoms: C19_24  and  O4_25 
ROOT
HETATM    1  C1  UNL     1     -21.202   7.267  -1.894  1.00  0.00     0.015 C 
HETATM    2  C2  UNL     1     -20.171   7.753  -2.500  1.00  0.00    -0.082 C 
HETATM    3  C3  UNL     1     -19.734   7.127  -3.744  1.00  0.00     0.036 C 
HETATM    4  C4  UNL     1     -19.490   8.114  -4.871  1.00  0.00     0.036 C 
HETATM    5  C5  UNL     1     -20.507   9.198  -4.945  1.00  0.00     0.126 C 
HETATM    6  O1  UNL     1     -20.858   9.686  -3.677  1.00  0.00    -0.380 OA
HETATM    7  C6  UNL     1     -19.678   9.979  -2.995  1.00  0.00     0.130 C 
HETATM    8  C7  UNL     1     -19.807  11.401  -2.617  1.00  0.00     0.033 C 
HETATM    9  C8  UNL     1     -19.494  12.132  -3.952  1.00  0.00     0.003 C 
HETATM   10  C9  UNL     1     -20.476  11.725  -4.977  1.00  0.00     0.007 C 
HETATM   11  C10 UNL     1     -20.127  10.414  -5.733  1.00  0.00     0.017 C 
HETATM   12  C15 UNL     1     -19.524   8.960  -1.897  1.00  0.00     0.052 C 
ENDROOT
BRANCH  12  13
HETATM   13  C16 UNL     1     -18.108   8.597  -1.627  1.00  0.00     0.062 C 
HETATM   14  C17 UNL     1     -17.740   8.426  -0.213  1.00  0.00     0.131 C 
HETATM   15  C18 UNL     1     -17.435   9.765   0.477  1.00  0.00     0.106 C 
HETATM   16  C19 UNL     1     -16.325  10.407  -0.345  1.00  0.00     0.198 C 
HETATM   17  O5  UNL     1     -16.958  10.708  -1.597  1.00  0.00    -0.337 OA
HETATM   18  C23 UNL     1     -15.343   9.406  -0.715  1.00  0.00     0.043 C 
HETATM   19  C21 UNL     1     -17.099   9.524  -2.263  1.00  0.00     0.207 C 
HETATM   20  C22 UNL     1     -15.755   8.925  -2.059  1.00  0.00     0.189 C 
HETATM   21  O6  UNL     1     -15.122   8.187  -2.840  1.00  0.00    -0.290 OA
HETATM   22  C24 UNL     1     -14.297   8.911  -0.091  1.00  0.00     0.028 C 
BRANCH  14  23
HETATM   23  O3  UNL     1     -18.552   7.717   0.614  1.00  0.00    -0.395 OA
ATOM     24  H3  UNL     1     -18.824   6.840   0.371  1.00  0.00     0.210 HD
ENDBRANCH  14  23
BRANCH  16  25
HETATM   25  O4  UNL     1     -15.932  11.607   0.114  1.00  0.00    -0.356 OA
HETATM   26  C20 UNL     1     -16.773  12.576   0.481  1.00  0.00     0.206 C 
ENDBRANCH  16  25
ENDBRANCH  12  13
BRANCH  11  27
HETATM   27  C11 UNL     1     -20.958  10.544  -6.975  1.00  0.00     0.038 C 
BRANCH  27  28
HETATM   28  C12 UNL     1     -22.242  11.245  -6.952  1.00  0.00     0.118 C 
BRANCH  28  29
HETATM   29  O2  UNL     1     -22.250  12.581  -7.294  1.00  0.00    -0.396 OA
ATOM     30  H2  UNL     1     -22.752  13.174  -6.747  1.00  0.00     0.210 HD
ENDBRANCH  28  29
BRANCH  28  31
HETATM   31  C13 UNL     1     -23.131  10.574  -8.026  1.00  0.00     0.027 C 
HETATM   32  C14 UNL     1     -23.900  11.591  -8.806  1.00  0.00     0.007 C 
ENDBRANCH  28  31
ENDBRANCH  27  28
ENDBRANCH  11  27
TORSDOF 7
ENDMDL
MODEL 5
REMARK VINA RESULT: -7.235066127      8.820     11.183
REMARK  7 active torsions:
REMARK  status: ('A' for Active; 'I' for Inactive)
REMARK    1  A    between atoms: C10_11  and  C11_12 
REMARK    2  A    between atoms: C11_12  and  C12_13 
REMARK    3  A    between atoms: C12_13  and  O2_14 
REMARK    4  A    between atoms: C12_13  and  C13_16 
REMARK    5  A    between atoms: C15_18  and  C16_19 
REMARK    6  A    between atoms: C17_20  and  O3_21 
REMARK    7  A    between atoms: C19_24  and  O4_25 
ROOT
HETATM    1  C1  UNL     1     -15.269   7.572  -1.201  1.00  0.00     0.015 C 
HETATM    2  C2  UNL     1     -16.494   7.968  -1.106  1.00  0.00    -0.082 C 
HETATM    3  C3  UNL     1     -17.024   8.282   0.217  1.00  0.00     0.036 C 
HETATM    4  C4  UNL     1     -17.742   9.618   0.286  1.00  0.00     0.036 C 
HETATM    5  C5  UNL     1     -17.063  10.700  -0.478  1.00  0.00     0.126 C 
HETATM    6  O1  UNL     1     -16.574  10.253  -1.715  1.00  0.00    -0.380 OA
HETATM    7  C6  UNL     1     -17.613   9.585  -2.363  1.00  0.00     0.130 C 
HETATM    8  C7  UNL     1     -17.756  10.282  -3.657  1.00  0.00     0.033 C 
HETATM    9  C8  UNL     1     -18.521  11.574  -3.257  1.00  0.00     0.003 C 
HETATM   10  C9  UNL     1     -17.718  12.341  -2.285  1.00  0.00     0.007 C 
HETATM   11  C10 UNL     1     -17.891  11.905  -0.805  1.00  0.00     0.017 C 
HETATM   12  C15 UNL     1     -17.269   8.119  -2.377  1.00  0.00     0.052 C 
ENDROOT
BRANCH  12  13
HETATM   13  C16 UNL     1     -18.460   7.236  -2.259  1.00  0.00     0.062 C 
HETATM   14  C17 UNL     1     -18.276   5.839  -2.683  1.00  0.00     0.131 C 
HETATM   15  C18 UNL     1     -18.411   5.668  -4.205  1.00  0.00     0.106 C 
HETATM   16  C19 UNL     1     -19.788   6.213  -4.558  1.00  0.00     0.198 C 
HETATM   17  O5  UNL     1     -19.677   7.619  -4.297  1.00  0.00    -0.337 OA
HETATM   18  C23 UNL     1     -20.758   5.779  -3.571  1.00  0.00     0.043 C 
HETATM   19  C21 UNL     1     -19.697   7.771  -2.939  1.00  0.00     0.207 C 
HETATM   20  C22 UNL     1     -20.826   6.878  -2.574  1.00  0.00     0.189 C 
HETATM   21  O6  UNL     1     -21.642   7.022  -1.641  1.00  0.00    -0.290 OA
HETATM   22  C24 UNL     1     -21.466   4.679  -3.443  1.00  0.00     0.028 C 
BRANCH  14  23
HETATM   23  O3  UNL     1     -17.168   5.156  -2.293  1.00  0.00    -0.395 OA
ATOM     24  H3  UNL     1     -16.834   4.451  -2.834  1.00  0.00     0.210 HD
ENDBRANCH  14  23
BRANCH  16  25
HETATM   25  O4  UNL     1     -20.078   6.151  -5.869  1.00  0.00    -0.356 OA
HETATM   26  C20 UNL     1     -19.463   6.881  -6.802  1.00  0.00     0.206 C 
ENDBRANCH  16  25
ENDBRANCH  12  13
BRANCH  11  27
HETATM   27  C11 UNL     1     -17.408  13.118  -0.067  1.00  0.00     0.038 C 
BRANCH  27  28
HETATM   28  C12 UNL     1     -17.978  14.439  -0.336  1.00  0.00     0.118 C 
BRANCH  28  29
HETATM   29  O2  UNL     1     -18.855  14.960   0.593  1.00  0.00    -0.396 OA
ATOM     30  H2  UNL     1     -18.624  15.786   1.003  1.00  0.00     0.210 HD
ENDBRANCH  28  29
BRANCH  28  31
HETATM   31  C13 UNL     1     -16.797  15.438  -0.343  1.00  0.00     0.027 C 
HETATM   32  C14 UNL     1     -15.502  14.749  -0.056  1.00  0.00     0.007 C 
ENDBRANCH  28  31
ENDBRANCH  27  28
ENDBRANCH  11  27
TORSDOF 7
ENDMDL
