MODEL 1
REMARK VINA RESULT: -7.575027617      0.000      0.000
REMARK  10 active torsions:
REMARK  status: ('A' for Active; 'I' for Inactive)
REMARK    1  A    between atoms: O1_2  and  C2_3 
REMARK    2  A    between atoms: C4_5  and  O2_6 
REMARK    3  A    between atoms: C7_10  and  C8_11 
REMARK    4  A    between atoms: C9_12  and  C10_13 
REMARK    5  A    between atoms: C10_13  and  O3_14 
REMARK    6  A    between atoms: C10_13  and  N1_16 
REMARK    7  A    between atoms: N1_16  and  C11_18 
REMARK    8  A    between atoms: C11_18  and  C12_19 
REMARK    9  A    between atoms: C12_19  and  O4_21 
REMARK   10  A    between atoms: C18_32  and  C19_33 
ROOT
HETATM    1  C8  UNL     1      43.005  21.560  24.327  1.00  0.00     0.018 A 
HETATM    2  C9  UNL     1      42.657  20.198  24.403  1.00  0.00     0.070 A 
HETATM    3  N2  UNL     1      41.660  19.821  25.223  1.00  0.00    -0.363 N 
ATOM      4  H2  UNL     1      41.427  18.829  25.265  1.00  0.00     0.165 HD
HETATM    5  C14 UNL     1      40.975  20.637  25.967  1.00  0.00     0.118 A 
HETATM    6  C15 UNL     1      41.263  21.982  25.944  1.00  0.00     0.059 A 
HETATM    7  N3  UNL     1      40.485  22.810  26.680  1.00  0.00    -0.361 N 
ATOM      8  H3  UNL     1      39.747  22.411  27.259  1.00  0.00     0.165 HD
HETATM    9  C16 UNL     1      40.656  24.123  26.667  1.00  0.00     0.131 A 
HETATM   10  C17 UNL     1      41.668  24.612  25.883  1.00  0.00     0.139 A 
HETATM   11  F2  UNL     1      41.827  25.929  25.858  1.00  0.00    -0.204 F 
HETATM   12  C18 UNL     1      42.515  23.813  25.102  1.00  0.00    -0.000 A 
HETATM   13  C24 UNL     1      42.315  22.451  25.104  1.00  0.00     0.015 A 
ENDROOT
BRANCH   1  14
HETATM   14  C7  UNL     1      43.842  21.929  23.223  1.00  0.00     0.021 A 
HETATM   15  C6  UNL     1      43.190  22.040  21.999  1.00  0.00     0.161 A 
HETATM   16  C4  UNL     1      43.846  22.271  20.777  1.00  0.00     0.110 A 
HETATM   17  F1  UNL     1      41.830  21.889  21.882  1.00  0.00    -0.202 F 
HETATM   18  C3  UNL     1      45.220  22.389  20.832  1.00  0.00     0.076 A 
HETATM   19  C2  UNL     1      45.901  22.284  22.013  1.00  0.00     0.071 A 
HETATM   20  C25 UNL     1      45.194  22.058  23.171  1.00  0.00     0.052 A 
BRANCH  16  21
HETATM   21  O2  UNL     1      43.160  22.369  19.634  1.00  0.00    -0.353 OA
HETATM   22  C5  UNL     1      42.761  23.202  18.674  1.00  0.00     0.210 C 
ENDBRANCH  16  21
BRANCH  19  23
HETATM   23  O1  UNL     1      47.279  22.402  22.057  1.00  0.00    -0.356 OA
HETATM   24  C1  UNL     1      48.018  23.345  22.777  1.00  0.00     0.210 C 
ENDBRANCH  19  23
ENDBRANCH   1  14
BRANCH   2  25
HETATM   25  C10 UNL     1      43.316  19.176  23.605  1.00  0.00     0.269 C 
BRANCH  25  26
HETATM   26  O3  UNL     1      42.632  17.932  23.531  1.00  0.00    -0.371 OA
ATOM     27  H3  UNL     1      42.008  17.855  22.818  1.00  0.00     0.212 HD
ENDBRANCH  25  26
BRANCH  25  28
HETATM   28  N1  UNL     1      44.583  18.830  24.099  1.00  0.00    -0.369 N 
ATOM     29  H1  UNL     1      45.386  19.252  23.631  1.00  0.00     0.161 HD
BRANCH  28  30
HETATM   30  C11 UNL     1      44.858  17.983  25.145  1.00  0.00     0.089 C 
BRANCH  30  31
HETATM   31  C12 UNL     1      45.827  16.881  24.788  1.00  0.00     0.152 C 
HETATM   32  C13 UNL     1      46.376  16.245  26.038  1.00  0.00     0.045 C 
BRANCH  31  33
HETATM   33  O4  UNL     1      46.877  17.379  24.047  1.00  0.00    -0.391 OA
ATOM     34  H4  UNL     1      47.393  16.671  23.679  1.00  0.00     0.210 HD
ENDBRANCH  31  33
ENDBRANCH  30  31
ENDBRANCH  28  30
ENDBRANCH  25  28
ENDBRANCH   2  25
BRANCH  12  35
HETATM   35  C19 UNL     1      43.647  24.441  24.482  1.00  0.00     0.026 C 
HETATM   36  C20 UNL     1      44.545  24.469  25.851  1.00  0.00     0.028 C 
HETATM   37  C21 UNL     1      45.902  25.005  25.540  1.00  0.00     0.114 C 
HETATM   38  N4  UNL     1      45.968  26.162  24.715  1.00  0.00    -0.421 N 
HETATM   39  C22 UNL     1      45.068  26.152  23.573  1.00  0.00     0.114 C 
ATOM     40  H4  UNL     1      46.599  26.940  24.910  1.00  0.00     0.153 HD
HETATM   41  C23 UNL     1      43.652  25.923  24.218  1.00  0.00     0.028 C 
ENDBRANCH  12  35
TORSDOF 10
ENDMDL
MODEL 2
REMARK VINA RESULT: -7.541398843      2.734      4.945
REMARK  10 active torsions:
REMARK  status: ('A' for Active; 'I' for Inactive)
REMARK    1  A    between atoms: O1_2  and  C2_3 
REMARK    2  A    between atoms: C4_5  and  O2_6 
REMARK    3  A    between atoms: C7_10  and  C8_11 
REMARK    4  A    between atoms: C9_12  and  C10_13 
REMARK    5  A    between atoms: C10_13  and  O3_14 
REMARK    6  A    between atoms: C10_13  and  N1_16 
REMARK    7  A    between atoms: N1_16  and  C11_18 
REMARK    8  A    between atoms: C11_18  and  C12_19 
REMARK    9  A    between atoms: C12_19  and  O4_21 
REMARK   10  A    between atoms: C18_32  and  C19_33 
ROOT
HETATM    1  C8  UNL     1      41.408  22.558  25.105  1.00  0.00     0.018 A 
HETATM    2  C9  UNL     1      40.307  22.393  25.967  1.00  0.00     0.070 A 
HETATM    3  N2  UNL     1      39.480  23.432  26.180  1.00  0.00    -0.363 N 
ATOM      4  H2  UNL     1      38.691  23.291  26.810  1.00  0.00     0.165 HD
HETATM    5  C14 UNL     1      39.620  24.604  25.635  1.00  0.00     0.118 A 
HETATM    6  C15 UNL     1      40.675  24.835  24.784  1.00  0.00     0.059 A 
HETATM    7  N3  UNL     1      40.751  26.046  24.182  1.00  0.00    -0.361 N 
ATOM      8  H3  UNL     1      40.058  26.758  24.412  1.00  0.00     0.165 HD
HETATM    9  C16 UNL     1      41.700  26.331  23.304  1.00  0.00     0.131 A 
HETATM   10  C17 UNL     1      42.616  25.347  23.036  1.00  0.00     0.139 A 
HETATM   11  F2  UNL     1      43.556  25.629  22.142  1.00  0.00    -0.204 F 
HETATM   12  C18 UNL     1      42.602  24.076  23.626  1.00  0.00    -0.000 A 
HETATM   13  C24 UNL     1      41.598  23.781  24.521  1.00  0.00     0.015 A 
ENDROOT
BRANCH   1  14
HETATM   14  C7  UNL     1      42.055  21.351  24.681  1.00  0.00     0.021 A 
HETATM   15  C6  UNL     1      41.449  20.701  23.611  1.00  0.00     0.161 A 
HETATM   16  C4  UNL     1      41.852  19.445  23.123  1.00  0.00     0.110 A 
HETATM   17  F1  UNL     1      40.362  21.230  22.959  1.00  0.00    -0.202 F 
HETATM   18  C3  UNL     1      42.916  18.850  23.771  1.00  0.00     0.076 A 
HETATM   19  C2  UNL     1      43.538  19.451  24.828  1.00  0.00     0.071 A 
HETATM   20  C25 UNL     1      43.091  20.681  25.253  1.00  0.00     0.052 A 
BRANCH  16  21
HETATM   21  O2  UNL     1      41.228  18.876  22.087  1.00  0.00    -0.353 OA
HETATM   22  C5  UNL     1      40.449  17.864  21.711  1.00  0.00     0.210 C 
ENDBRANCH  16  21
BRANCH  19  23
HETATM   23  O1  UNL     1      44.602  18.844  25.472  1.00  0.00    -0.356 OA
HETATM   24  C1  UNL     1      45.226  17.646  25.112  1.00  0.00     0.210 C 
ENDBRANCH  19  23
ENDBRANCH   1  14
BRANCH   2  25
HETATM   25  C10 UNL     1      40.009  21.130  26.622  1.00  0.00     0.269 C 
BRANCH  25  26
HETATM   26  O3  UNL     1      38.627  20.805  26.710  1.00  0.00    -0.371 OA
ATOM     27  H3  UNL     1      38.280  20.313  25.975  1.00  0.00     0.212 HD
ENDBRANCH  25  26
BRANCH  25  28
HETATM   28  N1  UNL     1      40.445  21.088  27.955  1.00  0.00    -0.369 N 
ATOM     29  H1  UNL     1      40.138  20.289  28.511  1.00  0.00     0.161 HD
BRANCH  28  30
HETATM   30  C11 UNL     1      41.242  22.009  28.591  1.00  0.00     0.089 C 
BRANCH  30  31
HETATM   31  C12 UNL     1      40.579  22.655  29.785  1.00  0.00     0.152 C 
HETATM   32  C13 UNL     1      40.273  24.101  29.490  1.00  0.00     0.045 C 
BRANCH  31  33
HETATM   33  O4  UNL     1      41.399  22.592  30.889  1.00  0.00    -0.391 OA
ATOM     34  H4  UNL     1      40.897  22.713  31.687  1.00  0.00     0.210 HD
ENDBRANCH  31  33
ENDBRANCH  30  31
ENDBRANCH  28  30
ENDBRANCH  25  28
ENDBRANCH   2  25
BRANCH  12  35
HETATM   35  C19 UNL     1      43.728  23.216  23.396  1.00  0.00     0.026 C 
HETATM   36  C20 UNL     1      44.804  24.217  24.117  1.00  0.00     0.028 C 
HETATM   37  C21 UNL     1      46.145  23.562  24.144  1.00  0.00     0.114 C 
HETATM   38  N4  UNL     1      46.577  22.922  22.950  1.00  0.00    -0.421 N 
HETATM   39  C22 UNL     1      45.558  22.137  22.273  1.00  0.00     0.114 C 
ATOM     40  H4  UNL     1      47.530  23.007  22.596  1.00  0.00     0.153 HD
HETATM   41  C23 UNL     1      44.389  23.165  22.044  1.00  0.00     0.028 C 
ENDBRANCH  12  35
TORSDOF 10
ENDMDL
MODEL 3
REMARK VINA RESULT: -7.499224909      2.924      5.487
REMARK  10 active torsions:
REMARK  status: ('A' for Active; 'I' for Inactive)
REMARK    1  A    between atoms: O1_2  and  C2_3 
REMARK    2  A    between atoms: C4_5  and  O2_6 
REMARK    3  A    between atoms: C7_10  and  C8_11 
REMARK    4  A    between atoms: C9_12  and  C10_13 
REMARK    5  A    between atoms: C10_13  and  O3_14 
REMARK    6  A    between atoms: C10_13  and  N1_16 
REMARK    7  A    between atoms: N1_16  and  C11_18 
REMARK    8  A    between atoms: C11_18  and  C12_19 
REMARK    9  A    between atoms: C12_19  and  O4_21 
REMARK   10  A    between atoms: C18_32  and  C19_33 
ROOT
HETATM    1  C8  UNL     1      40.707  22.523  24.722  1.00  0.00     0.018 A 
HETATM    2  C9  UNL     1      39.812  22.466  25.808  1.00  0.00     0.070 A 
HETATM    3  N2  UNL     1      39.329  23.612  26.319  1.00  0.00    -0.363 N 
ATOM      4  H2  UNL     1      38.685  23.547  27.107  1.00  0.00     0.165 HD
HETATM    5  C14 UNL     1      39.629  24.796  25.876  1.00  0.00     0.118 A 
HETATM    6  C15 UNL     1      40.499  24.925  24.819  1.00  0.00     0.059 A 
HETATM    7  N3  UNL     1      40.735  26.170  24.340  1.00  0.00    -0.361 N 
ATOM      8  H3  UNL     1      40.303  26.969  24.803  1.00  0.00     0.165 HD
HETATM    9  C16 UNL     1      41.512  26.378  23.288  1.00  0.00     0.131 A 
HETATM   10  C17 UNL     1      42.080  25.274  22.706  1.00  0.00     0.139 A 
HETATM   11  F2  UNL     1      42.845  25.483  21.641  1.00  0.00    -0.204 F 
HETATM   12  C18 UNL     1      41.885  23.960  23.152  1.00  0.00    -0.000 A 
HETATM   13  C24 UNL     1      41.058  23.752  24.233  1.00  0.00     0.015 A 
ENDROOT
BRANCH   1  14
HETATM   14  C7  UNL     1      40.932  21.285  24.034  1.00  0.00     0.021 A 
HETATM   15  C6  UNL     1      42.134  20.653  24.334  1.00  0.00     0.161 A 
HETATM   16  C4  UNL     1      42.601  19.498  23.681  1.00  0.00     0.110 A 
HETATM   17  F1  UNL     1      42.996  21.142  25.286  1.00  0.00    -0.202 F 
HETATM   18  C3  UNL     1      41.791  18.989  22.686  1.00  0.00     0.076 A 
HETATM   19  C2  UNL     1      40.604  19.580  22.356  1.00  0.00     0.071 A 
HETATM   20  C25 UNL     1      40.209  20.709  23.038  1.00  0.00     0.052 A 
BRANCH  16  21
HETATM   21  O2  UNL     1      43.766  18.938  24.020  1.00  0.00    -0.353 OA
HETATM   22  C5  UNL     1      44.379  18.162  24.912  1.00  0.00     0.210 C 
ENDBRANCH  16  21
BRANCH  19  23
HETATM   23  O1  UNL     1      39.801  19.062  21.355  1.00  0.00    -0.356 OA
HETATM   24  C1  UNL     1      39.525  17.713  21.115  1.00  0.00     0.210 C 
ENDBRANCH  19  23
ENDBRANCH   1  14
BRANCH   2  25
HETATM   25  C10 UNL     1      39.364  21.210  26.387  1.00  0.00     0.269 C 
BRANCH  25  26
HETATM   26  O3  UNL     1      38.024  21.207  26.864  1.00  0.00    -0.371 OA
ATOM     27  H3  UNL     1      37.736  20.391  27.255  1.00  0.00     0.212 HD
ENDBRANCH  25  26
BRANCH  25  28
HETATM   28  N1  UNL     1      40.116  20.825  27.507  1.00  0.00    -0.369 N 
ATOM     29  H1  UNL     1      39.876  19.928  27.932  1.00  0.00     0.161 HD
BRANCH  28  30
HETATM   30  C11 UNL     1      41.141  21.527  28.094  1.00  0.00     0.089 C 
BRANCH  30  31
HETATM   31  C12 UNL     1      40.813  22.022  29.482  1.00  0.00     0.152 C 
HETATM   32  C13 UNL     1      40.520  23.500  29.452  1.00  0.00     0.045 C 
BRANCH  31  33
HETATM   33  O4  UNL     1      41.868  21.798  30.339  1.00  0.00    -0.391 OA
ATOM     34  H4  UNL     1      41.555  21.662  31.226  1.00  0.00     0.210 HD
ENDBRANCH  31  33
ENDBRANCH  30  31
ENDBRANCH  28  30
ENDBRANCH  25  28
ENDBRANCH   2  25
BRANCH  12  35
HETATM   35  C19 UNL     1      42.690  22.925  22.568  1.00  0.00     0.026 C 
HETATM   36  C20 UNL     1      44.080  23.430  23.273  1.00  0.00     0.028 C 
HETATM   37  C21 UNL     1      45.177  22.475  22.939  1.00  0.00     0.114 C 
HETATM   38  N4  UNL     1      45.272  22.045  21.587  1.00  0.00    -0.421 N 
HETATM   39  C22 UNL     1      44.003  21.719  20.957  1.00  0.00     0.114 C 
ATOM     40  H4  UNL     1      46.163  21.970  21.096  1.00  0.00     0.153 HD
HETATM   41  C23 UNL     1      43.151  23.029  21.139  1.00  0.00     0.028 C 
ENDBRANCH  12  35
TORSDOF 10
ENDMDL
MODEL 4
REMARK VINA RESULT: -7.355490081      2.926      5.154
REMARK  10 active torsions:
REMARK  status: ('A' for Active; 'I' for Inactive)
REMARK    1  A    between atoms: O1_2  and  C2_3 
REMARK    2  A    between atoms: C4_5  and  O2_6 
REMARK    3  A    between atoms: C7_10  and  C8_11 
REMARK    4  A    between atoms: C9_12  and  C10_13 
REMARK    5  A    between atoms: C10_13  and  O3_14 
REMARK    6  A    between atoms: C10_13  and  N1_16 
REMARK    7  A    between atoms: N1_16  and  C11_18 
REMARK    8  A    between atoms: C11_18  and  C12_19 
REMARK    9  A    between atoms: C12_19  and  O4_21 
REMARK   10  A    between atoms: C18_32  and  C19_33 
ROOT
HETATM    1  C8  UNL     1      41.173  22.497  24.215  1.00  0.00     0.018 A 
HETATM    2  C9  UNL     1      40.441  22.401  25.414  1.00  0.00     0.070 A 
HETATM    3  N2  UNL     1      39.613  23.402  25.758  1.00  0.00    -0.363 N 
ATOM      4  H2  UNL     1      39.095  23.312  26.632  1.00  0.00     0.165 HD
HETATM    5  C14 UNL     1      39.428  24.477  25.051  1.00  0.00     0.118 A 
HETATM    6  C15 UNL     1      40.112  24.637  23.869  1.00  0.00     0.059 A 
HETATM    7  N3  UNL     1      39.843  25.736  23.125  1.00  0.00    -0.361 N 
ATOM      8  H3  UNL     1      39.184  26.428  23.483  1.00  0.00     0.165 HD
HETATM    9  C16 UNL     1      40.412  25.938  21.947  1.00  0.00     0.131 A 
HETATM   10  C17 UNL     1      41.300  24.988  21.513  1.00  0.00     0.139 A 
HETATM   11  F2  UNL     1      41.856  25.184  20.324  1.00  0.00    -0.204 F 
HETATM   12  C18 UNL     1      41.630  23.831  22.233  1.00  0.00    -0.000 A 
HETATM   13  C24 UNL     1      41.015  23.619  23.447  1.00  0.00     0.015 A 
ENDROOT
BRANCH   1  14
HETATM   14  C7  UNL     1      41.783  21.283  23.757  1.00  0.00     0.021 A 
HETATM   15  C6  UNL     1      40.977  20.483  22.955  1.00  0.00     0.161 A 
HETATM   16  C4  UNL     1      41.340  19.201  22.505  1.00  0.00     0.110 A 
HETATM   17  F1  UNL     1      39.719  20.876  22.564  1.00  0.00    -0.202 F 
HETATM   18  C3  UNL     1      42.578  18.740  22.904  1.00  0.00     0.076 A 
HETATM   19  C2  UNL     1      43.401  19.492  23.695  1.00  0.00     0.071 A 
HETATM   20  C25 UNL     1      42.981  20.739  24.098  1.00  0.00     0.052 A 
BRANCH  16  21
HETATM   21  O2  UNL     1      40.518  18.483  21.732  1.00  0.00    -0.353 OA
HETATM   22  C5  UNL     1      39.536  17.585  21.732  1.00  0.00     0.210 C 
ENDBRANCH  16  21
BRANCH  19  23
HETATM   23  O1  UNL     1      44.640  19.019  24.091  1.00  0.00    -0.356 OA
HETATM   24  C1  UNL     1      44.902  17.837  24.789  1.00  0.00     0.210 C 
ENDBRANCH  19  23
ENDBRANCH   1  14
BRANCH   2  25
HETATM   25  C10 UNL     1      40.524  21.243  26.290  1.00  0.00     0.269 C 
BRANCH  25  26
HETATM   26  O3  UNL     1      39.285  20.802  26.829  1.00  0.00    -0.371 OA
ATOM     27  H3  UNL     1      38.653  21.489  27.005  1.00  0.00     0.212 HD
ENDBRANCH  25  26
BRANCH  25  28
HETATM   28  N1  UNL     1      41.318  21.471  27.425  1.00  0.00    -0.369 N 
ATOM     29  H1  UNL     1      42.319  21.587  27.266  1.00  0.00     0.161 HD
BRANCH  28  30
HETATM   30  C11 UNL     1      40.889  21.555  28.728  1.00  0.00     0.089 C 
BRANCH  30  31
HETATM   31  C12 UNL     1      40.779  22.974  29.234  1.00  0.00     0.152 C 
HETATM   32  C13 UNL     1      39.331  23.375  29.348  1.00  0.00     0.045 C 
BRANCH  31  33
HETATM   33  O4  UNL     1      41.413  23.846  28.377  1.00  0.00    -0.391 OA
ATOM     34  H4  UNL     1      41.135  23.697  27.480  1.00  0.00     0.210 HD
ENDBRANCH  31  33
ENDBRANCH  30  31
ENDBRANCH  28  30
ENDBRANCH  25  28
ENDBRANCH   2  25
BRANCH  12  35
HETATM   35  C19 UNL     1      42.712  23.023  21.747  1.00  0.00     0.026 C 
HETATM   36  C20 UNL     1      43.880  24.043  22.273  1.00  0.00     0.028 C 
HETATM   37  C21 UNL     1      45.219  23.441  22.003  1.00  0.00     0.114 C 
HETATM   38  N4  UNL     1      45.418  22.854  20.723  1.00  0.00    -0.421 N 
HETATM   39  C22 UNL     1      44.308  22.052  20.237  1.00  0.00     0.114 C 
ATOM     40  H4  UNL     1      46.276  22.987  20.186  1.00  0.00     0.153 HD
HETATM   41  C23 UNL     1      43.085  23.040  20.289  1.00  0.00     0.028 C 
ENDBRANCH  12  35
TORSDOF 10
ENDMDL
MODEL 5
REMARK VINA RESULT: -7.334370414      2.500      3.257
REMARK  10 active torsions:
REMARK  status: ('A' for Active; 'I' for Inactive)
REMARK    1  A    between atoms: O1_2  and  C2_3 
REMARK    2  A    between atoms: C4_5  and  O2_6 
REMARK    3  A    between atoms: C7_10  and  C8_11 
REMARK    4  A    between atoms: C9_12  and  C10_13 
REMARK    5  A    between atoms: C10_13  and  O3_14 
REMARK    6  A    between atoms: C10_13  and  N1_16 
REMARK    7  A    between atoms: N1_16  and  C11_18 
REMARK    8  A    between atoms: C11_18  and  C12_19 
REMARK    9  A    between atoms: C12_19  and  O4_21 
REMARK   10  A    between atoms: C18_32  and  C19_33 
ROOT
HETATM    1  C8  UNL     1      41.505  21.325  22.676  1.00  0.00     0.018 A 
HETATM    2  C9  UNL     1      41.320  19.929  22.676  1.00  0.00     0.070 A 
HETATM    3  N2  UNL     1      40.070  19.434  22.717  1.00  0.00    -0.363 N 
ATOM      4  H2  UNL     1      39.959  18.421  22.719  1.00  0.00     0.165 HD
HETATM    5  C14 UNL     1      38.994  20.162  22.755  1.00  0.00     0.118 A 
HETATM    6  C15 UNL     1      39.102  21.533  22.760  1.00  0.00     0.059 A 
HETATM    7  N3  UNL     1      37.959  22.259  22.731  1.00  0.00    -0.361 N 
ATOM      8  H3  UNL     1      37.063  21.773  22.754  1.00  0.00     0.165 HD
HETATM    9  C16 UNL     1      37.973  23.582  22.673  1.00  0.00     0.131 A 
HETATM   10  C17 UNL     1      39.201  24.191  22.657  1.00  0.00     0.139 A 
HETATM   11  F2  UNL     1      39.214  25.516  22.582  1.00  0.00    -0.204 F 
HETATM   12  C18 UNL     1      40.422  23.504  22.691  1.00  0.00    -0.000 A 
HETATM   13  C24 UNL     1      40.397  22.127  22.728  1.00  0.00     0.015 A 
ENDROOT
BRANCH   1  14
HETATM   14  C7  UNL     1      42.816  21.780  22.318  1.00  0.00     0.021 A 
HETATM   15  C6  UNL     1      43.627  22.146  23.388  1.00  0.00     0.161 A 
HETATM   16  C4  UNL     1      44.898  22.732  23.247  1.00  0.00     0.110 A 
HETATM   17  F1  UNL     1      43.222  21.996  24.692  1.00  0.00    -0.202 F 
HETATM   18  C3  UNL     1      45.335  22.943  21.955  1.00  0.00     0.076 A 
HETATM   19  C2  UNL     1      44.570  22.602  20.876  1.00  0.00     0.071 A 
HETATM   20  C25 UNL     1      43.335  22.032  21.087  1.00  0.00     0.052 A 
BRANCH  16  21
HETATM   21  O2  UNL     1      45.628  23.058  24.318  1.00  0.00    -0.353 OA
HETATM   22  C5  UNL     1      46.045  24.064  25.084  1.00  0.00     0.210 C 
ENDBRANCH  16  21
BRANCH  19  23
HETATM   23  O1  UNL     1      45.017  22.820  19.584  1.00  0.00    -0.356 OA
HETATM   24  C1  UNL     1      44.966  21.921  18.515  1.00  0.00     0.210 C 
ENDBRANCH  19  23
ENDBRANCH   1  14
BRANCH   2  25
HETATM   25  C10 UNL     1      42.429  18.993  22.605  1.00  0.00     0.269 C 
BRANCH  25  26
HETATM   26  O3  UNL     1      42.151  17.773  21.930  1.00  0.00    -0.371 OA
ATOM     27  H3  UNL     1      41.373  17.782  21.384  1.00  0.00     0.212 HD
ENDBRANCH  25  26
BRANCH  25  28
HETATM   28  N1  UNL     1      42.877  18.578  23.869  1.00  0.00    -0.369 N 
ATOM     29  H1  UNL     1      42.194  18.106  24.463  1.00  0.00     0.161 HD
BRANCH  28  30
HETATM   30  C11 UNL     1      44.137  18.739  24.391  1.00  0.00     0.089 C 
BRANCH  30  31
HETATM   31  C12 UNL     1      44.846  17.434  24.664  1.00  0.00     0.152 C 
HETATM   32  C13 UNL     1      45.435  17.440  26.051  1.00  0.00     0.045 C 
BRANCH  31  33
HETATM   33  O4  UNL     1      45.861  17.233  23.754  1.00  0.00    -0.391 OA
ATOM     34  H4  UNL     1      45.997  16.305  23.603  1.00  0.00     0.210 HD
ENDBRANCH  31  33
ENDBRANCH  30  31
ENDBRANCH  28  30
ENDBRANCH  25  28
ENDBRANCH   2  25
BRANCH  12  35
HETATM   35  C19 UNL     1      41.622  24.273  22.859  1.00  0.00     0.026 C 
HETATM   36  C20 UNL     1      41.284  24.703  24.402  1.00  0.00     0.028 C 
HETATM   37  C21 UNL     1      42.429  25.481  24.960  1.00  0.00     0.114 C 
HETATM   38  N4  UNL     1      42.993  26.489  24.130  1.00  0.00    -0.421 N 
HETATM   39  C22 UNL     1      43.168  26.108  22.738  1.00  0.00     0.114 C 
ATOM     40  H4  UNL     1      43.254  27.409  24.484  1.00  0.00     0.153 HD
HETATM   41  C23 UNL     1      41.727  25.663  22.291  1.00  0.00     0.028 C 
ENDBRANCH  12  35
TORSDOF 10
ENDMDL
