MODEL 1
REMARK VINA RESULT: -8.080211351      0.000      0.000
REMARK  5 active torsions:
REMARK  status: ('A' for Active; 'I' for Inactive)
REMARK       I    between atoms: C1_2  and  N2_4 
REMARK       I    between atoms: N2_4  and  C2_6 
REMARK       I    between atoms: C2_6  and  N3_8 
REMARK    1  A    between atoms: N3_8  and  N4_10 
REMARK       I    between atoms: N4_10  and  C3_12 
REMARK    2  A    between atoms: C3_12  and  C4_14 
REMARK    3  A    between atoms: C4_14  and  N5_15 
REMARK    4  A    between atoms: C4_14  and  C5_19 
REMARK    5  A    between atoms: C5_19  and  C6_20 
ROOT
HETATM    1  N4  UNL     1      15.821  22.111  36.544  1.00  0.00    -0.264 N 
ATOM      2  H4  UNL     1      16.267  22.914  36.100  1.00  0.00     0.190 HD
HETATM    3  C3  UNL     1      16.580  20.969  36.798  1.00  0.00     0.267 C 
HETATM    4  O3  UNL     1      16.088  19.946  37.354  1.00  0.00    -0.269 OA
ENDROOT
BRANCH   3   5
HETATM    5  C4  UNL     1      18.007  20.925  36.412  1.00  0.00     0.280 C 
BRANCH   5   6
HETATM    6  N5  UNL     1      18.840  21.850  37.106  1.00  0.00    -0.066 N 
ATOM      7  H53 UNL     1      19.759  21.896  36.666  1.00  0.00     0.275 HD
ATOM      8  H52 UNL     1      18.520  22.804  36.945  1.00  0.00     0.275 HD
ATOM      9  H51 UNL     1      18.935  21.671  38.106  1.00  0.00     0.275 HD
ENDBRANCH   5   6
BRANCH   5  10
HETATM   10  C5  UNL     1      18.196  21.158  34.925  1.00  0.00     0.081 C 
BRANCH  10  11
HETATM   11  C6  UNL     1      17.861  19.888  34.235  1.00  0.00    -0.056 A 
HETATM   12  C7  UNL     1      16.992  19.838  33.166  1.00  0.00     0.007 A 
HETATM   13  C8  UNL     1      16.687  18.650  32.534  1.00  0.00     0.001 A 
HETATM   14  C9  UNL     1      17.254  17.460  32.963  1.00  0.00     0.000 A 
HETATM   15  C10 UNL     1      18.135  17.485  34.040  1.00  0.00     0.001 A 
HETATM   16  C11 UNL     1      18.427  18.679  34.658  1.00  0.00     0.007 A 
ENDBRANCH  10  11
ENDBRANCH   5  10
ENDBRANCH   3   5
BRANCH   1  17
HETATM   17  N3  UNL     1      14.442  22.186  36.887  1.00  0.00    -0.249 N 
HETATM   18  C2  UNL     1      14.048  22.889  38.028  1.00  0.00     0.342 C 
HETATM   19  N2  UNL     1      12.756  23.089  38.534  1.00  0.00    -0.262 N 
HETATM   20  O2  UNL     1      14.994  23.441  38.724  1.00  0.00    -0.245 OA
HETATM   21  C1  UNL     1      11.526  22.650  38.060  1.00  0.00     0.336 C 
ATOM     22  H2  UNL     1      12.711  23.646  39.387  1.00  0.00     0.175 HD
HETATM   23  N1  UNL     1      11.346  21.879  36.906  1.00  0.00    -0.040 NA
HETATM   24  O1  UNL     1      10.441  22.943  38.686  1.00  0.00    -0.251 OA
ATOM     25  H3  UNL     1      13.744  21.727  36.302  1.00  0.00     0.192 HD
ENDBRANCH   1  17
TORSDOF 5
ENDMDL
MODEL 2
REMARK VINA RESULT: -8.071446761      4.191      7.235
REMARK  5 active torsions:
REMARK  status: ('A' for Active; 'I' for Inactive)
REMARK       I    between atoms: C1_2  and  N2_4 
REMARK       I    between atoms: N2_4  and  C2_6 
REMARK       I    between atoms: C2_6  and  N3_8 
REMARK    1  A    between atoms: N3_8  and  N4_10 
REMARK       I    between atoms: N4_10  and  C3_12 
REMARK    2  A    between atoms: C3_12  and  C4_14 
REMARK    3  A    between atoms: C4_14  and  N5_15 
REMARK    4  A    between atoms: C4_14  and  C5_19 
REMARK    5  A    between atoms: C5_19  and  C6_20 
ROOT
HETATM    1  N4  UNL     1      19.870  19.800  36.789  1.00  0.00    -0.264 N 
ATOM      2  H4  UNL     1      20.273  18.999  37.275  1.00  0.00     0.190 HD
HETATM    3  C3  UNL     1      20.086  21.080  37.298  1.00  0.00     0.267 C 
HETATM    4  O3  UNL     1      19.621  22.113  36.736  1.00  0.00    -0.269 OA
ENDROOT
BRANCH   3   5
HETATM    5  C4  UNL     1      20.875  21.263  38.535  1.00  0.00     0.280 C 
BRANCH   5   6
HETATM    6  N5  UNL     1      22.029  20.434  38.633  1.00  0.00    -0.066 N 
ATOM      7  H53 UNL     1      21.926  19.773  39.402  1.00  0.00     0.275 HD
ATOM      8  H52 UNL     1      22.067  19.785  37.847  1.00  0.00     0.275 HD
ATOM      9  H51 UNL     1      22.912  20.939  38.718  1.00  0.00     0.275 HD
ENDBRANCH   5   6
BRANCH   5  10
HETATM   10  C5  UNL     1      20.036  21.036  39.778  1.00  0.00     0.081 C 
BRANCH  10  11
HETATM   11  C6  UNL     1      19.711  22.371  40.338  1.00  0.00    -0.056 A 
HETATM   12  C7  UNL     1      20.686  23.281  40.688  1.00  0.00     0.007 A 
HETATM   13  C8  UNL     1      20.371  24.518  41.210  1.00  0.00     0.001 A 
HETATM   14  C9  UNL     1      19.047  24.885  41.399  1.00  0.00     0.000 A 
HETATM   15  C10 UNL     1      18.045  23.983  41.054  1.00  0.00     0.001 A 
HETATM   16  C11 UNL     1      18.378  22.754  40.535  1.00  0.00     0.007 A 
ENDBRANCH  10  11
ENDBRANCH   5  10
ENDBRANCH   3   5
BRANCH   1  17
HETATM   17  N3  UNL     1      19.104  19.582  35.609  1.00  0.00    -0.249 N 
HETATM   18  C2  UNL     1      17.768  19.184  35.713  1.00  0.00     0.342 C 
HETATM   19  N2  UNL     1      16.846  18.925  34.689  1.00  0.00    -0.262 N 
HETATM   20  O2  UNL     1      17.301  19.029  36.915  1.00  0.00    -0.245 OA
HETATM   21  C1  UNL     1      16.995  18.986  33.309  1.00  0.00     0.336 C 
ATOM     22  H2  UNL     1      15.918  18.650  35.008  1.00  0.00     0.175 HD
HETATM   23  N1  UNL     1      18.175  19.346  32.650  1.00  0.00    -0.040 NA
HETATM   24  O1  UNL     1      16.010  18.700  32.533  1.00  0.00    -0.251 OA
ATOM     25  H3  UNL     1      19.528  19.716  34.692  1.00  0.00     0.192 HD
ENDBRANCH   1  17
TORSDOF 5
ENDMDL
MODEL 3
REMARK VINA RESULT: -8.069428628      4.192      7.182
REMARK  5 active torsions:
REMARK  status: ('A' for Active; 'I' for Inactive)
REMARK       I    between atoms: C1_2  and  N2_4 
REMARK       I    between atoms: N2_4  and  C2_6 
REMARK       I    between atoms: C2_6  and  N3_8 
REMARK    1  A    between atoms: N3_8  and  N4_10 
REMARK       I    between atoms: N4_10  and  C3_12 
REMARK    2  A    between atoms: C3_12  and  C4_14 
REMARK    3  A    between atoms: C4_14  and  N5_15 
REMARK    4  A    between atoms: C4_14  and  C5_19 
REMARK    5  A    between atoms: C5_19  and  C6_20 
ROOT
HETATM    1  N4  UNL     1      19.854  19.799  36.778  1.00  0.00    -0.264 N 
ATOM      2  H4  UNL     1      20.254  18.998  37.267  1.00  0.00     0.190 HD
HETATM    3  C3  UNL     1      20.070  21.080  37.284  1.00  0.00     0.267 C 
HETATM    4  O3  UNL     1      19.609  22.112  36.719  1.00  0.00    -0.269 OA
ENDROOT
BRANCH   3   5
HETATM    5  C4  UNL     1      20.857  21.264  38.523  1.00  0.00     0.280 C 
BRANCH   5   6
HETATM    6  N5  UNL     1      22.020  20.447  38.617  1.00  0.00    -0.066 N 
ATOM      7  H53 UNL     1      21.763  19.492  38.864  1.00  0.00     0.275 HD
ATOM      8  H52 UNL     1      22.417  20.289  37.691  1.00  0.00     0.275 HD
ATOM      9  H51 UNL     1      22.736  20.796  39.255  1.00  0.00     0.275 HD
ENDBRANCH   5   6
BRANCH   5  10
HETATM   10  C5  UNL     1      20.020  21.021  39.765  1.00  0.00     0.081 C 
BRANCH  10  11
HETATM   11  C6  UNL     1      19.664  22.349  40.322  1.00  0.00    -0.056 A 
HETATM   12  C7  UNL     1      18.357  22.734  40.532  1.00  0.00     0.007 A 
HETATM   13  C8  UNL     1      18.038  23.973  41.049  1.00  0.00     0.001 A 
HETATM   14  C9  UNL     1      19.039  24.876  41.375  1.00  0.00     0.000 A 
HETATM   15  C10 UNL     1      20.366  24.511  41.172  1.00  0.00     0.001 A 
HETATM   16  C11 UNL     1      20.665  23.272  40.655  1.00  0.00     0.007 A 
ENDBRANCH  10  11
ENDBRANCH   5  10
ENDBRANCH   3   5
BRANCH   1  17
HETATM   17  N3  UNL     1      19.090  19.579  35.597  1.00  0.00    -0.249 N 
HETATM   18  C2  UNL     1      17.758  19.171  35.698  1.00  0.00     0.342 C 
HETATM   19  N2  UNL     1      16.839  18.910  34.673  1.00  0.00    -0.262 N 
HETATM   20  O2  UNL     1      17.291  19.009  36.899  1.00  0.00    -0.245 OA
HETATM   21  C1  UNL     1      16.988  18.975  33.292  1.00  0.00     0.336 C 
ATOM     22  H2  UNL     1      15.912  18.626  34.990  1.00  0.00     0.175 HD
HETATM   23  N1  UNL     1      18.166  19.346  32.636  1.00  0.00    -0.040 NA
HETATM   24  O1  UNL     1      16.006  18.686  32.515  1.00  0.00    -0.251 OA
ATOM     25  H3  UNL     1      19.515  19.719  34.681  1.00  0.00     0.192 HD
ENDBRANCH   1  17
TORSDOF 5
ENDMDL
MODEL 4
REMARK VINA RESULT: -8.011959002      2.241      3.845
REMARK  5 active torsions:
REMARK  status: ('A' for Active; 'I' for Inactive)
REMARK       I    between atoms: C1_2  and  N2_4 
REMARK       I    between atoms: N2_4  and  C2_6 
REMARK       I    between atoms: C2_6  and  N3_8 
REMARK    1  A    between atoms: N3_8  and  N4_10 
REMARK       I    between atoms: N4_10  and  C3_12 
REMARK    2  A    between atoms: C3_12  and  C4_14 
REMARK    3  A    between atoms: C4_14  and  N5_15 
REMARK    4  A    between atoms: C4_14  and  C5_19 
REMARK    5  A    between atoms: C5_19  and  C6_20 
ROOT
HETATM    1  N4  UNL     1      15.595  22.468  36.529  1.00  0.00    -0.264 N 
ATOM      2  H4  UNL     1      15.998  23.345  36.197  1.00  0.00     0.190 HD
HETATM    3  C3  UNL     1      16.402  21.333  36.597  1.00  0.00     0.267 C 
HETATM    4  O3  UNL     1      15.963  20.222  37.009  1.00  0.00    -0.269 OA
ENDROOT
BRANCH   3   5
HETATM    5  C4  UNL     1      17.818  21.404  36.177  1.00  0.00     0.280 C 
BRANCH   5   6
HETATM    6  N5  UNL     1      18.019  21.461  34.768  1.00  0.00    -0.066 N 
ATOM      7  H53 UNL     1      17.714  22.364  34.404  1.00  0.00     0.275 HD
ATOM      8  H52 UNL     1      19.015  21.514  34.555  1.00  0.00     0.275 HD
ATOM      9  H51 UNL     1      17.584  20.703  34.243  1.00  0.00     0.275 HD
ENDBRANCH   5   6
BRANCH   5  10
HETATM   10  C5  UNL     1      18.624  20.235  36.712  1.00  0.00     0.081 C 
BRANCH  10  11
HETATM   11  C6  UNL     1      19.825  20.798  37.377  1.00  0.00    -0.056 A 
HETATM   12  C7  UNL     1      20.912  20.019  37.715  1.00  0.00     0.007 A 
HETATM   13  C8  UNL     1      22.022  20.554  38.336  1.00  0.00     0.001 A 
HETATM   14  C9  UNL     1      22.075  21.906  38.638  1.00  0.00     0.000 A 
HETATM   15  C10 UNL     1      20.990  22.712  38.306  1.00  0.00     0.001 A 
HETATM   16  C11 UNL     1      19.892  22.162  37.689  1.00  0.00     0.007 A 
ENDBRANCH  10  11
ENDBRANCH   5  10
ENDBRANCH   3   5
BRANCH   1  17
HETATM   17  N3  UNL     1      14.224  22.437  36.910  1.00  0.00    -0.249 N 
HETATM   18  C2  UNL     1      13.794  23.173  38.017  1.00  0.00     0.342 C 
HETATM   19  N2  UNL     1      12.502  23.284  38.550  1.00  0.00    -0.262 N 
HETATM   20  O2  UNL     1      14.702  23.853  38.649  1.00  0.00    -0.245 OA
HETATM   21  C1  UNL     1      11.307  22.704  38.142  1.00  0.00     0.336 C 
ATOM     22  H2  UNL     1      12.427  23.888  39.369  1.00  0.00     0.175 HD
HETATM   23  N1  UNL     1      11.173  21.848  37.044  1.00  0.00    -0.040 NA
HETATM   24  O1  UNL     1      10.217  22.935  38.782  1.00  0.00    -0.251 OA
ATOM     25  H3  UNL     1      13.558  21.879  36.376  1.00  0.00     0.192 HD
ENDBRANCH   1  17
TORSDOF 5
ENDMDL
MODEL 5
REMARK VINA RESULT: -7.874858344      4.520      7.286
REMARK  5 active torsions:
REMARK  status: ('A' for Active; 'I' for Inactive)
REMARK       I    between atoms: C1_2  and  N2_4 
REMARK       I    between atoms: N2_4  and  C2_6 
REMARK       I    between atoms: C2_6  and  N3_8 
REMARK    1  A    between atoms: N3_8  and  N4_10 
REMARK       I    between atoms: N4_10  and  C3_12 
REMARK    2  A    between atoms: C3_12  and  C4_14 
REMARK    3  A    between atoms: C4_14  and  N5_15 
REMARK    4  A    between atoms: C4_14  and  C5_19 
REMARK    5  A    between atoms: C5_19  and  C6_20 
ROOT
HETATM    1  N4  UNL     1      20.160  20.115  36.572  1.00  0.00    -0.264 N 
ATOM      2  H4  UNL     1      20.960  20.608  36.175  1.00  0.00     0.190 HD
HETATM    3  C3  UNL     1      20.009  20.074  37.957  1.00  0.00     0.267 C 
HETATM    4  O3  UNL     1      19.034  19.487  38.509  1.00  0.00    -0.269 OA
ENDROOT
BRANCH   3   5
HETATM    5  C4  UNL     1      21.008  20.725  38.832  1.00  0.00     0.280 C 
BRANCH   5   6
HETATM    6  N5  UNL     1      22.331  20.211  38.710  1.00  0.00    -0.066 N 
ATOM      7  H53 UNL     1      22.340  19.209  38.895  1.00  0.00     0.275 HD
ATOM      8  H52 UNL     1      22.622  20.213  37.733  1.00  0.00     0.275 HD
ATOM      9  H51 UNL     1      23.027  20.684  39.288  1.00  0.00     0.275 HD
ENDBRANCH   5   6
BRANCH   5  10
HETATM   10  C5  UNL     1      20.615  20.644  40.295  1.00  0.00     0.081 C 
BRANCH  10  11
HETATM   11  C6  UNL     1      20.116  21.985  40.690  1.00  0.00    -0.056 A 
HETATM   12  C7  UNL     1      18.825  22.190  41.128  1.00  0.00     0.007 A 
HETATM   13  C8  UNL     1      18.373  23.442  41.491  1.00  0.00     0.001 A 
HETATM   14  C9  UNL     1      19.216  24.541  41.424  1.00  0.00     0.000 A 
HETATM   15  C10 UNL     1      20.524  24.358  40.984  1.00  0.00     0.001 A 
HETATM   16  C11 UNL     1      20.957  23.103  40.626  1.00  0.00     0.007 A 
ENDBRANCH  10  11
ENDBRANCH   5  10
ENDBRANCH   3   5
BRANCH   1  17
HETATM   17  N3  UNL     1      19.229  19.488  35.697  1.00  0.00    -0.249 N 
HETATM   18  C2  UNL     1      18.462  20.267  34.827  1.00  0.00     0.342 C 
HETATM   19  N2  UNL     1      17.504  19.853  33.890  1.00  0.00    -0.262 N 
HETATM   20  O2  UNL     1      18.651  21.551  34.878  1.00  0.00    -0.245 OA
HETATM   21  C1  UNL     1      17.050  18.579  33.571  1.00  0.00     0.336 C 
ATOM     22  H2  UNL     1      17.071  20.608  33.358  1.00  0.00     0.175 HD
HETATM   23  N1  UNL     1      17.507  17.399  34.167  1.00  0.00    -0.040 NA
HETATM   24  O1  UNL     1      16.148  18.414  32.670  1.00  0.00    -0.251 OA
ATOM     25  H3  UNL     1      19.122  18.474  35.706  1.00  0.00     0.192 HD
ENDBRANCH   1  17
TORSDOF 5
ENDMDL
