MODEL 1
REMARK VINA RESULT: -9.983835107      0.000      0.000
REMARK  16 active torsions:
REMARK  status: ('A' for Active; 'I' for Inactive)
REMARK    1  A    between atoms: C5_5  and  C6_6 
REMARK    2  A    between atoms: C6_6  and  S1_9 
REMARK    3  A    between atoms: S1_9  and  C9_10 
REMARK    4  A    between atoms: C9_10  and  C10_11 
REMARK    5  A    between atoms: C10_11  and  C11_12 
REMARK    6  A    between atoms: C10_11  and  C19_26 
REMARK    7  A    between atoms: C11_12  and  C12_13 
REMARK    8  A    between atoms: C12_13  and  O2_15 
REMARK    9  A    between atoms: O2_15  and  C13_16 
REMARK   10  A    between atoms: C13_16  and  C14_17 
REMARK   11  A    between atoms: C18_23  and  O5_24 
REMARK   12  A    between atoms: C19_26  and  C21_28 
REMARK   13  A    between atoms: C21_28  and  C22_29 
REMARK   14  A    between atoms: C23_30  and  C25_32 
REMARK   15  A    between atoms: C26_33  and  C27_34 
REMARK   16  A    between atoms: C29_37  and  O7_38 
ROOT
HETATM    1  C10 UNL     1      21.718  47.793   1.848  1.00  0.00     0.008 C 
ENDROOT
BRANCH   1   2
HETATM    2  C9  UNL     1      21.717  49.019   2.797  1.00  0.00     0.080 C 
BRANCH   2   3
HETATM    3  S1  UNL     1      22.645  48.930   4.260  1.00  0.00    -0.159 SA
BRANCH   3   4
HETATM    4  C6  UNL     1      22.502  50.388   5.291  1.00  0.00     0.004 C 
HETATM    5  C7  UNL     1      21.267  51.162   4.715  1.00  0.00     0.027 C 
HETATM    6  C8  UNL     1      22.230  50.062   6.718  1.00  0.00     0.027 C 
BRANCH   4   7
HETATM    7  C5  UNL     1      23.644  51.360   5.094  1.00  0.00     0.004 C 
HETATM    8  C4  UNL     1      23.760  52.396   6.167  1.00  0.00     0.010 C 
HETATM    9  C3  UNL     1      25.115  53.088   5.965  1.00  0.00     0.034 C 
HETATM   10  C2  UNL     1      25.680  52.763   4.620  1.00  0.00    -0.085 C 
HETATM   11  C1  UNL     1      26.942  52.376   4.452  1.00  0.00     0.014 C 
HETATM   12  C32 UNL     1      24.754  52.893   3.462  1.00  0.00     0.010 C 
HETATM   13  C31 UNL     1      23.556  51.977   3.715  1.00  0.00     0.014 C 
HETATM   14  C33 UNL     1      24.321  54.339   3.274  1.00  0.00     0.015 C 
ENDBRANCH   4   7
ENDBRANCH   3   4
ENDBRANCH   2   3
ENDBRANCH   1   2
BRANCH   1  15
HETATM   15  C11 UNL     1      20.359  47.794   1.244  1.00  0.00     0.116 C 
BRANCH  15  16
HETATM   16  C12 UNL     1      19.661  46.490   1.202  1.00  0.00     0.259 C 
HETATM   17  O1  UNL     1      19.132  46.057   2.249  1.00  0.00    -0.265 OA
BRANCH  16  18
HETATM   18  O2  UNL     1      19.579  45.744   0.070  1.00  0.00    -0.318 OA
BRANCH  18  19
HETATM   19  C13 UNL     1      18.770  45.891  -1.050  1.00  0.00     0.219 C 
BRANCH  19  20
HETATM   20  C14 UNL     1      19.433  46.195  -2.347  1.00  0.00     0.115 C 
HETATM   21  C15 UNL     1      19.700  47.694  -2.510  1.00  0.00     0.052 C 
HETATM   22  O3  UNL     1      20.596  45.507  -2.650  1.00  0.00    -0.305 OA
HETATM   23  C16 UNL     1      20.562  44.874  -3.857  1.00  0.00     0.262 C 
HETATM   24  O4  UNL     1      21.337  43.973  -4.305  1.00  0.00    -0.265 OA
HETATM   25  C17 UNL     1      19.421  45.408  -4.642  1.00  0.00     0.146 C 
HETATM   26  C18 UNL     1      18.487  45.864  -3.516  1.00  0.00     0.164 C 
BRANCH  26  27
HETATM   27  O5  UNL     1      17.748  44.773  -3.128  1.00  0.00    -0.392 OA
ATOM     28  H5  UNL     1      16.986  45.109  -2.671  1.00  0.00     0.210 HD
ENDBRANCH  26  27
ENDBRANCH  19  20
ENDBRANCH  18  19
ENDBRANCH  16  18
ENDBRANCH  15  16
ENDBRANCH   1  15
BRANCH   1  29
HETATM   29  C19 UNL     1      22.877  48.008   0.962  1.00  0.00    -0.010 C 
HETATM   30  C20 UNL     1      22.788  47.404  -0.418  1.00  0.00     0.010 C 
BRANCH  29  31
HETATM   31  C21 UNL     1      23.849  49.092   0.995  1.00  0.00     0.032 C 
BRANCH  31  32
HETATM   32  C22 UNL     1      24.832  49.152  -0.102  1.00  0.00    -0.020 C 
HETATM   33  C23 UNL     1      25.952  49.939  -0.023  1.00  0.00    -0.066 C 
HETATM   34  C24 UNL     1      26.261  50.776   1.136  1.00  0.00     0.048 C 
BRANCH  33  35
HETATM   35  C25 UNL     1      26.858  49.922  -1.153  1.00  0.00     0.007 C 
HETATM   36  C26 UNL     1      28.148  49.828  -1.026  1.00  0.00     0.014 C 
BRANCH  36  37
HETATM   37  C27 UNL     1      28.990  49.819  -2.233  1.00  0.00    -0.009 A 
HETATM   38  C28 UNL     1      29.853  50.807  -2.653  1.00  0.00     0.156 A 
HETATM   39  O6  UNL     1      30.400  50.407  -3.757  1.00  0.00    -0.300 OA
HETATM   40  C29 UNL     1      29.965  49.225  -4.103  1.00  0.00     0.183 A 
HETATM   41  C30 UNL     1      29.058  48.806  -3.156  1.00  0.00     0.077 A 
BRANCH  40  42
HETATM   42  O7  UNL     1      30.328  48.477  -5.230  1.00  0.00    -0.341 OA
ATOM     43  H7  UNL     1      29.829  47.790  -5.654  1.00  0.00     0.220 HD
ENDBRANCH  40  42
ENDBRANCH  36  37
ENDBRANCH  33  35
ENDBRANCH  31  32
ENDBRANCH  29  31
ENDBRANCH   1  29
TORSDOF 16
ENDMDL
MODEL 2
REMARK VINA RESULT: -9.821212798      3.083      8.729
REMARK  16 active torsions:
REMARK  status: ('A' for Active; 'I' for Inactive)
REMARK    1  A    between atoms: C5_5  and  C6_6 
REMARK    2  A    between atoms: C6_6  and  S1_9 
REMARK    3  A    between atoms: S1_9  and  C9_10 
REMARK    4  A    between atoms: C9_10  and  C10_11 
REMARK    5  A    between atoms: C10_11  and  C11_12 
REMARK    6  A    between atoms: C10_11  and  C19_26 
REMARK    7  A    between atoms: C11_12  and  C12_13 
REMARK    8  A    between atoms: C12_13  and  O2_15 
REMARK    9  A    between atoms: O2_15  and  C13_16 
REMARK   10  A    between atoms: C13_16  and  C14_17 
REMARK   11  A    between atoms: C18_23  and  O5_24 
REMARK   12  A    between atoms: C19_26  and  C21_28 
REMARK   13  A    between atoms: C21_28  and  C22_29 
REMARK   14  A    between atoms: C23_30  and  C25_32 
REMARK   15  A    between atoms: C26_33  and  C27_34 
REMARK   16  A    between atoms: C29_37  and  O7_38 
ROOT
HETATM    1  C10 UNL     1      20.220  47.225   0.372  1.00  0.00     0.008 C 
ENDROOT
BRANCH   1   2
HETATM    2  C9  UNL     1      19.707  45.966  -0.374  1.00  0.00     0.080 C 
BRANCH   2   3
HETATM    3  S1  UNL     1      18.323  46.127  -1.407  1.00  0.00    -0.159 SA
BRANCH   3   4
HETATM    4  C6  UNL     1      18.738  46.406  -3.127  1.00  0.00     0.004 C 
HETATM    5  C7  UNL     1      17.359  46.637  -3.835  1.00  0.00     0.027 C 
HETATM    6  C8  UNL     1      19.581  47.617  -3.329  1.00  0.00     0.027 C 
BRANCH   4   7
HETATM    7  C5  UNL     1      19.277  45.168  -3.809  1.00  0.00     0.004 C 
HETATM    8  C4  UNL     1      20.768  45.119  -3.905  1.00  0.00     0.010 C 
HETATM    9  C3  UNL     1      21.135  43.695  -4.344  1.00  0.00     0.034 C 
HETATM   10  C2  UNL     1      19.929  42.971  -4.851  1.00  0.00    -0.085 C 
HETATM   11  C1  UNL     1      19.623  41.736  -4.462  1.00  0.00     0.014 C 
HETATM   12  C32 UNL     1      19.076  43.705  -5.826  1.00  0.00     0.010 C 
HETATM   13  C31 UNL     1      18.614  45.002  -5.160  1.00  0.00     0.014 C 
HETATM   14  C33 UNL     1      19.837  43.979  -7.113  1.00  0.00     0.015 C 
ENDBRANCH   4   7
ENDBRANCH   3   4
ENDBRANCH   2   3
ENDBRANCH   1   2
BRANCH   1  15
HETATM   15  C11 UNL     1      19.660  47.092   1.744  1.00  0.00     0.116 C 
BRANCH  15  16
HETATM   16  C12 UNL     1      19.468  48.352   2.495  1.00  0.00     0.259 C 
HETATM   17  O1  UNL     1      18.838  49.286   1.952  1.00  0.00    -0.265 OA
BRANCH  16  18
HETATM   18  O2  UNL     1      19.953  48.534   3.751  1.00  0.00    -0.318 OA
BRANCH  18  19
HETATM   19  C13 UNL     1      20.439  49.678   4.373  1.00  0.00     0.219 C 
BRANCH  19  20
HETATM   20  C14 UNL     1      21.716  49.565   5.128  1.00  0.00     0.115 C 
HETATM   21  C15 UNL     1      22.744  48.713   4.379  1.00  0.00     0.052 C 
HETATM   22  O3  UNL     1      22.330  50.738   5.532  1.00  0.00    -0.305 OA
HETATM   23  C16 UNL     1      22.603  50.786   6.867  1.00  0.00     0.262 C 
HETATM   24  O4  UNL     1      22.913  51.791   7.580  1.00  0.00    -0.265 OA
HETATM   25  C17 UNL     1      22.482  49.416   7.425  1.00  0.00     0.146 C 
HETATM   26  C18 UNL     1      21.489  48.791   6.440  1.00  0.00     0.164 C 
BRANCH  26  27
HETATM   27  O5  UNL     1      20.225  49.110   6.872  1.00  0.00    -0.392 OA
ATOM     28  H5  UNL     1      19.736  49.385   6.105  1.00  0.00     0.210 HD
ENDBRANCH  26  27
ENDBRANCH  19  20
ENDBRANCH  18  19
ENDBRANCH  16  18
ENDBRANCH  15  16
ENDBRANCH   1  15
BRANCH   1  29
HETATM   29  C19 UNL     1      21.685  47.183   0.208  1.00  0.00    -0.010 C 
HETATM   30  C20 UNL     1      22.200  46.547  -1.059  1.00  0.00     0.010 C 
BRANCH  29  31
HETATM   31  C21 UNL     1      22.684  48.069   0.790  1.00  0.00     0.032 C 
BRANCH  31  32
HETATM   32  C22 UNL     1      23.818  48.465  -0.065  1.00  0.00    -0.020 C 
HETATM   33  C23 UNL     1      24.755  49.373   0.355  1.00  0.00    -0.066 C 
HETATM   34  C24 UNL     1      24.708  50.020   1.667  1.00  0.00     0.048 C 
BRANCH  33  35
HETATM   35  C25 UNL     1      25.832  49.688  -0.559  1.00  0.00     0.007 C 
HETATM   36  C26 UNL     1      27.003  50.093  -0.163  1.00  0.00     0.014 C 
BRANCH  36  37
HETATM   37  C27 UNL     1      28.037  50.391  -1.166  1.00  0.00    -0.009 A 
HETATM   38  C28 UNL     1      28.151  49.855  -2.430  1.00  0.00     0.156 A 
HETATM   39  O6  UNL     1      29.195  50.382  -2.987  1.00  0.00    -0.300 OA
HETATM   40  C29 UNL     1      29.784  51.230  -2.187  1.00  0.00     0.183 A 
HETATM   41  C30 UNL     1      29.079  51.271  -1.006  1.00  0.00     0.077 A 
BRANCH  40  42
HETATM   42  O7  UNL     1      30.934  51.988  -2.443  1.00  0.00    -0.341 OA
ATOM     43  H7  UNL     1      30.981  52.899  -2.705  1.00  0.00     0.220 HD
ENDBRANCH  40  42
ENDBRANCH  36  37
ENDBRANCH  33  35
ENDBRANCH  31  32
ENDBRANCH  29  31
ENDBRANCH   1  29
TORSDOF 16
ENDMDL
MODEL 3
REMARK VINA RESULT: -9.776890414      3.016      8.622
REMARK  16 active torsions:
REMARK  status: ('A' for Active; 'I' for Inactive)
REMARK    1  A    between atoms: C5_5  and  C6_6 
REMARK    2  A    between atoms: C6_6  and  S1_9 
REMARK    3  A    between atoms: S1_9  and  C9_10 
REMARK    4  A    between atoms: C9_10  and  C10_11 
REMARK    5  A    between atoms: C10_11  and  C11_12 
REMARK    6  A    between atoms: C10_11  and  C19_26 
REMARK    7  A    between atoms: C11_12  and  C12_13 
REMARK    8  A    between atoms: C12_13  and  O2_15 
REMARK    9  A    between atoms: O2_15  and  C13_16 
REMARK   10  A    between atoms: C13_16  and  C14_17 
REMARK   11  A    between atoms: C18_23  and  O5_24 
REMARK   12  A    between atoms: C19_26  and  C21_28 
REMARK   13  A    between atoms: C21_28  and  C22_29 
REMARK   14  A    between atoms: C23_30  and  C25_32 
REMARK   15  A    between atoms: C26_33  and  C27_34 
REMARK   16  A    between atoms: C29_37  and  O7_38 
ROOT
HETATM    1  C10 UNL     1      20.325  47.564   0.594  1.00  0.00     0.008 C 
ENDROOT
BRANCH   1   2
HETATM    2  C9  UNL     1      19.630  46.440  -0.217  1.00  0.00     0.080 C 
BRANCH   2   3
HETATM    3  S1  UNL     1      18.146  46.811  -1.035  1.00  0.00    -0.159 SA
BRANCH   3   4
HETATM    4  C6  UNL     1      18.359  47.193  -2.772  1.00  0.00     0.004 C 
HETATM    5  C7  UNL     1      16.991  47.820  -3.211  1.00  0.00     0.027 C 
HETATM    6  C8  UNL     1      19.435  48.192  -3.016  1.00  0.00     0.027 C 
BRANCH   4   7
HETATM    7  C5  UNL     1      18.467  45.956  -3.636  1.00  0.00     0.004 C 
HETATM    8  C4  UNL     1      18.104  44.685  -2.937  1.00  0.00     0.010 C 
HETATM    9  C3  UNL     1      17.986  43.605  -4.022  1.00  0.00     0.034 C 
HETATM   10  C2  UNL     1      18.594  44.074  -5.304  1.00  0.00    -0.085 C 
HETATM   11  C1  UNL     1      17.973  43.950  -6.474  1.00  0.00     0.014 C 
HETATM   12  C32 UNL     1      19.943  44.696  -5.211  1.00  0.00     0.010 C 
HETATM   13  C31 UNL     1      19.844  45.889  -4.259  1.00  0.00     0.014 C 
HETATM   14  C33 UNL     1      20.973  43.685  -4.732  1.00  0.00     0.015 C 
ENDBRANCH   4   7
ENDBRANCH   3   4
ENDBRANCH   2   3
ENDBRANCH   1   2
BRANCH   1  15
HETATM   15  C11 UNL     1      19.840  47.366   1.987  1.00  0.00     0.116 C 
BRANCH  15  16
HETATM   16  C12 UNL     1      19.896  48.550   2.872  1.00  0.00     0.259 C 
HETATM   17  O1  UNL     1      19.309  49.594   2.517  1.00  0.00    -0.265 OA
BRANCH  16  18
HETATM   18  O2  UNL     1      20.566  48.544   4.054  1.00  0.00    -0.318 OA
BRANCH  18  19
HETATM   19  C13 UNL     1      21.870  48.920   4.353  1.00  0.00     0.219 C 
BRANCH  19  20
HETATM   20  C14 UNL     1      22.080  49.821   5.518  1.00  0.00     0.115 C 
HETATM   21  C15 UNL     1      23.113  50.910   5.215  1.00  0.00     0.052 C 
HETATM   22  O3  UNL     1      20.963  50.420   6.076  1.00  0.00    -0.305 OA
HETATM   23  C16 UNL     1      20.840  50.213   7.419  1.00  0.00     0.262 C 
HETATM   24  O4  UNL     1      19.827  50.398   8.163  1.00  0.00    -0.265 OA
HETATM   25  C17 UNL     1      22.133  49.705   7.941  1.00  0.00     0.146 C 
HETATM   26  C18 UNL     1      22.708  49.039   6.686  1.00  0.00     0.164 C 
BRANCH  26  27
HETATM   27  O5  UNL     1      22.197  47.765   6.626  1.00  0.00    -0.392 OA
ATOM     28  H5  UNL     1      21.997  47.510   7.519  1.00  0.00     0.210 HD
ENDBRANCH  26  27
ENDBRANCH  19  20
ENDBRANCH  18  19
ENDBRANCH  16  18
ENDBRANCH  15  16
ENDBRANCH   1  15
BRANCH   1  29
HETATM   29  C19 UNL     1      21.763  47.384   0.323  1.00  0.00    -0.010 C 
HETATM   30  C20 UNL     1      22.120  46.679  -0.963  1.00  0.00     0.010 C 
BRANCH  29  31
HETATM   31  C21 UNL     1      22.880  48.183   0.806  1.00  0.00     0.032 C 
BRANCH  31  32
HETATM   32  C22 UNL     1      23.945  48.512  -0.159  1.00  0.00    -0.020 C 
HETATM   33  C23 UNL     1      24.942  49.403   0.143  1.00  0.00    -0.066 C 
HETATM   34  C24 UNL     1      25.031  50.097   1.429  1.00  0.00     0.048 C 
BRANCH  33  35
HETATM   35  C25 UNL     1      25.943  49.652  -0.873  1.00  0.00     0.007 C 
HETATM   36  C26 UNL     1      27.175  49.252  -0.767  1.00  0.00     0.014 C 
BRANCH  36  37
HETATM   37  C27 UNL     1      28.124  49.552  -1.851  1.00  0.00    -0.009 A 
HETATM   38  C28 UNL     1      28.626  50.786  -2.201  1.00  0.00     0.156 A 
HETATM   39  O6  UNL     1      29.427  50.614  -3.203  1.00  0.00    -0.300 OA
HETATM   40  C29 UNL     1      29.495  49.356  -3.548  1.00  0.00     0.183 A 
HETATM   41  C30 UNL     1      28.676  48.634  -2.710  1.00  0.00     0.077 A 
BRANCH  40  42
HETATM   42  O7  UNL     1      30.254  48.793  -4.582  1.00  0.00    -0.341 OA
ATOM     43  H7  UNL     1      30.209  47.906  -4.917  1.00  0.00     0.220 HD
ENDBRANCH  40  42
ENDBRANCH  36  37
ENDBRANCH  33  35
ENDBRANCH  31  32
ENDBRANCH  29  31
ENDBRANCH   1  29
TORSDOF 16
ENDMDL
MODEL 4
REMARK VINA RESULT: -9.503001876      3.123      7.949
REMARK  16 active torsions:
REMARK  status: ('A' for Active; 'I' for Inactive)
REMARK    1  A    between atoms: C5_5  and  C6_6 
REMARK    2  A    between atoms: C6_6  and  S1_9 
REMARK    3  A    between atoms: S1_9  and  C9_10 
REMARK    4  A    between atoms: C9_10  and  C10_11 
REMARK    5  A    between atoms: C10_11  and  C11_12 
REMARK    6  A    between atoms: C10_11  and  C19_26 
REMARK    7  A    between atoms: C11_12  and  C12_13 
REMARK    8  A    between atoms: C12_13  and  O2_15 
REMARK    9  A    between atoms: O2_15  and  C13_16 
REMARK   10  A    between atoms: C13_16  and  C14_17 
REMARK   11  A    between atoms: C18_23  and  O5_24 
REMARK   12  A    between atoms: C19_26  and  C21_28 
REMARK   13  A    between atoms: C21_28  and  C22_29 
REMARK   14  A    between atoms: C23_30  and  C25_32 
REMARK   15  A    between atoms: C26_33  and  C27_34 
REMARK   16  A    between atoms: C29_37  and  O7_38 
ROOT
HETATM    1  C10 UNL     1      22.158  48.848   2.209  1.00  0.00     0.008 C 
ENDROOT
BRANCH   1   2
HETATM    2  C9  UNL     1      21.256  47.731   1.624  1.00  0.00     0.080 C 
BRANCH   2   3
HETATM    3  S1  UNL     1      19.557  48.044   1.460  1.00  0.00    -0.159 SA
BRANCH   3   4
HETATM    4  C6  UNL     1      18.686  46.799   0.511  1.00  0.00     0.004 C 
HETATM    5  C7  UNL     1      19.613  45.536   0.569  1.00  0.00     0.027 C 
HETATM    6  C8  UNL     1      17.366  46.442   1.101  1.00  0.00     0.027 C 
BRANCH   4   7
HETATM    7  C5  UNL     1      18.628  47.120  -0.966  1.00  0.00     0.004 C 
HETATM    8  C4  UNL     1      19.964  47.182  -1.633  1.00  0.00     0.010 C 
HETATM    9  C3  UNL     1      19.699  47.220  -3.145  1.00  0.00     0.034 C 
HETATM   10  C2  UNL     1      18.264  47.530  -3.423  1.00  0.00    -0.085 C 
HETATM   11  C1  UNL     1      17.539  46.829  -4.290  1.00  0.00     0.014 C 
HETATM   12  C32 UNL     1      17.675  48.675  -2.675  1.00  0.00     0.010 C 
HETATM   13  C31 UNL     1      17.825  48.384  -1.181  1.00  0.00     0.014 C 
HETATM   14  C33 UNL     1      18.354  49.980  -3.060  1.00  0.00     0.015 C 
ENDBRANCH   4   7
ENDBRANCH   3   4
ENDBRANCH   2   3
ENDBRANCH   1   2
BRANCH   1  15
HETATM   15  C11 UNL     1      22.250  48.527   3.658  1.00  0.00     0.116 C 
BRANCH  15  16
HETATM   16  C12 UNL     1      21.421  49.352   4.564  1.00  0.00     0.259 C 
HETATM   17  O1  UNL     1      20.417  48.834   5.099  1.00  0.00    -0.265 OA
BRANCH  16  18
HETATM   18  O2  UNL     1      21.709  50.652   4.833  1.00  0.00    -0.318 OA
BRANCH  18  19
HETATM   19  C13 UNL     1      22.474  51.215   5.847  1.00  0.00     0.219 C 
BRANCH  19  20
HETATM   20  C14 UNL     1      23.292  52.412   5.513  1.00  0.00     0.115 C 
HETATM   21  C15 UNL     1      22.446  53.514   4.867  1.00  0.00     0.052 C 
HETATM   22  O3  UNL     1      24.048  52.977   6.525  1.00  0.00    -0.305 OA
HETATM   23  C16 UNL     1      25.368  53.116   6.214  1.00  0.00     0.262 C 
HETATM   24  O4  UNL     1      26.348  53.349   6.988  1.00  0.00    -0.265 OA
HETATM   25  C17 UNL     1      25.531  52.949   4.748  1.00  0.00     0.146 C 
HETATM   26  C18 UNL     1      24.324  52.061   4.425  1.00  0.00     0.164 C 
BRANCH  26  27
HETATM   27  O5  UNL     1      24.701  50.759   4.646  1.00  0.00    -0.392 OA
ATOM     28  H5  UNL     1      25.650  50.748   4.653  1.00  0.00     0.210 HD
ENDBRANCH  26  27
ENDBRANCH  19  20
ENDBRANCH  18  19
ENDBRANCH  16  18
ENDBRANCH  15  16
ENDBRANCH   1  15
BRANCH   1  29
HETATM   29  C19 UNL     1      23.389  48.793   1.401  1.00  0.00    -0.010 C 
HETATM   30  C20 UNL     1      23.289  48.085   0.072  1.00  0.00     0.010 C 
BRANCH  29  31
HETATM   31  C21 UNL     1      24.524  49.706   1.419  1.00  0.00     0.032 C 
BRANCH  31  32
HETATM   32  C22 UNL     1      25.435  49.677   0.260  1.00  0.00    -0.020 C 
HETATM   33  C23 UNL     1      26.525  50.505   0.180  1.00  0.00    -0.066 C 
HETATM   34  C24 UNL     1      26.870  51.475   1.220  1.00  0.00     0.048 C 
BRANCH  33  35
HETATM   35  C25 UNL     1      27.359  50.393  -0.998  1.00  0.00     0.007 C 
HETATM   36  C26 UNL     1      28.589  49.974  -0.958  1.00  0.00     0.014 C 
BRANCH  36  37
HETATM   37  C27 UNL     1      29.362  49.894  -2.208  1.00  0.00    -0.009 A 
HETATM   38  C28 UNL     1      30.308  50.788  -2.661  1.00  0.00     0.156 A 
HETATM   39  O6  UNL     1      30.749  50.350  -3.797  1.00  0.00    -0.300 OA
HETATM   40  C29 UNL     1      30.165  49.231  -4.136  1.00  0.00     0.183 A 
HETATM   41  C30 UNL     1      29.267  48.898  -3.148  1.00  0.00     0.077 A 
BRANCH  40  42
HETATM   42  O7  UNL     1      30.384  48.470  -5.290  1.00  0.00    -0.341 OA
ATOM     43  H7  UNL     1      29.890  48.494  -6.102  1.00  0.00     0.220 HD
ENDBRANCH  40  42
ENDBRANCH  36  37
ENDBRANCH  33  35
ENDBRANCH  31  32
ENDBRANCH  29  31
ENDBRANCH   1  29
TORSDOF 16
ENDMDL
MODEL 5
REMARK VINA RESULT: -9.388819450      1.127      1.799
REMARK  16 active torsions:
REMARK  status: ('A' for Active; 'I' for Inactive)
REMARK    1  A    between atoms: C5_5  and  C6_6 
REMARK    2  A    between atoms: C6_6  and  S1_9 
REMARK    3  A    between atoms: S1_9  and  C9_10 
REMARK    4  A    between atoms: C9_10  and  C10_11 
REMARK    5  A    between atoms: C10_11  and  C11_12 
REMARK    6  A    between atoms: C10_11  and  C19_26 
REMARK    7  A    between atoms: C11_12  and  C12_13 
REMARK    8  A    between atoms: C12_13  and  O2_15 
REMARK    9  A    between atoms: O2_15  and  C13_16 
REMARK   10  A    between atoms: C13_16  and  C14_17 
REMARK   11  A    between atoms: C18_23  and  O5_24 
REMARK   12  A    between atoms: C19_26  and  C21_28 
REMARK   13  A    between atoms: C21_28  and  C22_29 
REMARK   14  A    between atoms: C23_30  and  C25_32 
REMARK   15  A    between atoms: C26_33  and  C27_34 
REMARK   16  A    between atoms: C29_37  and  O7_38 
ROOT
HETATM    1  C10 UNL     1      22.731  48.098   2.277  1.00  0.00     0.008 C 
ENDROOT
BRANCH   1   2
HETATM    2  C9  UNL     1      23.371  48.847   3.474  1.00  0.00     0.080 C 
BRANCH   2   3
HETATM    3  S1  UNL     1      22.439  49.028   4.926  1.00  0.00    -0.159 SA
BRANCH   3   4
HETATM    4  C6  UNL     1      22.324  50.721   5.500  1.00  0.00     0.004 C 
HETATM    5  C7  UNL     1      21.229  51.375   4.590  1.00  0.00     0.027 C 
HETATM    6  C8  UNL     1      21.881  50.822   6.918  1.00  0.00     0.027 C 
BRANCH   4   7
HETATM    7  C5  UNL     1      23.564  51.531   5.190  1.00  0.00     0.004 C 
HETATM    8  C4  UNL     1      23.851  52.616   6.178  1.00  0.00     0.010 C 
HETATM    9  C3  UNL     1      25.268  53.123   5.875  1.00  0.00     0.034 C 
HETATM   10  C2  UNL     1      25.728  52.640   4.537  1.00  0.00    -0.085 C 
HETATM   11  C1  UNL     1      26.925  52.092   4.351  1.00  0.00     0.014 C 
HETATM   12  C32 UNL     1      24.771  52.803   3.408  1.00  0.00     0.010 C 
HETATM   13  C31 UNL     1      23.486  52.059   3.773  1.00  0.00     0.014 C 
HETATM   14  C33 UNL     1      24.505  54.274   3.132  1.00  0.00     0.015 C 
ENDBRANCH   4   7
ENDBRANCH   3   4
ENDBRANCH   2   3
ENDBRANCH   1   2
BRANCH   1  15
HETATM   15  C11 UNL     1      21.325  48.581   2.249  1.00  0.00     0.116 C 
BRANCH  15  16
HETATM   16  C12 UNL     1      20.304  47.596   1.828  1.00  0.00     0.259 C 
HETATM   17  O1  UNL     1      19.381  47.310   2.620  1.00  0.00    -0.265 OA
BRANCH  16  18
HETATM   18  O2  UNL     1      20.337  46.988   0.613  1.00  0.00    -0.318 OA
BRANCH  18  19
HETATM   19  C13 UNL     1      19.563  45.952   0.103  1.00  0.00     0.219 C 
BRANCH  19  20
HETATM   20  C14 UNL     1      18.821  46.202  -1.162  1.00  0.00     0.115 C 
HETATM   21  C15 UNL     1      17.553  45.349  -1.253  1.00  0.00     0.052 C 
HETATM   22  O3  UNL     1      18.491  47.512  -1.465  1.00  0.00    -0.305 OA
HETATM   23  C16 UNL     1      18.910  47.914  -2.699  1.00  0.00     0.262 C 
HETATM   24  O4  UNL     1      18.995  49.092  -3.166  1.00  0.00    -0.265 OA
HETATM   25  C17 UNL     1      19.281  46.713  -3.489  1.00  0.00     0.146 C 
HETATM   26  C18 UNL     1      19.659  45.738  -2.368  1.00  0.00     0.164 C 
BRANCH  26  27
HETATM   27  O5  UNL     1      20.974  45.971  -2.047  1.00  0.00    -0.392 OA
ATOM     28  H5  UNL     1      21.425  45.140  -2.130  1.00  0.00     0.210 HD
ENDBRANCH  26  27
ENDBRANCH  19  20
ENDBRANCH  18  19
ENDBRANCH  16  18
ENDBRANCH  15  16
ENDBRANCH   1  15
BRANCH   1  29
HETATM   29  C19 UNL     1      23.602  48.416   1.131  1.00  0.00    -0.010 C 
HETATM   30  C20 UNL     1      23.195  47.840  -0.203  1.00  0.00     0.010 C 
BRANCH  29  31
HETATM   31  C21 UNL     1      24.479  49.565   0.955  1.00  0.00     0.032 C 
BRANCH  31  32
HETATM   32  C22 UNL     1      25.380  49.557  -0.212  1.00  0.00    -0.020 C 
HETATM   33  C23 UNL     1      26.522  50.315  -0.246  1.00  0.00    -0.066 C 
HETATM   34  C24 UNL     1      26.936  51.187   0.853  1.00  0.00     0.048 C 
BRANCH  33  35
HETATM   35  C25 UNL     1      27.342  50.230  -1.437  1.00  0.00     0.007 C 
HETATM   36  C26 UNL     1      28.605  49.925  -1.408  1.00  0.00     0.014 C 
BRANCH  36  37
HETATM   37  C27 UNL     1      29.358  49.863  -2.670  1.00  0.00    -0.009 A 
HETATM   38  C28 UNL     1      29.310  48.869  -3.622  1.00  0.00     0.156 A 
HETATM   39  O6  UNL     1      30.121  49.198  -4.576  1.00  0.00    -0.300 OA
HETATM   40  C29 UNL     1      30.708  50.339  -4.330  1.00  0.00     0.183 A 
HETATM   41  C30 UNL     1      30.251  50.806  -3.118  1.00  0.00     0.077 A 
BRANCH  40  42
HETATM   42  O7  UNL     1      31.643  51.008  -5.128  1.00  0.00    -0.341 OA
ATOM     43  H7  UNL     1      31.797  51.944  -5.179  1.00  0.00     0.220 HD
ENDBRANCH  40  42
ENDBRANCH  36  37
ENDBRANCH  33  35
ENDBRANCH  31  32
ENDBRANCH  29  31
ENDBRANCH   1  29
TORSDOF 16
ENDMDL
