MODEL 1
REMARK VINA RESULT: -5.859864344      0.000      0.000
REMARK  5 active torsions:
REMARK  status: ('A' for Active; 'I' for Inactive)
REMARK    1  A    between atoms: C2_2  and  C4_4 
REMARK    2  A    between atoms: C4_4  and  N1_6 
REMARK    3  A    between atoms: N1_6  and  N2_8 
REMARK    4  A    between atoms: N2_8  and  C5_10 
REMARK    5  A    between atoms: C5_10  and  C6_12 
ROOT
HETATM    1  C5  UNL     1      33.061   0.568   9.891  1.00  0.00     0.162 C 
HETATM    2  S2  UNL     1      32.717   1.177   8.420  1.00  0.00    -0.055 SA
ENDROOT
BRANCH   1   3
HETATM    3  N2  UNL     1      34.386   0.564  10.415  1.00  0.00    -0.286 N 
ATOM      4  H2  UNL     1      34.549   0.612  11.421  1.00  0.00     0.188 HD
BRANCH   3   5
HETATM    5  N1  UNL     1      35.454   0.492   9.523  1.00  0.00    -0.292 N 
ATOM      6  H1  UNL     1      35.359  -0.001   8.636  1.00  0.00     0.187 HD
BRANCH   5   7
HETATM    7  C4  UNL     1      36.674   1.116   9.874  1.00  0.00     0.095 C 
HETATM    8  S1  UNL     1      37.875   1.269   8.782  1.00  0.00    -0.064 SA
BRANCH   7   9
HETATM    9  C2  UNL     1      36.810   1.621  11.265  1.00  0.00     0.040 C 
HETATM   10  C1  UNL     1      38.008   0.978  11.946  1.00  0.00     0.017 C 
HETATM   11  C3  UNL     1      36.975   3.104  11.335  1.00  0.00     0.017 C 
ENDBRANCH   7   9
ENDBRANCH   5   7
ENDBRANCH   3   5
ENDBRANCH   1   3
BRANCH   1  12
HETATM   12  C6  UNL     1      31.971   0.007  10.697  1.00  0.00     0.177 A 
HETATM   13  N3  UNL     1      31.349   0.592  11.729  1.00  0.00    -0.266 N 
HETATM   14  N4  UNL     1      30.433  -0.229  12.184  1.00  0.00    -0.226 N 
ATOM     15  H3  UNL     1      31.555   1.519  12.100  1.00  0.00     0.190 HD
HETATM   16  N5  UNL     1      30.448  -1.332  11.468  1.00  0.00    -0.226 N 
ATOM     17  H4  UNL     1      29.807  -0.042  12.969  1.00  0.00     0.210 HD
HETATM   18  N6  UNL     1      31.387  -1.191  10.558  1.00  0.00    -0.266 N 
ATOM     19  H5  UNL     1      29.845  -2.144  11.595  1.00  0.00     0.210 HD
ATOM     20  H6  UNL     1      31.633  -1.887   9.853  1.00  0.00     0.190 HD
ENDBRANCH   1  12
TORSDOF 5
ENDMDL
MODEL 2
REMARK VINA RESULT: -5.820564690      1.103      1.401
REMARK  5 active torsions:
REMARK  status: ('A' for Active; 'I' for Inactive)
REMARK    1  A    between atoms: C2_2  and  C4_4 
REMARK    2  A    between atoms: C4_4  and  N1_6 
REMARK    3  A    between atoms: N1_6  and  N2_8 
REMARK    4  A    between atoms: N2_8  and  C5_10 
REMARK    5  A    between atoms: C5_10  and  C6_12 
ROOT
HETATM    1  C5  UNL     1      33.138   0.580  10.235  1.00  0.00     0.162 C 
HETATM    2  S2  UNL     1      33.084   0.996   8.661  1.00  0.00    -0.055 SA
ENDROOT
BRANCH   1   3
HETATM    3  N2  UNL     1      34.295   0.807  11.036  1.00  0.00    -0.286 N 
ATOM      4  H2  UNL     1      34.229   0.821  12.054  1.00  0.00     0.188 HD
BRANCH   3   5
HETATM    5  N1  UNL     1      35.517   1.007  10.398  1.00  0.00    -0.292 N 
ATOM      6  H1  UNL     1      35.675   0.657   9.454  1.00  0.00     0.187 HD
BRANCH   5   7
HETATM    7  C4  UNL     1      36.535   1.707  11.087  1.00  0.00     0.095 C 
HETATM    8  S1  UNL     1      37.766   0.904  11.794  1.00  0.00    -0.064 SA
BRANCH   7   9
HETATM    9  C2  UNL     1      36.434   3.189  11.136  1.00  0.00     0.040 C 
HETATM   10  C1  UNL     1      37.758   3.795  11.573  1.00  0.00     0.017 C 
HETATM   11  C3  UNL     1      36.057   3.793   9.823  1.00  0.00     0.017 C 
ENDBRANCH   7   9
ENDBRANCH   5   7
ENDBRANCH   3   5
ENDBRANCH   1   3
BRANCH   1  12
HETATM   12  C6  UNL     1      31.958  -0.046  10.843  1.00  0.00     0.177 A 
HETATM   13  N3  UNL     1      31.132   0.498  11.745  1.00  0.00    -0.266 N 
HETATM   14  N4  UNL     1      30.200  -0.376  12.039  1.00  0.00    -0.226 N 
ATOM     15  H3  UNL     1      31.215   1.436  12.139  1.00  0.00     0.190 HD
HETATM   16  N5  UNL     1      30.405  -1.474  11.346  1.00  0.00    -0.226 N 
ATOM     17  H4  UNL     1      29.437  -0.228  12.701  1.00  0.00     0.210 HD
HETATM   18  N6  UNL     1      31.479  -1.276  10.612  1.00  0.00    -0.266 N 
ATOM     19  H5  UNL     1      29.838  -2.320  11.371  1.00  0.00     0.210 HD
ATOM     20  H6  UNL     1      31.885  -1.954   9.967  1.00  0.00     0.190 HD
ENDBRANCH   1  12
TORSDOF 5
ENDMDL
MODEL 3
REMARK VINA RESULT: -5.811818985      1.095      1.374
REMARK  5 active torsions:
REMARK  status: ('A' for Active; 'I' for Inactive)
REMARK    1  A    between atoms: C2_2  and  C4_4 
REMARK    2  A    between atoms: C4_4  and  N1_6 
REMARK    3  A    between atoms: N1_6  and  N2_8 
REMARK    4  A    between atoms: N2_8  and  C5_10 
REMARK    5  A    between atoms: C5_10  and  C6_12 
ROOT
HETATM    1  C5  UNL     1      33.348   0.556  10.176  1.00  0.00     0.162 C 
HETATM    2  S2  UNL     1      33.325   0.724   8.556  1.00  0.00    -0.055 SA
ENDROOT
BRANCH   1   3
HETATM    3  N2  UNL     1      34.486   0.910  10.956  1.00  0.00    -0.286 N 
ATOM      4  H2  UNL     1      34.383   1.193  11.930  1.00  0.00     0.188 HD
BRANCH   3   5
HETATM    5  N1  UNL     1      35.744   0.861  10.358  1.00  0.00    -0.292 N 
ATOM      6  H1  UNL     1      35.995   0.091   9.738  1.00  0.00     0.187 HD
BRANCH   5   7
HETATM    7  C4  UNL     1      36.665   1.900  10.628  1.00  0.00     0.095 C 
HETATM    8  S1  UNL     1      36.289   3.452  10.303  1.00  0.00    -0.064 SA
BRANCH   7   9
HETATM    9  C2  UNL     1      37.976   1.516  11.215  1.00  0.00     0.040 C 
HETATM   10  C1  UNL     1      38.683   2.741  11.774  1.00  0.00     0.017 C 
HETATM   11  C3  UNL     1      37.853   0.509  12.312  1.00  0.00     0.017 C 
ENDBRANCH   7   9
ENDBRANCH   5   7
ENDBRANCH   3   5
ENDBRANCH   1   3
BRANCH   1  12
HETATM   12  C6  UNL     1      32.157   0.022  10.848  1.00  0.00     0.177 A 
HETATM   13  N3  UNL     1      31.477   0.589  11.852  1.00  0.00    -0.266 N 
HETATM   14  N4  UNL     1      30.478  -0.196  12.176  1.00  0.00    -0.226 N 
ATOM     15  H3  UNL     1      31.699   1.483  12.292  1.00  0.00     0.190 HD
HETATM   16  N5  UNL     1      30.497  -1.259  11.403  1.00  0.00    -0.226 N 
ATOM     17  H4  UNL     1      29.794  -0.012  12.911  1.00  0.00     0.210 HD
HETATM   18  N6  UNL     1      31.523  -1.129  10.589  1.00  0.00    -0.266 N 
ATOM     19  H5  UNL     1      29.840  -2.038  11.429  1.00  0.00     0.210 HD
ATOM     20  H6  UNL     1      31.793  -1.802   9.871  1.00  0.00     0.190 HD
ENDBRANCH   1  12
TORSDOF 5
ENDMDL
MODEL 4
REMARK VINA RESULT: -5.661361602      2.615      2.955
REMARK  5 active torsions:
REMARK  status: ('A' for Active; 'I' for Inactive)
REMARK    1  A    between atoms: C2_2  and  C4_4 
REMARK    2  A    between atoms: C4_4  and  N1_6 
REMARK    3  A    between atoms: N1_6  and  N2_8 
REMARK    4  A    between atoms: N2_8  and  C5_10 
REMARK    5  A    between atoms: C5_10  and  C6_12 
ROOT
HETATM    1  C5  UNL     1      33.262   0.628  10.045  1.00  0.00     0.162 C 
HETATM    2  S2  UNL     1      34.643   0.898  10.865  1.00  0.00    -0.055 SA
ENDROOT
BRANCH   1   3
HETATM    3  N2  UNL     1      33.142   0.912   8.653  1.00  0.00    -0.286 N 
ATOM      4  H2  UNL     1      33.154   0.161   7.965  1.00  0.00     0.188 HD
BRANCH   3   5
HETATM    5  N1  UNL     1      33.007   2.241   8.256  1.00  0.00    -0.292 N 
ATOM      6  H1  UNL     1      32.091   2.687   8.232  1.00  0.00     0.187 HD
BRANCH   5   7
HETATM    7  C4  UNL     1      34.169   2.960   7.886  1.00  0.00     0.095 C 
HETATM    8  S1  UNL     1      35.281   2.294   6.897  1.00  0.00    -0.064 SA
BRANCH   7   9
HETATM    9  C2  UNL     1      34.327   4.332   8.434  1.00  0.00     0.040 C 
HETATM   10  C1  UNL     1      35.449   4.366   9.459  1.00  0.00     0.017 C 
HETATM   11  C3  UNL     1      34.627   5.350   7.382  1.00  0.00     0.017 C 
ENDBRANCH   7   9
ENDBRANCH   5   7
ENDBRANCH   3   5
ENDBRANCH   1   3
BRANCH   1  12
HETATM   12  C6  UNL     1      32.109   0.074  10.764  1.00  0.00     0.177 A 
HETATM   13  N3  UNL     1      31.444   0.642  11.778  1.00  0.00    -0.266 N 
HETATM   14  N4  UNL     1      30.478  -0.164  12.148  1.00  0.00    -0.226 N 
ATOM     15  H3  UNL     1      31.654   1.550  12.194  1.00  0.00     0.190 HD
HETATM   16  N5  UNL     1      30.504  -1.241  11.394  1.00  0.00    -0.226 N 
ATOM     17  H4  UNL     1      29.812   0.016  12.900  1.00  0.00     0.210 HD
HETATM   18  N6  UNL     1      31.499  -1.099  10.546  1.00  0.00    -0.266 N 
ATOM     19  H5  UNL     1      29.870  -2.037  11.455  1.00  0.00     0.210 HD
ATOM     20  H6  UNL     1      31.766  -1.777   9.832  1.00  0.00     0.190 HD
ENDBRANCH   1  12
TORSDOF 5
ENDMDL
MODEL 5
REMARK VINA RESULT: -5.637377841      3.858      7.015
REMARK  5 active torsions:
REMARK  status: ('A' for Active; 'I' for Inactive)
REMARK    1  A    between atoms: C2_2  and  C4_4 
REMARK    2  A    between atoms: C4_4  and  N1_6 
REMARK    3  A    between atoms: N1_6  and  N2_8 
REMARK    4  A    between atoms: N2_8  and  C5_10 
REMARK    5  A    between atoms: C5_10  and  C6_12 
ROOT
HETATM    1  C5  UNL     1      38.240   1.741  10.233  1.00  0.00     0.162 C 
HETATM    2  S2  UNL     1      37.713   3.264  10.467  1.00  0.00    -0.055 SA
ENDROOT
BRANCH   1   3
HETATM    3  N2  UNL     1      37.376   0.615  10.363  1.00  0.00    -0.286 N 
ATOM      4  H2  UNL     1      37.303   0.114  11.248  1.00  0.00     0.188 HD
BRANCH   3   5
HETATM    5  N1  UNL     1      36.635   0.214   9.254  1.00  0.00    -0.292 N 
ATOM      6  H1  UNL     1      37.068  -0.328   8.507  1.00  0.00     0.187 HD
BRANCH   5   7
HETATM    7  C4  UNL     1      35.268   0.573   9.185  1.00  0.00     0.095 C 
HETATM    8  S1  UNL     1      34.440   0.962  10.535  1.00  0.00    -0.064 SA
BRANCH   7   9
HETATM    9  C2  UNL     1      34.629   0.580   7.843  1.00  0.00     0.040 C 
HETATM   10  C1  UNL     1      33.159   0.946   7.960  1.00  0.00     0.017 C 
HETATM   11  C3  UNL     1      35.274   1.538   6.894  1.00  0.00     0.017 C 
ENDBRANCH   7   9
ENDBRANCH   5   7
ENDBRANCH   3   5
ENDBRANCH   1   3
BRANCH   1  12
HETATM   12  C6  UNL     1      39.648   1.526   9.878  1.00  0.00     0.177 A 
HETATM   13  N3  UNL     1      40.308   0.361   9.872  1.00  0.00    -0.266 N 
HETATM   14  N4  UNL     1      41.545   0.584   9.497  1.00  0.00    -0.226 N 
ATOM     15  H3  UNL     1      39.915  -0.547  10.119  1.00  0.00     0.190 HD
HETATM   16  N5  UNL     1      41.698   1.867   9.259  1.00  0.00    -0.226 N 
ATOM     17  H4  UNL     1      42.272  -0.126   9.404  1.00  0.00     0.210 HD
HETATM   18  N6  UNL     1      40.540   2.447   9.491  1.00  0.00    -0.266 N 
ATOM     19  H5  UNL     1      42.554   2.328   8.953  1.00  0.00     0.210 HD
ATOM     20  H6  UNL     1      40.350   3.445   9.390  1.00  0.00     0.190 HD
ENDBRANCH   1  12
TORSDOF 5
ENDMDL
