MODEL 1
REMARK VINA RESULT: -5.817143084      0.000      0.000
REMARK  5 active torsions:
REMARK  status: ('A' for Active; 'I' for Inactive)
REMARK    1  A    between atoms: C2_2  and  S1_3 
REMARK    2  A    between atoms: S1_3  and  C3_4 
REMARK    3  A    between atoms: C5_6  and  O1_7 
REMARK    4  A    between atoms: C9_13  and  O3_14 
REMARK    5  A    between atoms: C10_16  and  O4_17 
ROOT
HETATM    1  C3  UNL     1      35.844   2.880  10.456  1.00  0.00     0.079 C 
HETATM    2  C4  UNL     1      35.917   4.101   9.537  1.00  0.00     0.052 C 
HETATM    3  C5  UNL     1      34.788   4.135   8.491  1.00  0.00     0.150 C 
HETATM    4  C6  UNL     1      34.197   2.859   8.679  1.00  0.00     0.181 C 
HETATM    5  O2  UNL     1      35.314   2.028   8.464  1.00  0.00    -0.374 OA
HETATM    6  C7  UNL     1      35.549   1.591   9.776  1.00  0.00     0.138 C 
HETATM    7  C8  UNL     1      34.249   0.909  10.077  1.00  0.00     0.067 C 
HETATM    8  C9  UNL     1      33.314   0.761   8.877  1.00  0.00     0.152 C 
HETATM    9  C10 UNL     1      33.165   2.077   8.090  1.00  0.00     0.178 C 
ENDROOT
BRANCH   1  10
HETATM   10  S1  UNL     1      37.422   2.911  11.345  1.00  0.00    -0.162 SA
BRANCH  10  11
HETATM   11  C2  UNL     1      38.406   1.463  11.270  1.00  0.00     0.070 C 
HETATM   12  C1  UNL     1      38.008   0.533  12.413  1.00  0.00     0.016 C 
ENDBRANCH  10  11
ENDBRANCH   1  10
BRANCH   3  13
HETATM   13  O1  UNL     1      33.938   5.186   8.871  1.00  0.00    -0.393 OA
ATOM     14  H1  UNL     1      34.024   5.850   8.197  1.00  0.00     0.210 HD
ENDBRANCH   3  13
BRANCH   8  15
HETATM   15  O3  UNL     1      32.096   0.317   9.346  1.00  0.00    -0.393 OA
ATOM     16  H3  UNL     1      31.448   0.483   8.670  1.00  0.00     0.210 HD
ENDBRANCH   8  15
BRANCH   9  17
HETATM   17  O4  UNL     1      33.225   1.862   6.727  1.00  0.00    -0.390 OA
ATOM     18  H4  UNL     1      33.111   0.971   6.418  1.00  0.00     0.210 HD
ENDBRANCH   9  17
TORSDOF 5
ENDMDL
MODEL 2
REMARK VINA RESULT: -5.664213746      1.266      1.421
REMARK  5 active torsions:
REMARK  status: ('A' for Active; 'I' for Inactive)
REMARK    1  A    between atoms: C2_2  and  S1_3 
REMARK    2  A    between atoms: S1_3  and  C3_4 
REMARK    3  A    between atoms: C5_6  and  O1_7 
REMARK    4  A    between atoms: C9_13  and  O3_14 
REMARK    5  A    between atoms: C10_16  and  O4_17 
ROOT
HETATM    1  C3  UNL     1      35.880   2.965  10.437  1.00  0.00     0.079 C 
HETATM    2  C4  UNL     1      35.886   4.192   9.524  1.00  0.00     0.052 C 
HETATM    3  C5  UNL     1      34.728   4.192   8.510  1.00  0.00     0.150 C 
HETATM    4  C6  UNL     1      34.187   2.896   8.707  1.00  0.00     0.181 C 
HETATM    5  O2  UNL     1      35.324   2.104   8.456  1.00  0.00    -0.374 OA
HETATM    6  C7  UNL     1      35.611   1.670   9.760  1.00  0.00     0.138 C 
HETATM    7  C8  UNL     1      34.343   0.942  10.093  1.00  0.00     0.067 C 
HETATM    8  C9  UNL     1      33.381   0.768   8.918  1.00  0.00     0.152 C 
HETATM    9  C10 UNL     1      33.166   2.082   8.143  1.00  0.00     0.178 C 
ENDROOT
BRANCH   1  10
HETATM   10  S1  UNL     1      37.481   3.046  11.283  1.00  0.00    -0.162 SA
BRANCH  10  11
HETATM   11  C2  UNL     1      38.258   4.614  11.366  1.00  0.00     0.070 C 
HETATM   12  C1  UNL     1      38.474   4.983  12.832  1.00  0.00     0.016 C 
ENDBRANCH  10  11
ENDBRANCH   1  10
BRANCH   3  13
HETATM   13  O1  UNL     1      33.854   5.212   8.919  1.00  0.00    -0.393 OA
ATOM     14  H1  UNL     1      33.238   5.331   8.206  1.00  0.00     0.210 HD
ENDBRANCH   3  13
BRANCH   8  15
HETATM   15  O3  UNL     1      32.192   0.281   9.419  1.00  0.00    -0.393 OA
ATOM     16  H3  UNL     1      31.976  -0.508   8.934  1.00  0.00     0.210 HD
ENDBRANCH   8  15
BRANCH   9  17
HETATM   17  O4  UNL     1      33.195   1.874   6.778  1.00  0.00    -0.390 OA
ATOM     18  H4  UNL     1      32.835   2.555   6.222  1.00  0.00     0.210 HD
ENDBRANCH   9  17
TORSDOF 5
ENDMDL
MODEL 3
REMARK VINA RESULT: -5.327584970      2.425      4.307
REMARK  5 active torsions:
REMARK  status: ('A' for Active; 'I' for Inactive)
REMARK    1  A    between atoms: C2_2  and  S1_3 
REMARK    2  A    between atoms: S1_3  and  C3_4 
REMARK    3  A    between atoms: C5_6  and  O1_7 
REMARK    4  A    between atoms: C9_13  and  O3_14 
REMARK    5  A    between atoms: C10_16  and  O4_17 
ROOT
HETATM    1  C3  UNL     1      33.824   0.685   9.919  1.00  0.00     0.079 C 
HETATM    2  C4  UNL     1      32.978   1.620   9.052  1.00  0.00     0.052 C 
HETATM    3  C5  UNL     1      33.769   2.239   7.887  1.00  0.00     0.150 C 
HETATM    4  C6  UNL     1      35.089   1.822   8.195  1.00  0.00     0.181 C 
HETATM    5  O2  UNL     1      35.230   2.362   9.490  1.00  0.00    -0.374 OA
HETATM    6  C7  UNL     1      35.184   1.184  10.251  1.00  0.00     0.138 C 
HETATM    7  C8  UNL     1      36.367   0.449   9.694  1.00  0.00     0.067 C 
HETATM    8  C9  UNL     1      37.238   1.271   8.745  1.00  0.00     0.152 C 
HETATM    9  C10 UNL     1      36.403   2.012   7.684  1.00  0.00     0.178 C 
ENDROOT
BRANCH   1  10
HETATM   10  S1  UNL     1      32.775   0.364  11.362  1.00  0.00    -0.162 SA
BRANCH  10  11
HETATM   11  C2  UNL     1      31.050   0.237  11.079  1.00  0.00     0.070 C 
HETATM   12  C1  UNL     1      30.596  -1.182  11.412  1.00  0.00     0.016 C 
ENDBRANCH  10  11
ENDBRANCH   1  10
BRANCH   3  13
HETATM   13  O1  UNL     1      33.272   1.639   6.718  1.00  0.00    -0.393 OA
ATOM     14  H1  UNL     1      32.905   0.806   6.987  1.00  0.00     0.210 HD
ENDBRANCH   3  13
BRANCH   8  15
HETATM   15  O3  UNL     1      38.145   0.413   8.160  1.00  0.00    -0.393 OA
ATOM     16  H3  UNL     1      37.657  -0.204   7.626  1.00  0.00     0.210 HD
ENDBRANCH   8  15
BRANCH   9  17
HETATM   17  O4  UNL     1      36.841   3.311   7.511  1.00  0.00    -0.390 OA
ATOM     18  H4  UNL     1      36.436   3.823   6.822  1.00  0.00     0.210 HD
ENDBRANCH   9  17
TORSDOF 5
ENDMDL
MODEL 4
REMARK VINA RESULT: -5.180916018      2.918      4.891
REMARK  5 active torsions:
REMARK  status: ('A' for Active; 'I' for Inactive)
REMARK    1  A    between atoms: C2_2  and  S1_3 
REMARK    2  A    between atoms: S1_3  and  C3_4 
REMARK    3  A    between atoms: C5_6  and  O1_7 
REMARK    4  A    between atoms: C9_13  and  O3_14 
REMARK    5  A    between atoms: C10_16  and  O4_17 
ROOT
HETATM    1  C3  UNL     1      35.678   2.170   8.927  1.00  0.00     0.079 C 
HETATM    2  C4  UNL     1      36.655   2.973   8.065  1.00  0.00     0.052 C 
HETATM    3  C5  UNL     1      38.114   2.852   8.538  1.00  0.00     0.150 C 
HETATM    4  C6  UNL     1      37.951   2.154   9.763  1.00  0.00     0.181 C 
HETATM    5  O2  UNL     1      37.076   3.027  10.439  1.00  0.00    -0.374 OA
HETATM    6  C7  UNL     1      35.895   2.270  10.394  1.00  0.00     0.138 C 
HETATM    7  C8  UNL     1      36.327   1.041  11.135  1.00  0.00     0.067 C 
HETATM    8  C9  UNL     1      37.700   1.146  11.798  1.00  0.00     0.152 C 
HETATM    9  C10 UNL     1      38.767   1.709  10.839  1.00  0.00     0.178 C 
ENDROOT
BRANCH   1  10
HETATM   10  S1  UNL     1      34.047   2.733   8.373  1.00  0.00    -0.162 SA
BRANCH  10  11
HETATM   11  C2  UNL     1      32.807   1.510   8.182  1.00  0.00     0.070 C 
HETATM   12  C1  UNL     1      32.475   0.921   9.551  1.00  0.00     0.016 C 
ENDBRANCH  10  11
ENDBRANCH   1  10
BRANCH   3  13
HETATM   13  O1  UNL     1      38.776   2.088   7.564  1.00  0.00    -0.393 OA
ATOM     14  H1  UNL     1      39.018   2.695   6.874  1.00  0.00     0.210 HD
ENDBRANCH   3  13
BRANCH   8  15
HETATM   15  O3  UNL     1      38.045  -0.110  12.251  1.00  0.00    -0.393 OA
ATOM     16  H3  UNL     1      38.082  -0.075  13.200  1.00  0.00     0.210 HD
ENDBRANCH   8  15
BRANCH   9  17
HETATM   17  O4  UNL     1      39.567   2.645  11.465  1.00  0.00    -0.390 OA
ATOM     18  H4  UNL     1      40.339   2.330  11.920  1.00  0.00     0.210 HD
ENDBRANCH   9  17
TORSDOF 5
ENDMDL
MODEL 5
REMARK VINA RESULT: -5.164695140      2.177      4.161
REMARK  5 active torsions:
REMARK  status: ('A' for Active; 'I' for Inactive)
REMARK    1  A    between atoms: C2_2  and  S1_3 
REMARK    2  A    between atoms: S1_3  and  C3_4 
REMARK    3  A    between atoms: C5_6  and  O1_7 
REMARK    4  A    between atoms: C9_13  and  O3_14 
REMARK    5  A    between atoms: C10_16  and  O4_17 
ROOT
HETATM    1  C3  UNL     1      35.957   2.964   7.587  1.00  0.00     0.079 C 
HETATM    2  C4  UNL     1      37.137   2.327   8.324  1.00  0.00     0.052 C 
HETATM    3  C5  UNL     1      36.718   1.158   9.232  1.00  0.00     0.150 C 
HETATM    4  C6  UNL     1      35.304   1.250   9.168  1.00  0.00     0.181 C 
HETATM    5  O2  UNL     1      35.115   2.573   9.614  1.00  0.00    -0.374 OA
HETATM    6  C7  UNL     1      34.739   3.185   8.409  1.00  0.00     0.138 C 
HETATM    7  C8  UNL     1      33.504   2.403   8.076  1.00  0.00     0.067 C 
HETATM    8  C9  UNL     1      33.028   1.461   9.181  1.00  0.00     0.152 C 
HETATM    9  C10 UNL     1      34.177   0.608   9.752  1.00  0.00     0.178 C 
ENDROOT
BRANCH   1  10
HETATM   10  S1  UNL     1      36.657   4.474   6.870  1.00  0.00    -0.162 SA
BRANCH  10  11
HETATM   11  C2  UNL     1      35.530   5.623   6.178  1.00  0.00     0.070 C 
HETATM   12  C1  UNL     1      35.271   6.736   7.192  1.00  0.00     0.016 C 
ENDBRANCH  10  11
ENDBRANCH   1  10
BRANCH   3  13
HETATM   13  O1  UNL     1      37.212  -0.005   8.620  1.00  0.00    -0.393 OA
ATOM     14  H1  UNL     1      38.151   0.117   8.544  1.00  0.00     0.210 HD
ENDBRANCH   3  13
BRANCH   8  15
HETATM   15  O3  UNL     1      32.028   0.669   8.657  1.00  0.00    -0.393 OA
ATOM     16  H3  UNL     1      32.071   0.740   7.710  1.00  0.00     0.210 HD
ENDBRANCH   8  15
BRANCH   9  17
HETATM   17  O4  UNL     1      34.122   0.543  11.131  1.00  0.00    -0.390 OA
ATOM     18  H4  UNL     1      34.684  -0.088  11.564  1.00  0.00     0.210 HD
ENDBRANCH   9  17
TORSDOF 5
ENDMDL
