MODEL 1
REMARK VINA RESULT: -5.454783622      0.000      0.000
REMARK  6 active torsions:
REMARK  status: ('A' for Active; 'I' for Inactive)
REMARK    1  A    between atoms: C2_2  and  O1_3 
REMARK    2  A    between atoms: O1_3  and  C3_4 
REMARK    3  A    between atoms: C5_7  and  O3_8 
REMARK    4  A    between atoms: C6_10  and  O4_11 
REMARK    5  A    between atoms: C6_10  and  C7_13 
REMARK    6  A    between atoms: C11_17  and  O5_18 
ROOT
HETATM    1  C3  UNL     1      33.183   0.369   9.554  1.00  0.00     0.291 C 
HETATM    2  O2  UNL     1      32.836   0.385   8.202  1.00  0.00    -0.356 OA
HETATM    3  C4  UNL     1      32.624   1.725   7.891  1.00  0.00     0.206 C 
HETATM    4  C5  UNL     1      33.995   2.316   7.639  1.00  0.00     0.179 C 
HETATM    5  C6  UNL     1      34.978   1.916   8.711  1.00  0.00     0.122 C 
HETATM    6  C11 UNL     1      34.198   1.436   9.883  1.00  0.00     0.211 C 
ENDROOT
BRANCH   5   7
HETATM    7  O4  UNL     1      35.582   3.135   9.136  1.00  0.00    -0.384 OA
ATOM      8  H4  UNL     1      36.472   3.099   8.806  1.00  0.00     0.210 HD
ENDBRANCH   5   7
BRANCH   5   9
HETATM    9  C7  UNL     1      36.104   1.087   8.246  1.00  0.00    -0.015 C 
HETATM   10  C8  UNL     1      36.962   0.720   9.467  1.00  0.00     0.018 C 
HETATM   11  C9  UNL     1      35.813  -0.193   7.560  1.00  0.00     0.018 C 
HETATM   12  C10 UNL     1      37.008   1.908   7.347  1.00  0.00     0.018 C 
ENDBRANCH   5   9
BRANCH   4  13
HETATM   13  O3  UNL     1      34.354   1.997   6.358  1.00  0.00    -0.390 OA
ATOM     14  H3  UNL     1      34.647   2.796   5.934  1.00  0.00     0.210 HD
ENDBRANCH   4  13
BRANCH   6  15
HETATM   15  O5  UNL     1      34.903   1.027  10.979  1.00  0.00    -0.387 OA
ATOM     16  H5  UNL     1      35.016   1.775  11.554  1.00  0.00     0.210 HD
ENDBRANCH   6  15
BRANCH   1  17
HETATM   17  O1  UNL     1      32.002   0.630  10.253  1.00  0.00    -0.359 OA
BRANCH  17  18
HETATM   18  C2  UNL     1      31.940  -0.061  11.457  1.00  0.00     0.166 C 
HETATM   19  C1  UNL     1      30.779  -1.028  11.354  1.00  0.00     0.033 C 
ENDBRANCH  17  18
ENDBRANCH   1  17
TORSDOF 6
ENDMDL
MODEL 2
REMARK VINA RESULT: -5.285661178      1.151      1.185
REMARK  6 active torsions:
REMARK  status: ('A' for Active; 'I' for Inactive)
REMARK    1  A    between atoms: C2_2  and  O1_3 
REMARK    2  A    between atoms: O1_3  and  C3_4 
REMARK    3  A    between atoms: C5_7  and  O3_8 
REMARK    4  A    between atoms: C6_10  and  O4_11 
REMARK    5  A    between atoms: C6_10  and  C7_13 
REMARK    6  A    between atoms: C11_17  and  O5_18 
ROOT
HETATM    1  C3  UNL     1      34.216   0.515   9.716  1.00  0.00     0.291 C 
HETATM    2  O2  UNL     1      33.492   0.925   8.595  1.00  0.00    -0.356 OA
HETATM    3  C4  UNL     1      33.489   2.316   8.647  1.00  0.00     0.206 C 
HETATM    4  C5  UNL     1      34.815   2.757   8.063  1.00  0.00     0.179 C 
HETATM    5  C6  UNL     1      35.964   1.964   8.634  1.00  0.00     0.122 C 
HETATM    6  C11 UNL     1      35.487   1.311   9.883  1.00  0.00     0.211 C 
ENDROOT
BRANCH   5   7
HETATM    7  O4  UNL     1      36.914   2.937   9.059  1.00  0.00    -0.384 OA
ATOM      8  H4  UNL     1      37.716   2.718   8.599  1.00  0.00     0.210 HD
ENDBRANCH   5   7
BRANCH   5   9
HETATM    9  C7  UNL     1      36.694   1.135   7.658  1.00  0.00    -0.015 C 
HETATM   10  C8  UNL     1      38.097   0.859   8.222  1.00  0.00     0.018 C 
HETATM   11  C9  UNL     1      36.141  -0.189   7.290  1.00  0.00     0.018 C 
HETATM   12  C10 UNL     1      36.917   1.923   6.382  1.00  0.00     0.018 C 
ENDBRANCH   5   9
BRANCH   4  13
HETATM   13  O3  UNL     1      34.697   2.732   6.701  1.00  0.00    -0.390 OA
ATOM     14  H3  UNL     1      34.562   3.625   6.407  1.00  0.00     0.210 HD
ENDBRANCH   4  13
BRANCH   6  15
HETATM   15  O5  UNL     1      36.383   0.541  10.568  1.00  0.00    -0.387 OA
ATOM     16  H5  UNL     1      36.952   1.119  11.062  1.00  0.00     0.210 HD
ENDBRANCH   6  15
BRANCH   1  17
HETATM   17  O1  UNL     1      33.383   0.748  10.813  1.00  0.00    -0.359 OA
BRANCH  17  18
HETATM   18  C2  UNL     1      32.367  -0.195  10.911  1.00  0.00     0.166 C 
HETATM   19  C1  UNL     1      31.204   0.479  11.611  1.00  0.00     0.033 C 
ENDBRANCH  17  18
ENDBRANCH   1  17
TORSDOF 6
ENDMDL
MODEL 3
REMARK VINA RESULT: -5.219996481      2.053      4.579
REMARK  6 active torsions:
REMARK  status: ('A' for Active; 'I' for Inactive)
REMARK    1  A    between atoms: C2_2  and  O1_3 
REMARK    2  A    between atoms: O1_3  and  C3_4 
REMARK    3  A    between atoms: C5_7  and  O3_8 
REMARK    4  A    between atoms: C6_10  and  O4_11 
REMARK    5  A    between atoms: C6_10  and  C7_13 
REMARK    6  A    between atoms: C11_17  and  O5_18 
ROOT
HETATM    1  C3  UNL     1      37.352   2.307   9.465  1.00  0.00     0.291 C 
HETATM    2  O2  UNL     1      37.048   3.280   8.511  1.00  0.00    -0.356 OA
HETATM    3  C4  UNL     1      37.296   2.680   7.280  1.00  0.00     0.206 C 
HETATM    4  C5  UNL     1      36.066   1.856   6.963  1.00  0.00     0.179 C 
HETATM    5  C6  UNL     1      35.627   1.035   8.150  1.00  0.00     0.122 C 
HETATM    6  C11 UNL     1      36.770   0.964   9.099  1.00  0.00     0.211 C 
ENDROOT
BRANCH   5   7
HETATM    7  O4  UNL     1      35.473  -0.290   7.649  1.00  0.00    -0.384 OA
ATOM      8  H4  UNL     1      35.717  -0.858   8.371  1.00  0.00     0.210 HD
ENDBRANCH   5   7
BRANCH   5   9
HETATM    9  C7  UNL     1      34.301   1.383   8.691  1.00  0.00    -0.015 C 
HETATM   10  C8  UNL     1      34.162   0.722  10.072  1.00  0.00     0.018 C 
HETATM   11  C9  UNL     1      33.965   2.811   8.895  1.00  0.00     0.018 C 
HETATM   12  C10 UNL     1      33.217   0.762   7.833  1.00  0.00     0.018 C 
ENDBRANCH   5   9
BRANCH   4  13
HETATM   13  O3  UNL     1      35.123   2.701   6.446  1.00  0.00    -0.390 OA
ATOM     14  H3  UNL     1      34.440   2.804   7.099  1.00  0.00     0.210 HD
ENDBRANCH   4  13
BRANCH   6  15
HETATM   15  O5  UNL     1      36.585   0.254  10.251  1.00  0.00    -0.387 OA
ATOM     16  H5  UNL     1      36.131  -0.551  10.031  1.00  0.00     0.210 HD
ENDBRANCH   6  15
BRANCH   1  17
HETATM   17  O1  UNL     1      38.746   2.213   9.482  1.00  0.00    -0.359 OA
BRANCH  17  18
HETATM   18  C2  UNL     1      39.317   3.041  10.440  1.00  0.00     0.166 C 
HETATM   19  C1  UNL     1      38.692   2.675  11.770  1.00  0.00     0.033 C 
ENDBRANCH  17  18
ENDBRANCH   1  17
TORSDOF 6
ENDMDL
MODEL 4
REMARK VINA RESULT: -5.194710388      2.046      4.705
REMARK  6 active torsions:
REMARK  status: ('A' for Active; 'I' for Inactive)
REMARK    1  A    between atoms: C2_2  and  O1_3 
REMARK    2  A    between atoms: O1_3  and  C3_4 
REMARK    3  A    between atoms: C5_7  and  O3_8 
REMARK    4  A    between atoms: C6_10  and  O4_11 
REMARK    5  A    between atoms: C6_10  and  C7_13 
REMARK    6  A    between atoms: C11_17  and  O5_18 
ROOT
HETATM    1  C3  UNL     1      37.493   1.563   9.725  1.00  0.00     0.291 C 
HETATM    2  O2  UNL     1      36.904   0.552  10.489  1.00  0.00    -0.356 OA
HETATM    3  C4  UNL     1      35.954   1.194  11.279  1.00  0.00     0.206 C 
HETATM    4  C5  UNL     1      34.732   1.367  10.403  1.00  0.00     0.179 C 
HETATM    5  C6  UNL     1      35.096   1.905   9.042  1.00  0.00     0.122 C 
HETATM    6  C11 UNL     1      36.460   2.493   9.138  1.00  0.00     0.211 C 
ENDROOT
BRANCH   5   7
HETATM    7  O4  UNL     1      34.224   3.013   8.833  1.00  0.00    -0.384 OA
ATOM      8  H4  UNL     1      33.432   2.639   8.464  1.00  0.00     0.210 HD
ENDBRANCH   5   7
BRANCH   5   9
HETATM    9  C7  UNL     1      34.815   0.995   7.917  1.00  0.00    -0.015 C 
HETATM   10  C8  UNL     1      34.880   1.812   6.616  1.00  0.00     0.018 C 
HETATM   11  C9  UNL     1      35.702  -0.171   7.703  1.00  0.00     0.018 C 
HETATM   12  C10 UNL     1      33.388   0.492   8.009  1.00  0.00     0.018 C 
ENDBRANCH   5   9
BRANCH   4  13
HETATM   13  O3  UNL     1      34.047   0.183  10.407  1.00  0.00    -0.390 OA
ATOM     14  H3  UNL     1      33.938  -0.090   9.504  1.00  0.00     0.210 HD
ENDBRANCH   4  13
BRANCH   6  15
HETATM   15  O5  UNL     1      36.984   3.047   8.005  1.00  0.00    -0.387 OA
ATOM     16  H5  UNL     1      37.677   3.644   8.262  1.00  0.00     0.210 HD
ENDBRANCH   6  15
BRANCH   1  17
HETATM   17  O1  UNL     1      38.306   2.280  10.606  1.00  0.00    -0.359 OA
BRANCH  17  18
HETATM   18  C2  UNL     1      39.568   2.520  10.077  1.00  0.00     0.166 C 
HETATM   19  C1  UNL     1      40.009   1.244   9.388  1.00  0.00     0.033 C 
ENDBRANCH  17  18
ENDBRANCH   1  17
TORSDOF 6
ENDMDL
MODEL 5
REMARK VINA RESULT: -5.179232129      2.142      4.653
REMARK  6 active torsions:
REMARK  status: ('A' for Active; 'I' for Inactive)
REMARK    1  A    between atoms: C2_2  and  O1_3 
REMARK    2  A    between atoms: O1_3  and  C3_4 
REMARK    3  A    between atoms: C5_7  and  O3_8 
REMARK    4  A    between atoms: C6_10  and  O4_11 
REMARK    5  A    between atoms: C6_10  and  C7_13 
REMARK    6  A    between atoms: C11_17  and  O5_18 
ROOT
HETATM    1  C3  UNL     1      37.185   2.447   9.584  1.00  0.00     0.291 C 
HETATM    2  O2  UNL     1      36.942   1.339  10.398  1.00  0.00    -0.356 OA
HETATM    3  C4  UNL     1      35.855   1.697  11.192  1.00  0.00     0.206 C 
HETATM    4  C5  UNL     1      34.624   1.457  10.344  1.00  0.00     0.179 C 
HETATM    5  C6  UNL     1      34.787   2.022   8.955  1.00  0.00     0.122 C 
HETATM    6  C11 UNL     1      35.911   2.997   8.993  1.00  0.00     0.211 C 
ENDROOT
BRANCH   5   7
HETATM    7  O4  UNL     1      33.618   2.806   8.732  1.00  0.00    -0.384 OA
ATOM      8  H4  UNL     1      32.890   2.216   8.887  1.00  0.00     0.210 HD
ENDBRANCH   5   7
BRANCH   5   9
HETATM    9  C7  UNL     1      34.776   1.024   7.871  1.00  0.00    -0.015 C 
HETATM   10  C8  UNL     1      34.909   1.771   6.534  1.00  0.00     0.018 C 
HETATM   11  C9  UNL     1      35.825  -0.022   7.852  1.00  0.00     0.018 C 
HETATM   12  C10 UNL     1      33.426   0.337   7.820  1.00  0.00     0.018 C 
ENDBRANCH   5   9
BRANCH   4  13
HETATM   13  O3  UNL     1      34.329   0.123  10.409  1.00  0.00    -0.390 OA
ATOM     14  H3  UNL     1      33.484  -0.006   9.994  1.00  0.00     0.210 HD
ENDBRANCH   4  13
BRANCH   6  15
HETATM   15  O5  UNL     1      36.225   3.635   7.827  1.00  0.00    -0.387 OA
ATOM     16  H5  UNL     1      36.638   3.005   7.248  1.00  0.00     0.210 HD
ENDBRANCH   6  15
BRANCH   1  17
HETATM   17  O1  UNL     1      37.758   3.412  10.415  1.00  0.00    -0.359 OA
BRANCH  17  18
HETATM   18  C2  UNL     1      39.053   3.080  10.791  1.00  0.00     0.166 C 
HETATM   19  C1  UNL     1      39.196   3.442  12.256  1.00  0.00     0.033 C 
ENDBRANCH  17  18
ENDBRANCH   1  17
TORSDOF 6
ENDMDL
