MODEL 1
REMARK VINA RESULT: -7.226696012      0.000      0.000
REMARK  7 active torsions:
REMARK  status: ('A' for Active; 'I' for Inactive)
REMARK    1  A    between atoms: C1_2  and  C2_4 
REMARK    2  A    between atoms: C2_4  and  N2_5 
REMARK    3  A    between atoms: C2_4  and  C7_17 
REMARK    4  A    between atoms: N2_5  and  C3_7 
REMARK    5  A    between atoms: C9_22  and  N6_23 
REMARK    6  A    between atoms: C10_27  and  O5_28 
REMARK    7  A    between atoms: N7_30  and  N8_31 
ROOT
HETATM    1  C7  UNL     1      17.418  28.263   6.466  1.00  0.00     0.213 C 
HETATM    2  N5  UNL     1      16.198  28.764   5.890  1.00  0.00    -0.338 N 
ATOM      3  H5  UNL     1      15.325  28.764   6.420  1.00  0.00     0.164 HD
HETATM    4  C8  UNL     1      16.251  29.264   4.545  1.00  0.00     0.253 C 
HETATM    5  O4  UNL     1      15.210  29.336   3.885  1.00  0.00    -0.271 OA
HETATM    6  C9  UNL     1      17.537  29.695   3.946  1.00  0.00     0.319 C 
HETATM    7  C10 UNL     1      18.729  29.382   4.790  1.00  0.00     0.253 C 
HETATM    8  N7  UNL     1      18.487  29.212   6.186  1.00  0.00    -0.181 NA
ENDROOT
BRANCH   1   9
HETATM    9  C2  UNL     1      17.396  28.008   7.921  1.00  0.00     0.211 C 
BRANCH   9  10
HETATM   10  C1  UNL     1      16.509  26.930   8.407  1.00  0.00     0.257 C 
HETATM   11  N1  UNL     1      16.993  25.697   8.897  1.00  0.00    -0.060 NA
HETATM   12  O1  UNL     1      15.228  27.044   8.418  1.00  0.00    -0.274 OA
ENDBRANCH   9  10
BRANCH   9  13
HETATM   13  N2  UNL     1      18.679  27.885   8.546  1.00  0.00    -0.360 N 
ATOM     14  H2  UNL     1      19.318  27.222   8.106  1.00  0.00     0.162 HD
BRANCH  13  15
HETATM   15  C3  UNL     1      19.179  28.541   9.669  1.00  0.00     0.111 A 
HETATM   16  C4  UNL     1      19.202  27.908  10.896  1.00  0.00     0.122 A 
HETATM   17  C5  UNL     1      19.680  28.519  12.038  1.00  0.00     0.252 A 
HETATM   18  O2  UNL     1      19.702  27.948  13.150  1.00  0.00    -0.268 OA
HETATM   19  N3  UNL     1      20.135  29.775  11.946  1.00  0.00    -0.275 N 
HETATM   20  C6  UNL     1      20.109  30.380  10.755  1.00  0.00     0.328 A 
ATOM     21  H3  UNL     1      20.494  30.260  12.768  1.00  0.00     0.173 HD
HETATM   22  O3  UNL     1      20.538  31.572  10.649  1.00  0.00    -0.247 OA
HETATM   23  N4  UNL     1      19.641  29.791   9.616  1.00  0.00    -0.294 N 
ATOM     24  H4  UNL     1      19.645  30.302   8.733  1.00  0.00     0.172 HD
ENDBRANCH  13  15
ENDBRANCH   9  13
ENDBRANCH   1   9
BRANCH   8  25
HETATM   25  N8  UNL     1      18.310  30.418   6.862  1.00  0.00    -0.359 NA
ATOM     26  H82 UNL     1      18.238  30.304   7.873  1.00  0.00     0.171 HD
ATOM     27  H81 UNL     1      19.001  31.117   6.588  1.00  0.00     0.171 HD
ENDBRANCH   8  25
BRANCH   7  28
HETATM   28  O5  UNL     1      19.460  28.294   4.311  1.00  0.00    -0.377 OA
ATOM     29  H5  UNL     1      20.254  28.137   4.806  1.00  0.00     0.211 HD
ENDBRANCH   7  28
BRANCH   6  30
HETATM   30  N6  UNL     1      17.641  28.990   2.668  1.00  0.00    -0.063 N 
ATOM     31  H63 UNL     1      17.999  28.039   2.756  1.00  0.00     0.275 HD
ATOM     32  H62 UNL     1      16.738  28.747   2.263  1.00  0.00     0.275 HD
ATOM     33  H61 UNL     1      18.210  29.586   2.066  1.00  0.00     0.275 HD
ENDBRANCH   6  30
TORSDOF 7
ENDMDL
MODEL 2
REMARK VINA RESULT: -7.075277489      2.666      5.733
REMARK  7 active torsions:
REMARK  status: ('A' for Active; 'I' for Inactive)
REMARK    1  A    between atoms: C1_2  and  C2_4 
REMARK    2  A    between atoms: C2_4  and  N2_5 
REMARK    3  A    between atoms: C2_4  and  C7_17 
REMARK    4  A    between atoms: N2_5  and  C3_7 
REMARK    5  A    between atoms: C9_22  and  N6_23 
REMARK    6  A    between atoms: C10_27  and  O5_28 
REMARK    7  A    between atoms: N7_30  and  N8_31 
ROOT
HETATM    1  C7  UNL     1      17.535  26.326  10.329  1.00  0.00     0.213 C 
HETATM    2  N5  UNL     1      16.360  25.524  10.108  1.00  0.00    -0.338 N 
ATOM      3  H5  UNL     1      15.988  25.381   9.169  1.00  0.00     0.164 HD
HETATM    4  C8  UNL     1      15.732  24.931  11.256  1.00  0.00     0.253 C 
HETATM    5  O4  UNL     1      14.552  24.578  11.183  1.00  0.00    -0.271 OA
HETATM    6  C9  UNL     1      16.485  24.739  12.518  1.00  0.00     0.319 C 
HETATM    7  C10 UNL     1      17.836  25.375  12.516  1.00  0.00     0.253 C 
HETATM    8  N7  UNL     1      18.421  25.611  11.237  1.00  0.00    -0.181 NA
ENDROOT
BRANCH   1   9
HETATM    9  C2  UNL     1      18.307  26.697   9.126  1.00  0.00     0.211 C 
BRANCH   9  10
HETATM   10  C1  UNL     1      17.545  27.158   7.946  1.00  0.00     0.257 C 
HETATM   11  N1  UNL     1      18.122  27.308   6.666  1.00  0.00    -0.060 NA
HETATM   12  O1  UNL     1      16.294  27.455   8.006  1.00  0.00    -0.274 OA
ENDBRANCH   9  10
BRANCH   9  13
HETATM   13  N2  UNL     1      19.413  27.579   9.349  1.00  0.00    -0.360 N 
ATOM     14  H2  UNL     1      20.214  27.442   8.733  1.00  0.00     0.162 HD
BRANCH  13  15
HETATM   15  C3  UNL     1      19.551  28.599  10.291  1.00  0.00     0.111 A 
HETATM   16  C4  UNL     1      19.572  29.920   9.891  1.00  0.00     0.122 A 
HETATM   17  C5  UNL     1      19.715  30.964  10.784  1.00  0.00     0.252 A 
HETATM   18  O2  UNL     1      19.735  32.161  10.424  1.00  0.00    -0.268 OA
HETATM   19  N3  UNL     1      19.838  30.676  12.086  1.00  0.00    -0.275 N 
HETATM   20  C6  UNL     1      19.815  29.394  12.463  1.00  0.00     0.328 A 
ATOM     21  H3  UNL     1      19.946  31.420  12.776  1.00  0.00     0.173 HD
HETATM   22  O3  UNL     1      19.931  29.103  13.696  1.00  0.00    -0.247 OA
HETATM   23  N4  UNL     1      19.675  28.350  11.595  1.00  0.00    -0.294 N 
ATOM     24  H4  UNL     1      19.666  27.390  11.940  1.00  0.00     0.172 HD
ENDBRANCH  13  15
ENDBRANCH   9  13
ENDBRANCH   1   9
BRANCH   8  25
HETATM   25  N8  UNL     1      18.950  24.459  10.656  1.00  0.00    -0.359 NA
ATOM     26  H82 UNL     1      19.516  24.651   9.830  1.00  0.00     0.171 HD
ATOM     27  H81 UNL     1      19.428  23.869  11.338  1.00  0.00     0.171 HD
ENDBRANCH   8  25
BRANCH   7  28
HETATM   28  O5  UNL     1      17.881  26.549  13.270  1.00  0.00    -0.377 OA
ATOM     29  H5  UNL     1      18.247  26.417  14.136  1.00  0.00     0.211 HD
ENDBRANCH   7  28
BRANCH   6  30
HETATM   30  N6  UNL     1      15.663  25.333  13.571  1.00  0.00    -0.063 N 
ATOM     31  H63 UNL     1      14.664  25.166  13.451  1.00  0.00     0.275 HD
ATOM     32  H62 UNL     1      15.758  24.868  14.474  1.00  0.00     0.275 HD
ATOM     33  H61 UNL     1      15.911  26.323  13.595  1.00  0.00     0.275 HD
ENDBRANCH   6  30
TORSDOF 7
ENDMDL
MODEL 3
REMARK VINA RESULT: -6.908706547      3.951      5.499
REMARK  7 active torsions:
REMARK  status: ('A' for Active; 'I' for Inactive)
REMARK    1  A    between atoms: C1_2  and  C2_4 
REMARK    2  A    between atoms: C2_4  and  N2_5 
REMARK    3  A    between atoms: C2_4  and  C7_17 
REMARK    4  A    between atoms: N2_5  and  C3_7 
REMARK    5  A    between atoms: C9_22  and  N6_23 
REMARK    6  A    between atoms: C10_27  and  O5_28 
REMARK    7  A    between atoms: N7_30  and  N8_31 
ROOT
HETATM    1  C7  UNL     1      19.663  25.256  10.663  1.00  0.00     0.213 C 
HETATM    2  N5  UNL     1      18.870  24.153  10.187  1.00  0.00    -0.338 N 
ATOM      3  H5  UNL     1      17.891  24.052  10.455  1.00  0.00     0.164 HD
HETATM    4  C8  UNL     1      19.506  23.198   9.322  1.00  0.00     0.253 C 
HETATM    5  O4  UNL     1      19.020  22.070   9.207  1.00  0.00    -0.271 OA
HETATM    6  C9  UNL     1      20.733  23.556   8.571  1.00  0.00     0.319 C 
HETATM    7  C10 UNL     1      21.306  24.882   8.948  1.00  0.00     0.253 C 
HETATM    8  N7  UNL     1      20.403  25.815   9.539  1.00  0.00    -0.181 NA
ENDROOT
BRANCH   1   9
HETATM    9  C2  UNL     1      18.925  26.353  11.322  1.00  0.00     0.211 C 
BRANCH   9  10
HETATM   10  C1  UNL     1      17.977  25.984  12.394  1.00  0.00     0.257 C 
HETATM   11  N1  UNL     1      16.978  24.997  12.233  1.00  0.00    -0.060 NA
HETATM   12  O1  UNL     1      17.997  26.538  13.555  1.00  0.00    -0.274 OA
ENDBRANCH   9  10
BRANCH   9  13
HETATM   13  N2  UNL     1      19.723  27.460  11.756  1.00  0.00    -0.360 N 
ATOM     14  H2  UNL     1      20.351  27.268  12.537  1.00  0.00     0.162 HD
BRANCH  13  15
HETATM   15  C3  UNL     1      19.764  28.764  11.263  1.00  0.00     0.111 A 
HETATM   16  C4  UNL     1      20.116  29.812  12.090  1.00  0.00     0.122 A 
HETATM   17  C5  UNL     1      20.163  31.121  11.651  1.00  0.00     0.252 A 
HETATM   18  O2  UNL     1      20.482  32.071  12.397  1.00  0.00    -0.268 OA
HETATM   19  N3  UNL     1      19.851  31.376  10.374  1.00  0.00    -0.275 N 
HETATM   20  C6  UNL     1      19.511  30.354   9.582  1.00  0.00     0.328 A 
ATOM     21  H3  UNL     1      19.873  32.329  10.013  1.00  0.00     0.173 HD
HETATM   22  O3  UNL     1      19.213  30.578   8.366  1.00  0.00    -0.247 OA
HETATM   23  N4  UNL     1      19.461  29.056   9.998  1.00  0.00    -0.294 N 
ATOM     24  H4  UNL     1      19.194  28.316   9.348  1.00  0.00     0.172 HD
ENDBRANCH  13  15
ENDBRANCH   9  13
ENDBRANCH   1   9
BRANCH   8  25
HETATM   25  N8  UNL     1      19.563  26.428   8.611  1.00  0.00    -0.359 NA
ATOM     26  H82 UNL     1      18.604  26.529   8.944  1.00  0.00     0.171 HD
ATOM     27  H81 UNL     1      19.955  27.299   8.254  1.00  0.00     0.171 HD
ENDBRANCH   8  25
BRANCH   7  28
HETATM   28  O5  UNL     1      22.445  24.771   9.746  1.00  0.00    -0.377 OA
ATOM     29  H5  UNL     1      22.624  25.560  10.244  1.00  0.00     0.211 HD
ENDBRANCH   7  28
BRANCH   6  30
HETATM   30  N6  UNL     1      21.704  22.501   8.861  1.00  0.00    -0.063 N 
ATOM     31  H63 UNL     1      21.703  22.204   9.837  1.00  0.00     0.275 HD
ATOM     32  H62 UNL     1      21.457  21.598   8.457  1.00  0.00     0.275 HD
ATOM     33  H61 UNL     1      22.606  22.856   8.544  1.00  0.00     0.275 HD
ENDBRANCH   6  30
TORSDOF 7
ENDMDL
MODEL 4
REMARK VINA RESULT: -6.862756871      3.192      4.526
REMARK  7 active torsions:
REMARK  status: ('A' for Active; 'I' for Inactive)
REMARK    1  A    between atoms: C1_2  and  C2_4 
REMARK    2  A    between atoms: C2_4  and  N2_5 
REMARK    3  A    between atoms: C2_4  and  C7_17 
REMARK    4  A    between atoms: N2_5  and  C3_7 
REMARK    5  A    between atoms: C9_22  and  N6_23 
REMARK    6  A    between atoms: C10_27  and  O5_28 
REMARK    7  A    between atoms: N7_30  and  N8_31 
ROOT
HETATM    1  C7  UNL     1      17.658  26.119   8.401  1.00  0.00     0.213 C 
HETATM    2  N5  UNL     1      17.679  24.837   7.747  1.00  0.00    -0.338 N 
ATOM      3  H5  UNL     1      18.555  24.336   7.597  1.00  0.00     0.164 HD
HETATM    4  C8  UNL     1      16.424  24.289   7.313  1.00  0.00     0.253 C 
HETATM    5  O4  UNL     1      16.416  23.422   6.434  1.00  0.00    -0.271 OA
HETATM    6  C9  UNL     1      15.148  24.751   7.910  1.00  0.00     0.319 C 
HETATM    7  C10 UNL     1      15.299  25.923   8.821  1.00  0.00     0.253 C 
HETATM    8  N7  UNL     1      16.592  26.117   9.393  1.00  0.00    -0.181 NA
ENDROOT
BRANCH   1   9
HETATM    9  C2  UNL     1      18.910  26.532   9.068  1.00  0.00     0.211 C 
BRANCH   9  10
HETATM   10  C1  UNL     1      20.142  25.798   8.712  1.00  0.00     0.257 C 
HETATM   11  N1  UNL     1      21.071  25.339   9.672  1.00  0.00    -0.060 NA
HETATM   12  O1  UNL     1      20.454  25.524   7.494  1.00  0.00    -0.274 OA
ENDBRANCH   9  10
BRANCH   9  13
HETATM   13  N2  UNL     1      19.178  27.939   9.062  1.00  0.00    -0.360 N 
ATOM     14  H2  UNL     1      19.172  28.382   8.143  1.00  0.00     0.162 HD
BRANCH  13  15
HETATM   15  C3  UNL     1      19.445  28.789  10.134  1.00  0.00     0.111 A 
HETATM   16  C4  UNL     1      19.711  30.127   9.915  1.00  0.00     0.122 A 
HETATM   17  C5  UNL     1      19.989  31.006  10.943  1.00  0.00     0.252 A 
HETATM   18  O2  UNL     1      20.230  32.217  10.747  1.00  0.00    -0.268 OA
HETATM   19  N3  UNL     1      20.002  30.538  12.197  1.00  0.00    -0.275 N 
HETATM   20  C6  UNL     1      19.744  29.242  12.399  1.00  0.00     0.328 A 
ATOM     21  H3  UNL     1      20.205  31.156  12.982  1.00  0.00     0.173 HD
HETATM   22  O3  UNL     1      19.751  28.780  13.584  1.00  0.00    -0.247 OA
HETATM   23  N4  UNL     1      19.466  28.359  11.396  1.00  0.00    -0.294 N 
ATOM     24  H4  UNL     1      19.276  27.379  11.610  1.00  0.00     0.172 HD
ENDBRANCH  13  15
ENDBRANCH   9  13
ENDBRANCH   1   9
BRANCH   8  25
HETATM   25  N8  UNL     1      16.859  25.246  10.449  1.00  0.00    -0.359 NA
ATOM     26  H82 UNL     1      16.332  25.468  11.294  1.00  0.00     0.171 HD
ATOM     27  H81 UNL     1      16.774  24.268  10.172  1.00  0.00     0.171 HD
ENDBRANCH   8  25
BRANCH   7  28
HETATM   28  O5  UNL     1      14.866  27.117   8.243  1.00  0.00    -0.377 OA
ATOM     29  H5  UNL     1      13.980  27.062   7.904  1.00  0.00     0.211 HD
ENDBRANCH   7  28
BRANCH   6  30
HETATM   30  N6  UNL     1      14.286  25.111   6.784  1.00  0.00    -0.063 N 
ATOM     31  H63 UNL     1      13.380  24.643   6.800  1.00  0.00     0.275 HD
ATOM     32  H62 UNL     1      13.932  26.066   6.831  1.00  0.00     0.275 HD
ATOM     33  H61 UNL     1      14.829  24.918   5.942  1.00  0.00     0.275 HD
ENDBRANCH   6  30
TORSDOF 7
ENDMDL
MODEL 5
REMARK VINA RESULT: -6.831511715      3.353      4.356
REMARK  7 active torsions:
REMARK  status: ('A' for Active; 'I' for Inactive)
REMARK    1  A    between atoms: C1_2  and  C2_4 
REMARK    2  A    between atoms: C2_4  and  N2_5 
REMARK    3  A    between atoms: C2_4  and  C7_17 
REMARK    4  A    between atoms: N2_5  and  C3_7 
REMARK    5  A    between atoms: C9_22  and  N6_23 
REMARK    6  A    between atoms: C10_27  and  O5_28 
REMARK    7  A    between atoms: N7_30  and  N8_31 
ROOT
HETATM    1  C7  UNL     1      17.524  25.784   8.550  1.00  0.00     0.213 C 
HETATM    2  N5  UNL     1      17.483  24.552   7.807  1.00  0.00    -0.338 N 
ATOM      3  H5  UNL     1      18.330  24.006   7.644  1.00  0.00     0.164 HD
HETATM    4  C8  UNL     1      16.210  24.120   7.302  1.00  0.00     0.253 C 
HETATM    5  O4  UNL     1      16.173  23.319   6.363  1.00  0.00    -0.271 OA
HETATM    6  C9  UNL     1      14.948  24.622   7.897  1.00  0.00     0.319 C 
HETATM    7  C10 UNL     1      15.146  25.715   8.894  1.00  0.00     0.253 C 
HETATM    8  N7  UNL     1      16.430  25.782   9.512  1.00  0.00    -0.181 NA
ENDROOT
BRANCH   1   9
HETATM    9  C2  UNL     1      18.778  26.066   9.278  1.00  0.00     0.211 C 
BRANCH   9  10
HETATM   10  C1  UNL     1      19.866  25.072   9.164  1.00  0.00     0.257 C 
HETATM   11  N1  UNL     1      19.782  23.771   9.709  1.00  0.00    -0.060 NA
HETATM   12  O1  UNL     1      20.971  25.325   8.555  1.00  0.00    -0.274 OA
ENDBRANCH   9  10
BRANCH   9  13
HETATM   13  N2  UNL     1      19.316  27.380   9.095  1.00  0.00    -0.360 N 
ATOM     14  H2  UNL     1      19.632  27.596   8.149  1.00  0.00     0.162 HD
BRANCH  13  15
HETATM   15  C3  UNL     1      19.470  28.407  10.026  1.00  0.00     0.111 A 
HETATM   16  C4  UNL     1      19.553  28.121  11.374  1.00  0.00     0.122 A 
HETATM   17  C5  UNL     1      19.697  29.103  12.334  1.00  0.00     0.252 A 
HETATM   18  O2  UNL     1      19.773  28.846  13.555  1.00  0.00    -0.268 OA
HETATM   19  N3  UNL     1      19.756  30.380  11.935  1.00  0.00    -0.275 N 
HETATM   20  C6  UNL     1      19.675  30.647  10.628  1.00  0.00     0.328 A 
ATOM     21  H3  UNL     1      19.861  31.133  12.615  1.00  0.00     0.173 HD
HETATM   22  O3  UNL     1      19.730  31.854  10.232  1.00  0.00    -0.247 OA
HETATM   23  N4  UNL     1      19.533  29.689   9.666  1.00  0.00    -0.294 N 
ATOM     24  H4  UNL     1      19.476  29.952   8.682  1.00  0.00     0.172 HD
ENDBRANCH  13  15
ENDBRANCH   9  13
ENDBRANCH   1   9
BRANCH   8  25
HETATM   25  N8  UNL     1      16.608  24.824  10.509  1.00  0.00    -0.359 NA
ATOM     26  H82 UNL     1      15.980  24.026  10.414  1.00  0.00     0.171 HD
ATOM     27  H81 UNL     1      17.586  24.552  10.610  1.00  0.00     0.171 HD
ENDBRANCH   8  25
BRANCH   7  28
HETATM   28  O5  UNL     1      14.807  26.972   8.391  1.00  0.00    -0.377 OA
ATOM     29  H5  UNL     1      13.907  27.020   8.094  1.00  0.00     0.211 HD
ENDBRANCH   7  28
BRANCH   6  30
HETATM   30  N6  UNL     1      14.145  25.115   6.778  1.00  0.00    -0.063 N 
ATOM     31  H63 UNL     1      14.633  25.084   5.883  1.00  0.00     0.275 HD
ATOM     32  H62 UNL     1      13.377  24.495   6.523  1.00  0.00     0.275 HD
ATOM     33  H61 UNL     1      13.841  26.052   7.044  1.00  0.00     0.275 HD
ENDBRANCH   6  30
TORSDOF 7
ENDMDL
