MODEL 1
REMARK VINA RESULT: -6.877937972      0.000      0.000
REMARK  14 active torsions:
REMARK  status: ('A' for Active; 'I' for Inactive)
REMARK    1  A    between atoms: C2_2  and  C3_3 
REMARK    2  A    between atoms: C8_8  and  C9_9 
REMARK    3  A    between atoms: C8_8  and  C27_39 
REMARK       I    between atoms: C9_9  and  N1_11 
REMARK    4  A    between atoms: N1_11  and  C10_13 
REMARK    5  A    between atoms: C10_13  and  C11_14 
REMARK    6  A    between atoms: C14_17  and  S1_18 
REMARK    7  A    between atoms: S1_18  and  N2_21 
REMARK    8  A    between atoms: N2_21  and  C15_23 
REMARK    9  A    between atoms: C15_23  and  C16_24 
REMARK   10  A    between atoms: C16_24  and  C17_25 
REMARK   11  A    between atoms: C17_25  and  C18_26 
REMARK   12  A    between atoms: C18_26  and  N3_27 
REMARK   13  A    between atoms: C23_33  and  C24_34 
REMARK   14  A    between atoms: C24_34  and  O4_35 
ROOT
HETATM    1  C11 UNL     1      -8.051  42.663   0.187  1.00  0.00    -0.040 A 
HETATM    2  C12 UNL     1      -7.995  43.815  -0.569  1.00  0.00     0.010 A 
HETATM    3  C13 UNL     1      -9.104  44.265  -1.258  1.00  0.00     0.026 A 
HETATM    4  C14 UNL     1     -10.310  43.597  -1.226  1.00  0.00     0.079 A 
HETATM    5  C25 UNL     1     -10.375  42.444  -0.474  1.00  0.00     0.026 A 
HETATM    6  C26 UNL     1      -9.259  41.997   0.215  1.00  0.00     0.010 A 
ENDROOT
BRANCH   1   7
HETATM    7  C10 UNL     1      -6.860  42.173   0.940  1.00  0.00     0.161 C 
BRANCH   7   8
HETATM    8  N1  UNL     1      -6.054  43.233   1.489  1.00  0.00    -0.356 N 
HETATM    9  C9  UNL     1      -6.381  43.861   2.667  1.00  0.00     0.227 C 
HETATM   10  O1  UNL     1      -7.455  43.446   3.240  1.00  0.00    -0.273 OA
ATOM     11  H1  UNL     1      -5.215  43.526   0.990  1.00  0.00     0.162 HD
BRANCH   9  12
HETATM   12  C8  UNL     1      -5.657  44.962   3.373  1.00  0.00     0.048 C 
HETATM   13  C3  UNL     1      -4.269  44.463   3.586  1.00  0.00     0.003 C 
HETATM   14  C4  UNL     1      -3.591  44.773   4.874  1.00  0.00     0.006 C 
HETATM   15  C5  UNL     1      -4.424  44.541   6.099  1.00  0.00     0.000 C 
HETATM   16  C6  UNL     1      -5.767  44.004   5.681  1.00  0.00     0.001 C 
HETATM   17  C7  UNL     1      -6.348  45.038   4.729  1.00  0.00     0.020 C 
BRANCH  13  18
HETATM   18  C2  UNL     1      -3.322  44.637   2.438  1.00  0.00     0.001 C 
HETATM   19  C1  UNL     1      -1.965  45.178   2.914  1.00  0.00     0.005 C 
ENDBRANCH  13  18
BRANCH  12  20
HETATM   20  C27 UNL     1      -5.777  46.204   2.560  1.00  0.00     0.004 C 
HETATM   21  C28 UNL     1      -7.137  46.371   1.960  1.00  0.00     0.006 C 
HETATM   22  C29 UNL     1      -7.345  47.753   1.352  1.00  0.00     0.000 C 
HETATM   23  C30 UNL     1      -7.241  48.857   2.338  1.00  0.00     0.000 C 
HETATM   24  C31 UNL     1      -6.496  48.420   3.574  1.00  0.00     0.000 C 
HETATM   25  C32 UNL     1      -5.377  47.493   3.143  1.00  0.00     0.006 C 
ENDBRANCH  12  20
ENDBRANCH   9  12
ENDBRANCH   7   8
ENDBRANCH   1   7
BRANCH   4  26
HETATM   26  S1  UNL     1     -11.693  44.216  -2.122  1.00  0.00     0.258 S 
HETATM   27  O2  UNL     1     -11.381  45.580  -2.698  1.00  0.00    -0.201 OA
HETATM   28  O3  UNL     1     -11.979  43.238  -3.232  1.00  0.00    -0.201 OA
BRANCH  26  29
HETATM   29  N2  UNL     1     -13.076  44.278  -1.082  1.00  0.00    -0.315 N 
ATOM     30  H2  UNL     1     -13.691  43.494  -0.860  1.00  0.00     0.172 HD
BRANCH  29  31
HETATM   31  C15 UNL     1     -13.212  45.613  -0.588  1.00  0.00     0.132 C 
BRANCH  31  32
HETATM   32  C16 UNL     1     -13.104  45.708   0.906  1.00  0.00     0.022 C 
BRANCH  32  33
HETATM   33  C17 UNL     1     -11.665  45.828   1.354  1.00  0.00     0.032 C 
BRANCH  33  34
HETATM   34  C18 UNL     1     -10.962  46.974   0.643  1.00  0.00     0.273 C 
BRANCH  34  35
HETATM   35  N3  UNL     1     -10.900  48.130   1.473  1.00  0.00     0.098 N 
HETATM   36  C19 UNL     1     -10.811  47.790   2.881  1.00  0.00     0.303 C 
HETATM   37  C20 UNL     1     -11.292  48.920   3.761  1.00  0.00     0.302 C 
HETATM   38  N4  UNL     1     -10.946  50.209   3.247  1.00  0.00     0.088 N 
HETATM   39  C21 UNL     1     -11.456  51.248   4.117  1.00  0.00     0.310 C 
HETATM   40  C22 UNL     1     -11.304  50.427   1.877  1.00  0.00     0.309 C 
HETATM   41  C23 UNL     1     -11.871  49.142   1.252  1.00  0.00     0.274 C 
BRANCH  41  42
HETATM   42  C24 UNL     1     -12.172  49.422  -0.177  1.00  0.00     0.201 C 
BRANCH  42  43
HETATM   43  O4  UNL     1     -13.463  49.130  -0.551  1.00  0.00    -0.399 OA
ATOM     44  H4  UNL     1     -14.101  49.787  -0.299  1.00  0.00     0.209 HD
ENDBRANCH  42  43
ENDBRANCH  41  42
ENDBRANCH  34  35
ENDBRANCH  33  34
ENDBRANCH  32  33
ENDBRANCH  31  32
ENDBRANCH  29  31
ENDBRANCH  26  29
ENDBRANCH   4  26
TORSDOF 14
ENDMDL
MODEL 2
REMARK VINA RESULT: -6.847856471      1.041      1.760
REMARK  14 active torsions:
REMARK  status: ('A' for Active; 'I' for Inactive)
REMARK    1  A    between atoms: C2_2  and  C3_3 
REMARK    2  A    between atoms: C8_8  and  C9_9 
REMARK    3  A    between atoms: C8_8  and  C27_39 
REMARK       I    between atoms: C9_9  and  N1_11 
REMARK    4  A    between atoms: N1_11  and  C10_13 
REMARK    5  A    between atoms: C10_13  and  C11_14 
REMARK    6  A    between atoms: C14_17  and  S1_18 
REMARK    7  A    between atoms: S1_18  and  N2_21 
REMARK    8  A    between atoms: N2_21  and  C15_23 
REMARK    9  A    between atoms: C15_23  and  C16_24 
REMARK   10  A    between atoms: C16_24  and  C17_25 
REMARK   11  A    between atoms: C17_25  and  C18_26 
REMARK   12  A    between atoms: C18_26  and  N3_27 
REMARK   13  A    between atoms: C23_33  and  C24_34 
REMARK   14  A    between atoms: C24_34  and  O4_35 
ROOT
HETATM    1  C11 UNL     1      -8.033  42.725   0.190  1.00  0.00    -0.040 A 
HETATM    2  C12 UNL     1      -9.242  42.061   0.234  1.00  0.00     0.010 A 
HETATM    3  C13 UNL     1     -10.335  42.533  -0.465  1.00  0.00     0.026 A 
HETATM    4  C14 UNL     1     -10.278  43.676  -1.235  1.00  0.00     0.079 A 
HETATM    5  C25 UNL     1      -9.074  44.345  -1.285  1.00  0.00     0.026 A 
HETATM    6  C26 UNL     1      -7.980  43.867  -0.581  1.00  0.00     0.010 A 
ENDROOT
BRANCH   1   7
HETATM    7  C10 UNL     1      -6.845  42.218   0.937  1.00  0.00     0.161 C 
BRANCH   7   8
HETATM    8  N1  UNL     1      -6.011  43.268   1.465  1.00  0.00    -0.356 N 
HETATM    9  C9  UNL     1      -6.354  43.973   2.593  1.00  0.00     0.227 C 
HETATM   10  O1  UNL     1      -7.470  43.639   3.140  1.00  0.00    -0.273 OA
ATOM     11  H1  UNL     1      -5.139  43.494   0.988  1.00  0.00     0.162 HD
BRANCH   9  12
HETATM   12  C8  UNL     1      -5.607  45.074   3.272  1.00  0.00     0.048 C 
HETATM   13  C3  UNL     1      -4.265  44.514   3.597  1.00  0.00     0.003 C 
HETATM   14  C4  UNL     1      -3.642  44.868   4.901  1.00  0.00     0.006 C 
HETATM   15  C5  UNL     1      -4.552  44.761   6.086  1.00  0.00     0.000 C 
HETATM   16  C6  UNL     1      -5.900  44.275   5.625  1.00  0.00     0.001 C 
HETATM   17  C7  UNL     1      -6.365  45.276   4.578  1.00  0.00     0.020 C 
BRANCH  13  18
HETATM   18  C2  UNL     1      -3.247  44.560   2.498  1.00  0.00     0.001 C 
HETATM   19  C1  UNL     1      -1.860  44.937   3.040  1.00  0.00     0.005 C 
ENDBRANCH  13  18
BRANCH  12  20
HETATM   20  C27 UNL     1      -5.607  46.266   2.379  1.00  0.00     0.004 C 
HETATM   21  C28 UNL     1      -6.975  46.613   1.883  1.00  0.00     0.006 C 
HETATM   22  C29 UNL     1      -7.022  47.969   1.190  1.00  0.00     0.000 C 
HETATM   23  C30 UNL     1      -6.656  49.102   2.076  1.00  0.00     0.000 C 
HETATM   24  C31 UNL     1      -5.876  48.629   3.277  1.00  0.00     0.000 C 
HETATM   25  C32 UNL     1      -4.960  47.508   2.827  1.00  0.00     0.006 C 
ENDBRANCH  12  20
ENDBRANCH   9  12
ENDBRANCH   7   8
ENDBRANCH   1   7
BRANCH   4  26
HETATM   26  S1  UNL     1     -11.702  44.232  -2.107  1.00  0.00     0.258 S 
HETATM   27  O2  UNL     1     -11.432  45.571  -2.759  1.00  0.00    -0.201 OA
HETATM   28  O3  UNL     1     -12.014  43.198  -3.157  1.00  0.00    -0.201 OA
BRANCH  26  29
HETATM   29  N2  UNL     1     -13.047  44.325  -1.020  1.00  0.00    -0.315 N 
ATOM     30  H2  UNL     1     -13.281  43.640  -0.302  1.00  0.00     0.172 HD
BRANCH  29  31
HETATM   31  C15 UNL     1     -13.773  45.525  -1.300  1.00  0.00     0.132 C 
BRANCH  31  32
HETATM   32  C16 UNL     1     -14.248  46.235  -0.066  1.00  0.00     0.022 C 
BRANCH  32  33
HETATM   33  C17 UNL     1     -13.795  47.677  -0.045  1.00  0.00     0.032 C 
BRANCH  33  34
HETATM   34  C18 UNL     1     -12.279  47.778  -0.111  1.00  0.00     0.273 C 
BRANCH  34  35
HETATM   35  N3  UNL     1     -11.739  48.202   1.137  1.00  0.00     0.098 N 
HETATM   36  C19 UNL     1     -11.338  49.596   1.115  1.00  0.00     0.303 C 
HETATM   37  C20 UNL     1     -10.301  49.897   2.173  1.00  0.00     0.302 C 
HETATM   38  N4  UNL     1     -10.516  49.166   3.384  1.00  0.00     0.088 N 
HETATM   39  C21 UNL     1      -9.479  49.475   4.346  1.00  0.00     0.310 C 
HETATM   40  C22 UNL     1     -10.692  47.755   3.213  1.00  0.00     0.309 C 
HETATM   41  C23 UNL     1     -10.732  47.389   1.720  1.00  0.00     0.274 C 
BRANCH  41  42
HETATM   42  C24 UNL     1     -10.968  45.924   1.614  1.00  0.00     0.201 C 
BRANCH  42  43
HETATM   43  O4  UNL     1      -9.974  45.149   2.164  1.00  0.00    -0.399 OA
ATOM     44  H4  UNL     1      -9.304  44.878   1.549  1.00  0.00     0.209 HD
ENDBRANCH  42  43
ENDBRANCH  41  42
ENDBRANCH  34  35
ENDBRANCH  33  34
ENDBRANCH  32  33
ENDBRANCH  31  32
ENDBRANCH  29  31
ENDBRANCH  26  29
ENDBRANCH   4  26
TORSDOF 14
ENDMDL
MODEL 3
REMARK VINA RESULT: -6.765991966      1.670      3.324
REMARK  14 active torsions:
REMARK  status: ('A' for Active; 'I' for Inactive)
REMARK    1  A    between atoms: C2_2  and  C3_3 
REMARK    2  A    between atoms: C8_8  and  C9_9 
REMARK    3  A    between atoms: C8_8  and  C27_39 
REMARK       I    between atoms: C9_9  and  N1_11 
REMARK    4  A    between atoms: N1_11  and  C10_13 
REMARK    5  A    between atoms: C10_13  and  C11_14 
REMARK    6  A    between atoms: C14_17  and  S1_18 
REMARK    7  A    between atoms: S1_18  and  N2_21 
REMARK    8  A    between atoms: N2_21  and  C15_23 
REMARK    9  A    between atoms: C15_23  and  C16_24 
REMARK   10  A    between atoms: C16_24  and  C17_25 
REMARK   11  A    between atoms: C17_25  and  C18_26 
REMARK   12  A    between atoms: C18_26  and  N3_27 
REMARK   13  A    between atoms: C23_33  and  C24_34 
REMARK   14  A    between atoms: C24_34  and  O4_35 
ROOT
HETATM    1  C11 UNL     1      -7.898  42.767   0.297  1.00  0.00    -0.040 A 
HETATM    2  C12 UNL     1      -9.134  42.165   0.412  1.00  0.00     0.010 A 
HETATM    3  C13 UNL     1     -10.224  42.646  -0.288  1.00  0.00     0.026 A 
HETATM    4  C14 UNL     1     -10.136  43.736  -1.127  1.00  0.00     0.079 A 
HETATM    5  C25 UNL     1      -8.905  44.343  -1.248  1.00  0.00     0.026 A 
HETATM    6  C26 UNL     1      -7.815  43.857  -0.544  1.00  0.00     0.010 A 
ENDROOT
BRANCH   1   7
HETATM    7  C10 UNL     1      -6.714  42.250   1.042  1.00  0.00     0.161 C 
BRANCH   7   8
HETATM    8  N1  UNL     1      -5.918  43.290   1.644  1.00  0.00    -0.356 N 
HETATM    9  C9  UNL     1      -6.081  43.666   2.955  1.00  0.00     0.227 C 
HETATM   10  O1  UNL     1      -6.994  43.035   3.606  1.00  0.00    -0.273 OA
ATOM     11  H1  UNL     1      -5.212  43.761   1.079  1.00  0.00     0.162 HD
BRANCH   9  12
HETATM   12  C8  UNL     1      -5.341  44.709   3.729  1.00  0.00     0.048 C 
HETATM   13  C3  UNL     1      -5.833  44.599   5.131  1.00  0.00     0.003 C 
HETATM   14  C4  UNL     1      -6.053  45.848   5.908  1.00  0.00     0.006 C 
HETATM   15  C5  UNL     1      -6.797  46.924   5.178  1.00  0.00     0.000 C 
HETATM   16  C6  UNL     1      -7.164  46.421   3.807  1.00  0.00     0.001 C 
HETATM   17  C7  UNL     1      -5.853  46.022   3.148  1.00  0.00     0.020 C 
BRANCH  13  18
HETATM   18  C2  UNL     1      -5.170  43.559   5.983  1.00  0.00     0.001 C 
HETATM   19  C1  UNL     1      -4.863  44.104   7.386  1.00  0.00     0.005 C 
ENDBRANCH  13  18
BRANCH  12  20
HETATM   20  C27 UNL     1      -3.881  44.489   3.540  1.00  0.00     0.004 C 
HETATM   21  C28 UNL     1      -3.425  44.810   2.151  1.00  0.00     0.006 C 
HETATM   22  C29 UNL     1      -1.907  44.840   2.024  1.00  0.00     0.000 C 
HETATM   23  C30 UNL     1      -1.260  45.874   2.870  1.00  0.00     0.000 C 
HETATM   24  C31 UNL     1      -2.169  46.314   3.989  1.00  0.00     0.000 C 
HETATM   25  C32 UNL     1      -2.929  45.098   4.481  1.00  0.00     0.006 C 
ENDBRANCH  12  20
ENDBRANCH   9  12
ENDBRANCH   7   8
ENDBRANCH   1   7
BRANCH   4  26
HETATM   26  S1  UNL     1     -11.557  44.306  -1.996  1.00  0.00     0.258 S 
HETATM   27  O2  UNL     1     -11.301  45.675  -2.587  1.00  0.00    -0.201 OA
HETATM   28  O3  UNL     1     -11.838  43.312  -3.092  1.00  0.00    -0.201 OA
BRANCH  26  29
HETATM   29  N2  UNL     1     -12.918  44.332  -0.924  1.00  0.00    -0.315 N 
ATOM     30  H2  UNL     1     -13.093  43.671  -0.167  1.00  0.00     0.172 HD
BRANCH  29  31
HETATM   31  C15 UNL     1     -13.754  45.436  -1.282  1.00  0.00     0.132 C 
BRANCH  31  32
HETATM   32  C16 UNL     1     -14.244  46.219  -0.099  1.00  0.00     0.022 C 
BRANCH  32  33
HETATM   33  C17 UNL     1     -13.763  47.651  -0.142  1.00  0.00     0.032 C 
BRANCH  33  34
HETATM   34  C18 UNL     1     -12.913  47.983   1.074  1.00  0.00     0.273 C 
BRANCH  34  35
HETATM   35  N3  UNL     1     -11.545  48.148   0.714  1.00  0.00     0.098 N 
HETATM   36  C19 UNL     1     -11.388  48.958  -0.480  1.00  0.00     0.303 C 
HETATM   37  C20 UNL     1     -10.069  48.690  -1.168  1.00  0.00     0.302 C 
HETATM   38  N4  UNL     1      -9.003  48.443  -0.247  1.00  0.00     0.088 N 
HETATM   39  C21 UNL     1      -7.776  48.167  -0.964  1.00  0.00     0.310 C 
HETATM   40  C22 UNL     1      -9.284  47.451   0.747  1.00  0.00     0.309 C 
HETATM   41  C23 UNL     1     -10.743  46.978   0.648  1.00  0.00     0.274 C 
BRANCH  41  42
HETATM   42  C24 UNL     1     -10.981  45.993   1.736  1.00  0.00     0.201 C 
BRANCH  42  43
HETATM   43  O4  UNL     1      -9.871  45.264   2.091  1.00  0.00    -0.399 OA
ATOM     44  H4  UNL     1     -10.052  44.532   2.670  1.00  0.00     0.209 HD
ENDBRANCH  42  43
ENDBRANCH  41  42
ENDBRANCH  34  35
ENDBRANCH  33  34
ENDBRANCH  32  33
ENDBRANCH  31  32
ENDBRANCH  29  31
ENDBRANCH  26  29
ENDBRANCH   4  26
TORSDOF 14
ENDMDL
MODEL 4
REMARK VINA RESULT: -6.748792410      1.273      1.789
REMARK  14 active torsions:
REMARK  status: ('A' for Active; 'I' for Inactive)
REMARK    1  A    between atoms: C2_2  and  C3_3 
REMARK    2  A    between atoms: C8_8  and  C9_9 
REMARK    3  A    between atoms: C8_8  and  C27_39 
REMARK       I    between atoms: C9_9  and  N1_11 
REMARK    4  A    between atoms: N1_11  and  C10_13 
REMARK    5  A    between atoms: C10_13  and  C11_14 
REMARK    6  A    between atoms: C14_17  and  S1_18 
REMARK    7  A    between atoms: S1_18  and  N2_21 
REMARK    8  A    between atoms: N2_21  and  C15_23 
REMARK    9  A    between atoms: C15_23  and  C16_24 
REMARK   10  A    between atoms: C16_24  and  C17_25 
REMARK   11  A    between atoms: C17_25  and  C18_26 
REMARK   12  A    between atoms: C18_26  and  N3_27 
REMARK   13  A    between atoms: C23_33  and  C24_34 
REMARK   14  A    between atoms: C24_34  and  O4_35 
ROOT
HETATM    1  C11 UNL     1      -8.182  42.508   0.159  1.00  0.00    -0.040 A 
HETATM    2  C12 UNL     1      -8.271  43.742  -0.451  1.00  0.00     0.010 A 
HETATM    3  C13 UNL     1      -9.421  44.124  -1.113  1.00  0.00     0.026 A 
HETATM    4  C14 UNL     1     -10.528  43.304  -1.197  1.00  0.00     0.079 A 
HETATM    5  C25 UNL     1     -10.447  42.070  -0.590  1.00  0.00     0.026 A 
HETATM    6  C26 UNL     1      -9.290  41.691   0.072  1.00  0.00     0.010 A 
ENDROOT
BRANCH   1   7
HETATM    7  C10 UNL     1      -6.946  42.090   0.882  1.00  0.00     0.161 C 
BRANCH   7   8
HETATM    8  N1  UNL     1      -6.175  43.198   1.386  1.00  0.00    -0.356 N 
HETATM    9  C9  UNL     1      -6.425  43.762   2.613  1.00  0.00     0.227 C 
HETATM   10  O1  UNL     1      -7.397  43.242   3.277  1.00  0.00    -0.273 OA
ATOM     11  H1  UNL     1      -5.419  43.574   0.814  1.00  0.00     0.162 HD
BRANCH   9  12
HETATM   12  C8  UNL     1      -5.722  44.899   3.282  1.00  0.00     0.048 C 
HETATM   13  C3  UNL     1      -4.324  44.435   3.506  1.00  0.00     0.003 C 
HETATM   14  C4  UNL     1      -3.649  44.799   4.781  1.00  0.00     0.006 C 
HETATM   15  C5  UNL     1      -4.473  44.589   6.015  1.00  0.00     0.000 C 
HETATM   16  C6  UNL     1      -5.807  44.012   5.620  1.00  0.00     0.001 C 
HETATM   17  C7  UNL     1      -6.411  45.004   4.637  1.00  0.00     0.020 C 
BRANCH  13  18
HETATM   18  C2  UNL     1      -3.383  44.591   2.350  1.00  0.00     0.001 C 
HETATM   19  C1  UNL     1      -1.983  45.008   2.825  1.00  0.00     0.005 C 
ENDBRANCH  13  18
BRANCH  12  20
HETATM   20  C27 UNL     1      -5.869  46.112   2.430  1.00  0.00     0.004 C 
HETATM   21  C28 UNL     1      -7.269  46.306   1.941  1.00  0.00     0.006 C 
HETATM   22  C29 UNL     1      -7.482  47.670   1.296  1.00  0.00     0.000 C 
HETATM   23  C30 UNL     1      -7.256  48.808   2.222  1.00  0.00     0.000 C 
HETATM   24  C31 UNL     1      -6.423  48.391   3.408  1.00  0.00     0.000 C 
HETATM   25  C32 UNL     1      -5.377  47.407   2.923  1.00  0.00     0.006 C 
ENDBRANCH  12  20
ENDBRANCH   9  12
ENDBRANCH   7   8
ENDBRANCH   1   7
BRANCH   4  26
HETATM   26  S1  UNL     1     -11.969  43.842  -2.052  1.00  0.00     0.258 S 
HETATM   27  O2  UNL     1     -11.738  43.809  -3.547  1.00  0.00    -0.201 OA
HETATM   28  O3  UNL     1     -13.085  42.902  -1.679  1.00  0.00    -0.201 OA
BRANCH  26  29
HETATM   29  N2  UNL     1     -12.397  45.434  -1.521  1.00  0.00    -0.315 N 
ATOM     30  H2  UNL     1     -12.160  46.305  -1.996  1.00  0.00     0.172 HD
BRANCH  29  31
HETATM   31  C15 UNL     1     -13.140  45.320  -0.304  1.00  0.00     0.132 C 
BRANCH  31  32
HETATM   32  C16 UNL     1     -12.291  45.450   0.927  1.00  0.00     0.022 C 
BRANCH  32  33
HETATM   33  C17 UNL     1     -11.445  46.702   0.890  1.00  0.00     0.032 C 
BRANCH  33  34
HETATM   34  C18 UNL     1     -10.892  47.032   2.267  1.00  0.00     0.273 C 
BRANCH  34  35
HETATM   35  N3  UNL     1     -11.582  48.136   2.845  1.00  0.00     0.098 N 
HETATM   36  C19 UNL     1     -12.255  48.946   1.846  1.00  0.00     0.303 C 
HETATM   37  C20 UNL     1     -12.499  50.353   2.339  1.00  0.00     0.302 C 
HETATM   38  N4  UNL     1     -12.824  50.405   3.731  1.00  0.00     0.088 N 
HETATM   39  C21 UNL     1     -13.020  51.777   4.149  1.00  0.00     0.310 C 
HETATM   40  C22 UNL     1     -11.914  49.703   4.587  1.00  0.00     0.309 C 
HETATM   41  C23 UNL     1     -10.862  48.947   3.761  1.00  0.00     0.274 C 
BRANCH  41  42
HETATM   42  C24 UNL     1      -9.987  48.202   4.704  1.00  0.00     0.201 C 
BRANCH  42  43
HETATM   43  O4  UNL     1     -10.608  47.818   5.869  1.00  0.00    -0.399 OA
ATOM     44  H4  UNL     1     -10.014  47.635   6.588  1.00  0.00     0.209 HD
ENDBRANCH  42  43
ENDBRANCH  41  42
ENDBRANCH  34  35
ENDBRANCH  33  34
ENDBRANCH  32  33
ENDBRANCH  31  32
ENDBRANCH  29  31
ENDBRANCH  26  29
ENDBRANCH   4  26
TORSDOF 14
ENDMDL
MODEL 5
REMARK VINA RESULT: -6.709293170      1.654      2.459
REMARK  14 active torsions:
REMARK  status: ('A' for Active; 'I' for Inactive)
REMARK    1  A    between atoms: C2_2  and  C3_3 
REMARK    2  A    between atoms: C8_8  and  C9_9 
REMARK    3  A    between atoms: C8_8  and  C27_39 
REMARK       I    between atoms: C9_9  and  N1_11 
REMARK    4  A    between atoms: N1_11  and  C10_13 
REMARK    5  A    between atoms: C10_13  and  C11_14 
REMARK    6  A    between atoms: C14_17  and  S1_18 
REMARK    7  A    between atoms: S1_18  and  N2_21 
REMARK    8  A    between atoms: N2_21  and  C15_23 
REMARK    9  A    between atoms: C15_23  and  C16_24 
REMARK   10  A    between atoms: C16_24  and  C17_25 
REMARK   11  A    between atoms: C17_25  and  C18_26 
REMARK   12  A    between atoms: C18_26  and  N3_27 
REMARK   13  A    between atoms: C23_33  and  C24_34 
REMARK   14  A    between atoms: C24_34  and  O4_35 
ROOT
HETATM    1  C11 UNL     1      -7.807  42.854   0.399  1.00  0.00    -0.040 A 
HETATM    2  C12 UNL     1      -9.026  42.215   0.498  1.00  0.00     0.010 A 
HETATM    3  C13 UNL     1     -10.116  42.653  -0.228  1.00  0.00     0.026 A 
HETATM    4  C14 UNL     1     -10.046  43.735  -1.080  1.00  0.00     0.079 A 
HETATM    5  C25 UNL     1      -8.832  44.379  -1.185  1.00  0.00     0.026 A 
HETATM    6  C26 UNL     1      -7.741  43.936  -0.454  1.00  0.00     0.010 A 
ENDROOT
BRANCH   1   7
HETATM    7  C10 UNL     1      -6.622  42.384   1.174  1.00  0.00     0.161 C 
BRANCH   7   8
HETATM    8  N1  UNL     1      -5.911  43.449   1.834  1.00  0.00    -0.356 N 
HETATM    9  C9  UNL     1      -6.191  43.822   3.126  1.00  0.00     0.227 C 
HETATM   10  O1  UNL     1      -7.134  43.163   3.703  1.00  0.00    -0.273 OA
ATOM     11  H1  UNL     1      -5.176  43.941   1.326  1.00  0.00     0.162 HD
BRANCH   9  12
HETATM   12  C8  UNL     1      -5.549  44.889   3.953  1.00  0.00     0.048 C 
HETATM   13  C3  UNL     1      -4.082  44.737   3.742  1.00  0.00     0.003 C 
HETATM   14  C4  UNL     1      -3.174  44.921   4.907  1.00  0.00     0.006 C 
HETATM   15  C5  UNL     1      -3.598  44.212   6.157  1.00  0.00     0.000 C 
HETATM   16  C6  UNL     1      -4.865  43.448   5.880  1.00  0.00     0.001 C 
HETATM   17  C7  UNL     1      -5.869  44.478   5.385  1.00  0.00     0.020 C 
BRANCH  13  18
HETATM   18  C2  UNL     1      -3.517  45.403   2.525  1.00  0.00     0.001 C 
HETATM   19  C1  UNL     1      -2.131  44.842   2.176  1.00  0.00     0.005 C 
ENDBRANCH  13  18
BRANCH  12  20
HETATM   20  C27 UNL     1      -6.124  46.204   3.556  1.00  0.00     0.004 C 
HETATM   21  C28 UNL     1      -7.332  46.571   4.358  1.00  0.00     0.006 C 
HETATM   22  C29 UNL     1      -7.764  48.016   4.142  1.00  0.00     0.000 C 
HETATM   23  C30 UNL     1      -6.739  49.010   4.546  1.00  0.00     0.000 C 
HETATM   24  C31 UNL     1      -5.368  48.386   4.617  1.00  0.00     0.000 C 
HETATM   25  C32 UNL     1      -5.250  47.385   3.485  1.00  0.00     0.006 C 
ENDBRANCH  12  20
ENDBRANCH   9  12
ENDBRANCH   7   8
ENDBRANCH   1   7
BRANCH   4  26
HETATM   26  S1  UNL     1     -11.467  44.249  -1.983  1.00  0.00     0.258 S 
HETATM   27  O2  UNL     1     -11.210  45.578  -2.658  1.00  0.00    -0.201 OA
HETATM   28  O3  UNL     1     -11.746  43.189  -3.016  1.00  0.00    -0.201 OA
BRANCH  26  29
HETATM   29  N2  UNL     1     -12.828  44.341  -0.916  1.00  0.00    -0.315 N 
ATOM     30  H2  UNL     1     -13.004  43.728  -0.120  1.00  0.00     0.172 HD
BRANCH  29  31
HETATM   31  C15 UNL     1     -13.663  45.422  -1.340  1.00  0.00     0.132 C 
BRANCH  31  32
HETATM   32  C16 UNL     1     -14.361  46.115  -0.207  1.00  0.00     0.022 C 
BRANCH  32  33
HETATM   33  C17 UNL     1     -13.940  47.563  -0.098  1.00  0.00     0.032 C 
BRANCH  33  34
HETATM   34  C18 UNL     1     -13.051  47.787   1.115  1.00  0.00     0.273 C 
BRANCH  34  35
HETATM   35  N3  UNL     1     -11.708  48.058   0.722  1.00  0.00     0.098 N 
HETATM   36  C19 UNL     1     -11.643  48.868  -0.481  1.00  0.00     0.303 C 
HETATM   37  C20 UNL     1     -10.323  48.699  -1.197  1.00  0.00     0.302 C 
HETATM   38  N4  UNL     1      -9.220  48.546  -0.299  1.00  0.00     0.088 N 
HETATM   39  C21 UNL     1      -7.991  48.363  -1.042  1.00  0.00     0.310 C 
HETATM   40  C22 UNL     1      -9.398  47.543   0.708  1.00  0.00     0.309 C 
HETATM   41  C23 UNL     1     -10.818  46.955   0.646  1.00  0.00     0.274 C 
BRANCH  41  42
HETATM   42  C24 UNL     1     -10.952  45.963   1.745  1.00  0.00     0.201 C 
BRANCH  42  43
HETATM   43  O4  UNL     1      -9.767  45.381   2.129  1.00  0.00    -0.399 OA
ATOM     44  H4  UNL     1      -9.647  44.493   1.813  1.00  0.00     0.209 HD
ENDBRANCH  42  43
ENDBRANCH  41  42
ENDBRANCH  34  35
ENDBRANCH  33  34
ENDBRANCH  32  33
ENDBRANCH  31  32
ENDBRANCH  29  31
ENDBRANCH  26  29
ENDBRANCH   4  26
TORSDOF 14
ENDMDL
