MODEL 1
REMARK VINA RESULT: -7.059809672      0.000      0.000
REMARK  16 active torsions:
REMARK  status: ('A' for Active; 'I' for Inactive)
REMARK    1  A    between atoms: O1_2  and  C2_3 
REMARK    2  A    between atoms: C2_3  and  C3_5 
REMARK    3  A    between atoms: C3_5  and  C4_6 
REMARK    4  A    between atoms: C4_6  and  C5_7 
REMARK    5  A    between atoms: C5_7  and  C6_8 
REMARK    6  A    between atoms: C7_9  and  C8_10 
REMARK    7  A    between atoms: C8_10  and  C9_11 
REMARK    8  A    between atoms: C10_12  and  O3_13 
REMARK    9  A    between atoms: C11_17  and  C12_18 
REMARK   10  A    between atoms: C12_18  and  C13_19 
REMARK   11  A    between atoms: C17_26  and  C18_27 
REMARK   12  A    between atoms: C18_27  and  C19_28 
REMARK   13  A    between atoms: C25_37  and  N4_38 
REMARK   14  A    between atoms: N4_38  and  C26_40 
REMARK   15  A    between atoms: C26_40  and  C27_41 
REMARK   16  A    between atoms: C27_41  and  C28_42 
ROOT
HETATM    1  C9  UNL     1      -6.691  44.624   3.021  1.00  0.00     0.039 C 
HETATM    2  C10 UNL     1      -6.814  44.430   4.481  1.00  0.00     0.146 C 
HETATM    3  N1  UNL     1      -7.080  45.286   5.516  1.00  0.00    -0.357 N 
ATOM      4  H1  UNL     1      -7.915  45.052   6.054  1.00  0.00     0.162 HD
HETATM    5  C11 UNL     1      -6.371  46.481   5.986  1.00  0.00     0.176 C 
HETATM    6  C16 UNL     1      -5.440  45.974   7.031  1.00  0.00     0.241 C 
HETATM    7  O4  UNL     1      -5.958  45.673   8.135  1.00  0.00    -0.271 OA
HETATM    8  N2  UNL     1      -4.044  45.803   6.891  1.00  0.00    -0.348 N 
ATOM      9  H2  UNL     1      -3.668  44.912   7.212  1.00  0.00     0.163 HD
HETATM   10  C17 UNL     1      -3.093  46.732   6.350  1.00  0.00     0.154 C 
HETATM   11  C22 UNL     1      -2.394  46.197   5.165  1.00  0.00     0.154 C 
HETATM   12  O5  UNL     1      -1.428  46.759   4.723  1.00  0.00    -0.295 OA
HETATM   13  C23 UNL     1      -2.889  44.964   4.521  1.00  0.00     0.125 C 
HETATM   14  C24 UNL     1      -3.641  45.415   3.274  1.00  0.00     0.070 C 
HETATM   15  N3  UNL     1      -4.312  44.404   2.605  1.00  0.00    -0.355 N 
ATOM     16  H3  UNL     1      -3.652  43.812   2.100  1.00  0.00     0.166 HD
HETATM   17  C25 UNL     1      -5.485  43.997   2.433  1.00  0.00     0.111 C 
ENDROOT
BRANCH  17  18
HETATM   18  N4  UNL     1      -5.741  42.825   1.599  1.00  0.00    -0.376 N 
ATOM     19  H4  UNL     1      -4.943  42.349   1.176  1.00  0.00     0.161 HD
BRANCH  18  20
HETATM   20  C26 UNL     1      -7.043  42.313   1.344  1.00  0.00     0.125 C 
BRANCH  20  21
HETATM   21  C27 UNL     1      -7.705  42.860   0.125  1.00  0.00     0.047 C 
BRANCH  21  22
HETATM   22  C28 UNL     1      -8.704  41.899  -0.438  1.00  0.00    -0.022 C 
HETATM   23  C29 UNL     1      -9.659  42.276  -1.257  1.00  0.00    -0.084 C 
HETATM   24  C30 UNL     1      -9.811  43.709  -1.683  1.00  0.00     0.034 C 
HETATM   25  C34 UNL     1     -10.630  41.316  -1.799  1.00  0.00     0.034 C 
HETATM   26  C31 UNL     1     -11.078  43.838  -2.505  1.00  0.00     0.004 C 
HETATM   27  C32 UNL     1     -12.211  43.264  -1.682  1.00  0.00     0.001 C 
HETATM   28  C33 UNL     1     -12.066  41.773  -1.667  1.00  0.00     0.004 C 
ENDBRANCH  21  22
ENDBRANCH  20  21
ENDBRANCH  18  20
ENDBRANCH  17  18
BRANCH   1  29
HETATM   29  C8  UNL     1      -7.034  45.972   2.495  1.00  0.00     0.073 C 
BRANCH  29  30
HETATM   30  C7  UNL     1      -8.470  45.956   2.045  1.00  0.00    -0.026 C 
HETATM   31  C6  UNL     1      -8.801  46.476   0.867  1.00  0.00    -0.030 C 
BRANCH  31  32
HETATM   32  C5  UNL     1     -10.226  46.450   0.443  1.00  0.00     0.027 C 
BRANCH  32  33
HETATM   33  C4  UNL     1     -11.078  45.665   1.401  1.00  0.00     0.013 C 
BRANCH  33  34
HETATM   34  C3  UNL     1     -12.434  45.360   0.874  1.00  0.00     0.111 C 
BRANCH  34  35
HETATM   35  C2  UNL     1     -13.508  46.258   1.331  1.00  0.00     0.258 C 
HETATM   36  O2  UNL     1     -14.666  45.746   1.422  1.00  0.00    -0.265 OA
BRANCH  35  37
HETATM   37  O1  UNL     1     -13.390  47.581   1.666  1.00  0.00    -0.326 OA
HETATM   38  C1  UNL     1     -13.421  48.634   0.745  1.00  0.00     0.213 C 
ENDBRANCH  35  37
ENDBRANCH  34  35
ENDBRANCH  33  34
ENDBRANCH  32  33
ENDBRANCH  31  32
ENDBRANCH  29  30
ENDBRANCH   1  29
BRANCH   2  39
HETATM   39  O3  UNL     1      -6.626  43.181   4.796  1.00  0.00    -0.346 OA
ATOM     40  H3  UNL     1      -7.240  42.622   4.334  1.00  0.00     0.219 HD
ENDBRANCH   2  39
BRANCH   5  41
HETATM   41  C12 UNL     1      -7.408  47.424   6.479  1.00  0.00     0.038 C 
BRANCH  41  42
HETATM   42  C13 UNL     1      -7.929  48.475   5.600  1.00  0.00    -0.020 C 
HETATM   43  C14 UNL     1      -6.985  49.061   4.586  1.00  0.00     0.009 C 
HETATM   44  C15 UNL     1      -9.266  48.141   4.960  1.00  0.00     0.009 C 
ENDBRANCH  41  42
ENDBRANCH   5  41
BRANCH  10  45
HETATM   45  C18 UNL     1      -2.163  47.377   7.285  1.00  0.00     0.037 C 
BRANCH  45  46
HETATM   46  C19 UNL     1      -2.369  48.762   7.723  1.00  0.00    -0.020 C 
HETATM   47  C20 UNL     1      -1.233  49.720   7.461  1.00  0.00     0.009 C 
HETATM   48  C21 UNL     1      -3.684  49.400   7.347  1.00  0.00     0.009 C 
ENDBRANCH  45  46
ENDBRANCH  10  45
TORSDOF 16
ENDMDL
MODEL 2
REMARK VINA RESULT: -7.019616365      0.685      1.028
REMARK  16 active torsions:
REMARK  status: ('A' for Active; 'I' for Inactive)
REMARK    1  A    between atoms: O1_2  and  C2_3 
REMARK    2  A    between atoms: C2_3  and  C3_5 
REMARK    3  A    between atoms: C3_5  and  C4_6 
REMARK    4  A    between atoms: C4_6  and  C5_7 
REMARK    5  A    between atoms: C5_7  and  C6_8 
REMARK    6  A    between atoms: C7_9  and  C8_10 
REMARK    7  A    between atoms: C8_10  and  C9_11 
REMARK    8  A    between atoms: C10_12  and  O3_13 
REMARK    9  A    between atoms: C11_17  and  C12_18 
REMARK   10  A    between atoms: C12_18  and  C13_19 
REMARK   11  A    between atoms: C17_26  and  C18_27 
REMARK   12  A    between atoms: C18_27  and  C19_28 
REMARK   13  A    between atoms: C25_37  and  N4_38 
REMARK   14  A    between atoms: N4_38  and  C26_40 
REMARK   15  A    between atoms: C26_40  and  C27_41 
REMARK   16  A    between atoms: C27_41  and  C28_42 
ROOT
HETATM    1  C9  UNL     1      -6.747  44.600   2.832  1.00  0.00     0.039 C 
HETATM    2  C10 UNL     1      -6.949  44.494   4.292  1.00  0.00     0.146 C 
HETATM    3  N1  UNL     1      -7.244  45.416   5.261  1.00  0.00    -0.357 N 
ATOM      4  H1  UNL     1      -8.111  45.235   5.766  1.00  0.00     0.162 HD
HETATM    5  C11 UNL     1      -6.528  46.620   5.697  1.00  0.00     0.176 C 
HETATM    6  C16 UNL     1      -5.665  46.153   6.817  1.00  0.00     0.241 C 
HETATM    7  O4  UNL     1      -6.246  45.930   7.908  1.00  0.00    -0.271 OA
HETATM    8  N2  UNL     1      -4.269  45.940   6.760  1.00  0.00    -0.348 N 
ATOM      9  H2  UNL     1      -3.933  45.060   7.152  1.00  0.00     0.163 HD
HETATM   10  C17 UNL     1      -3.267  46.812   6.217  1.00  0.00     0.154 C 
HETATM   11  C22 UNL     1      -2.523  46.191   5.104  1.00  0.00     0.154 C 
HETATM   12  O5  UNL     1      -1.521  46.703   4.681  1.00  0.00    -0.295 OA
HETATM   13  C23 UNL     1      -3.018  44.935   4.506  1.00  0.00     0.125 C 
HETATM   14  C24 UNL     1      -3.693  45.330   3.198  1.00  0.00     0.070 C 
HETATM   15  N3  UNL     1      -4.356  44.298   2.554  1.00  0.00    -0.355 N 
ATOM     16  H3  UNL     1      -3.687  43.662   2.119  1.00  0.00     0.166 HD
HETATM   17  C25 UNL     1      -5.530  43.910   2.344  1.00  0.00     0.111 C 
ENDROOT
BRANCH  17  18
HETATM   18  N4  UNL     1      -5.774  42.698   1.567  1.00  0.00    -0.376 N 
ATOM     19  H4  UNL     1      -4.969  42.172   1.224  1.00  0.00     0.161 HD
BRANCH  18  20
HETATM   20  C26 UNL     1      -7.076  42.211   1.262  1.00  0.00     0.125 C 
BRANCH  20  21
HETATM   21  C27 UNL     1      -7.706  42.819   0.055  1.00  0.00     0.047 C 
BRANCH  21  22
HETATM   22  C28 UNL     1      -8.775  41.939  -0.511  1.00  0.00    -0.022 C 
HETATM   23  C29 UNL     1      -9.726  42.400  -1.291  1.00  0.00    -0.084 C 
HETATM   24  C30 UNL     1      -9.800  43.852  -1.668  1.00  0.00     0.034 C 
HETATM   25  C34 UNL     1     -10.767  41.519  -1.837  1.00  0.00     0.034 C 
HETATM   26  C31 UNL     1     -11.077  44.086  -2.451  1.00  0.00     0.004 C 
HETATM   27  C32 UNL     1     -12.222  43.554  -1.617  1.00  0.00     0.001 C 
HETATM   28  C33 UNL     1     -12.168  42.058  -1.652  1.00  0.00     0.004 C 
ENDBRANCH  21  22
ENDBRANCH  20  21
ENDBRANCH  18  20
ENDBRANCH  17  18
BRANCH   1  29
HETATM   29  C8  UNL     1      -7.025  45.922   2.212  1.00  0.00     0.073 C 
BRANCH  29  30
HETATM   30  C7  UNL     1      -8.486  45.982   1.855  1.00  0.00    -0.026 C 
HETATM   31  C6  UNL     1      -8.877  46.639   0.768  1.00  0.00    -0.030 C 
BRANCH  31  32
HETATM   32  C5  UNL     1     -10.325  46.687   0.436  1.00  0.00     0.027 C 
BRANCH  32  33
HETATM   33  C4  UNL     1     -11.173  46.183   1.570  1.00  0.00     0.013 C 
BRANCH  33  34
HETATM   34  C3  UNL     1     -12.426  45.518   1.123  1.00  0.00     0.111 C 
BRANCH  34  35
HETATM   35  C2  UNL     1     -13.659  46.301   1.308  1.00  0.00     0.258 C 
HETATM   36  O2  UNL     1     -14.730  45.634   1.453  1.00  0.00    -0.265 OA
BRANCH  35  37
HETATM   37  O1  UNL     1     -13.772  47.666   1.339  1.00  0.00    -0.326 OA
HETATM   38  C1  UNL     1     -14.087  48.457   0.230  1.00  0.00     0.213 C 
ENDBRANCH  35  37
ENDBRANCH  34  35
ENDBRANCH  33  34
ENDBRANCH  32  33
ENDBRANCH  31  32
ENDBRANCH  29  30
ENDBRANCH   1  29
BRANCH   2  39
HETATM   39  O3  UNL     1      -6.811  43.262   4.688  1.00  0.00    -0.346 OA
ATOM     40  H3  UNL     1      -7.453  43.051   5.356  1.00  0.00     0.219 HD
ENDBRANCH   2  39
BRANCH   5  41
HETATM   41  C12 UNL     1      -7.562  47.615   6.081  1.00  0.00     0.038 C 
BRANCH  41  42
HETATM   42  C13 UNL     1      -8.626  47.973   5.139  1.00  0.00    -0.020 C 
HETATM   43  C14 UNL     1      -9.967  48.340   5.716  1.00  0.00     0.009 C 
HETATM   44  C15 UNL     1      -8.204  48.976   4.079  1.00  0.00     0.009 C 
ENDBRANCH  41  42
ENDBRANCH   5  41
BRANCH  10  45
HETATM   45  C18 UNL     1      -2.368  47.489   7.161  1.00  0.00     0.037 C 
BRANCH  45  46
HETATM   46  C19 UNL     1      -2.321  47.097   8.575  1.00  0.00    -0.020 C 
HETATM   47  C20 UNL     1      -1.338  46.011   8.933  1.00  0.00     0.009 C 
HETATM   48  C21 UNL     1      -2.246  48.219   9.583  1.00  0.00     0.009 C 
ENDBRANCH  45  46
ENDBRANCH  10  45
TORSDOF 16
ENDMDL
MODEL 3
REMARK VINA RESULT: -6.974895297      3.399      6.263
REMARK  16 active torsions:
REMARK  status: ('A' for Active; 'I' for Inactive)
REMARK    1  A    between atoms: O1_2  and  C2_3 
REMARK    2  A    between atoms: C2_3  and  C3_5 
REMARK    3  A    between atoms: C3_5  and  C4_6 
REMARK    4  A    between atoms: C4_6  and  C5_7 
REMARK    5  A    between atoms: C5_7  and  C6_8 
REMARK    6  A    between atoms: C7_9  and  C8_10 
REMARK    7  A    between atoms: C8_10  and  C9_11 
REMARK    8  A    between atoms: C10_12  and  O3_13 
REMARK    9  A    between atoms: C11_17  and  C12_18 
REMARK   10  A    between atoms: C12_18  and  C13_19 
REMARK   11  A    between atoms: C17_26  and  C18_27 
REMARK   12  A    between atoms: C18_27  and  C19_28 
REMARK   13  A    between atoms: C25_37  and  N4_38 
REMARK   14  A    between atoms: N4_38  and  C26_40 
REMARK   15  A    between atoms: C26_40  and  C27_41 
REMARK   16  A    between atoms: C27_41  and  C28_42 
ROOT
HETATM    1  C9  UNL     1     -11.030  45.166  -0.383  1.00  0.00     0.039 C 
HETATM    2  C10 UNL     1     -11.161  45.453   1.061  1.00  0.00     0.146 C 
HETATM    3  N1  UNL     1     -11.584  46.554   1.757  1.00  0.00    -0.357 N 
ATOM      4  H1  UNL     1     -12.387  46.387   2.363  1.00  0.00     0.162 HD
HETATM    5  C11 UNL     1     -11.082  47.932   1.781  1.00  0.00     0.176 C 
HETATM    6  C16 UNL     1     -10.113  47.954   2.910  1.00  0.00     0.241 C 
HETATM    7  O4  UNL     1     -10.607  47.962   4.065  1.00  0.00    -0.271 OA
HETATM    8  N2  UNL     1      -8.704  47.964   2.799  1.00  0.00    -0.348 N 
ATOM      9  H2  UNL     1      -8.202  47.302   3.389  1.00  0.00     0.163 HD
HETATM   10  C17 UNL     1      -7.894  48.795   1.954  1.00  0.00     0.154 C 
HETATM   11  C22 UNL     1      -7.088  48.010   0.997  1.00  0.00     0.154 C 
HETATM   12  O5  UNL     1      -6.210  48.535   0.368  1.00  0.00    -0.295 OA
HETATM   13  C23 UNL     1      -7.369  46.572   0.815  1.00  0.00     0.125 C 
HETATM   14  C24 UNL     1      -8.148  46.458  -0.490  1.00  0.00     0.070 C 
HETATM   15  N3  UNL     1      -8.635  45.191  -0.765  1.00  0.00    -0.355 N 
ATOM     16  H3  UNL     1      -7.878  44.575  -1.061  1.00  0.00     0.166 HD
HETATM   17  C25 UNL     1      -9.726  44.573  -0.761  1.00  0.00     0.111 C 
ENDROOT
BRANCH  17  18
HETATM   18  N4  UNL     1      -9.774  43.166  -1.148  1.00  0.00    -0.376 N 
ATOM     19  H4  UNL     1     -10.563  42.845  -1.711  1.00  0.00     0.161 HD
BRANCH  18  20
HETATM   20  C26 UNL     1      -8.779  42.218  -0.781  1.00  0.00     0.125 C 
BRANCH  20  21
HETATM   21  C27 UNL     1      -8.429  42.204   0.669  1.00  0.00     0.047 C 
BRANCH  21  22
HETATM   22  C28 UNL     1      -6.985  42.526   0.890  1.00  0.00    -0.022 C 
HETATM   23  C29 UNL     1      -6.533  42.978   2.037  1.00  0.00    -0.084 C 
HETATM   24  C30 UNL     1      -7.446  43.205   3.209  1.00  0.00     0.034 C 
HETATM   25  C34 UNL     1      -5.111  43.287   2.235  1.00  0.00     0.034 C 
HETATM   26  C31 UNL     1      -6.652  43.859   4.323  1.00  0.00     0.004 C 
HETATM   27  C32 UNL     1      -5.993  45.092   3.744  1.00  0.00     0.001 C 
HETATM   28  C33 UNL     1      -4.872  44.646   2.856  1.00  0.00     0.004 C 
ENDBRANCH  21  22
ENDBRANCH  20  21
ENDBRANCH  18  20
ENDBRANCH  17  18
BRANCH   1  29
HETATM   29  C8  UNL     1     -11.563  46.190  -1.320  1.00  0.00     0.073 C 
BRANCH  29  30
HETATM   30  C7  UNL     1     -12.786  45.629  -1.994  1.00  0.00    -0.026 C 
HETATM   31  C6  UNL     1     -13.963  45.675  -1.377  1.00  0.00    -0.030 C 
BRANCH  31  32
HETATM   32  C5  UNL     1     -15.157  45.113  -2.061  1.00  0.00     0.027 C 
BRANCH  32  33
HETATM   33  C4  UNL     1     -14.843  44.682  -3.466  1.00  0.00     0.013 C 
BRANCH  33  34
HETATM   34  C3  UNL     1     -16.019  44.139  -4.197  1.00  0.00     0.111 C 
BRANCH  34  35
HETATM   35  C2  UNL     1     -16.679  45.077  -5.120  1.00  0.00     0.258 C 
HETATM   36  O2  UNL     1     -17.934  44.937  -5.259  1.00  0.00    -0.265 OA
BRANCH  35  37
HETATM   37  O1  UNL     1     -16.086  46.078  -5.842  1.00  0.00    -0.326 OA
HETATM   38  C1  UNL     1     -16.513  47.411  -5.843  1.00  0.00     0.213 C 
ENDBRANCH  35  37
ENDBRANCH  34  35
ENDBRANCH  33  34
ENDBRANCH  32  33
ENDBRANCH  31  32
ENDBRANCH  29  30
ENDBRANCH   1  29
BRANCH   2  39
HETATM   39  O3  UNL     1     -10.790  44.427   1.769  1.00  0.00    -0.346 OA
ATOM     40  H3  UNL     1     -11.298  44.372   2.571  1.00  0.00     0.219 HD
ENDBRANCH   2  39
BRANCH   5  41
HETATM   41  C12 UNL     1     -12.265  48.813   1.959  1.00  0.00     0.038 C 
BRANCH  41  42
HETATM   42  C13 UNL     1     -12.918  49.416   0.794  1.00  0.00    -0.020 C 
HETATM   43  C14 UNL     1     -12.071  49.666  -0.424  1.00  0.00     0.009 C 
HETATM   44  C15 UNL     1     -14.232  48.757   0.408  1.00  0.00     0.009 C 
ENDBRANCH  41  42
ENDBRANCH   5  41
BRANCH  10  45
HETATM   45  C18 UNL     1      -7.100  49.851   2.595  1.00  0.00     0.037 C 
BRANCH  45  46
HETATM   46  C19 UNL     1      -6.598  49.695   3.964  1.00  0.00    -0.020 C 
HETATM   47  C20 UNL     1      -5.370  48.834   4.130  1.00  0.00     0.009 C 
HETATM   48  C21 UNL     1      -6.460  50.958   4.780  1.00  0.00     0.009 C 
ENDBRANCH  45  46
ENDBRANCH  10  45
TORSDOF 16
ENDMDL
MODEL 4
REMARK VINA RESULT: -6.901072179      3.602      6.642
REMARK  16 active torsions:
REMARK  status: ('A' for Active; 'I' for Inactive)
REMARK    1  A    between atoms: O1_2  and  C2_3 
REMARK    2  A    between atoms: C2_3  and  C3_5 
REMARK    3  A    between atoms: C3_5  and  C4_6 
REMARK    4  A    between atoms: C4_6  and  C5_7 
REMARK    5  A    between atoms: C5_7  and  C6_8 
REMARK    6  A    between atoms: C7_9  and  C8_10 
REMARK    7  A    between atoms: C8_10  and  C9_11 
REMARK    8  A    between atoms: C10_12  and  O3_13 
REMARK    9  A    between atoms: C11_17  and  C12_18 
REMARK   10  A    between atoms: C12_18  and  C13_19 
REMARK   11  A    between atoms: C17_26  and  C18_27 
REMARK   12  A    between atoms: C18_27  and  C19_28 
REMARK   13  A    between atoms: C25_37  and  N4_38 
REMARK   14  A    between atoms: N4_38  and  C26_40 
REMARK   15  A    between atoms: C26_40  and  C27_41 
REMARK   16  A    between atoms: C27_41  and  C28_42 
ROOT
HETATM    1  C9  UNL     1     -10.794  44.547  -0.180  1.00  0.00     0.039 C 
HETATM    2  C10 UNL     1     -10.895  44.995   1.224  1.00  0.00     0.146 C 
HETATM    3  N1  UNL     1     -11.413  46.121   1.808  1.00  0.00    -0.357 N 
ATOM      4  H1  UNL     1     -12.164  45.943   2.474  1.00  0.00     0.162 HD
HETATM    5  C11 UNL     1     -11.073  47.538   1.640  1.00  0.00     0.176 C 
HETATM    6  C16 UNL     1     -10.065  47.806   2.703  1.00  0.00     0.241 C 
HETATM    7  O4  UNL     1     -10.507  47.903   3.875  1.00  0.00    -0.271 OA
HETATM    8  N2  UNL     1      -8.673  47.956   2.511  1.00  0.00    -0.348 N 
ATOM      9  H2  UNL     1      -8.073  47.431   3.147  1.00  0.00     0.163 HD
HETATM   10  C17 UNL     1      -8.001  48.759   1.529  1.00  0.00     0.154 C 
HETATM   11  C22 UNL     1      -7.151  47.955   0.629  1.00  0.00     0.154 C 
HETATM   12  O5  UNL     1      -6.367  48.491  -0.107  1.00  0.00    -0.295 OA
HETATM   13  C23 UNL     1      -7.271  46.484   0.634  1.00  0.00     0.125 C 
HETATM   14  C24 UNL     1      -8.087  46.124  -0.602  1.00  0.00     0.070 C 
HETATM   15  N3  UNL     1      -8.436  44.787  -0.697  1.00  0.00    -0.355 N 
ATOM     16  H3  UNL     1      -7.626  44.225  -0.960  1.00  0.00     0.166 HD
HETATM   17  C25 UNL     1      -9.447  44.059  -0.558  1.00  0.00     0.111 C 
ENDROOT
BRANCH  17  18
HETATM   18  N4  UNL     1      -9.348  42.617  -0.773  1.00  0.00    -0.376 N 
ATOM     19  H4  UNL     1     -10.085  42.156  -1.307  1.00  0.00     0.161 HD
BRANCH  18  20
HETATM   20  C26 UNL     1      -8.278  41.822  -0.276  1.00  0.00     0.125 C 
BRANCH  20  21
HETATM   21  C27 UNL     1      -7.935  42.057   1.157  1.00  0.00     0.047 C 
BRANCH  21  22
HETATM   22  C28 UNL     1      -6.566  42.639   1.307  1.00  0.00    -0.022 C 
HETATM   23  C29 UNL     1      -6.167  43.222   2.414  1.00  0.00    -0.084 C 
HETATM   24  C30 UNL     1      -7.069  43.342   3.610  1.00  0.00     0.034 C 
HETATM   25  C34 UNL     1      -4.817  43.788   2.542  1.00  0.00     0.034 C 
HETATM   26  C31 UNL     1      -6.371  44.182   4.662  1.00  0.00     0.004 C 
HETATM   27  C32 UNL     1      -5.960  45.481   4.003  1.00  0.00     0.001 C 
HETATM   28  C33 UNL     1      -4.806  45.197   3.093  1.00  0.00     0.004 C 
ENDBRANCH  21  22
ENDBRANCH  20  21
ENDBRANCH  18  20
ENDBRANCH  17  18
BRANCH   1  29
HETATM   29  C8  UNL     1     -11.480  45.382  -1.200  1.00  0.00     0.073 C 
BRANCH  29  30
HETATM   30  C7  UNL     1     -12.962  45.142  -1.093  1.00  0.00    -0.026 C 
HETATM   31  C6  UNL     1     -13.764  45.483  -2.097  1.00  0.00    -0.030 C 
BRANCH  31  32
HETATM   32  C5  UNL     1     -15.224  45.237  -1.969  1.00  0.00     0.027 C 
BRANCH  32  33
HETATM   33  C4  UNL     1     -15.706  44.215  -2.960  1.00  0.00     0.013 C 
BRANCH  33  34
HETATM   34  C3  UNL     1     -15.366  44.549  -4.369  1.00  0.00     0.111 C 
BRANCH  34  35
HETATM   35  C2  UNL     1     -16.421  45.241  -5.128  1.00  0.00     0.258 C 
HETATM   36  O2  UNL     1     -16.042  46.202  -5.866  1.00  0.00    -0.265 OA
BRANCH  35  37
HETATM   37  O1  UNL     1     -17.761  44.960  -5.120  1.00  0.00    -0.326 OA
HETATM   38  C1  UNL     1     -18.771  45.927  -5.160  1.00  0.00     0.213 C 
ENDBRANCH  35  37
ENDBRANCH  34  35
ENDBRANCH  33  34
ENDBRANCH  32  33
ENDBRANCH  31  32
ENDBRANCH  29  30
ENDBRANCH   1  29
BRANCH   2  39
HETATM   39  O3  UNL     1     -10.378  44.111   2.028  1.00  0.00    -0.346 OA
ATOM     40  H3  UNL     1     -10.203  44.494   2.879  1.00  0.00     0.219 HD
ENDBRANCH   2  39
BRANCH   5  41
HETATM   41  C12 UNL     1     -12.341  48.299   1.779  1.00  0.00     0.038 C 
BRANCH  41  42
HETATM   42  C13 UNL     1     -12.922  48.983   0.621  1.00  0.00    -0.020 C 
HETATM   43  C14 UNL     1     -12.025  49.225  -0.563  1.00  0.00     0.009 C 
HETATM   44  C15 UNL     1     -14.261  48.421   0.175  1.00  0.00     0.009 C 
ENDBRANCH  41  42
ENDBRANCH   5  41
BRANCH  10  45
HETATM   45  C18 UNL     1      -7.308  49.968   1.995  1.00  0.00     0.037 C 
BRANCH  45  46
HETATM   46  C19 UNL     1      -7.836  51.305   1.699  1.00  0.00    -0.020 C 
HETATM   47  C20 UNL     1      -7.140  52.068   0.600  1.00  0.00     0.009 C 
HETATM   48  C21 UNL     1      -9.334  51.419   1.543  1.00  0.00     0.009 C 
ENDBRANCH  45  46
ENDBRANCH  10  45
TORSDOF 16
ENDMDL
MODEL 5
REMARK VINA RESULT: -6.834655510      3.055      5.964
REMARK  16 active torsions:
REMARK  status: ('A' for Active; 'I' for Inactive)
REMARK    1  A    between atoms: O1_2  and  C2_3 
REMARK    2  A    between atoms: C2_3  and  C3_5 
REMARK    3  A    between atoms: C3_5  and  C4_6 
REMARK    4  A    between atoms: C4_6  and  C5_7 
REMARK    5  A    between atoms: C5_7  and  C6_8 
REMARK    6  A    between atoms: C7_9  and  C8_10 
REMARK    7  A    between atoms: C8_10  and  C9_11 
REMARK    8  A    between atoms: C10_12  and  O3_13 
REMARK    9  A    between atoms: C11_17  and  C12_18 
REMARK   10  A    between atoms: C12_18  and  C13_19 
REMARK   11  A    between atoms: C17_26  and  C18_27 
REMARK   12  A    between atoms: C18_27  and  C19_28 
REMARK   13  A    between atoms: C25_37  and  N4_38 
REMARK   14  A    between atoms: N4_38  and  C26_40 
REMARK   15  A    between atoms: C26_40  and  C27_41 
REMARK   16  A    between atoms: C27_41  and  C28_42 
ROOT
HETATM    1  C9  UNL     1     -10.361  45.089  -0.161  1.00  0.00     0.039 C 
HETATM    2  C10 UNL     1     -10.691  45.388   1.249  1.00  0.00     0.146 C 
HETATM    3  N1  UNL     1     -11.296  46.455   1.857  1.00  0.00    -0.357 N 
ATOM      4  H1  UNL     1     -12.147  46.222   2.369  1.00  0.00     0.162 HD
HETATM    5  C11 UNL     1     -10.932  47.876   1.901  1.00  0.00     0.176 C 
HETATM    6  C16 UNL     1     -10.112  48.011   3.135  1.00  0.00     0.241 C 
HETATM    7  O4  UNL     1     -10.741  47.992   4.223  1.00  0.00    -0.271 OA
HETATM    8  N2  UNL     1      -8.707  48.155   3.191  1.00  0.00    -0.348 N 
ATOM      9  H2  UNL     1      -8.221  47.554   3.856  1.00  0.00     0.163 HD
HETATM   10  C17 UNL     1      -7.883  49.045   2.424  1.00  0.00     0.154 C 
HETATM   11  C22 UNL     1      -6.898  48.325   1.593  1.00  0.00     0.154 C 
HETATM   12  O5  UNL     1      -6.003  48.920   1.057  1.00  0.00    -0.295 OA
HETATM   13  C23 UNL     1      -7.018  46.863   1.421  1.00  0.00     0.125 C 
HETATM   14  C24 UNL     1      -7.620  46.652   0.037  1.00  0.00     0.070 C 
HETATM   15  N3  UNL     1      -7.950  45.338  -0.257  1.00  0.00    -0.355 N 
ATOM     16  H3  UNL     1      -7.108  44.793  -0.443  1.00  0.00     0.166 HD
HETATM   17  C25 UNL     1      -8.971  44.619  -0.364  1.00  0.00     0.111 C 
ENDROOT
BRANCH  17  18
HETATM   18  N4  UNL     1      -8.840  43.206  -0.713  1.00  0.00    -0.376 N 
ATOM     19  H4  UNL     1      -9.529  42.798  -1.345  1.00  0.00     0.161 HD
BRANCH  18  20
HETATM   20  C26 UNL     1      -7.801  42.370  -0.217  1.00  0.00     0.125 C 
BRANCH  20  21
HETATM   21  C27 UNL     1      -7.597  42.430   1.259  1.00  0.00     0.047 C 
BRANCH  21  22
HETATM   22  C28 UNL     1      -6.250  42.979   1.607  1.00  0.00    -0.022 C 
HETATM   23  C29 UNL     1      -5.962  43.431   2.806  1.00  0.00    -0.084 C 
HETATM   24  C30 UNL     1      -6.978  43.424   3.914  1.00  0.00     0.034 C 
HETATM   25  C34 UNL     1      -4.633  43.965   3.128  1.00  0.00     0.034 C 
HETATM   26  C31 UNL     1      -6.387  44.134   5.117  1.00  0.00     0.004 C 
HETATM   27  C32 UNL     1      -5.916  45.495   4.652  1.00  0.00     0.001 C 
HETATM   28  C33 UNL     1      -4.677  45.303   3.832  1.00  0.00     0.004 C 
ENDBRANCH  21  22
ENDBRANCH  20  21
ENDBRANCH  18  20
ENDBRANCH  17  18
BRANCH   1  29
HETATM   29  C8  UNL     1     -10.870  46.040  -1.183  1.00  0.00     0.073 C 
BRANCH  29  30
HETATM   30  C7  UNL     1     -12.038  45.403  -1.886  1.00  0.00    -0.026 C 
HETATM   31  C6  UNL     1     -12.236  44.092  -1.789  1.00  0.00    -0.030 C 
BRANCH  31  32
HETATM   32  C5  UNL     1     -13.395  43.483  -2.493  1.00  0.00     0.027 C 
BRANCH  32  33
HETATM   33  C4  UNL     1     -14.211  44.517  -3.218  1.00  0.00     0.013 C 
BRANCH  33  34
HETATM   34  C3  UNL     1     -15.669  44.220  -3.229  1.00  0.00     0.111 C 
BRANCH  34  35
HETATM   35  C2  UNL     1     -16.476  44.982  -2.261  1.00  0.00     0.258 C 
HETATM   36  O2  UNL     1     -16.070  44.966  -1.058  1.00  0.00    -0.265 OA
BRANCH  35  37
HETATM   37  O1  UNL     1     -17.613  45.700  -2.520  1.00  0.00    -0.326 OA
HETATM   38  C1  UNL     1     -17.955  46.212  -3.776  1.00  0.00     0.213 C 
ENDBRANCH  35  37
ENDBRANCH  34  35
ENDBRANCH  33  34
ENDBRANCH  32  33
ENDBRANCH  31  32
ENDBRANCH  29  30
ENDBRANCH   1  29
BRANCH   2  39
HETATM   39  O3  UNL     1     -10.314  44.415   2.026  1.00  0.00    -0.346 OA
ATOM     40  H3  UNL     1      -9.447  44.583   2.377  1.00  0.00     0.219 HD
ENDBRANCH   2  39
BRANCH   5  41
HETATM   41  C12 UNL     1     -12.205  48.641   1.912  1.00  0.00     0.038 C 
BRANCH  41  42
HETATM   42  C13 UNL     1     -12.830  49.052   0.651  1.00  0.00    -0.020 C 
HETATM   43  C14 UNL     1     -11.919  49.466  -0.472  1.00  0.00     0.009 C 
HETATM   44  C15 UNL     1     -13.902  48.098   0.150  1.00  0.00     0.009 C 
ENDBRANCH  41  42
ENDBRANCH   5  41
BRANCH  10  45
HETATM   45  C18 UNL     1      -7.275  50.184   3.123  1.00  0.00     0.037 C 
BRANCH  45  46
HETATM   46  C19 UNL     1      -6.952  50.110   4.553  1.00  0.00    -0.020 C 
HETATM   47  C20 UNL     1      -5.687  49.372   4.913  1.00  0.00     0.009 C 
HETATM   48  C21 UNL     1      -7.040  51.401   5.331  1.00  0.00     0.009 C 
ENDBRANCH  45  46
ENDBRANCH  10  45
TORSDOF 16
ENDMDL
