MODEL 1
REMARK VINA RESULT: -6.790069863      0.000      0.000
REMARK  10 active torsions:
REMARK  status: ('A' for Active; 'I' for Inactive)
REMARK    1  A    between atoms: C2_2  and  C4_4 
REMARK    2  A    between atoms: C4_4  and  N1_5 
REMARK       I    between atoms: N1_5  and  C5_7 
REMARK    3  A    between atoms: C5_7  and  C6_9 
REMARK    4  A    between atoms: C6_9  and  C7_10 
REMARK    5  A    between atoms: C7_10  and  C8_11 
REMARK    6  A    between atoms: C8_11  and  C9_12 
REMARK    7  A    between atoms: C8_11  and  C19_27 
REMARK       I    between atoms: C9_12  and  N2_14 
REMARK    8  A    between atoms: C12_17  and  C13_18 
REMARK    9  A    between atoms: C13_18  and  N3_19 
REMARK   10  A    between atoms: N3_19  and  C14_22 
ROOT
HETATM    1  C8  UNL     1      -9.407  44.870  -0.578  1.00  0.00     0.011 C 
ENDROOT
BRANCH   1   2
HETATM    2  C7  UNL     1      -8.999  46.233  -0.878  1.00  0.00     0.007 C 
BRANCH   2   3
HETATM    3  C6  UNL     1      -8.883  47.352   0.009  1.00  0.00     0.084 C 
HETATM    4  C25 UNL     1      -9.172  48.648  -0.801  1.00  0.00     0.052 C 
HETATM    5  C26 UNL     1      -8.185  49.662  -0.321  1.00  0.00     0.233 C 
HETATM    6  N4  UNL     1      -6.994  48.809  -0.171  1.00  0.00    -0.074 N 
HETATM    7  C27 UNL     1      -7.578  47.725   0.613  1.00  0.00     0.255 C 
ATOM      8  H42 UNL     1      -6.525  48.537  -1.034  1.00  0.00     0.277 HD
ATOM      9  H41 UNL     1      -6.169  49.257   0.227  1.00  0.00     0.277 HD
BRANCH   3  10
HETATM   10  C5  UNL     1      -9.906  47.411   1.077  1.00  0.00     0.231 C 
HETATM   11  N1  UNL     1     -11.288  47.266   0.872  1.00  0.00    -0.360 N 
ATOM     12  H1  UNL     1     -11.616  47.103  -0.080  1.00  0.00     0.162 HD
HETATM   13  O1  UNL     1      -9.545  47.608   2.291  1.00  0.00    -0.272 OA
BRANCH  11  14
HETATM   14  C4  UNL     1     -12.271  47.334   1.929  1.00  0.00     0.126 C 
BRANCH  14  15
HETATM   15  C2  UNL     1     -13.679  47.305   1.401  1.00  0.00    -0.005 C 
HETATM   16  C1  UNL     1     -14.156  45.864   1.201  1.00  0.00     0.011 C 
HETATM   17  C3  UNL     1     -13.789  47.978   0.052  1.00  0.00     0.011 C 
ENDBRANCH  14  15
ENDBRANCH  11  14
ENDBRANCH   3  10
ENDBRANCH   2   3
ENDBRANCH   1   2
BRANCH   1  18
HETATM   18  C9  UNL     1      -8.377  43.881  -0.234  1.00  0.00     0.249 C 
HETATM   19  O2  UNL     1      -7.834  43.109  -1.099  1.00  0.00    -0.268 OA
HETATM   20  N2  UNL     1      -7.861  43.661   1.091  1.00  0.00    -0.348 N 
HETATM   21  C10 UNL     1      -8.305  44.391   2.255  1.00  0.00     0.126 C 
HETATM   22  C18 UNL     1      -6.857  42.639   1.330  1.00  0.00     0.126 C 
HETATM   23  C11 UNL     1      -7.115  44.991   2.928  1.00  0.00     0.026 C 
HETATM   24  C12 UNL     1      -6.170  43.925   3.365  1.00  0.00     0.014 C 
HETATM   25  C17 UNL     1      -5.733  43.061   2.206  1.00  0.00     0.026 C 
BRANCH  24  26
HETATM   26  C13 UNL     1      -6.755  43.105   4.490  1.00  0.00     0.237 C 
BRANCH  26  27
HETATM   27  N3  UNL     1      -5.872  43.077   5.649  1.00  0.00    -0.070 N 
ATOM     28  H32 UNL     1      -6.335  42.633   6.441  1.00  0.00     0.277 HD
ATOM     29  H31 UNL     1      -5.109  42.415   5.502  1.00  0.00     0.277 HD
BRANCH  27  30
HETATM   30  C14 UNL     1      -5.358  44.358   6.021  1.00  0.00     0.186 A 
HETATM   31  C15 UNL     1      -6.176  45.333   6.782  1.00  0.00     0.035 A 
HETATM   32  C16 UNL     1      -5.142  44.544   7.558  1.00  0.00     0.035 A 
ENDBRANCH  27  30
ENDBRANCH  26  27
ENDBRANCH  24  26
ENDBRANCH   1  18
BRANCH   1  33
HETATM   33  C19 UNL     1     -10.513  44.289  -1.437  1.00  0.00     0.024 C 
HETATM   34  C20 UNL     1     -11.153  45.384  -2.257  1.00  0.00     0.009 C 
HETATM   35  C21 UNL     1     -12.648  45.430  -2.185  1.00  0.00     0.001 C 
HETATM   36  C22 UNL     1     -13.346  44.120  -2.247  1.00  0.00     0.000 C 
HETATM   37  C23 UNL     1     -12.589  43.047  -1.490  1.00  0.00     0.001 C 
HETATM   38  C24 UNL     1     -11.651  43.806  -0.537  1.00  0.00     0.009 C 
ENDBRANCH   1  33
TORSDOF 10
ENDMDL
MODEL 2
REMARK VINA RESULT: -6.678917097      2.342      3.725
REMARK  10 active torsions:
REMARK  status: ('A' for Active; 'I' for Inactive)
REMARK    1  A    between atoms: C2_2  and  C4_4 
REMARK    2  A    between atoms: C4_4  and  N1_5 
REMARK       I    between atoms: N1_5  and  C5_7 
REMARK    3  A    between atoms: C5_7  and  C6_9 
REMARK    4  A    between atoms: C6_9  and  C7_10 
REMARK    5  A    between atoms: C7_10  and  C8_11 
REMARK    6  A    between atoms: C8_11  and  C9_12 
REMARK    7  A    between atoms: C8_11  and  C19_27 
REMARK       I    between atoms: C9_12  and  N2_14 
REMARK    8  A    between atoms: C12_17  and  C13_18 
REMARK    9  A    between atoms: C13_18  and  N3_19 
REMARK   10  A    between atoms: N3_19  and  C14_22 
ROOT
HETATM    1  C8  UNL     1      -9.635  45.399  -0.040  1.00  0.00     0.011 C 
ENDROOT
BRANCH   1   2
HETATM    2  C7  UNL     1     -10.757  46.278  -0.326  1.00  0.00     0.007 C 
BRANCH   2   3
HETATM    3  C6  UNL     1     -11.884  46.594   0.500  1.00  0.00     0.084 C 
HETATM    4  C25 UNL     1     -12.049  48.140   0.531  1.00  0.00     0.052 C 
HETATM    5  C26 UNL     1     -12.405  48.488   1.940  1.00  0.00     0.233 C 
HETATM    6  N4  UNL     1     -11.530  47.551   2.664  1.00  0.00    -0.074 N 
HETATM    7  C27 UNL     1     -11.871  46.319   1.960  1.00  0.00     0.255 C 
ATOM      8  H42 UNL     1     -10.539  47.792   2.693  1.00  0.00     0.277 HD
ATOM      9  H41 UNL     1     -11.634  47.533   3.678  1.00  0.00     0.277 HD
BRANCH   3  10
HETATM   10  C5  UNL     1     -13.192  46.146  -0.029  1.00  0.00     0.231 C 
HETATM   11  N1  UNL     1     -13.722  46.521  -1.275  1.00  0.00    -0.360 N 
ATOM     12  H1  UNL     1     -13.168  47.142  -1.865  1.00  0.00     0.162 HD
HETATM   13  O1  UNL     1     -13.925  45.361   0.670  1.00  0.00    -0.272 OA
BRANCH  11  14
HETATM   14  C4  UNL     1     -15.006  46.078  -1.771  1.00  0.00     0.126 C 
BRANCH  14  15
HETATM   15  C2  UNL     1     -14.886  44.894  -2.689  1.00  0.00    -0.005 C 
HETATM   16  C1  UNL     1     -15.364  45.249  -4.101  1.00  0.00     0.011 C 
HETATM   17  C3  UNL     1     -15.744  43.736  -2.231  1.00  0.00     0.011 C 
ENDBRANCH  14  15
ENDBRANCH  11  14
ENDBRANCH   3  10
ENDBRANCH   2   3
ENDBRANCH   1   2
BRANCH   1  18
HETATM   18  C9  UNL     1      -8.300  45.988   0.135  1.00  0.00     0.249 C 
HETATM   19  O2  UNL     1      -7.594  46.419  -0.842  1.00  0.00    -0.268 OA
HETATM   20  N2  UNL     1      -7.635  46.150   1.400  1.00  0.00    -0.348 N 
HETATM   21  C10 UNL     1      -8.204  45.742   2.663  1.00  0.00     0.126 C 
HETATM   22  C18 UNL     1      -6.302  46.725   1.463  1.00  0.00     0.126 C 
HETATM   23  C11 UNL     1      -8.193  46.909   3.595  1.00  0.00     0.026 C 
HETATM   24  C12 UNL     1      -6.798  47.376   3.828  1.00  0.00     0.014 C 
HETATM   25  C17 UNL     1      -6.108  47.737   2.534  1.00  0.00     0.026 C 
BRANCH  24  26
HETATM   26  C13 UNL     1      -6.010  46.365   4.625  1.00  0.00     0.237 C 
BRANCH  26  27
HETATM   27  N3  UNL     1      -4.581  46.464   4.354  1.00  0.00    -0.070 N 
ATOM     28  H32 UNL     1      -4.410  47.078   3.558  1.00  0.00     0.277 HD
ATOM     29  H31 UNL     1      -4.114  46.998   5.088  1.00  0.00     0.277 HD
BRANCH  27  30
HETATM   30  C14 UNL     1      -3.935  45.203   4.165  1.00  0.00     0.186 A 
HETATM   31  C15 UNL     1      -4.312  44.294   3.056  1.00  0.00     0.035 A 
HETATM   32  C16 UNL     1      -3.054  45.117   2.876  1.00  0.00     0.035 A 
ENDBRANCH  27  30
ENDBRANCH  26  27
ENDBRANCH  24  26
ENDBRANCH   1  18
BRANCH   1  33
HETATM   33  C19 UNL     1      -9.599  44.081  -0.786  1.00  0.00     0.024 C 
HETATM   34  C20 UNL     1     -10.790  43.983  -1.710  1.00  0.00     0.009 C 
HETATM   35  C21 UNL     1     -11.571  42.710  -1.595  1.00  0.00     0.001 C 
HETATM   36  C22 UNL     1     -10.774  41.462  -1.476  1.00  0.00     0.000 C 
HETATM   37  C23 UNL     1      -9.539  41.667  -0.622  1.00  0.00     0.001 C 
HETATM   38  C24 UNL     1      -9.820  42.934   0.203  1.00  0.00     0.009 C 
ENDBRANCH   1  33
TORSDOF 10
ENDMDL
MODEL 3
REMARK VINA RESULT: -6.669492686      2.351      3.807
REMARK  10 active torsions:
REMARK  status: ('A' for Active; 'I' for Inactive)
REMARK    1  A    between atoms: C2_2  and  C4_4 
REMARK    2  A    between atoms: C4_4  and  N1_5 
REMARK       I    between atoms: N1_5  and  C5_7 
REMARK    3  A    between atoms: C5_7  and  C6_9 
REMARK    4  A    between atoms: C6_9  and  C7_10 
REMARK    5  A    between atoms: C7_10  and  C8_11 
REMARK    6  A    between atoms: C8_11  and  C9_12 
REMARK    7  A    between atoms: C8_11  and  C19_27 
REMARK       I    between atoms: C9_12  and  N2_14 
REMARK    8  A    between atoms: C12_17  and  C13_18 
REMARK    9  A    between atoms: C13_18  and  N3_19 
REMARK   10  A    between atoms: N3_19  and  C14_22 
ROOT
HETATM    1  C8  UNL     1      -8.971  45.066   0.138  1.00  0.00     0.011 C 
ENDROOT
BRANCH   1   2
HETATM    2  C7  UNL     1     -10.142  45.594  -0.545  1.00  0.00     0.007 C 
BRANCH   2   3
HETATM    3  C6  UNL     1     -11.487  45.704  -0.067  1.00  0.00     0.084 C 
HETATM    4  C25 UNL     1     -11.875  47.210  -0.041  1.00  0.00     0.052 C 
HETATM    5  C26 UNL     1     -12.656  47.413   1.217  1.00  0.00     0.233 C 
HETATM    6  N4  UNL     1     -11.893  46.551   2.134  1.00  0.00    -0.074 N 
HETATM    7  C27 UNL     1     -11.843  45.335   1.327  1.00  0.00     0.255 C 
ATOM      8  H42 UNL     1     -10.995  46.916   2.452  1.00  0.00     0.277 HD
ATOM      9  H41 UNL     1     -12.272  46.450   3.075  1.00  0.00     0.277 HD
BRANCH   3  10
HETATM   10  C5  UNL     1     -12.517  45.127  -0.960  1.00  0.00     0.231 C 
HETATM   11  N1  UNL     1     -13.114  45.805  -2.036  1.00  0.00    -0.360 N 
ATOM     12  H1  UNL     1     -12.818  46.763  -2.223  1.00  0.00     0.162 HD
HETATM   13  O1  UNL     1     -12.920  43.926  -0.771  1.00  0.00    -0.272 OA
BRANCH  11  14
HETATM   14  C4  UNL     1     -14.124  45.226  -2.893  1.00  0.00     0.126 C 
BRANCH  14  15
HETATM   15  C2  UNL     1     -15.514  45.644  -2.501  1.00  0.00    -0.005 C 
HETATM   16  C1  UNL     1     -16.250  44.499  -1.800  1.00  0.00     0.011 C 
HETATM   17  C3  UNL     1     -16.352  46.011  -3.706  1.00  0.00     0.011 C 
ENDBRANCH  14  15
ENDBRANCH  11  14
ENDBRANCH   3  10
ENDBRANCH   2   3
ENDBRANCH   1   2
BRANCH   1  18
HETATM   18  C9  UNL     1      -7.804  45.940   0.322  1.00  0.00     0.249 C 
HETATM   19  O2  UNL     1      -7.302  46.640  -0.624  1.00  0.00    -0.268 OA
HETATM   20  N2  UNL     1      -7.096  46.112   1.562  1.00  0.00    -0.348 N 
HETATM   21  C10 UNL     1      -7.448  45.434   2.787  1.00  0.00     0.126 C 
HETATM   22  C18 UNL     1      -5.936  46.984   1.632  1.00  0.00     0.126 C 
HETATM   23  C11 UNL     1      -7.638  46.453   3.862  1.00  0.00     0.026 C 
HETATM   24  C12 UNL     1      -6.379  47.217   4.085  1.00  0.00     0.014 C 
HETATM   25  C17 UNL     1      -5.900  47.882   2.816  1.00  0.00     0.026 C 
BRANCH  24  26
HETATM   26  C13 UNL     1      -5.311  46.344   4.700  1.00  0.00     0.237 C 
BRANCH  26  27
HETATM   27  N3  UNL     1      -5.563  46.107   6.116  1.00  0.00    -0.070 N 
ATOM     28  H32 UNL     1      -4.763  46.401   6.676  1.00  0.00     0.277 HD
ATOM     29  H31 UNL     1      -6.268  46.755   6.468  1.00  0.00     0.277 HD
BRANCH  27  30
HETATM   30  C14 UNL     1      -5.923  44.758   6.426  1.00  0.00     0.186 A 
HETATM   31  C15 UNL     1      -5.401  43.613   5.642  1.00  0.00     0.035 A 
HETATM   32  C16 UNL     1      -4.749  43.888   6.981  1.00  0.00     0.035 A 
ENDBRANCH  27  30
ENDBRANCH  26  27
ENDBRANCH  24  26
ENDBRANCH   1  18
BRANCH   1  33
HETATM   33  C19 UNL     1      -8.588  43.635  -0.181  1.00  0.00     0.024 C 
HETATM   34  C20 UNL     1      -9.341  43.165  -1.403  1.00  0.00     0.009 C 
HETATM   35  C21 UNL     1     -10.037  41.848  -1.243  1.00  0.00     0.001 C 
HETATM   36  C22 UNL     1      -9.275  40.787  -0.536  1.00  0.00     0.000 C 
HETATM   37  C23 UNL     1      -8.462  41.352   0.610  1.00  0.00     0.001 C 
HETATM   38  C24 UNL     1      -9.098  42.715   0.929  1.00  0.00     0.009 C 
ENDBRANCH   1  33
TORSDOF 10
ENDMDL
MODEL 4
REMARK VINA RESULT: -6.660068714      2.164      3.524
REMARK  10 active torsions:
REMARK  status: ('A' for Active; 'I' for Inactive)
REMARK    1  A    between atoms: C2_2  and  C4_4 
REMARK    2  A    between atoms: C4_4  and  N1_5 
REMARK       I    between atoms: N1_5  and  C5_7 
REMARK    3  A    between atoms: C5_7  and  C6_9 
REMARK    4  A    between atoms: C6_9  and  C7_10 
REMARK    5  A    between atoms: C7_10  and  C8_11 
REMARK    6  A    between atoms: C8_11  and  C9_12 
REMARK    7  A    between atoms: C8_11  and  C19_27 
REMARK       I    between atoms: C9_12  and  N2_14 
REMARK    8  A    between atoms: C12_17  and  C13_18 
REMARK    9  A    between atoms: C13_18  and  N3_19 
REMARK   10  A    between atoms: N3_19  and  C14_22 
ROOT
HETATM    1  C8  UNL     1      -9.109  45.072   0.365  1.00  0.00     0.011 C 
ENDROOT
BRANCH   1   2
HETATM    2  C7  UNL     1     -10.364  45.722   0.019  1.00  0.00     0.007 C 
BRANCH   2   3
HETATM    3  C6  UNL     1     -11.436  46.121   0.881  1.00  0.00     0.084 C 
HETATM    4  C25 UNL     1     -11.391  47.668   1.031  1.00  0.00     0.052 C 
HETATM    5  C26 UNL     1     -11.693  47.952   2.467  1.00  0.00     0.233 C 
HETATM    6  N4  UNL     1     -10.950  46.853   3.106  1.00  0.00    -0.074 N 
HETATM    7  C27 UNL     1     -11.456  45.736   2.316  1.00  0.00     0.255 C 
ATOM      8  H42 UNL     1      -9.936  46.956   3.141  1.00  0.00     0.277 HD
ATOM      9  H41 UNL     1     -11.053  46.771   4.117  1.00  0.00     0.277 HD
BRANCH   3  10
HETATM   10  C5  UNL     1     -12.793  45.895   0.336  1.00  0.00     0.231 C 
HETATM   11  N1  UNL     1     -13.222  46.300  -0.938  1.00  0.00    -0.360 N 
ATOM     12  H1  UNL     1     -12.553  46.782  -1.539  1.00  0.00     0.162 HD
HETATM   13  O1  UNL     1     -13.670  45.289   1.048  1.00  0.00    -0.272 OA
BRANCH  11  14
HETATM   14  C4  UNL     1     -14.556  46.076  -1.449  1.00  0.00     0.126 C 
BRANCH  14  15
HETATM   15  C2  UNL     1     -14.581  45.050  -2.548  1.00  0.00    -0.005 C 
HETATM   16  C1  UNL     1     -15.690  44.021  -2.306  1.00  0.00     0.011 C 
HETATM   17  C3  UNL     1     -13.288  44.270  -2.620  1.00  0.00     0.011 C 
ENDBRANCH  14  15
ENDBRANCH  11  14
ENDBRANCH   3  10
ENDBRANCH   2   3
ENDBRANCH   1   2
BRANCH   1  18
HETATM   18  C9  UNL     1      -7.892  45.890   0.463  1.00  0.00     0.249 C 
HETATM   19  O2  UNL     1      -7.397  46.525  -0.532  1.00  0.00    -0.268 OA
HETATM   20  N2  UNL     1      -7.122  46.073   1.663  1.00  0.00    -0.348 N 
HETATM   21  C10 UNL     1      -7.453  45.463   2.929  1.00  0.00     0.126 C 
HETATM   22  C18 UNL     1      -5.917  46.885   1.648  1.00  0.00     0.126 C 
HETATM   23  C11 UNL     1      -7.543  46.531   3.969  1.00  0.00     0.026 C 
HETATM   24  C12 UNL     1      -6.238  47.236   4.106  1.00  0.00     0.014 C 
HETATM   25  C17 UNL     1      -5.783  47.825   2.792  1.00  0.00     0.026 C 
BRANCH  24  26
HETATM   26  C13 UNL     1      -5.190  46.333   4.711  1.00  0.00     0.237 C 
BRANCH  26  27
HETATM   27  N3  UNL     1      -5.423  46.120   6.134  1.00  0.00    -0.070 N 
ATOM     28  H32 UNL     1      -4.601  46.388   6.675  1.00  0.00     0.277 HD
ATOM     29  H31 UNL     1      -6.095  46.799   6.492  1.00  0.00     0.277 HD
BRANCH  27  30
HETATM   30  C14 UNL     1      -5.830  44.790   6.465  1.00  0.00     0.186 A 
HETATM   31  C15 UNL     1      -5.334  43.613   5.710  1.00  0.00     0.035 A 
HETATM   32  C16 UNL     1      -4.691  43.894   7.053  1.00  0.00     0.035 A 
ENDBRANCH  27  30
ENDBRANCH  26  27
ENDBRANCH  24  26
ENDBRANCH   1  18
BRANCH   1  33
HETATM   33  C19 UNL     1      -8.854  43.715  -0.258  1.00  0.00     0.024 C 
HETATM   34  C20 UNL     1      -9.780  43.509  -1.434  1.00  0.00     0.009 C 
HETATM   35  C21 UNL     1     -10.528  42.212  -1.425  1.00  0.00     0.001 C 
HETATM   36  C22 UNL     1      -9.749  41.010  -1.031  1.00  0.00     0.000 C 
HETATM   37  C23 UNL     1      -8.768  41.320   0.081  1.00  0.00     0.001 C 
HETATM   38  C24 UNL     1      -9.277  42.621   0.724  1.00  0.00     0.009 C 
ENDBRANCH   1  33
TORSDOF 10
ENDMDL
MODEL 5
REMARK VINA RESULT: -6.602861345      2.490      3.796
REMARK  10 active torsions:
REMARK  status: ('A' for Active; 'I' for Inactive)
REMARK    1  A    between atoms: C2_2  and  C4_4 
REMARK    2  A    between atoms: C4_4  and  N1_5 
REMARK       I    between atoms: N1_5  and  C5_7 
REMARK    3  A    between atoms: C5_7  and  C6_9 
REMARK    4  A    between atoms: C6_9  and  C7_10 
REMARK    5  A    between atoms: C7_10  and  C8_11 
REMARK    6  A    between atoms: C8_11  and  C9_12 
REMARK    7  A    between atoms: C8_11  and  C19_27 
REMARK       I    between atoms: C9_12  and  N2_14 
REMARK    8  A    between atoms: C12_17  and  C13_18 
REMARK    9  A    between atoms: C13_18  and  N3_19 
REMARK   10  A    between atoms: N3_19  and  C14_22 
ROOT
HETATM    1  C8  UNL     1      -9.139  44.953   0.335  1.00  0.00     0.011 C 
ENDROOT
BRANCH   1   2
HETATM    2  C7  UNL     1     -10.387  45.615  -0.009  1.00  0.00     0.007 C 
BRANCH   2   3
HETATM    3  C6  UNL     1     -11.443  46.047   0.857  1.00  0.00     0.084 C 
HETATM    4  C25 UNL     1     -11.352  47.593   1.003  1.00  0.00     0.052 C 
HETATM    5  C26 UNL     1     -11.639  47.888   2.440  1.00  0.00     0.233 C 
HETATM    6  N4  UNL     1     -10.926  46.769   3.078  1.00  0.00    -0.074 N 
HETATM    7  C27 UNL     1     -11.468  45.666   2.292  1.00  0.00     0.255 C 
ATOM      8  H42 UNL     1      -9.910  46.842   3.109  1.00  0.00     0.277 HD
ATOM      9  H41 UNL     1     -11.027  46.692   4.090  1.00  0.00     0.277 HD
BRANCH   3  10
HETATM   10  C5  UNL     1     -12.809  45.860   0.318  1.00  0.00     0.231 C 
HETATM   11  N1  UNL     1     -13.230  46.271  -0.958  1.00  0.00    -0.360 N 
ATOM     12  H1  UNL     1     -12.548  46.727  -1.564  1.00  0.00     0.162 HD
HETATM   13  O1  UNL     1     -13.702  45.288   1.037  1.00  0.00    -0.272 OA
BRANCH  11  14
HETATM   14  C4  UNL     1     -14.572  46.085  -1.463  1.00  0.00     0.126 C 
BRANCH  14  15
HETATM   15  C2  UNL     1     -14.635  45.048  -2.549  1.00  0.00    -0.005 C 
HETATM   16  C1  UNL     1     -15.759  44.043  -2.277  1.00  0.00     0.011 C 
HETATM   17  C3  UNL     1     -13.358  44.242  -2.632  1.00  0.00     0.011 C 
ENDBRANCH  14  15
ENDBRANCH  11  14
ENDBRANCH   3  10
ENDBRANCH   2   3
ENDBRANCH   1   2
BRANCH   1  18
HETATM   18  C9  UNL     1      -7.915  45.760   0.442  1.00  0.00     0.249 C 
HETATM   19  O2  UNL     1      -7.431  46.426  -0.538  1.00  0.00    -0.268 OA
HETATM   20  N2  UNL     1      -7.126  45.898   1.636  1.00  0.00    -0.348 N 
HETATM   21  C10 UNL     1      -7.441  45.247   2.886  1.00  0.00     0.126 C 
HETATM   22  C18 UNL     1      -5.916  46.703   1.630  1.00  0.00     0.126 C 
HETATM   23  C11 UNL     1      -7.509  46.280   3.962  1.00  0.00     0.026 C 
HETATM   24  C12 UNL     1      -6.198  46.973   4.103  1.00  0.00     0.014 C 
HETATM   25  C17 UNL     1      -5.759  47.603   2.802  1.00  0.00     0.026 C 
BRANCH  24  26
HETATM   26  C13 UNL     1      -5.146  46.043   4.661  1.00  0.00     0.237 C 
BRANCH  26  27
HETATM   27  N3  UNL     1      -3.806  46.590   4.498  1.00  0.00    -0.070 N 
ATOM     28  H32 UNL     1      -3.819  47.388   3.862  1.00  0.00     0.277 HD
ATOM     29  H31 UNL     1      -3.502  47.055   5.353  1.00  0.00     0.277 HD
BRANCH  27  30
HETATM   30  C14 UNL     1      -2.832  45.630   4.077  1.00  0.00     0.186 A 
HETATM   31  C15 UNL     1      -3.009  44.833   2.840  1.00  0.00     0.035 A 
HETATM   32  C16 UNL     1      -2.068  46.018   2.770  1.00  0.00     0.035 A 
ENDBRANCH  27  30
ENDBRANCH  26  27
ENDBRANCH  24  26
ENDBRANCH   1  18
BRANCH   1  33
HETATM   33  C19 UNL     1      -8.893  43.598  -0.297  1.00  0.00     0.024 C 
HETATM   34  C20 UNL     1      -9.828  43.402  -1.466  1.00  0.00     0.009 C 
HETATM   35  C21 UNL     1     -10.581  42.107  -1.458  1.00  0.00     0.001 C 
HETATM   36  C22 UNL     1      -9.803  40.901  -1.076  1.00  0.00     0.000 C 
HETATM   37  C23 UNL     1      -8.812  41.201   0.030  1.00  0.00     0.001 C 
HETATM   38  C24 UNL     1      -9.313  42.500   0.683  1.00  0.00     0.009 C 
ENDBRANCH   1  33
TORSDOF 10
ENDMDL
