MODEL 1
REMARK VINA RESULT: -7.556666990      0.000      0.000
REMARK  9 active torsions:
REMARK  status: ('A' for Active; 'I' for Inactive)
REMARK    1  A    between atoms: C2_2  and  C4_4 
REMARK    2  A    between atoms: C4_4  and  N1_5 
REMARK       I    between atoms: N1_5  and  C5_7 
REMARK       I    between atoms: C5_7  and  N2_9 
REMARK    3  A    between atoms: C9_17  and  N5_18 
REMARK    4  A    between atoms: N5_18  and  C10_20 
REMARK    5  A    between atoms: C10_20  and  C11_21 
REMARK    6  A    between atoms: C11_21  and  C12_22 
REMARK    7  A    between atoms: C12_22  and  C13_23 
REMARK    8  A    between atoms: C13_23  and  C14_24 
REMARK    9  A    between atoms: C14_24  and  N6_25 
ROOT
HETATM    1  N1  UNL     1      -8.988  48.063   2.725  1.00  0.00    -0.322 N 
ATOM      2  H1  UNL     1      -8.098  48.114   3.221  1.00  0.00     0.169 HD
HETATM    3  C5  UNL     1      -9.270  46.860   2.073  1.00  0.00     0.323 C 
HETATM    4  O1  UNL     1     -10.311  46.667   1.420  1.00  0.00    -0.247 OA
HETATM    5  N2  UNL     1      -8.337  45.733   2.124  1.00  0.00    -0.315 N 
HETATM    6  C6  UNL     1      -8.648  44.501   1.484  1.00  0.00     0.173 A 
HETATM    7  C7  UNL     1      -7.455  43.655   1.626  1.00  0.00     0.032 A 
HETATM    8  C8  UNL     1      -6.542  44.320   2.362  1.00  0.00     0.065 A 
HETATM    9  N3  UNL     1      -5.450  43.524   2.483  1.00  0.00    -0.300 N 
ATOM     10  H3  UNL     1      -4.596  43.761   2.988  1.00  0.00     0.186 HD
HETATM   11  N4  UNL     1      -5.670  42.395   1.842  1.00  0.00    -0.285 N 
ATOM     12  H4  UNL     1      -5.008  41.622   1.777  1.00  0.00     0.188 HD
HETATM   13  C9  UNL     1      -6.883  42.408   1.292  1.00  0.00     0.129 A 
HETATM   14  C21 UNL     1      -7.068  45.670   2.756  1.00  0.00     0.074 A 
HETATM   15  C22 UNL     1      -6.062  46.694   2.278  1.00  0.00     0.045 C 
HETATM   16  C23 UNL     1      -7.158  45.645   4.269  1.00  0.00     0.045 C 
ENDROOT
BRANCH  13  17
HETATM   17  N5  UNL     1      -7.518  41.581   0.608  1.00  0.00    -0.354 N 
ATOM     18  H5  UNL     1      -6.904  41.103  -0.052  1.00  0.00     0.166 HD
BRANCH  17  19
HETATM   19  C10 UNL     1      -8.833  41.127   0.491  1.00  0.00     0.062 C 
BRANCH  19  20
HETATM   20  C11 UNL     1      -9.404  41.040  -0.899  1.00  0.00     0.044 C 
BRANCH  20  21
HETATM   21  C12 UNL     1      -9.699  42.428  -1.418  1.00  0.00     0.007 C 
BRANCH  21  22
HETATM   22  C13 UNL     1     -11.177  42.668  -1.513  1.00  0.00     0.020 C 
BRANCH  22  23
HETATM   23  C14 UNL     1     -11.556  44.037  -0.974  1.00  0.00     0.117 C 
BRANCH  23  24
HETATM   24  N6  UNL     1     -12.678  44.634  -1.604  1.00  0.00    -0.408 N 
HETATM   25  C15 UNL     1     -13.780  43.793  -1.908  1.00  0.00     0.148 C 
HETATM   26  C16 UNL     1     -15.039  44.657  -1.880  1.00  0.00     0.135 C 
HETATM   27  C17 UNL     1     -16.226  43.751  -2.131  1.00  0.00     0.041 C 
HETATM   28  O2  UNL     1     -15.171  45.206  -0.628  1.00  0.00    -0.378 OA
HETATM   29  C18 UNL     1     -14.097  45.987  -0.235  1.00  0.00     0.135 C 
HETATM   30  C19 UNL     1     -13.532  45.457   1.071  1.00  0.00     0.041 C 
HETATM   31  C20 UNL     1     -12.981  45.977  -1.254  1.00  0.00     0.148 C 
ENDBRANCH  23  24
ENDBRANCH  22  23
ENDBRANCH  21  22
ENDBRANCH  20  21
ENDBRANCH  19  20
ENDBRANCH  17  19
ENDBRANCH  13  17
BRANCH   1  32
HETATM   32  C4  UNL     1      -9.794  49.205   2.769  1.00  0.00     0.069 C 
BRANCH  32  33
HETATM   33  C2  UNL     1     -10.937  49.395   3.643  1.00  0.00     0.016 C 
HETATM   34  C1  UNL     1     -11.172  48.416   4.733  1.00  0.00     0.015 C 
HETATM   35  C3  UNL     1     -12.203  49.349   2.728  1.00  0.00     0.015 C 
ENDBRANCH  32  33
ENDBRANCH   1  32
TORSDOF 9
ENDMDL
MODEL 2
REMARK VINA RESULT: -7.441520678      1.970      6.432
REMARK  9 active torsions:
REMARK  status: ('A' for Active; 'I' for Inactive)
REMARK    1  A    between atoms: C2_2  and  C4_4 
REMARK    2  A    between atoms: C4_4  and  N1_5 
REMARK       I    between atoms: N1_5  and  C5_7 
REMARK       I    between atoms: C5_7  and  N2_9 
REMARK    3  A    between atoms: C9_17  and  N5_18 
REMARK    4  A    between atoms: N5_18  and  C10_20 
REMARK    5  A    between atoms: C10_20  and  C11_21 
REMARK    6  A    between atoms: C11_21  and  C12_22 
REMARK    7  A    between atoms: C12_22  and  C13_23 
REMARK    8  A    between atoms: C13_23  and  C14_24 
REMARK    9  A    between atoms: C14_24  and  N6_25 
ROOT
HETATM    1  N1  UNL     1     -12.064  48.100   2.516  1.00  0.00    -0.322 N 
ATOM      2  H1  UNL     1     -13.061  48.197   2.318  1.00  0.00     0.169 HD
HETATM    3  C5  UNL     1     -11.380  47.115   1.799  1.00  0.00     0.323 C 
HETATM    4  O1  UNL     1     -10.168  46.881   1.953  1.00  0.00    -0.247 OA
HETATM    5  N2  UNL     1     -12.064  46.285   0.807  1.00  0.00    -0.315 N 
HETATM    6  C6  UNL     1     -11.351  45.306   0.059  1.00  0.00     0.173 A 
HETATM    7  C7  UNL     1     -12.356  44.586  -0.734  1.00  0.00     0.032 A 
HETATM    8  C8  UNL     1     -13.560  45.156  -0.521  1.00  0.00     0.065 A 
HETATM    9  N3  UNL     1     -14.474  44.479  -1.262  1.00  0.00    -0.300 N 
ATOM     10  H3  UNL     1     -15.472  44.683  -1.304  1.00  0.00     0.186 HD
HETATM   11  N4  UNL     1     -13.863  43.515  -1.919  1.00  0.00    -0.285 N 
ATOM     12  H4  UNL     1     -14.320  42.857  -2.549  1.00  0.00     0.188 HD
HETATM   13  C9  UNL     1     -12.560  43.523  -1.641  1.00  0.00     0.129 A 
HETATM   14  C21 UNL     1     -13.436  46.299   0.445  1.00  0.00     0.074 A 
HETATM   15  C22 UNL     1     -14.401  46.027   1.578  1.00  0.00     0.045 C 
HETATM   16  C23 UNL     1     -13.833  47.536  -0.336  1.00  0.00     0.045 C 
ENDROOT
BRANCH  13  17
HETATM   17  N5  UNL     1     -11.603  42.818  -2.017  1.00  0.00    -0.354 N 
ATOM     18  H5  UNL     1     -11.218  43.162  -2.897  1.00  0.00     0.166 HD
BRANCH  17  19
HETATM   19  C10 UNL     1     -10.910  41.690  -1.573  1.00  0.00     0.062 C 
BRANCH  19  20
HETATM   20  C11 UNL     1      -9.555  41.920  -0.960  1.00  0.00     0.044 C 
BRANCH  20  21
HETATM   21  C12 UNL     1      -8.970  40.604  -0.504  1.00  0.00     0.007 C 
BRANCH  21  22
HETATM   22  C13 UNL     1      -8.270  40.750   0.814  1.00  0.00     0.020 C 
BRANCH  22  23
HETATM   23  C14 UNL     1      -7.172  41.798   0.752  1.00  0.00     0.117 C 
BRANCH  23  24
HETATM   24  N6  UNL     1      -6.969  42.519   1.957  1.00  0.00    -0.408 N 
HETATM   25  C15 UNL     1      -5.632  42.854   2.298  1.00  0.00     0.148 C 
HETATM   26  C16 UNL     1      -5.678  44.138   3.124  1.00  0.00     0.135 C 
HETATM   27  C17 UNL     1      -4.251  44.541   3.429  1.00  0.00     0.041 C 
HETATM   28  O2  UNL     1      -6.255  45.129   2.368  1.00  0.00    -0.378 OA
HETATM   29  C18 UNL     1      -7.540  44.840   1.940  1.00  0.00     0.135 C 
HETATM   30  C19 UNL     1      -7.604  44.930   0.426  1.00  0.00     0.041 C 
HETATM   31  C20 UNL     1      -7.974  43.449   2.336  1.00  0.00     0.148 C 
ENDBRANCH  23  24
ENDBRANCH  22  23
ENDBRANCH  21  22
ENDBRANCH  20  21
ENDBRANCH  19  20
ENDBRANCH  17  19
ENDBRANCH  13  17
BRANCH   1  32
HETATM   32  C4  UNL     1     -11.532  48.966   3.475  1.00  0.00     0.069 C 
BRANCH  32  33
HETATM   33  C2  UNL     1     -11.623  48.788   4.913  1.00  0.00     0.016 C 
HETATM   34  C1  UNL     1     -11.693  49.992   5.777  1.00  0.00     0.015 C 
HETATM   35  C3  UNL     1     -10.340  48.009   5.342  1.00  0.00     0.015 C 
ENDBRANCH  32  33
ENDBRANCH   1  32
TORSDOF 9
ENDMDL
MODEL 3
REMARK VINA RESULT: -7.332121670      2.649      3.516
REMARK  9 active torsions:
REMARK  status: ('A' for Active; 'I' for Inactive)
REMARK    1  A    between atoms: C2_2  and  C4_4 
REMARK    2  A    between atoms: C4_4  and  N1_5 
REMARK       I    between atoms: N1_5  and  C5_7 
REMARK       I    between atoms: C5_7  and  N2_9 
REMARK    3  A    between atoms: C9_17  and  N5_18 
REMARK    4  A    between atoms: N5_18  and  C10_20 
REMARK    5  A    between atoms: C10_20  and  C11_21 
REMARK    6  A    between atoms: C11_21  and  C12_22 
REMARK    7  A    between atoms: C12_22  and  C13_23 
REMARK    8  A    between atoms: C13_23  and  C14_24 
REMARK    9  A    between atoms: C14_24  and  N6_25 
ROOT
HETATM    1  N1  UNL     1      -7.553  49.403  -0.106  1.00  0.00    -0.322 N 
ATOM      2  H1  UNL     1      -8.315  49.613   0.539  1.00  0.00     0.169 HD
HETATM    3  C5  UNL     1      -7.303  48.051  -0.356  1.00  0.00     0.323 C 
HETATM    4  O1  UNL     1      -6.396  47.655  -1.109  1.00  0.00    -0.247 OA
HETATM    5  N2  UNL     1      -8.112  47.002   0.267  1.00  0.00    -0.315 N 
HETATM    6  C6  UNL     1      -7.870  45.630  -0.018  1.00  0.00     0.173 A 
HETATM    7  C7  UNL     1      -8.763  44.865   0.863  1.00  0.00     0.032 A 
HETATM    8  C8  UNL     1      -9.525  45.734   1.559  1.00  0.00     0.065 A 
HETATM    9  N3  UNL     1     -10.343  45.010   2.365  1.00  0.00    -0.300 N 
ATOM     10  H3  UNL     1     -11.034  45.396   3.008  1.00  0.00     0.186 HD
HETATM   11  N4  UNL     1     -10.102  43.729   2.181  1.00  0.00    -0.285 N 
ATOM     12  H4  UNL     1     -10.580  42.970   2.665  1.00  0.00     0.188 HD
HETATM   13  C9  UNL     1      -9.142  43.568   1.272  1.00  0.00     0.129 A 
HETATM   14  C21 UNL     1      -9.181  47.148   1.190  1.00  0.00     0.074 A 
HETATM   15  C22 UNL     1      -8.828  47.866   2.473  1.00  0.00     0.045 C 
HETATM   16  C23 UNL     1     -10.435  47.720   0.560  1.00  0.00     0.045 C 
ENDROOT
BRANCH  13  17
HETATM   17  N5  UNL     1      -8.591  42.563   0.781  1.00  0.00    -0.354 N 
ATOM     18  H5  UNL     1      -7.575  42.647   0.818  1.00  0.00     0.166 HD
BRANCH  17  19
HETATM   19  C10 UNL     1      -8.974  41.354   0.196  1.00  0.00     0.062 C 
BRANCH  19  20
HETATM   20  C11 UNL     1      -9.392  41.398  -1.248  1.00  0.00     0.044 C 
BRANCH  20  21
HETATM   21  C12 UNL     1     -10.857  41.753  -1.347  1.00  0.00     0.007 C 
BRANCH  21  22
HETATM   22  C13 UNL     1     -11.051  43.069  -2.041  1.00  0.00     0.020 C 
BRANCH  22  23
HETATM   23  C14 UNL     1     -11.794  44.060  -1.161  1.00  0.00     0.117 C 
BRANCH  23  24
HETATM   24  N6  UNL     1     -12.929  44.657  -1.766  1.00  0.00    -0.408 N 
HETATM   25  C15 UNL     1     -14.068  43.835  -1.970  1.00  0.00     0.148 C 
HETATM   26  C16 UNL     1     -15.300  44.737  -1.926  1.00  0.00     0.135 C 
HETATM   27  C17 UNL     1     -16.522  43.856  -2.069  1.00  0.00     0.041 C 
HETATM   28  O2  UNL     1     -15.352  45.354  -0.700  1.00  0.00    -0.378 OA
HETATM   29  C18 UNL     1     -14.238  46.122  -0.404  1.00  0.00     0.135 C 
HETATM   30  C19 UNL     1     -13.623  45.645   0.899  1.00  0.00     0.041 C 
HETATM   31  C20 UNL     1     -13.177  46.025  -1.474  1.00  0.00     0.148 C 
ENDBRANCH  23  24
ENDBRANCH  22  23
ENDBRANCH  21  22
ENDBRANCH  20  21
ENDBRANCH  19  20
ENDBRANCH  17  19
ENDBRANCH  13  17
BRANCH   1  32
HETATM   32  C4  UNL     1      -6.871  50.499  -0.644  1.00  0.00     0.069 C 
BRANCH  32  33
HETATM   33  C2  UNL     1      -6.954  50.947  -2.022  1.00  0.00     0.016 C 
HETATM   34  C1  UNL     1      -6.092  52.073  -2.459  1.00  0.00     0.015 C 
HETATM   35  C3  UNL     1      -8.430  51.405  -2.248  1.00  0.00     0.015 C 
ENDBRANCH  32  33
ENDBRANCH   1  32
TORSDOF 9
ENDMDL
MODEL 4
REMARK VINA RESULT: -7.196474248      2.370      7.151
REMARK  9 active torsions:
REMARK  status: ('A' for Active; 'I' for Inactive)
REMARK    1  A    between atoms: C2_2  and  C4_4 
REMARK    2  A    between atoms: C4_4  and  N1_5 
REMARK       I    between atoms: N1_5  and  C5_7 
REMARK       I    between atoms: C5_7  and  N2_9 
REMARK    3  A    between atoms: C9_17  and  N5_18 
REMARK    4  A    between atoms: N5_18  and  C10_20 
REMARK    5  A    between atoms: C10_20  and  C11_21 
REMARK    6  A    between atoms: C11_21  and  C12_22 
REMARK    7  A    between atoms: C12_22  and  C13_23 
REMARK    8  A    between atoms: C13_23  and  C14_24 
REMARK    9  A    between atoms: C14_24  and  N6_25 
ROOT
HETATM    1  N1  UNL     1     -14.654  44.850  -1.609  1.00  0.00    -0.322 N 
ATOM      2  H1  UNL     1     -15.071  45.377  -0.841  1.00  0.00     0.169 HD
HETATM    3  C5  UNL     1     -13.340  45.179  -1.950  1.00  0.00     0.323 C 
HETATM    4  O1  UNL     1     -12.718  44.625  -2.875  1.00  0.00    -0.247 OA
HETATM    5  N2  UNL     1     -12.604  46.215  -1.224  1.00  0.00    -0.315 N 
HETATM    6  C6  UNL     1     -11.255  46.520  -1.558  1.00  0.00     0.173 A 
HETATM    7  C7  UNL     1     -10.880  47.675  -0.731  1.00  0.00     0.032 A 
HETATM    8  C8  UNL     1     -11.914  47.973   0.083  1.00  0.00     0.065 A 
HETATM    9  N3  UNL     1     -11.549  49.039   0.839  1.00  0.00    -0.300 N 
ATOM     10  H3  UNL     1     -12.128  49.489   1.548  1.00  0.00     0.186 HD
HETATM   11  N4  UNL     1     -10.326  49.399   0.510  1.00  0.00    -0.285 N 
ATOM     12  H4  UNL     1      -9.813  50.174   0.929  1.00  0.00     0.188 HD
HETATM   13  C9  UNL     1      -9.855  48.603  -0.448  1.00  0.00     0.129 A 
HETATM   14  C21 UNL     1     -13.060  47.033  -0.158  1.00  0.00     0.074 A 
HETATM   15  C22 UNL     1     -14.271  47.883  -0.474  1.00  0.00     0.045 C 
HETATM   16  C23 UNL     1     -13.240  46.271   1.140  1.00  0.00     0.045 C 
ENDROOT
BRANCH  13  17
HETATM   17  N5  UNL     1      -8.771  48.557  -1.063  1.00  0.00    -0.354 N 
ATOM     18  H5  UNL     1      -8.921  48.401  -2.060  1.00  0.00     0.166 HD
BRANCH  17  19
HETATM   19  C10 UNL     1      -7.409  48.657  -0.770  1.00  0.00     0.062 C 
BRANCH  19  20
HETATM   20  C11 UNL     1      -6.640  47.370  -0.651  1.00  0.00     0.044 C 
BRANCH  20  21
HETATM   21  C12 UNL     1      -6.440  47.026   0.806  1.00  0.00     0.007 C 
BRANCH  21  22
HETATM   22  C13 UNL     1      -7.605  46.250   1.345  1.00  0.00     0.020 C 
BRANCH  22  23
HETATM   23  C14 UNL     1      -7.230  44.807   1.637  1.00  0.00     0.117 C 
BRANCH  23  24
HETATM   24  N6  UNL     1      -7.582  43.883   0.621  1.00  0.00    -0.408 N 
HETATM   25  C15 UNL     1      -7.411  42.503   0.906  1.00  0.00     0.148 C 
HETATM   26  C16 UNL     1      -8.442  41.733   0.084  1.00  0.00     0.135 C 
HETATM   27  C17 UNL     1      -8.313  40.267   0.439  1.00  0.00     0.041 C 
HETATM   28  O2  UNL     1      -9.698  42.156   0.442  1.00  0.00    -0.378 OA
HETATM   29  C18 UNL     1      -9.915  43.511   0.254  1.00  0.00     0.135 C 
HETATM   30  C19 UNL     1     -10.338  44.146   1.567  1.00  0.00     0.041 C 
HETATM   31  C20 UNL     1      -8.673  44.227  -0.222  1.00  0.00     0.148 C 
ENDBRANCH  23  24
ENDBRANCH  22  23
ENDBRANCH  21  22
ENDBRANCH  20  21
ENDBRANCH  19  20
ENDBRANCH  17  19
ENDBRANCH  13  17
BRANCH   1  32
HETATM   32  C4  UNL     1     -15.461  43.876  -2.207  1.00  0.00     0.069 C 
BRANCH  32  33
HETATM   33  C2  UNL     1     -16.385  44.106  -3.302  1.00  0.00     0.016 C 
HETATM   34  C1  UNL     1     -15.840  44.278  -4.671  1.00  0.00     0.015 C 
HETATM   35  C3  UNL     1     -17.152  45.423  -2.962  1.00  0.00     0.015 C 
ENDBRANCH  32  33
ENDBRANCH   1  32
TORSDOF 9
ENDMDL
MODEL 5
REMARK VINA RESULT: -7.183016150      1.891      2.618
REMARK  9 active torsions:
REMARK  status: ('A' for Active; 'I' for Inactive)
REMARK    1  A    between atoms: C2_2  and  C4_4 
REMARK    2  A    between atoms: C4_4  and  N1_5 
REMARK       I    between atoms: N1_5  and  C5_7 
REMARK       I    between atoms: C5_7  and  N2_9 
REMARK    3  A    between atoms: C9_17  and  N5_18 
REMARK    4  A    between atoms: N5_18  and  C10_20 
REMARK    5  A    between atoms: C10_20  and  C11_21 
REMARK    6  A    between atoms: C11_21  and  C12_22 
REMARK    7  A    between atoms: C12_22  and  C13_23 
REMARK    8  A    between atoms: C13_23  and  C14_24 
REMARK    9  A    between atoms: C14_24  and  N6_25 
ROOT
HETATM    1  N1  UNL     1     -10.918  49.666   0.773  1.00  0.00    -0.322 N 
ATOM      2  H1  UNL     1     -10.779  49.700   1.783  1.00  0.00     0.169 HD
HETATM    3  C5  UNL     1     -10.455  48.522   0.119  1.00  0.00     0.323 C 
HETATM    4  O1  UNL     1     -10.547  48.357  -1.111  1.00  0.00    -0.247 OA
HETATM    5  N2  UNL     1      -9.822  47.428   0.858  1.00  0.00    -0.315 N 
HETATM    6  C6  UNL     1      -9.383  46.253   0.187  1.00  0.00     0.173 A 
HETATM    7  C7  UNL     1      -8.693  45.440   1.196  1.00  0.00     0.032 A 
HETATM    8  C8  UNL     1      -8.789  46.063   2.389  1.00  0.00     0.065 A 
HETATM    9  N3  UNL     1      -8.148  45.296   3.307  1.00  0.00    -0.300 N 
ATOM     10  H3  UNL     1      -8.056  45.513   4.299  1.00  0.00     0.186 HD
HETATM   11  N4  UNL     1      -7.664  44.227   2.710  1.00  0.00    -0.285 N 
ATOM     12  H4  UNL     1      -7.137  43.488   3.175  1.00  0.00     0.188 HD
HETATM   13  C9  UNL     1      -7.962  44.251   1.413  1.00  0.00     0.129 A 
HETATM   14  C21 UNL     1      -9.550  47.349   2.249  1.00  0.00     0.074 A 
HETATM   15  C22 UNL     1      -8.665  48.449   2.793  1.00  0.00     0.045 C 
HETATM   16  C23 UNL     1     -10.800  47.176   3.089  1.00  0.00     0.045 C 
ENDROOT
BRANCH  13  17
HETATM   17  N5  UNL     1      -7.723  43.473   0.468  1.00  0.00    -0.354 N 
ATOM     18  H5  UNL     1      -6.807  43.662   0.060  1.00  0.00     0.166 HD
BRANCH  17  19
HETATM   19  C10 UNL     1      -8.356  42.416  -0.188  1.00  0.00     0.062 C 
BRANCH  19  20
HETATM   20  C11 UNL     1      -9.320  42.774  -1.286  1.00  0.00     0.044 C 
BRANCH  20  21
HETATM   21  C12 UNL     1     -10.450  41.772  -1.323  1.00  0.00     0.007 C 
BRANCH  21  22
HETATM   22  C13 UNL     1     -11.739  42.423  -1.728  1.00  0.00     0.020 C 
BRANCH  22  23
HETATM   23  C14 UNL     1     -11.635  43.938  -1.699  1.00  0.00     0.117 C 
BRANCH  23  24
HETATM   24  N6  UNL     1     -12.821  44.624  -2.062  1.00  0.00    -0.408 N 
HETATM   25  C15 UNL     1     -14.010  43.856  -2.176  1.00  0.00     0.148 C 
HETATM   26  C16 UNL     1     -15.185  44.778  -1.857  1.00  0.00     0.135 C 
HETATM   27  C17 UNL     1     -16.449  43.947  -1.905  1.00  0.00     0.041 C 
HETATM   28  O2  UNL     1     -15.033  45.261  -0.580  1.00  0.00    -0.378 OA
HETATM   29  C18 UNL     1     -13.858  45.965  -0.376  1.00  0.00     0.135 C 
HETATM   30  C19 UNL     1     -13.078  45.336   0.765  1.00  0.00     0.041 C 
HETATM   31  C20 UNL     1     -12.969  45.959  -1.598  1.00  0.00     0.148 C 
ENDBRANCH  23  24
ENDBRANCH  22  23
ENDBRANCH  21  22
ENDBRANCH  20  21
ENDBRANCH  19  20
ENDBRANCH  17  19
ENDBRANCH  13  17
BRANCH   1  32
HETATM   32  C4  UNL     1     -11.550  50.770   0.193  1.00  0.00     0.069 C 
BRANCH  32  33
HETATM   33  C2  UNL     1     -12.984  50.993   0.153  1.00  0.00     0.016 C 
HETATM   34  C1  UNL     1     -13.864  49.895  -0.318  1.00  0.00     0.015 C 
HETATM   35  C3  UNL     1     -13.216  52.194  -0.818  1.00  0.00     0.015 C 
ENDBRANCH  32  33
ENDBRANCH   1  32
TORSDOF 9
ENDMDL
