MODEL 1
REMARK VINA RESULT: -5.881718307      0.000      0.000
REMARK  6 active torsions:
REMARK  status: ('A' for Active; 'I' for Inactive)
REMARK    1  A    between atoms: O1_2  and  C2_3 
REMARK    2  A    between atoms: C4_5  and  C5_6 
REMARK    3  A    between atoms: N3_14  and  O2_15 
REMARK    4  A    between atoms: C10_17  and  N4_18 
REMARK    5  A    between atoms: C12_22  and  O5_23 
REMARK    6  A    between atoms: C14_25  and  O6_26 
ROOT
HETATM    1  C5  UNL     1      19.272  82.582  -2.055  1.00  0.00     0.092 C 
HETATM    2  C6  UNL     1      20.734  82.625  -2.519  1.00  0.00     0.140 C 
HETATM    3  C7  UNL     1      21.459  81.449  -2.084  1.00  0.00     0.068 C 
HETATM    4  N1  UNL     1      22.048  80.512  -1.752  1.00  0.00    -0.197 NA
HETATM    5  C8  UNL     1      20.655  82.724  -4.028  1.00  0.00     0.194 C 
HETATM    6  S1  UNL     1      20.071  81.098  -4.629  1.00  0.00    -0.067 SA
HETATM    7  N2  UNL     1      19.764  83.713  -4.462  1.00  0.00    -0.292 N 
HETATM    8  C9  UNL     1      19.045  83.471  -5.659  1.00  0.00     0.175 C 
HETATM    9  N3  UNL     1      19.189  84.531  -3.547  1.00  0.00    -0.172 N 
HETATM   10  C10 UNL     1      18.689  83.922  -2.354  1.00  0.00     0.311 C 
ENDROOT
BRANCH   1  11
HETATM   11  C4  UNL     1      19.183  82.218  -0.625  1.00  0.00    -0.043 A 
HETATM   12  C3  UNL     1      18.436  81.168  -0.179  1.00  0.00     0.047 A 
HETATM   13  C2  UNL     1      18.388  80.873   1.159  1.00  0.00     0.104 A 
HETATM   14  C14 UNL     1      19.081  81.613   2.095  1.00  0.00     0.135 A 
HETATM   15  C12 UNL     1      19.842  82.682   1.643  1.00  0.00     0.104 A 
HETATM   16  C11 UNL     1      19.881  82.967   0.300  1.00  0.00     0.047 A 
BRANCH  13  17
HETATM   17  O1  UNL     1      17.631  79.806   1.625  1.00  0.00    -0.353 OA
HETATM   18  C1  UNL     1      16.445  79.455   0.965  1.00  0.00     0.210 C 
ENDBRANCH  13  17
BRANCH  14  19
HETATM   19  O6  UNL     1      19.058  81.347   3.451  1.00  0.00    -0.351 OA
HETATM   20  C15 UNL     1      18.069  81.959   4.291  1.00  0.00     0.210 C 
ENDBRANCH  14  19
BRANCH  15  21
HETATM   21  O5  UNL     1      20.544  83.433   2.576  1.00  0.00    -0.353 OA
HETATM   22  C13 UNL     1      20.112  84.754   2.827  1.00  0.00     0.210 C 
ENDBRANCH  15  21
ENDBRANCH   1  11
BRANCH  10  23
HETATM   23  N4  UNL     1      17.249  83.907  -2.419  1.00  0.00    -0.126 N 
HETATM   24  O3  UNL     1      16.589  83.917  -1.367  1.00  0.00    -0.535 OA
HETATM   25  O4  UNL     1      16.581  83.881  -3.611  1.00  0.00    -0.535 OA
ENDBRANCH  10  23
BRANCH   9  26
HETATM   26  O2  UNL     1      19.727  85.734  -3.389  1.00  0.00    -0.270 OA
ATOM     27  H2  UNL     1      20.040  85.957  -2.520  1.00  0.00     0.246 HD
ENDBRANCH   9  26
TORSDOF 6
ENDMDL
MODEL 2
REMARK VINA RESULT: -5.867815019      3.439      5.366
REMARK  6 active torsions:
REMARK  status: ('A' for Active; 'I' for Inactive)
REMARK    1  A    between atoms: O1_2  and  C2_3 
REMARK    2  A    between atoms: C4_5  and  C5_6 
REMARK    3  A    between atoms: N3_14  and  O2_15 
REMARK    4  A    between atoms: C10_17  and  N4_18 
REMARK    5  A    between atoms: C12_22  and  O5_23 
REMARK    6  A    between atoms: C14_25  and  O6_26 
ROOT
HETATM    1  C5  UNL     1      21.035  83.022   0.890  1.00  0.00     0.092 C 
HETATM    2  C6  UNL     1      20.125  82.009   0.181  1.00  0.00     0.140 C 
HETATM    3  C7  UNL     1      18.745  82.448   0.187  1.00  0.00     0.068 C 
HETATM    4  N1  UNL     1      17.640  82.790   0.176  1.00  0.00    -0.197 NA
HETATM    5  C8  UNL     1      20.687  81.905  -1.221  1.00  0.00     0.194 C 
HETATM    6  S1  UNL     1      20.296  83.483  -2.061  1.00  0.00    -0.067 SA
HETATM    7  N2  UNL     1      22.074  81.715  -1.238  1.00  0.00    -0.292 N 
HETATM    8  C9  UNL     1      22.804  82.303  -2.301  1.00  0.00     0.175 C 
HETATM    9  N3  UNL     1      22.728  81.522  -0.067  1.00  0.00    -0.172 N 
HETATM   10  C10 UNL     1      22.371  82.373   1.025  1.00  0.00     0.311 C 
ENDROOT
BRANCH   1  11
HETATM   11  C4  UNL     1      20.457  83.432   2.187  1.00  0.00    -0.043 A 
HETATM   12  C3  UNL     1      20.789  84.602   2.802  1.00  0.00     0.047 A 
HETATM   13  C2  UNL     1      20.224  84.936   4.005  1.00  0.00     0.104 A 
HETATM   14  C14 UNL     1      19.310  84.115   4.635  1.00  0.00     0.135 A 
HETATM   15  C12 UNL     1      18.971  82.923   4.011  1.00  0.00     0.104 A 
HETATM   16  C11 UNL     1      19.545  82.602   2.806  1.00  0.00     0.047 A 
BRANCH  13  17
HETATM   17  O1  UNL     1      20.554  86.125   4.641  1.00  0.00    -0.353 OA
HETATM   18  C1  UNL     1      21.760  86.223   5.351  1.00  0.00     0.210 C 
ENDBRANCH  13  17
BRANCH  14  19
HETATM   19  O6  UNL     1      18.718  84.416   5.847  1.00  0.00    -0.351 OA
HETATM   20  C15 UNL     1      19.336  84.004   7.075  1.00  0.00     0.210 C 
ENDBRANCH  14  19
BRANCH  15  21
HETATM   21  O5  UNL     1      18.051  82.091   4.635  1.00  0.00    -0.353 OA
HETATM   22  C13 UNL     1      17.605  80.949   3.933  1.00  0.00     0.210 C 
ENDBRANCH  15  21
ENDBRANCH   1  11
BRANCH  10  23
HETATM   23  N4  UNL     1      23.438  83.321   1.231  1.00  0.00    -0.126 N 
HETATM   24  O3  UNL     1      23.934  83.906   0.254  1.00  0.00    -0.535 OA
HETATM   25  O4  UNL     1      23.924  83.599   2.478  1.00  0.00    -0.535 OA
ENDBRANCH  10  23
BRANCH   9  26
HETATM   26  O2  UNL     1      23.024  80.271   0.261  1.00  0.00    -0.270 OA
ATOM     27  H2  UNL     1      22.444  79.836   0.876  1.00  0.00     0.246 HD
ENDBRANCH   9  26
TORSDOF 6
ENDMDL
MODEL 3
REMARK VINA RESULT: -5.833222345      0.077      2.465
REMARK  6 active torsions:
REMARK  status: ('A' for Active; 'I' for Inactive)
REMARK    1  A    between atoms: O1_2  and  C2_3 
REMARK    2  A    between atoms: C4_5  and  C5_6 
REMARK    3  A    between atoms: N3_14  and  O2_15 
REMARK    4  A    between atoms: C10_17  and  N4_18 
REMARK    5  A    between atoms: C12_22  and  O5_23 
REMARK    6  A    between atoms: C14_25  and  O6_26 
ROOT
HETATM    1  C5  UNL     1      19.281  82.614  -2.016  1.00  0.00     0.092 C 
HETATM    2  C6  UNL     1      20.731  82.652  -2.516  1.00  0.00     0.140 C 
HETATM    3  C7  UNL     1      21.473  81.493  -2.066  1.00  0.00     0.068 C 
HETATM    4  N1  UNL     1      22.076  80.568  -1.722  1.00  0.00    -0.197 NA
HETATM    5  C8  UNL     1      20.615  82.709  -4.024  1.00  0.00     0.194 C 
HETATM    6  S1  UNL     1      20.027  81.064  -4.567  1.00  0.00    -0.067 SA
HETATM    7  N2  UNL     1      19.709  83.681  -4.463  1.00  0.00    -0.292 N 
HETATM    8  C9  UNL     1      18.964  83.403  -5.636  1.00  0.00     0.175 C 
HETATM    9  N3  UNL     1      19.151  84.521  -3.557  1.00  0.00    -0.172 N 
HETATM   10  C10 UNL     1      18.683  83.942  -2.337  1.00  0.00     0.311 C 
ENDROOT
BRANCH   1  11
HETATM   11  C4  UNL     1      19.228  82.289  -0.574  1.00  0.00    -0.043 A 
HETATM   12  C3  UNL     1      19.900  83.010   0.367  1.00  0.00     0.047 A 
HETATM   13  C2  UNL     1      19.817  82.667   1.691  1.00  0.00     0.104 A 
HETATM   14  C14 UNL     1      19.063  81.593   2.121  1.00  0.00     0.135 A 
HETATM   15  C12 UNL     1      18.379  80.857   1.164  1.00  0.00     0.104 A 
HETATM   16  C11 UNL     1      18.471  81.213  -0.159  1.00  0.00     0.047 A 
BRANCH  13  17
HETATM   17  O1  UNL     1      20.497  83.394   2.659  1.00  0.00    -0.353 OA
HETATM   18  C1  UNL     1      20.124  84.721   2.920  1.00  0.00     0.210 C 
ENDBRANCH  13  17
BRANCH  14  19
HETATM   19  O6  UNL     1      18.954  81.216   3.446  1.00  0.00    -0.351 OA
HETATM   20  C15 UNL     1      18.019  81.876   4.311  1.00  0.00     0.210 C 
ENDBRANCH  14  19
BRANCH  15  21
HETATM   21  O5  UNL     1      17.616  79.776   1.586  1.00  0.00    -0.353 OA
HETATM   22  C13 UNL     1      16.447  79.463   0.856  1.00  0.00     0.210 C 
ENDBRANCH  15  21
ENDBRANCH   1  11
BRANCH  10  23
HETATM   23  N4  UNL     1      17.242  83.918  -2.367  1.00  0.00    -0.126 N 
HETATM   24  O3  UNL     1      16.609  83.910  -1.299  1.00  0.00    -0.535 OA
HETATM   25  O4  UNL     1      16.546  83.902  -3.542  1.00  0.00    -0.535 OA
ENDBRANCH  10  23
BRANCH   9  26
HETATM   26  O2  UNL     1      19.686  85.730  -3.445  1.00  0.00    -0.270 OA
ATOM     27  H2  UNL     1      20.134  85.931  -2.632  1.00  0.00     0.246 HD
ENDBRANCH   9  26
TORSDOF 6
ENDMDL
MODEL 4
REMARK VINA RESULT: -5.819450987      3.455      4.799
REMARK  6 active torsions:
REMARK  status: ('A' for Active; 'I' for Inactive)
REMARK    1  A    between atoms: O1_2  and  C2_3 
REMARK    2  A    between atoms: C4_5  and  C5_6 
REMARK    3  A    between atoms: N3_14  and  O2_15 
REMARK    4  A    between atoms: C10_17  and  N4_18 
REMARK    5  A    between atoms: C12_22  and  O5_23 
REMARK    6  A    between atoms: C14_25  and  O6_26 
ROOT
HETATM    1  C5  UNL     1      21.021  83.015   0.879  1.00  0.00     0.092 C 
HETATM    2  C6  UNL     1      20.112  82.011   0.159  1.00  0.00     0.140 C 
HETATM    3  C7  UNL     1      18.732  82.451   0.170  1.00  0.00     0.068 C 
HETATM    4  N1  UNL     1      17.627  82.793   0.162  1.00  0.00    -0.197 NA
HETATM    5  C8  UNL     1      20.674  81.922  -1.243  1.00  0.00     0.194 C 
HETATM    6  S1  UNL     1      20.284  83.508  -2.067  1.00  0.00    -0.067 SA
HETATM    7  N2  UNL     1      22.061  81.732  -1.262  1.00  0.00    -0.292 N 
HETATM    8  C9  UNL     1      22.792  82.330  -2.318  1.00  0.00     0.175 C 
HETATM    9  N3  UNL     1      22.715  81.526  -0.093  1.00  0.00    -0.172 N 
HETATM   10  C10 UNL     1      22.358  82.365   1.008  1.00  0.00     0.311 C 
ENDROOT
BRANCH   1  11
HETATM   11  C4  UNL     1      20.443  83.412   2.181  1.00  0.00    -0.043 A 
HETATM   12  C3  UNL     1      19.505  82.664   2.827  1.00  0.00     0.047 A 
HETATM   13  C2  UNL     1      19.001  83.077   4.033  1.00  0.00     0.104 A 
HETATM   14  C14 UNL     1      19.416  84.249   4.635  1.00  0.00     0.135 A 
HETATM   15  C12 UNL     1      20.371  85.011   3.978  1.00  0.00     0.104 A 
HETATM   16  C11 UNL     1      20.867  84.585   2.771  1.00  0.00     0.047 A 
BRANCH  13  17
HETATM   17  O1  UNL     1      18.045  82.324   4.700  1.00  0.00    -0.353 OA
HETATM   18  C1  UNL     1      17.704  81.051   4.220  1.00  0.00     0.210 C 
ENDBRANCH  13  17
BRANCH  14  19
HETATM   19  O6  UNL     1      18.932  84.699   5.849  1.00  0.00    -0.351 OA
HETATM   20  C15 UNL     1      19.542  84.268   7.074  1.00  0.00     0.210 C 
ENDBRANCH  14  19
BRANCH  15  21
HETATM   21  O5  UNL     1      20.796  86.191   4.575  1.00  0.00    -0.353 OA
HETATM   22  C13 UNL     1      22.100  86.229   5.115  1.00  0.00     0.210 C 
ENDBRANCH  15  21
ENDBRANCH   1  11
BRANCH  10  23
HETATM   23  N4  UNL     1      23.425  83.310   1.225  1.00  0.00    -0.126 N 
HETATM   24  O3  UNL     1      23.922  83.904   0.254  1.00  0.00    -0.535 OA
HETATM   25  O4  UNL     1      23.909  83.576   2.475  1.00  0.00    -0.535 OA
ENDBRANCH  10  23
BRANCH   9  26
HETATM   26  O2  UNL     1      23.010  80.270   0.221  1.00  0.00    -0.270 OA
ATOM     27  H2  UNL     1      22.491  79.588  -0.190  1.00  0.00     0.246 HD
ENDBRANCH   9  26
TORSDOF 6
ENDMDL
MODEL 5
REMARK VINA RESULT: -5.742191724      2.331      4.180
REMARK  6 active torsions:
REMARK  status: ('A' for Active; 'I' for Inactive)
REMARK    1  A    between atoms: O1_2  and  C2_3 
REMARK    2  A    between atoms: C4_5  and  C5_6 
REMARK    3  A    between atoms: N3_14  and  O2_15 
REMARK    4  A    between atoms: C10_17  and  N4_18 
REMARK    5  A    between atoms: C12_22  and  O5_23 
REMARK    6  A    between atoms: C14_25  and  O6_26 
ROOT
HETATM    1  C5  UNL     1      20.141  82.615  -1.142  1.00  0.00     0.092 C 
HETATM    2  C6  UNL     1      19.122  82.489  -2.282  1.00  0.00     0.140 C 
HETATM    3  C7  UNL     1      17.930  83.265  -2.009  1.00  0.00     0.068 C 
HETATM    4  N1  UNL     1      16.976  83.887  -1.809  1.00  0.00    -0.197 NA
HETATM    5  C8  UNL     1      19.858  82.981  -3.510  1.00  0.00     0.194 C 
HETATM    6  S1  UNL     1      20.050  84.790  -3.316  1.00  0.00    -0.067 SA
HETATM    7  N2  UNL     1      21.126  82.404  -3.652  1.00  0.00    -0.292 N 
HETATM    8  C9  UNL     1      22.152  83.203  -4.214  1.00  0.00     0.175 C 
HETATM    9  N3  UNL     1      21.502  81.419  -2.800  1.00  0.00    -0.172 N 
HETATM   10  C10 UNL     1      21.213  81.613  -1.414  1.00  0.00     0.311 C 
ENDROOT
BRANCH   1  11
HETATM   11  C4  UNL     1      19.491  82.423   0.172  1.00  0.00    -0.043 A 
HETATM   12  C3  UNL     1      19.484  83.387   1.136  1.00  0.00     0.047 A 
HETATM   13  C2  UNL     1      18.865  83.158   2.337  1.00  0.00     0.104 A 
HETATM   14  C14 UNL     1      18.234  81.963   2.618  1.00  0.00     0.135 A 
HETATM   15  C12 UNL     1      18.240  80.981   1.638  1.00  0.00     0.104 A 
HETATM   16  C11 UNL     1      18.864  81.224   0.439  1.00  0.00     0.047 A 
BRANCH  13  17
HETATM   17  O1  UNL     1      18.851  84.132   3.327  1.00  0.00    -0.353 OA
HETATM   18  C1  UNL     1      20.032  84.819   3.642  1.00  0.00     0.210 C 
ENDBRANCH  13  17
BRANCH  14  19
HETATM   19  O6  UNL     1      17.600  81.695   3.816  1.00  0.00    -0.351 OA
HETATM   20  C15 UNL     1      18.367  81.506   5.014  1.00  0.00     0.210 C 
ENDBRANCH  14  19
BRANCH  15  21
HETATM   21  O5  UNL     1      17.607  79.775   1.909  1.00  0.00    -0.353 OA
HETATM   22  C13 UNL     1      16.445  79.455   1.173  1.00  0.00     0.210 C 
ENDBRANCH  15  21
ENDBRANCH   1  11
BRANCH  10  23
HETATM   23  N4  UNL     1      22.446  81.908  -0.729  1.00  0.00    -0.126 N 
HETATM   24  O3  UNL     1      22.973  81.038  -0.016  1.00  0.00    -0.535 OA
HETATM   25  O4  UNL     1      23.059  83.125  -0.839  1.00  0.00    -0.535 OA
ENDBRANCH  10  23
BRANCH   9  26
HETATM   26  O2  UNL     1      21.391  80.170  -3.235  1.00  0.00    -0.270 OA
ATOM     27  H2  UNL     1      22.146  79.604  -3.123  1.00  0.00     0.246 HD
ENDBRANCH   9  26
TORSDOF 6
ENDMDL
