MODEL 1
REMARK VINA RESULT: -8.072299792      0.000      0.000
REMARK  15 active torsions:
REMARK  status: ('A' for Active; 'I' for Inactive)
REMARK    1  A    between atoms: O1_2  and  C2_3 
REMARK    2  A    between atoms: C2_3  and  C3_5 
REMARK    3  A    between atoms: C8_10  and  O3_11 
REMARK    4  A    between atoms: N1_13  and  N2_14 
REMARK    5  A    between atoms: N2_14  and  C10_16 
REMARK    6  A    between atoms: C11_19  and  N4_20 
REMARK    7  A    between atoms: N6_27  and  C14_29 
REMARK    8  A    between atoms: C14_29  and  C15_30 
REMARK    9  A    between atoms: C15_30  and  N7_31 
REMARK   10  A    between atoms: C17_38  and  C18_39 
REMARK   11  A    between atoms: C18_39  and  O4_40 
REMARK   12  A    between atoms: C18_39  and  N9_42 
REMARK   13  A    between atoms: N9_42  and  N10_44 
REMARK   14  A    between atoms: N14_53  and  O5_54 
REMARK   15  A    between atoms: C20_56  and  C21_57 
ROOT
HETATM    1  C10 UNL     1      13.142  11.038  21.434  1.00  0.00     0.727 A 
HETATM    2  N3  UNL     1      14.296  10.410  21.720  1.00  0.00    -0.171 N 
ATOM      3  H3  UNL     1      14.371   9.416  21.500  1.00  0.00     0.186 HD
HETATM    4  C11 UNL     1      15.355  11.016  22.278  1.00  0.00     0.145 A 
HETATM    5  C12 UNL     1      15.243  12.373  22.577  1.00  0.00     0.128 A 
HETATM    6  N5  UNL     1      16.230  13.066  23.131  1.00  0.00    -0.333 N 
ATOM      7  H5  UNL     1      17.108  12.595  23.350  1.00  0.00     0.168 HD
HETATM    8  C13 UNL     1      16.097  14.396  23.416  1.00  0.00     0.149 A 
HETATM    9  N6  UNL     1      17.111  14.976  23.951  1.00  0.00    -0.372 N 
ATOM     10  H6  UNL     1      17.955  14.435  24.139  1.00  0.00     0.161 HD
HETATM   11  C16 UNL     1      14.915  15.041  23.125  1.00  0.00     0.175 A 
HETATM   12  N8  UNL     1      14.481  16.300  23.275  1.00  0.00    -0.323 N 
ATOM     13  H8  UNL     1      15.021  17.067  23.676  1.00  0.00     0.169 HD
HETATM   14  C17 UNL     1      13.226  16.396  22.817  1.00  0.00     0.149 A 
HETATM   15  N12 UNL     1      12.894  15.173  22.382  1.00  0.00    -0.275 N 
ATOM     16  H12 UNL     1      11.995  14.917  21.973  1.00  0.00     0.189 HD
HETATM   17  N13 UNL     1      13.916  14.345  22.565  1.00  0.00    -0.213 N 
HETATM   18  C19 UNL     1      14.071  13.039  22.295  1.00  0.00     0.205 A 
HETATM   19  N14 UNL     1      13.068  12.347  21.736  1.00  0.00    -0.029 N 
ENDROOT
BRANCH   1  20
HETATM   20  N2  UNL     1      12.127  10.484  20.906  1.00  0.00    -0.126 N 
ATOM     21  H2  UNL     1      11.205  10.777  21.228  1.00  0.00     0.206 HD
BRANCH  20  22
HETATM   22  N1  UNL     1      12.188   9.504  19.917  1.00  0.00    -0.262 N 
HETATM   23  C6  UNL     1      12.772   9.766  18.626  1.00  0.00     0.061 A 
HETATM   24  C5  UNL     1      13.062   8.577  18.008  1.00  0.00    -0.026 A 
HETATM   25  C7  UNL     1      13.060  10.969  17.973  1.00  0.00     0.069 A 
HETATM   26  C4  UNL     1      13.631   8.607  16.754  1.00  0.00     0.030 A 
HETATM   27  C22 UNL     1      12.655   7.482  18.919  1.00  0.00     0.079 C 
HETATM   28  C3  UNL     1      13.919   9.786  16.100  1.00  0.00     0.073 A 
HETATM   29  C8  UNL     1      13.630  10.982  16.718  1.00  0.00     0.086 A 
HETATM   30  C20 UNL     1      11.737   8.137  19.922  1.00  0.00     0.214 C 
BRANCH  28  31
HETATM   31  C2  UNL     1      14.520   9.788  14.776  1.00  0.00     0.295 C 
HETATM   32  O2  UNL     1      13.793  10.028  13.780  1.00  0.00    -0.259 OA
BRANCH  31  33
HETATM   33  O1  UNL     1      15.856   9.538  14.544  1.00  0.00    -0.322 OA
HETATM   34  C1  UNL     1      16.342   8.249  14.163  1.00  0.00     0.213 C 
ENDBRANCH  31  33
ENDBRANCH  28  31
BRANCH  29  35
HETATM   35  O3  UNL     1      13.931  12.153  16.038  1.00  0.00    -0.355 OA
HETATM   36  C9  UNL     1      15.202  12.741  16.295  1.00  0.00     0.210 C 
ENDBRANCH  29  35
BRANCH  30  37
HETATM   37  C21 UNL     1      11.854   7.488  21.228  1.00  0.00     0.199 C 
HETATM   38  O6  UNL     1      10.970   6.686  21.597  1.00  0.00    -0.646 OA
HETATM   39  O7  UNL     1      12.939   7.768  22.039  1.00  0.00    -0.646 OA
ENDBRANCH  30  37
ENDBRANCH  20  22
ENDBRANCH   1  20
BRANCH  19  40
HETATM   40  O5  UNL     1      11.893  13.034  21.458  1.00  0.00    -0.268 OA
ATOM     41  H5  UNL     1      11.722  13.852  21.910  1.00  0.00     0.246 HD
ENDBRANCH  19  40
BRANCH   4  42
HETATM   42  N4  UNL     1      16.473  10.446  22.564  1.00  0.00    -0.383 N 
ATOM     43  H42 UNL     1      17.306  10.805  22.099  1.00  0.00     0.157 HD
ATOM     44  H41 UNL     1      16.589   9.669  23.215  1.00  0.00     0.157 HD
ENDBRANCH   4  42
BRANCH  14  45
HETATM   45  C18 UNL     1      12.326  17.568  22.769  1.00  0.00     0.304 C 
BRANCH  45  46
HETATM   46  O4  UNL     1      11.500  17.533  21.646  1.00  0.00    -0.368 OA
ATOM     47  H4  UNL     1      10.665  17.953  21.814  1.00  0.00     0.212 HD
ENDBRANCH  45  46
BRANCH  45  48
HETATM   48  N9  UNL     1      11.458  17.593  23.923  1.00  0.00    -0.287 N 
ATOM     49  H9  UNL     1      11.399  18.428  24.505  1.00  0.00     0.185 HD
BRANCH  48  50
HETATM   50  N10 UNL     1      10.705  16.468  24.231  1.00  0.00    -0.251 N 
HETATM   51  N11 UNL     1       9.691  16.102  23.567  1.00  0.00    -0.331 N 
ATOM     52 2H11 UNL     1       9.427  16.675  22.766  1.00  0.00     0.178 HD
ATOM     53 1H11 UNL     1       9.138  15.275  23.793  1.00  0.00     0.178 HD
ATOM     54  H10 UNL     1      10.983  15.906  25.036  1.00  0.00     0.207 HD
ENDBRANCH  48  50
ENDBRANCH  45  48
ENDBRANCH  14  45
BRANCH   9  55
HETATM   55  C14 UNL     1      17.078  16.368  24.290  1.00  0.00     0.148 C 
BRANCH  55  56
HETATM   56  C15 UNL     1      17.276  16.481  25.802  1.00  0.00     0.249 C 
BRANCH  56  57
HETATM   57  N7  UNL     1      15.969  16.439  26.431  1.00  0.00    -0.078 N 
ATOM     58  H73 UNL     1      15.605  17.368  26.646  1.00  0.00     0.274 HD
ATOM     59  H72 UNL     1      15.231  16.149  25.788  1.00  0.00     0.274 HD
ATOM     60  H71 UNL     1      16.033  15.840  27.254  1.00  0.00     0.274 HD
ENDBRANCH  56  57
ENDBRANCH  55  56
ENDBRANCH   9  55
TORSDOF 15
ENDMDL
MODEL 2
REMARK VINA RESULT: -7.848933999      3.473      6.129
REMARK  15 active torsions:
REMARK  status: ('A' for Active; 'I' for Inactive)
REMARK    1  A    between atoms: O1_2  and  C2_3 
REMARK    2  A    between atoms: C2_3  and  C3_5 
REMARK    3  A    between atoms: C8_10  and  O3_11 
REMARK    4  A    between atoms: N1_13  and  N2_14 
REMARK    5  A    between atoms: N2_14  and  C10_16 
REMARK    6  A    between atoms: C11_19  and  N4_20 
REMARK    7  A    between atoms: N6_27  and  C14_29 
REMARK    8  A    between atoms: C14_29  and  C15_30 
REMARK    9  A    between atoms: C15_30  and  N7_31 
REMARK   10  A    between atoms: C17_38  and  C18_39 
REMARK   11  A    between atoms: C18_39  and  O4_40 
REMARK   12  A    between atoms: C18_39  and  N9_42 
REMARK   13  A    between atoms: N9_42  and  N10_44 
REMARK   14  A    between atoms: N14_53  and  O5_54 
REMARK   15  A    between atoms: C20_56  and  C21_57 
ROOT
HETATM    1  C10 UNL     1      12.422  11.174  20.129  1.00  0.00     0.727 A 
HETATM    2  N3  UNL     1      11.400  11.930  20.565  1.00  0.00    -0.171 N 
ATOM      3  H3  UNL     1      10.468  11.515  20.584  1.00  0.00     0.186 HD
HETATM    4  C11 UNL     1      11.536  13.200  20.977  1.00  0.00     0.145 A 
HETATM    5  C12 UNL     1      12.813  13.759  20.945  1.00  0.00     0.128 A 
HETATM    6  N5  UNL     1      13.057  15.006  21.328  1.00  0.00    -0.333 N 
ATOM      7  H5  UNL     1      12.285  15.585  21.661  1.00  0.00     0.168 HD
HETATM    8  C13 UNL     1      14.317  15.533  21.288  1.00  0.00     0.149 A 
HETATM    9  N6  UNL     1      14.447  16.749  21.681  1.00  0.00    -0.372 N 
ATOM     10  H6  UNL     1      13.625  17.262  22.001  1.00  0.00     0.161 HD
HETATM   11  C16 UNL     1      15.365  14.759  20.841  1.00  0.00     0.175 A 
HETATM   12  N8  UNL     1      16.680  14.973  20.684  1.00  0.00    -0.323 N 
ATOM     13  H8  UNL     1      17.164  15.845  20.898  1.00  0.00     0.169 HD
HETATM   14  C17 UNL     1      17.257  13.864  20.205  1.00  0.00     0.149 A 
HETATM   15  N12 UNL     1      16.276  12.963  20.068  1.00  0.00    -0.275 N 
ATOM     16  H12 UNL     1      16.395  12.011  19.721  1.00  0.00     0.189 HD
HETATM   17  N13 UNL     1      15.124  13.500  20.453  1.00  0.00    -0.213 N 
HETATM   18  C19 UNL     1      13.877  13.004  20.501  1.00  0.00     0.205 A 
HETATM   19  N14 UNL     1      13.641  11.744  20.111  1.00  0.00    -0.029 N 
ENDROOT
BRANCH   1  20
HETATM   20  N2  UNL     1      12.316   9.970  19.735  1.00  0.00    -0.126 N 
ATOM     21  H2  UNL     1      12.559   9.764  18.766  1.00  0.00     0.206 HD
BRANCH  20  22
HETATM   22  N1  UNL     1      11.890   8.911  20.535  1.00  0.00    -0.262 N 
HETATM   23  C6  UNL     1      10.947   7.932  20.057  1.00  0.00     0.061 A 
HETATM   24  C5  UNL     1      11.000   6.821  20.856  1.00  0.00    -0.026 A 
HETATM   25  C7  UNL     1      10.058   7.961  18.976  1.00  0.00     0.069 A 
HETATM   26  C4  UNL     1      10.171   5.759  20.568  1.00  0.00     0.030 A 
HETATM   27  C22 UNL     1      12.016   7.066  21.907  1.00  0.00     0.079 C 
HETATM   28  C3  UNL     1       9.291   5.775  19.506  1.00  0.00     0.073 A 
HETATM   29  C8  UNL     1       9.235   6.891  18.701  1.00  0.00     0.086 A 
HETATM   30  C20 UNL     1      12.235   8.559  21.888  1.00  0.00     0.214 C 
BRANCH  28  31
HETATM   31  C2  UNL     1       8.426   4.641  19.225  1.00  0.00     0.295 C 
HETATM   32  O2  UNL     1       8.894   3.480  19.330  1.00  0.00    -0.259 OA
BRANCH  31  33
HETATM   33  O1  UNL     1       7.107   4.764  18.843  1.00  0.00    -0.322 OA
HETATM   34  C1  UNL     1       6.383   3.698  18.226  1.00  0.00     0.213 C 
ENDBRANCH  31  33
ENDBRANCH  28  31
BRANCH  29  35
HETATM   35  O3  UNL     1       8.341   6.881  17.640  1.00  0.00    -0.355 OA
HETATM   36  C9  UNL     1       8.784   6.277  16.428  1.00  0.00     0.210 C 
ENDBRANCH  29  35
BRANCH  30  37
HETATM   37  C21 UNL     1      13.618   8.880  22.240  1.00  0.00     0.199 C 
HETATM   38  O6  UNL     1      14.518   8.742  21.386  1.00  0.00    -0.646 OA
HETATM   39  O7  UNL     1      13.915   9.333  23.514  1.00  0.00    -0.646 OA
ENDBRANCH  30  37
ENDBRANCH  20  22
ENDBRANCH   1  20
BRANCH  19  40
HETATM   40  O5  UNL     1      14.724  10.998  19.666  1.00  0.00    -0.268 OA
ATOM     41  H5  UNL     1      15.315  11.381  19.028  1.00  0.00     0.246 HD
ENDBRANCH  19  40
BRANCH   4  42
HETATM   42  N4  UNL     1      10.581  13.951  21.400  1.00  0.00    -0.383 N 
ATOM     43  H42 UNL     1      10.159  14.586  20.723  1.00  0.00     0.157 HD
ATOM     44  H41 UNL     1      10.215  13.960  22.352  1.00  0.00     0.157 HD
ENDBRANCH   4  42
BRANCH  14  45
HETATM   45  C18 UNL     1      18.674  13.609  19.868  1.00  0.00     0.304 C 
BRANCH  45  46
HETATM   46  O4  UNL     1      19.097  12.368  20.343  1.00  0.00    -0.368 OA
ATOM     47  H4  UNL     1      18.789  11.660  19.791  1.00  0.00     0.212 HD
ENDBRANCH  45  46
BRANCH  45  48
HETATM   48  N9  UNL     1      18.864  13.593  18.437  1.00  0.00    -0.287 N 
ATOM     49  H9  UNL     1      18.101  13.855  17.813  1.00  0.00     0.185 HD
BRANCH  48  50
HETATM   50  N10 UNL     1      20.096  13.216  17.919  1.00  0.00    -0.251 N 
HETATM   51  N11 UNL     1      20.326  12.073  17.424  1.00  0.00    -0.331 N 
ATOM     52 2H11 UNL     1      19.555  11.406  17.414  1.00  0.00     0.178 HD
ATOM     53 1H11 UNL     1      21.231  11.796  17.044  1.00  0.00     0.178 HD
ATOM     54  H10 UNL     1      20.856  13.895  17.938  1.00  0.00     0.207 HD
ENDBRANCH  48  50
ENDBRANCH  45  48
ENDBRANCH  14  45
BRANCH   9  55
HETATM   55  C14 UNL     1      15.725  17.398  21.680  1.00  0.00     0.148 C 
BRANCH  55  56
HETATM   56  C15 UNL     1      16.146  17.593  23.137  1.00  0.00     0.249 C 
BRANCH  56  57
HETATM   57  N7  UNL     1      17.532  17.179  23.262  1.00  0.00    -0.078 N 
ATOM     58  H73 UNL     1      17.679  16.523  24.030  1.00  0.00     0.274 HD
ATOM     59  H72 UNL     1      17.832  16.569  22.501  1.00  0.00     0.274 HD
ATOM     60  H71 UNL     1      18.106  18.019  23.344  1.00  0.00     0.274 HD
ENDBRANCH  56  57
ENDBRANCH  55  56
ENDBRANCH   9  55
TORSDOF 15
ENDMDL
MODEL 3
REMARK VINA RESULT: -7.781048875      3.795      8.605
REMARK  15 active torsions:
REMARK  status: ('A' for Active; 'I' for Inactive)
REMARK    1  A    between atoms: O1_2  and  C2_3 
REMARK    2  A    between atoms: C2_3  and  C3_5 
REMARK    3  A    between atoms: C8_10  and  O3_11 
REMARK    4  A    between atoms: N1_13  and  N2_14 
REMARK    5  A    between atoms: N2_14  and  C10_16 
REMARK    6  A    between atoms: C11_19  and  N4_20 
REMARK    7  A    between atoms: N6_27  and  C14_29 
REMARK    8  A    between atoms: C14_29  and  C15_30 
REMARK    9  A    between atoms: C15_30  and  N7_31 
REMARK   10  A    between atoms: C17_38  and  C18_39 
REMARK   11  A    between atoms: C18_39  and  O4_40 
REMARK   12  A    between atoms: C18_39  and  N9_42 
REMARK   13  A    between atoms: N9_42  and  N10_44 
REMARK   14  A    between atoms: N14_53  and  O5_54 
REMARK   15  A    between atoms: C20_56  and  C21_57 
ROOT
HETATM    1  C10 UNL     1      14.510  12.793  22.032  1.00  0.00     0.727 A 
HETATM    2  N3  UNL     1      14.476  11.804  22.942  1.00  0.00    -0.171 N 
ATOM      3  H3  UNL     1      14.645  12.042  23.920  1.00  0.00     0.186 HD
HETATM    4  C11 UNL     1      14.232  10.520  22.637  1.00  0.00     0.145 A 
HETATM    5  C12 UNL     1      14.005  10.203  21.298  1.00  0.00     0.128 A 
HETATM    6  N5  UNL     1      13.756   8.965  20.889  1.00  0.00    -0.333 N 
ATOM      7  H5  UNL     1      13.729   8.210  21.574  1.00  0.00     0.168 HD
HETATM    8  C13 UNL     1      13.537   8.679  19.571  1.00  0.00     0.149 A 
HETATM    9  N6  UNL     1      13.304   7.450  19.278  1.00  0.00    -0.372 N 
ATOM     10  H6  UNL     1      13.293   6.752  20.022  1.00  0.00     0.161 HD
HETATM   11  C16 UNL     1      13.573   9.692  18.638  1.00  0.00     0.175 A 
HETATM   12  N8  UNL     1      13.404   9.739  17.308  1.00  0.00    -0.323 N 
ATOM     13  H8  UNL     1      13.199   8.937  16.711  1.00  0.00     0.169 HD
HETATM   14  C17 UNL     1      13.546  11.002  16.887  1.00  0.00     0.149 A 
HETATM   15  N12 UNL     1      13.806  11.732  17.979  1.00  0.00    -0.275 N 
ATOM     16  H12 UNL     1      13.967  12.740  17.989  1.00  0.00     0.189 HD
HETATM   17  N13 UNL     1      13.823  10.943  19.046  1.00  0.00    -0.213 N 
HETATM   18  C19 UNL     1      14.036  11.200  20.347  1.00  0.00     0.205 A 
HETATM   19  N14 UNL     1      14.287  12.453  20.750  1.00  0.00    -0.029 N 
ENDROOT
BRANCH   1  20
HETATM   20  N2  UNL     1      14.739  14.015  22.299  1.00  0.00    -0.126 N 
ATOM     21  H2  UNL     1      14.038  14.701  22.020  1.00  0.00     0.206 HD
BRANCH  20  22
HETATM   22  N1  UNL     1      15.882  14.481  22.947  1.00  0.00    -0.262 N 
HETATM   23  C6  UNL     1      17.061  14.872  22.215  1.00  0.00     0.061 A 
HETATM   24  C5  UNL     1      17.861  15.641  23.018  1.00  0.00    -0.026 A 
HETATM   25  C7  UNL     1      17.464  14.595  20.904  1.00  0.00     0.069 A 
HETATM   26  C4  UNL     1      19.046  16.120  22.505  1.00  0.00     0.030 A 
HETATM   27  C22 UNL     1      17.193  15.768  24.335  1.00  0.00     0.079 C 
HETATM   28  C3  UNL     1      19.455  15.854  21.215  1.00  0.00     0.073 A 
HETATM   29  C8  UNL     1      18.653  15.082  20.404  1.00  0.00     0.086 A 
HETATM   30  C20 UNL     1      16.156  14.672  24.347  1.00  0.00     0.214 C 
BRANCH  28  31
HETATM   31  C2  UNL     1      20.711  16.372  20.699  1.00  0.00     0.295 C 
HETATM   32  O2  UNL     1      20.749  17.550  20.263  1.00  0.00    -0.259 OA
BRANCH  31  33
HETATM   33  O1  UNL     1      21.879  15.640  20.657  1.00  0.00    -0.322 OA
HETATM   34  C1  UNL     1      22.084  14.475  21.458  1.00  0.00     0.213 C 
ENDBRANCH  31  33
ENDBRANCH  28  31
BRANCH  29  35
HETATM   35  O3  UNL     1      19.087  14.831  19.112  1.00  0.00    -0.355 OA
HETATM   36  C9  UNL     1      19.326  13.470  18.764  1.00  0.00     0.210 C 
ENDBRANCH  29  35
BRANCH  30  37
HETATM   37  C21 UNL     1      14.984  15.082  25.121  1.00  0.00     0.199 C 
HETATM   38  O6  UNL     1      14.798  14.598  26.257  1.00  0.00    -0.646 OA
HETATM   39  O7  UNL     1      14.095  15.998  24.587  1.00  0.00    -0.646 OA
ENDBRANCH  30  37
ENDBRANCH  20  22
ENDBRANCH   1  20
BRANCH  19  40
HETATM   40  O5  UNL     1      14.315  13.445  19.779  1.00  0.00    -0.268 OA
ATOM     41  H5  UNL     1      15.145  13.665  19.370  1.00  0.00     0.246 HD
ENDBRANCH  19  40
BRANCH   4  42
HETATM   42  N4  UNL     1      14.192   9.549  23.480  1.00  0.00    -0.383 N 
ATOM     43  H42 UNL     1      14.925   8.844  23.409  1.00  0.00     0.157 HD
ATOM     44  H41 UNL     1      13.489   9.431  24.211  1.00  0.00     0.157 HD
ENDBRANCH   4  42
BRANCH  14  45
HETATM   45  C18 UNL     1      13.454  11.555  15.518  1.00  0.00     0.304 C 
BRANCH  45  46
HETATM   46  O4  UNL     1      14.317  12.636  15.344  1.00  0.00    -0.368 OA
ATOM     47  H4  UNL     1      14.004  13.409  15.799  1.00  0.00     0.212 HD
ENDBRANCH  45  46
BRANCH  45  48
HETATM   48  N9  UNL     1      13.829  10.562  14.539  1.00  0.00    -0.287 N 
ATOM     49  H9  UNL     1      13.148  10.227  13.859  1.00  0.00     0.185 HD
BRANCH  48  50
HETATM   50  N10 UNL     1      15.127  10.069  14.534  1.00  0.00    -0.251 N 
HETATM   51  N11 UNL     1      15.414   8.859  14.297  1.00  0.00    -0.331 N 
ATOM     52 2H11 UNL     1      14.639   8.226  14.101  1.00  0.00     0.178 HD
ATOM     53 1H11 UNL     1      16.367   8.496  14.294  1.00  0.00     0.178 HD
ATOM     54  H10 UNL     1      15.890  10.716  14.733  1.00  0.00     0.207 HD
ENDBRANCH  48  50
ENDBRANCH  45  48
ENDBRANCH  14  45
BRANCH   9  55
HETATM   55  C14 UNL     1      13.061   7.041  17.927  1.00  0.00     0.148 C 
BRANCH  55  56
HETATM   56  C15 UNL     1      11.833   6.129  17.933  1.00  0.00     0.249 C 
BRANCH  56  57
HETATM   57  N7  UNL     1      10.682   6.930  18.308  1.00  0.00    -0.078 N 
ATOM     58  H73 UNL     1      10.395   6.779  19.275  1.00  0.00     0.274 HD
ATOM     59  H72 UNL     1      10.900   7.924  18.383  1.00  0.00     0.274 HD
ATOM     60  H71 UNL     1       9.934   6.740  17.639  1.00  0.00     0.274 HD
ENDBRANCH  56  57
ENDBRANCH  55  56
ENDBRANCH   9  55
TORSDOF 15
ENDMDL
MODEL 4
REMARK VINA RESULT: -7.561083941      2.991      8.799
REMARK  15 active torsions:
REMARK  status: ('A' for Active; 'I' for Inactive)
REMARK    1  A    between atoms: O1_2  and  C2_3 
REMARK    2  A    between atoms: C2_3  and  C3_5 
REMARK    3  A    between atoms: C8_10  and  O3_11 
REMARK    4  A    between atoms: N1_13  and  N2_14 
REMARK    5  A    between atoms: N2_14  and  C10_16 
REMARK    6  A    between atoms: C11_19  and  N4_20 
REMARK    7  A    between atoms: N6_27  and  C14_29 
REMARK    8  A    between atoms: C14_29  and  C15_30 
REMARK    9  A    between atoms: C15_30  and  N7_31 
REMARK   10  A    between atoms: C17_38  and  C18_39 
REMARK   11  A    between atoms: C18_39  and  O4_40 
REMARK   12  A    between atoms: C18_39  and  N9_42 
REMARK   13  A    between atoms: N9_42  and  N10_44 
REMARK   14  A    between atoms: N14_53  and  O5_54 
REMARK   15  A    between atoms: C20_56  and  C21_57 
ROOT
HETATM    1  C10 UNL     1      15.619  12.905  21.686  1.00  0.00     0.727 A 
HETATM    2  N3  UNL     1      15.459  12.045  22.706  1.00  0.00    -0.171 N 
ATOM      3  H3  UNL     1      15.797  12.322  23.628  1.00  0.00     0.186 HD
HETATM    4  C11 UNL     1      14.879  10.841  22.581  1.00  0.00     0.145 A 
HETATM    5  C12 UNL     1      14.421  10.471  21.316  1.00  0.00     0.128 A 
HETATM    6  N5  UNL     1      13.834   9.303  21.084  1.00  0.00    -0.333 N 
ATOM      7  H5  UNL     1      13.709   8.645  21.854  1.00  0.00     0.168 HD
HETATM    8  C13 UNL     1      13.394   8.961  19.836  1.00  0.00     0.149 A 
HETATM    9  N6  UNL     1      12.839   7.809  19.716  1.00  0.00    -0.372 N 
ATOM     10  H6  UNL     1      12.750   7.208  20.535  1.00  0.00     0.161 HD
HETATM   11  C16 UNL     1      13.558   9.842  18.790  1.00  0.00     0.175 A 
HETATM   12  N8  UNL     1      13.246   9.807  17.486  1.00  0.00    -0.323 N 
ATOM     13  H8  UNL     1      12.783   9.032  17.011  1.00  0.00     0.169 HD
HETATM   14  C17 UNL     1      13.635  10.949  16.905  1.00  0.00     0.149 A 
HETATM   15  N12 UNL     1      14.194  11.688  17.873  1.00  0.00    -0.275 N 
ATOM     16  H12 UNL     1      14.592  12.619  17.747  1.00  0.00     0.189 HD
HETATM   17  N13 UNL     1      14.150  11.022  19.020  1.00  0.00    -0.213 N 
HETATM   18  C19 UNL     1      14.574  11.335  20.255  1.00  0.00     0.205 A 
HETATM   19  N14 UNL     1      15.167  12.516  20.480  1.00  0.00    -0.029 N 
ENDROOT
BRANCH   1  20
HETATM   20  N2  UNL     1      16.166  14.049  21.782  1.00  0.00    -0.126 N 
ATOM     21  H2  UNL     1      17.100  14.164  21.390  1.00  0.00     0.206 HD
BRANCH  20  22
HETATM   22  N1  UNL     1      15.576  15.158  22.388  1.00  0.00    -0.262 N 
HETATM   23  C6  UNL     1      14.166  15.427  22.265  1.00  0.00     0.061 A 
HETATM   24  C5  UNL     1      13.784  16.308  23.243  1.00  0.00    -0.026 A 
HETATM   25  C7  UNL     1      13.213  14.950  21.358  1.00  0.00     0.069 A 
HETATM   26  C4  UNL     1      12.464  16.698  23.301  1.00  0.00     0.030 A 
HETATM   27  C22 UNL     1      14.983  16.639  24.048  1.00  0.00     0.079 C 
HETATM   28  C3  UNL     1      11.516  16.236  22.413  1.00  0.00     0.073 A 
HETATM   29  C8  UNL     1      11.896  15.351  21.429  1.00  0.00     0.086 A 
HETATM   30  C20 UNL     1      16.150  16.201  23.198  1.00  0.00     0.214 C 
BRANCH  28  31
HETATM   31  C2  UNL     1      10.129  16.665  22.497  1.00  0.00     0.295 C 
HETATM   32  O2  UNL     1       9.394  16.171  23.387  1.00  0.00    -0.259 OA
BRANCH  31  33
HETATM   33  O1  UNL     1       9.565  17.593  21.647  1.00  0.00    -0.322 OA
HETATM   34  C1  UNL     1       8.322  17.367  20.980  1.00  0.00     0.213 C 
ENDBRANCH  31  33
ENDBRANCH  28  31
BRANCH  29  35
HETATM   35  O3  UNL     1      10.923  14.901  20.549  1.00  0.00    -0.355 OA
HETATM   36  C9  UNL     1      11.168  13.660  19.895  1.00  0.00     0.210 C 
ENDBRANCH  29  35
BRANCH  30  37
HETATM   37  C21 UNL     1      17.257  15.745  24.039  1.00  0.00     0.199 C 
HETATM   38  O6  UNL     1      18.374  15.534  23.523  1.00  0.00    -0.646 OA
HETATM   39  O7  UNL     1      17.055  15.553  25.395  1.00  0.00    -0.646 OA
ENDBRANCH  30  37
ENDBRANCH  20  22
ENDBRANCH   1  20
BRANCH  19  40
HETATM   40  O5  UNL     1      15.314  13.375  19.399  1.00  0.00    -0.268 OA
ATOM     41  H5  UNL     1      14.874  13.166  18.584  1.00  0.00     0.246 HD
ENDBRANCH  19  40
BRANCH   4  42
HETATM   42  N4  UNL     1      14.709   9.995  23.534  1.00  0.00    -0.383 N 
ATOM     43  H42 UNL     1      15.470   9.896  24.205  1.00  0.00     0.157 HD
ATOM     44  H41 UNL     1      13.877   9.419  23.671  1.00  0.00     0.157 HD
ENDBRANCH   4  42
BRANCH  14  45
HETATM   45  C18 UNL     1      13.513  11.380  15.496  1.00  0.00     0.304 C 
BRANCH  45  46
HETATM   46  O4  UNL     1      14.308  12.494  15.230  1.00  0.00    -0.368 OA
ATOM     47  H4  UNL     1      14.865  12.354  14.474  1.00  0.00     0.212 HD
ENDBRANCH  45  46
BRANCH  45  48
HETATM   48  N9  UNL     1      13.952  10.334  14.602  1.00  0.00    -0.287 N 
ATOM     49  H9  UNL     1      13.292   9.891  13.964  1.00  0.00     0.185 HD
BRANCH  48  50
HETATM   50  N10 UNL     1      15.282   9.937  14.623  1.00  0.00    -0.251 N 
HETATM   51  N11 UNL     1      15.676   8.792  14.254  1.00  0.00    -0.331 N 
ATOM     52 2H11 UNL     1      14.965   8.137  13.929  1.00  0.00     0.178 HD
ATOM     53 1H11 UNL     1      16.653   8.500  14.269  1.00  0.00     0.178 HD
ATOM     54  H10 UNL     1      15.980  10.604  14.952  1.00  0.00     0.207 HD
ENDBRANCH  48  50
ENDBRANCH  45  48
ENDBRANCH  14  45
BRANCH   9  55
HETATM   55  C14 UNL     1      12.342   7.352  18.452  1.00  0.00     0.148 C 
BRANCH  55  56
HETATM   56  C15 UNL     1      11.127   6.464  18.726  1.00  0.00     0.249 C 
BRANCH  56  57
HETATM   57  N7  UNL     1       9.945   7.306  18.718  1.00  0.00    -0.078 N 
ATOM     58  H73 UNL     1      10.170   8.301  18.758  1.00  0.00     0.274 HD
ATOM     59  H72 UNL     1       9.469   7.310  17.815  1.00  0.00     0.274 HD
ATOM     60  H71 UNL     1       9.339   7.007  19.482  1.00  0.00     0.274 HD
ENDBRANCH  56  57
ENDBRANCH  55  56
ENDBRANCH   9  55
TORSDOF 15
ENDMDL
MODEL 5
REMARK VINA RESULT: -7.435053667      7.589     11.365
REMARK  15 active torsions:
REMARK  status: ('A' for Active; 'I' for Inactive)
REMARK    1  A    between atoms: O1_2  and  C2_3 
REMARK    2  A    between atoms: C2_3  and  C3_5 
REMARK    3  A    between atoms: C8_10  and  O3_11 
REMARK    4  A    between atoms: N1_13  and  N2_14 
REMARK    5  A    between atoms: N2_14  and  C10_16 
REMARK    6  A    between atoms: C11_19  and  N4_20 
REMARK    7  A    between atoms: N6_27  and  C14_29 
REMARK    8  A    between atoms: C14_29  and  C15_30 
REMARK    9  A    between atoms: C15_30  and  N7_31 
REMARK   10  A    between atoms: C17_38  and  C18_39 
REMARK   11  A    between atoms: C18_39  and  O4_40 
REMARK   12  A    between atoms: C18_39  and  N9_42 
REMARK   13  A    between atoms: N9_42  and  N10_44 
REMARK   14  A    between atoms: N14_53  and  O5_54 
REMARK   15  A    between atoms: C20_56  and  C21_57 
ROOT
HETATM    1  C10 UNL     1       6.541   6.486  16.592  1.00  0.00     0.727 A 
HETATM    2  N3  UNL     1       5.575   6.289  17.506  1.00  0.00    -0.171 N 
ATOM      3  H3  UNL     1       5.719   5.567  18.212  1.00  0.00     0.186 HD
HETATM    4  C11 UNL     1       4.430   6.989  17.542  1.00  0.00     0.145 A 
HETATM    5  C12 UNL     1       4.240   7.972  16.571  1.00  0.00     0.128 A 
HETATM    6  N5  UNL     1       3.144   8.719  16.516  1.00  0.00    -0.333 N 
ATOM      7  H5  UNL     1       2.408   8.575  17.207  1.00  0.00     0.168 HD
HETATM    8  C13 UNL     1       2.981   9.677  15.555  1.00  0.00     0.149 A 
HETATM    9  N6  UNL     1       1.885  10.346  15.589  1.00  0.00    -0.372 N 
ATOM     10  H6  UNL     1       1.196  10.142  16.314  1.00  0.00     0.161 HD
HETATM   11  C16 UNL     1       3.970   9.879  14.618  1.00  0.00     0.175 A 
HETATM   12  N8  UNL     1       4.109  10.713  13.578  1.00  0.00    -0.323 N 
ATOM     13  H8  UNL     1       3.424  11.410  13.285  1.00  0.00     0.169 HD
HETATM   14  C17 UNL     1       5.288  10.490  12.984  1.00  0.00     0.149 A 
HETATM   15  N12 UNL     1       5.873   9.502  13.676  1.00  0.00    -0.275 N 
ATOM     16  H12 UNL     1       6.788   9.101  13.469  1.00  0.00     0.189 HD
HETATM   17  N13 UNL     1       5.077   9.127  14.670  1.00  0.00    -0.213 N 
HETATM   18  C19 UNL     1       5.216   8.192  15.623  1.00  0.00     0.205 A 
HETATM   19  N14 UNL     1       6.325   7.442  15.670  1.00  0.00    -0.029 N 
ENDROOT
BRANCH   1  20
HETATM   20  N2  UNL     1       7.632   5.835  16.540  1.00  0.00    -0.126 N 
ATOM     21  H2  UNL     1       8.050   5.683  15.622  1.00  0.00     0.206 HD
BRANCH  20  22
HETATM   22  N1  UNL     1       8.296   5.315  17.650  1.00  0.00    -0.262 N 
HETATM   23  C6  UNL     1       9.233   6.104  18.410  1.00  0.00     0.061 A 
HETATM   24  C5  UNL     1       9.431   5.520  19.633  1.00  0.00    -0.026 A 
HETATM   25  C7  UNL     1       9.910   7.286  18.093  1.00  0.00     0.069 A 
HETATM   26  C4  UNL     1      10.299   6.121  20.519  1.00  0.00     0.030 A 
HETATM   27  C22 UNL     1       8.597   4.297  19.693  1.00  0.00     0.079 C 
HETATM   28  C3  UNL     1      10.973   7.286  20.219  1.00  0.00     0.073 A 
HETATM   29  C8  UNL     1      10.775   7.876  18.990  1.00  0.00     0.086 A 
HETATM   30  C20 UNL     1       8.230   4.012  18.257  1.00  0.00     0.214 C 
BRANCH  28  31
HETATM   31  C2  UNL     1      11.883   7.899  21.172  1.00  0.00     0.295 C 
HETATM   32  O2  UNL     1      11.405   8.516  22.157  1.00  0.00    -0.259 OA
BRANCH  31  33
HETATM   33  O1  UNL     1      13.256   7.845  21.059  1.00  0.00    -0.322 OA
HETATM   34  C1  UNL     1      14.093   8.974  21.319  1.00  0.00     0.213 C 
ENDBRANCH  31  33
ENDBRANCH  28  31
BRANCH  29  35
HETATM   35  O3  UNL     1      11.465   9.047  18.714  1.00  0.00    -0.355 OA
HETATM   36  C9  UNL     1      12.616   8.938  17.882  1.00  0.00     0.210 C 
ENDBRANCH  29  35
BRANCH  30  37
HETATM   37  C21 UNL     1       6.905   3.396  18.177  1.00  0.00     0.199 C 
HETATM   38  O6  UNL     1       6.331   3.315  17.071  1.00  0.00    -0.646 OA
HETATM   39  O7  UNL     1       6.303   2.912  19.325  1.00  0.00    -0.646 OA
ENDBRANCH  30  37
ENDBRANCH  20  22
ENDBRANCH   1  20
BRANCH  19  40
HETATM   40  O5  UNL     1       7.298   7.676  14.707  1.00  0.00    -0.268 OA
ATOM     41  H5  UNL     1       7.488   8.573  14.456  1.00  0.00     0.246 HD
ENDBRANCH  19  40
BRANCH   4  42
HETATM   42  N4  UNL     1       3.486   6.827  18.401  1.00  0.00    -0.383 N 
ATOM     43  H42 UNL     1       3.094   5.889  18.485  1.00  0.00     0.157 HD
ATOM     44  H41 UNL     1       3.103   7.558  19.001  1.00  0.00     0.157 HD
ENDBRANCH   4  42
BRANCH  14  45
HETATM   45  C18 UNL     1       5.891  11.150  11.805  1.00  0.00     0.304 C 
BRANCH  45  46
HETATM   46  O4  UNL     1       5.697  12.530  11.836  1.00  0.00    -0.368 OA
ATOM     47  H4  UNL     1       6.062  12.951  11.068  1.00  0.00     0.212 HD
ENDBRANCH  45  46
BRANCH  45  48
HETATM   48  N9  UNL     1       7.318  10.931  11.773  1.00  0.00    -0.287 N 
ATOM     49  H9  UNL     1       7.694  10.016  11.528  1.00  0.00     0.185 HD
BRANCH  48  50
HETATM   50  N10 UNL     1       8.173  11.982  12.079  1.00  0.00    -0.251 N 
HETATM   51  N11 UNL     1       8.443  12.342  13.262  1.00  0.00    -0.331 N 
ATOM     52 2H11 UNL     1       8.000  11.822  14.020  1.00  0.00     0.178 HD
ATOM     53 1H11 UNL     1       9.071  13.114  13.487  1.00  0.00     0.178 HD
ATOM     54  H10 UNL     1       8.608  12.491  11.309  1.00  0.00     0.207 HD
ENDBRANCH  48  50
ENDBRANCH  45  48
ENDBRANCH  14  45
BRANCH   9  55
HETATM   55  C14 UNL     1       1.611  11.373  14.628  1.00  0.00     0.148 C 
BRANCH  55  56
HETATM   56  C15 UNL     1       1.430  12.685  15.393  1.00  0.00     0.249 C 
BRANCH  56  57
HETATM   57  N7  UNL     1       2.638  13.472  15.227  1.00  0.00    -0.078 N 
ATOM     58  H73 UNL     1       3.201  13.514  16.076  1.00  0.00     0.274 HD
ATOM     59  H72 UNL     1       3.327  13.016  14.629  1.00  0.00     0.274 HD
ATOM     60  H71 UNL     1       2.369  14.395  14.885  1.00  0.00     0.274 HD
ENDBRANCH  56  57
ENDBRANCH  55  56
ENDBRANCH   9  55
TORSDOF 15
ENDMDL
