MODEL 1
REMARK VINA RESULT: -5.637023776      0.000      0.000
REMARK  6 active torsions:
REMARK  status: ('A' for Active; 'I' for Inactive)
REMARK    1  A    between atoms: C2_2  and  N2_7 
REMARK    2  A    between atoms: N1_3  and  O1_5 
REMARK    3  A    between atoms: N2_7  and  N3_9 
REMARK       I    between atoms: N3_9  and  C3_11 
REMARK       I    between atoms: C3_11  and  N4_13 
REMARK       I    between atoms: N4_13  and  C4_15 
REMARK    4  A    between atoms: C4_15  and  C5_17 
REMARK    5  A    between atoms: C6_18  and  S1_19 
REMARK    6  A    between atoms: S1_19  and  C7_20 
ROOT
HETATM    1  N3  UNL     1       2.926   9.484  15.213  1.00  0.00    -0.250 N 
ATOM      2  H3  UNL     1       3.390   9.044  16.008  1.00  0.00     0.192 HD
HETATM    3  C3  UNL     1       3.721  10.031  14.114  1.00  0.00     0.341 C 
HETATM    4  O2  UNL     1       3.075  10.522  13.220  1.00  0.00    -0.245 OA
HETATM    5  N4  UNL     1       5.108   9.885  14.299  1.00  0.00    -0.274 N 
ATOM      6  H4  UNL     1       5.643   9.475  15.065  1.00  0.00     0.173 HD
HETATM    7  C4  UNL     1       5.622  10.617  12.824  1.00  0.00     0.249 C 
HETATM    8  O3  UNL     1       4.710  10.971  12.189  1.00  0.00    -0.268 OA
ENDROOT
BRANCH   7   9
HETATM    9  C5  UNL     1       7.006  10.625  12.720  1.00  0.00     0.081 C 
HETATM   10  C6  UNL     1       7.798  10.200  11.806  1.00  0.00     0.059 C 
BRANCH  10  11
HETATM   11  S1  UNL     1       9.603  10.359  11.974  1.00  0.00    -0.064 SA
BRANCH  11  12
HETATM   12  C7  UNL     1      10.320   9.132  10.883  1.00  0.00     0.166 A 
HETATM   13  N5  UNL     1      10.822   7.926  11.167  1.00  0.00    -0.279 N 
HETATM   14  N6  UNL     1      11.267   7.334  10.074  1.00  0.00    -0.294 N 
ATOM     15  H5  UNL     1      10.856   7.518  12.102  1.00  0.00     0.189 HD
HETATM   16  C8  UNL     1      11.050   8.174   9.056  1.00  0.00     0.201 A 
ATOM     17  H6  UNL     1      11.696   6.411  10.017  1.00  0.00     0.187 HD
HETATM   18  N7  UNL     1      10.465   9.283   9.564  1.00  0.00    -0.326 N 
HETATM   19  C9  UNL     1      10.067  10.469   8.806  1.00  0.00     0.159 C 
ENDBRANCH  11  12
ENDBRANCH  10  11
ENDBRANCH   7   9
BRANCH   1  20
HETATM   20  N2  UNL     1       1.551   9.562  15.174  1.00  0.00    -0.284 N 
ATOM     21  H2  UNL     1       1.112   9.958  14.342  1.00  0.00     0.188 HD
BRANCH  20  22
HETATM   22  C2  UNL     1       0.710   9.119  16.232  1.00  0.00     0.112 C 
HETATM   23  C1  UNL     1      -0.446   9.944  16.653  1.00  0.00     0.092 C 
HETATM   24  N1  UNL     1       0.979   8.005  16.792  1.00  0.00    -0.256 N 
ATOM     25  H1  UNL     1       1.796   7.513  16.430  1.00  0.00     0.195 HD
BRANCH  24  26
HETATM   26  O1  UNL     1       0.325   7.394  17.799  1.00  0.00    -0.288 OA
ATOM     27  H1  UNL     1       0.350   7.595  18.727  1.00  0.00     0.244 HD
ENDBRANCH  24  26
ENDBRANCH  20  22
ENDBRANCH   1  20
TORSDOF 6
ENDMDL
MODEL 2
REMARK VINA RESULT: -5.490444700      3.831      8.839
REMARK  6 active torsions:
REMARK  status: ('A' for Active; 'I' for Inactive)
REMARK    1  A    between atoms: C2_2  and  N2_7 
REMARK    2  A    between atoms: N1_3  and  O1_5 
REMARK    3  A    between atoms: N2_7  and  N3_9 
REMARK       I    between atoms: N3_9  and  C3_11 
REMARK       I    between atoms: C3_11  and  N4_13 
REMARK       I    between atoms: N4_13  and  C4_15 
REMARK    4  A    between atoms: C4_15  and  C5_17 
REMARK    5  A    between atoms: C6_18  and  S1_19 
REMARK    6  A    between atoms: S1_19  and  C7_20 
ROOT
HETATM    1  N3  UNL     1      10.067   8.352  11.348  1.00  0.00    -0.250 N 
ATOM      2  H3  UNL     1       9.714   7.598  11.938  1.00  0.00     0.192 HD
HETATM    3  C3  UNL     1       9.283   9.575  11.178  1.00  0.00     0.341 C 
HETATM    4  O2  UNL     1       9.794  10.406  10.467  1.00  0.00    -0.245 OA
HETATM    5  N4  UNL     1       8.063   9.560  11.879  1.00  0.00    -0.274 N 
ATOM      6  H4  UNL     1       7.638   8.846  12.470  1.00  0.00     0.173 HD
HETATM    7  C4  UNL     1       7.511  11.131  11.425  1.00  0.00     0.249 C 
HETATM    8  O3  UNL     1       8.282  11.663  10.730  1.00  0.00    -0.268 OA
ENDROOT
BRANCH   7   9
HETATM    9  C5  UNL     1       6.273  11.412  11.986  1.00  0.00     0.081 C 
HETATM   10  C6  UNL     1       5.190  11.873  11.480  1.00  0.00     0.059 C 
BRANCH  10  11
HETATM   11  S1  UNL     1       3.708  12.136  12.504  1.00  0.00    -0.064 SA
BRANCH  11  12
HETATM   12  C7  UNL     1       3.774  10.911  13.810  1.00  0.00     0.166 A 
HETATM   13  N5  UNL     1       3.342   9.646  13.816  1.00  0.00    -0.279 N 
HETATM   14  N6  UNL     1       3.570   9.079  14.987  1.00  0.00    -0.294 N 
ATOM     15  H5  UNL     1       2.897   9.181  13.025  1.00  0.00     0.189 HD
HETATM   16  C8  UNL     1       4.163   9.997  15.759  1.00  0.00     0.201 A 
ATOM     17  H6  UNL     1       3.336   8.123  15.253  1.00  0.00     0.187 HD
HETATM   18  N7  UNL     1       4.285  11.126  15.024  1.00  0.00    -0.326 N 
HETATM   19  C9  UNL     1       4.865  12.389  15.480  1.00  0.00     0.159 C 
ENDBRANCH  11  12
ENDBRANCH  10  11
ENDBRANCH   7   9
BRANCH   1  20
HETATM   20  N2  UNL     1      11.283   8.219  10.713  1.00  0.00    -0.284 N 
ATOM     21  H2  UNL     1      12.052   8.820  11.011  1.00  0.00     0.188 HD
BRANCH  20  22
HETATM   22  C2  UNL     1      11.522   7.288   9.665  1.00  0.00     0.112 C 
HETATM   23  C1  UNL     1      12.685   7.470   8.765  1.00  0.00     0.092 C 
HETATM   24  N1  UNL     1      10.719   6.307   9.534  1.00  0.00    -0.256 N 
ATOM     25  H1  UNL     1       9.949   6.270  10.203  1.00  0.00     0.195 HD
BRANCH  24  26
HETATM   26  O1  UNL     1      10.753   5.312   8.625  1.00  0.00    -0.288 OA
ATOM     27  H1  UNL     1      10.116   5.104   7.952  1.00  0.00     0.244 HD
ENDBRANCH  24  26
ENDBRANCH  20  22
ENDBRANCH   1  20
TORSDOF 6
ENDMDL
MODEL 3
REMARK VINA RESULT: -5.467948322      1.608      1.876
REMARK  6 active torsions:
REMARK  status: ('A' for Active; 'I' for Inactive)
REMARK    1  A    between atoms: C2_2  and  N2_7 
REMARK    2  A    between atoms: N1_3  and  O1_5 
REMARK    3  A    between atoms: N2_7  and  N3_9 
REMARK       I    between atoms: N3_9  and  C3_11 
REMARK       I    between atoms: C3_11  and  N4_13 
REMARK       I    between atoms: N4_13  and  C4_15 
REMARK    4  A    between atoms: C4_15  and  C5_17 
REMARK    5  A    between atoms: C6_18  and  S1_19 
REMARK    6  A    between atoms: S1_19  and  C7_20 
ROOT
HETATM    1  N3  UNL     1       3.789   9.997  14.218  1.00  0.00    -0.250 N 
ATOM      2  H3  UNL     1       3.930   9.140  14.753  1.00  0.00     0.192 HD
HETATM    3  C3  UNL     1       4.829  10.469  13.305  1.00  0.00     0.341 C 
HETATM    4  O2  UNL     1       4.558  11.487  12.716  1.00  0.00    -0.245 OA
HETATM    5  N4  UNL     1       5.968   9.643  13.278  1.00  0.00    -0.274 N 
ATOM      6  H4  UNL     1       6.188   8.788  13.789  1.00  0.00     0.173 HD
HETATM    7  C4  UNL     1       6.876  10.531  12.110  1.00  0.00     0.249 C 
HETATM    8  O3  UNL     1       6.286  11.467  11.742  1.00  0.00    -0.268 OA
ENDROOT
BRANCH   7   9
HETATM    9  C5  UNL     1       8.107   9.936  11.870  1.00  0.00     0.081 C 
HETATM   10  C6  UNL     1       8.587   9.352  10.835  1.00  0.00     0.059 C 
BRANCH  10  11
HETATM   11  S1  UNL     1      10.269   8.659  10.839  1.00  0.00    -0.064 SA
BRANCH  11  12
HETATM   12  C7  UNL     1      10.345   7.512   9.464  1.00  0.00     0.166 A 
HETATM   13  N5  UNL     1      10.342   6.175   9.467  1.00  0.00    -0.279 N 
HETATM   14  N6  UNL     1      10.424   5.704   8.236  1.00  0.00    -0.294 N 
ATOM     15  H5  UNL     1      10.283   5.597  10.305  1.00  0.00     0.189 HD
HETATM   16  C8  UNL     1      10.482   6.759   7.415  1.00  0.00     0.201 A 
ATOM     17  H6  UNL     1      10.441   4.722   7.963  1.00  0.00     0.187 HD
HETATM   18  N7  UNL     1      10.434   7.872   8.182  1.00  0.00    -0.326 N 
HETATM   19  C9  UNL     1      10.487   9.252   7.698  1.00  0.00     0.159 C 
ENDBRANCH  11  12
ENDBRANCH  10  11
ENDBRANCH   7   9
BRANCH   1  20
HETATM   20  N2  UNL     1       2.616  10.709  14.355  1.00  0.00    -0.284 N 
ATOM     21  H2  UNL     1       2.588  11.665  14.001  1.00  0.00     0.188 HD
BRANCH  20  22
HETATM   22  C2  UNL     1       1.445  10.180  14.964  1.00  0.00     0.112 C 
HETATM   23  C1  UNL     1       0.169  10.931  14.888  1.00  0.00     0.092 C 
HETATM   24  N1  UNL     1       1.529   9.057  15.562  1.00  0.00    -0.256 N 
ATOM     25  H1  UNL     1       2.451   8.621  15.559  1.00  0.00     0.195 HD
BRANCH  24  26
HETATM   26  O1  UNL     1       0.558   8.372  16.198  1.00  0.00    -0.288 OA
ATOM     27  H1  UNL     1      -0.157   7.873  15.820  1.00  0.00     0.244 HD
ENDBRANCH  24  26
ENDBRANCH  20  22
ENDBRANCH   1  20
TORSDOF 6
ENDMDL
MODEL 4
REMARK VINA RESULT: -5.455537384      3.778      9.205
REMARK  6 active torsions:
REMARK  status: ('A' for Active; 'I' for Inactive)
REMARK    1  A    between atoms: C2_2  and  N2_7 
REMARK    2  A    between atoms: N1_3  and  O1_5 
REMARK    3  A    between atoms: N2_7  and  N3_9 
REMARK       I    between atoms: N3_9  and  C3_11 
REMARK       I    between atoms: C3_11  and  N4_13 
REMARK       I    between atoms: N4_13  and  C4_15 
REMARK    4  A    between atoms: C4_15  and  C5_17 
REMARK    5  A    between atoms: C6_18  and  S1_19 
REMARK    6  A    between atoms: S1_19  and  C7_20 
ROOT
HETATM    1  N3  UNL     1      10.730   7.764  10.757  1.00  0.00    -0.250 N 
ATOM      2  H3  UNL     1      10.704   7.126  11.552  1.00  0.00     0.192 HD
HETATM    3  C3  UNL     1       9.827   8.914  10.713  1.00  0.00     0.341 C 
HETATM    4  O2  UNL     1       9.943   9.609   9.732  1.00  0.00    -0.245 OA
HETATM    5  N4  UNL     1       8.978   9.003  11.831  1.00  0.00    -0.274 N 
ATOM      6  H4  UNL     1       8.884   8.403  12.650  1.00  0.00     0.173 HD
HETATM    7  C4  UNL     1       8.147  10.447  11.382  1.00  0.00     0.249 C 
HETATM    8  O3  UNL     1       8.536  10.857  10.362  1.00  0.00    -0.268 OA
ENDROOT
BRANCH   7   9
HETATM    9  C5  UNL     1       7.198  10.799  12.333  1.00  0.00     0.081 C 
HETATM   10  C6  UNL     1       6.050  11.358  12.230  1.00  0.00     0.059 C 
BRANCH  10  11
HETATM   11  S1  UNL     1       5.029  11.693  13.698  1.00  0.00    -0.064 SA
BRANCH  11  12
HETATM   12  C7  UNL     1       3.506  10.776  13.473  1.00  0.00     0.166 A 
HETATM   13  N5  UNL     1       3.227   9.501  13.759  1.00  0.00    -0.279 N 
HETATM   14  N6  UNL     1       1.983   9.207  13.428  1.00  0.00    -0.294 N 
ATOM     15  H5  UNL     1       3.886   8.843  14.176  1.00  0.00     0.189 HD
HETATM   16  C8  UNL     1       1.441  10.318  12.915  1.00  0.00     0.201 A 
ATOM     17  H6  UNL     1       1.523   8.304  13.540  1.00  0.00     0.187 HD
HETATM   18  N7  UNL     1       2.389  11.283  12.946  1.00  0.00    -0.326 N 
HETATM   19  C9  UNL     1       2.233  12.656  12.467  1.00  0.00     0.159 C 
ENDBRANCH  11  12
ENDBRANCH  10  11
ENDBRANCH   7   9
BRANCH   1  20
HETATM   20  N2  UNL     1      11.615   7.542   9.724  1.00  0.00    -0.284 N 
ATOM     21  H2  UNL     1      12.602   7.745   9.881  1.00  0.00     0.188 HD
BRANCH  20  22
HETATM   22  C2  UNL     1      11.224   7.046   8.450  1.00  0.00     0.112 C 
HETATM   23  C1  UNL     1      11.536   7.821   7.226  1.00  0.00     0.092 C 
HETATM   24  N1  UNL     1      10.612   5.928   8.399  1.00  0.00    -0.256 N 
ATOM     25  H1  UNL     1      10.444   5.473   9.296  1.00  0.00     0.195 HD
BRANCH  24  26
HETATM   26  O1  UNL     1      10.157   5.271   7.313  1.00  0.00    -0.288 OA
ATOM     27  H1  UNL     1       9.946   4.349   7.226  1.00  0.00     0.244 HD
ENDBRANCH  24  26
ENDBRANCH  20  22
ENDBRANCH   1  20
TORSDOF 6
ENDMDL
MODEL 5
REMARK VINA RESULT: -5.429180460      3.213      4.683
REMARK  6 active torsions:
REMARK  status: ('A' for Active; 'I' for Inactive)
REMARK    1  A    between atoms: C2_2  and  N2_7 
REMARK    2  A    between atoms: N1_3  and  O1_5 
REMARK    3  A    between atoms: N2_7  and  N3_9 
REMARK       I    between atoms: N3_9  and  C3_11 
REMARK       I    between atoms: C3_11  and  N4_13 
REMARK       I    between atoms: N4_13  and  C4_15 
REMARK    4  A    between atoms: C4_15  and  C5_17 
REMARK    5  A    between atoms: C6_18  and  S1_19 
REMARK    6  A    between atoms: S1_19  and  C7_20 
ROOT
HETATM    1  N3  UNL     1       6.628  10.600  12.176  1.00  0.00    -0.250 N 
ATOM      2  H3  UNL     1       6.057  10.212  11.424  1.00  0.00     0.192 HD
HETATM    3  C3  UNL     1       8.068  10.344  12.207  1.00  0.00     0.341 C 
HETATM    4  O2  UNL     1       8.650  10.855  13.133  1.00  0.00    -0.245 OA
HETATM    5  N4  UNL     1       8.517   9.541  11.143  1.00  0.00    -0.274 N 
ATOM      6  H4  UNL     1       8.012   9.108  10.370  1.00  0.00     0.173 HD
HETATM    7  C4  UNL     1      10.193   9.520  11.555  1.00  0.00     0.249 C 
HETATM    8  O3  UNL     1      10.397  10.142  12.520  1.00  0.00    -0.268 OA
ENDROOT
BRANCH   7   9
HETATM    9  C5  UNL     1      10.925   8.766  10.648  1.00  0.00     0.081 C 
HETATM   10  C6  UNL     1      11.929   9.057   9.907  1.00  0.00     0.059 C 
BRANCH  10  11
HETATM   11  S1  UNL     1      12.676   7.820   8.802  1.00  0.00    -0.064 SA
BRANCH  11  12
HETATM   12  C7  UNL     1      11.315   6.948   8.028  1.00  0.00     0.166 A 
HETATM   13  N5  UNL     1      10.735   5.794   8.371  1.00  0.00    -0.279 N 
HETATM   14  N6  UNL     1       9.766   5.488   7.528  1.00  0.00    -0.294 N 
ATOM     15  H5  UNL     1      11.004   5.226   9.175  1.00  0.00     0.189 HD
HETATM   16  C8  UNL     1       9.714   6.466   6.617  1.00  0.00     0.201 A 
ATOM     17  H6  UNL     1       9.169   4.662   7.565  1.00  0.00     0.187 HD
HETATM   18  N7  UNL     1      10.675   7.364   6.932  1.00  0.00    -0.326 N 
HETATM   19  C9  UNL     1      10.985   8.587   6.191  1.00  0.00     0.159 C 
ENDBRANCH  11  12
ENDBRANCH  10  11
ENDBRANCH   7   9
BRANCH   1  20
HETATM   20  N2  UNL     1       6.042  11.366  13.160  1.00  0.00    -0.284 N 
ATOM     21  H2  UNL     1       6.145  12.380  13.109  1.00  0.00     0.188 HD
BRANCH  20  22
HETATM   22  C2  UNL     1       5.302  10.817  14.244  1.00  0.00     0.112 C 
HETATM   23  C1  UNL     1       5.408  11.421  15.593  1.00  0.00     0.092 C 
HETATM   24  N1  UNL     1       4.554   9.810  14.016  1.00  0.00    -0.256 N 
ATOM     25  H1  UNL     1       4.550   9.469  13.055  1.00  0.00     0.195 HD
BRANCH  24  26
HETATM   26  O1  UNL     1       3.768   9.137  14.880  1.00  0.00    -0.288 OA
ATOM     27  H1  UNL     1       3.752   8.205  15.061  1.00  0.00     0.244 HD
ENDBRANCH  24  26
ENDBRANCH  20  22
ENDBRANCH   1  20
TORSDOF 6
ENDMDL
