MODEL 1
REMARK VINA RESULT: -5.632855180      0.000      0.000
REMARK  4 active torsions:
REMARK  status: ('A' for Active; 'I' for Inactive)
REMARK    1  A    between atoms: N2_5  and  C3_6 
REMARK    2  A    between atoms: C3_6  and  C4_7 
REMARK    3  A    between atoms: C4_7  and  C5_8 
REMARK    4  A    between atoms: C8_18  and  C9_19 
ROOT
HETATM    1  C1  UNL     1      13.304  10.261   4.895  1.00  0.00     0.161 C 
HETATM    2  N1  UNL     1      12.482   9.478   5.803  1.00  0.00    -0.301 N 
HETATM    3  C2  UNL     1      11.163   9.335   5.841  1.00  0.00     0.329 A 
HETATM    4  O1  UNL     1      10.354   9.885   5.050  1.00  0.00    -0.246 OA
HETATM    5  N2  UNL     1      10.811   8.496   6.874  1.00  0.00    -0.294 N 
HETATM    6  C6  UNL     1      11.931   8.096   7.503  1.00  0.00     0.110 A 
HETATM    7  C7  UNL     1      12.166   7.254   8.598  1.00  0.00     0.129 A 
HETATM    8  N4  UNL     1      11.280   6.652   9.237  1.00  0.00    -0.384 N 
ATOM      9  H41 UNL     1      11.451   6.039  10.035  1.00  0.00     0.157 HD
ATOM     10  H42 UNL     1      10.302   6.773   8.977  1.00  0.00     0.157 HD
HETATM   11  N5  UNL     1      13.488   7.090   8.951  1.00  0.00    -0.338 N 
ATOM     12  H5  UNL     1      13.702   6.485   9.743  1.00  0.00     0.167 HD
HETATM   13  C8  UNL     1      14.498   7.672   8.321  1.00  0.00     0.080 A 
HETATM   14  C12 UNL     1      14.265   8.497   7.247  1.00  0.00     0.065 A 
HETATM   15  C13 UNL     1      12.972   8.718   6.826  1.00  0.00     0.071 A 
ENDROOT
BRANCH  13  16
HETATM   16  C9  UNL     1      15.906   7.471   8.732  1.00  0.00     0.124 C 
HETATM   17  N6  UNL     1      16.501   6.333   8.797  1.00  0.00    -0.373 N 
HETATM   18  C10 UNL     1      17.863   6.425   9.224  1.00  0.00     0.141 C 
ATOM     19  H6  UNL     1      16.045   5.449   8.568  1.00  0.00     0.161 HD
HETATM   20  C11 UNL     1      17.999   7.852   9.715  1.00  0.00     0.141 C 
HETATM   21  N7  UNL     1      16.839   8.466   9.118  1.00  0.00    -0.373 N 
ATOM     22  H7  UNL     1      16.708   9.469   8.992  1.00  0.00     0.161 HD
ENDBRANCH  13  16
BRANCH   5  23
HETATM   23  C3  UNL     1       9.471   8.137   7.187  1.00  0.00     0.143 C 
BRANCH  23  24
HETATM   24  C4  UNL     1       8.950   6.911   6.492  1.00  0.00     0.120 C 
BRANCH  24  25
HETATM   25  C5  UNL     1       7.949   6.267   7.376  1.00  0.00     0.232 C 
HETATM   26  N3  UNL     1       8.204   6.098   8.757  1.00  0.00    -0.062 NA
HETATM   27  O2  UNL     1       6.848   5.851   6.939  1.00  0.00    -0.277 OA
ENDBRANCH  24  25
ENDBRANCH  23  24
ENDBRANCH   5  23
TORSDOF 4
ENDMDL
MODEL 2
REMARK VINA RESULT: -5.577967014      0.700      1.062
REMARK  4 active torsions:
REMARK  status: ('A' for Active; 'I' for Inactive)
REMARK    1  A    between atoms: N2_5  and  C3_6 
REMARK    2  A    between atoms: C3_6  and  C4_7 
REMARK    3  A    between atoms: C4_7  and  C5_8 
REMARK    4  A    between atoms: C8_18  and  C9_19 
ROOT
HETATM    1  C1  UNL     1      13.281  10.307   5.003  1.00  0.00     0.161 C 
HETATM    2  N1  UNL     1      12.461   9.493   5.887  1.00  0.00    -0.301 N 
HETATM    3  C2  UNL     1      11.144   9.347   5.922  1.00  0.00     0.329 A 
HETATM    4  O1  UNL     1      10.332   9.920   5.151  1.00  0.00    -0.246 OA
HETATM    5  N2  UNL     1      10.794   8.475   6.928  1.00  0.00    -0.294 N 
HETATM    6  C6  UNL     1      11.916   8.057   7.543  1.00  0.00     0.110 A 
HETATM    7  C7  UNL     1      12.155   7.182   8.611  1.00  0.00     0.129 A 
HETATM    8  N4  UNL     1      11.271   6.557   9.232  1.00  0.00    -0.384 N 
ATOM      9  H41 UNL     1      11.444   5.919  10.009  1.00  0.00     0.157 HD
ATOM     10  H42 UNL     1      10.292   6.685   8.976  1.00  0.00     0.157 HD
HETATM   11  N5  UNL     1      13.476   7.010   8.957  1.00  0.00    -0.338 N 
ATOM     12  H5  UNL     1      13.693   6.380   9.729  1.00  0.00     0.167 HD
HETATM   13  C8  UNL     1      14.485   7.614   8.345  1.00  0.00     0.080 A 
HETATM   14  C12 UNL     1      14.248   8.471   7.297  1.00  0.00     0.065 A 
HETATM   15  C13 UNL     1      12.954   8.702   6.885  1.00  0.00     0.071 A 
ENDROOT
BRANCH  13  16
HETATM   16  C9  UNL     1      15.893   7.403   8.747  1.00  0.00     0.124 C 
HETATM   17  N6  UNL     1      16.705   8.331   9.110  1.00  0.00    -0.373 N 
HETATM   18  C10 UNL     1      18.010   7.849   9.446  1.00  0.00     0.141 C 
ATOM     19  H6  UNL     1      16.445   9.317   9.154  1.00  0.00     0.161 HD
HETATM   20  C11 UNL     1      18.007   6.414   8.961  1.00  0.00     0.141 C 
HETATM   21  N7  UNL     1      16.595   6.172   8.807  1.00  0.00    -0.373 N 
ATOM     22  H7  UNL     1      16.163   5.250   8.749  1.00  0.00     0.161 HD
ENDBRANCH  13  16
BRANCH   5  23
HETATM   23  C3  UNL     1       9.456   8.103   7.232  1.00  0.00     0.143 C 
BRANCH  23  24
HETATM   24  C4  UNL     1       8.966   6.845   6.568  1.00  0.00     0.120 C 
BRANCH  24  25
HETATM   25  C5  UNL     1       7.945   6.225   7.446  1.00  0.00     0.232 C 
HETATM   26  N3  UNL     1       6.731   5.735   6.909  1.00  0.00    -0.062 NA
HETATM   27  O2  UNL     1       8.113   6.113   8.684  1.00  0.00    -0.277 OA
ENDBRANCH  24  25
ENDBRANCH  23  24
ENDBRANCH   5  23
TORSDOF 4
ENDMDL
MODEL 3
REMARK VINA RESULT: -5.259547650      2.191      2.452
REMARK  4 active torsions:
REMARK  status: ('A' for Active; 'I' for Inactive)
REMARK    1  A    between atoms: N2_5  and  C3_6 
REMARK    2  A    between atoms: C3_6  and  C4_7 
REMARK    3  A    between atoms: C4_7  and  C5_8 
REMARK    4  A    between atoms: C8_18  and  C9_19 
ROOT
HETATM    1  C1  UNL     1      13.227  11.853   9.190  1.00  0.00     0.161 C 
HETATM    2  N1  UNL     1      12.428  10.639   9.235  1.00  0.00    -0.301 N 
HETATM    3  C2  UNL     1      11.131  10.488   9.470  1.00  0.00     0.329 A 
HETATM    4  O1  UNL     1      10.325  11.425   9.707  1.00  0.00    -0.246 OA
HETATM    5  N2  UNL     1      10.796   9.154   9.417  1.00  0.00    -0.294 N 
HETATM    6  C6  UNL     1      11.904   8.443   9.140  1.00  0.00     0.110 A 
HETATM    7  C7  UNL     1      12.147   7.074   8.970  1.00  0.00     0.129 A 
HETATM    8  N4  UNL     1      11.277   6.182   9.038  1.00  0.00    -0.384 N 
ATOM      9  H41 UNL     1      11.454   5.185   8.914  1.00  0.00     0.157 HD
ATOM     10  H42 UNL     1      10.312   6.437   9.246  1.00  0.00     0.157 HD
HETATM   11  N5  UNL     1      13.451   6.730   8.690  1.00  0.00    -0.338 N 
ATOM     12  H5  UNL     1      13.669   5.743   8.559  1.00  0.00     0.167 HD
HETATM   13  C8  UNL     1      14.439   7.607   8.580  1.00  0.00     0.080 A 
HETATM   14  C12 UNL     1      14.198   8.949   8.746  1.00  0.00     0.065 A 
HETATM   15  C13 UNL     1      12.921   9.382   9.030  1.00  0.00     0.071 A 
ENDROOT
BRANCH  13  16
HETATM   16  C9  UNL     1      15.828   7.197   8.278  1.00  0.00     0.124 C 
HETATM   17  N6  UNL     1      16.551   7.678   7.329  1.00  0.00    -0.373 N 
HETATM   18  C10 UNL     1      17.859   7.103   7.261  1.00  0.00     0.141 C 
ATOM     19  H6  UNL     1      16.223   8.400   6.687  1.00  0.00     0.161 HD
HETATM   20  C11 UNL     1      17.786   5.911   8.193  1.00  0.00     0.141 C 
HETATM   21  N7  UNL     1      16.604   6.225   8.957  1.00  0.00    -0.373 N 
ATOM     22  H7  UNL     1      16.362   5.808   9.856  1.00  0.00     0.161 HD
ENDBRANCH  13  16
BRANCH   5  23
HETATM   23  C3  UNL     1       9.481   8.654   9.626  1.00  0.00     0.143 C 
BRANCH  23  24
HETATM   24  C4  UNL     1       8.593   8.638   8.412  1.00  0.00     0.120 C 
BRANCH  24  25
HETATM   25  C5  UNL     1       8.601   7.266   7.850  1.00  0.00     0.232 C 
HETATM   26  N3  UNL     1       7.942   6.207   8.518  1.00  0.00    -0.062 NA
HETATM   27  O2  UNL     1       9.184   6.993   6.773  1.00  0.00    -0.277 OA
ENDBRANCH  24  25
ENDBRANCH  23  24
ENDBRANCH   5  23
TORSDOF 4
ENDMDL
MODEL 4
REMARK VINA RESULT: -5.221276263      2.100      2.254
REMARK  4 active torsions:
REMARK  status: ('A' for Active; 'I' for Inactive)
REMARK    1  A    between atoms: N2_5  and  C3_6 
REMARK    2  A    between atoms: C3_6  and  C4_7 
REMARK    3  A    between atoms: C4_7  and  C5_8 
REMARK    4  A    between atoms: C8_18  and  C9_19 
ROOT
HETATM    1  C1  UNL     1      13.407  11.935   8.272  1.00  0.00     0.161 C 
HETATM    2  N1  UNL     1      12.577  10.791   8.615  1.00  0.00    -0.301 N 
HETATM    3  C2  UNL     1      11.296  10.747   8.957  1.00  0.00     0.329 A 
HETATM    4  O1  UNL     1      10.537  11.746   9.048  1.00  0.00    -0.246 OA
HETATM    5  N2  UNL     1      10.919   9.445   9.198  1.00  0.00    -0.294 N 
HETATM    6  C6  UNL     1      11.983   8.646   9.003  1.00  0.00     0.110 A 
HETATM    7  C7  UNL     1      12.173   7.261   9.100  1.00  0.00     0.129 A 
HETATM    8  N4  UNL     1      11.284   6.439   9.403  1.00  0.00    -0.384 N 
ATOM      9  H41 UNL     1      11.422   5.431   9.474  1.00  0.00     0.157 HD
ATOM     10  H42 UNL     1      10.344   6.772   9.615  1.00  0.00     0.157 HD
HETATM   11  N5  UNL     1      13.443   6.812   8.814  1.00  0.00    -0.338 N 
ATOM     12  H5  UNL     1      13.622   5.810   8.874  1.00  0.00     0.167 HD
HETATM   13  C8  UNL     1      14.446   7.605   8.466  1.00  0.00     0.080 A 
HETATM   14  C12 UNL     1      14.257   8.962   8.369  1.00  0.00     0.065 A 
HETATM   15  C13 UNL     1      13.017   9.498   8.639  1.00  0.00     0.071 A 
ENDROOT
BRANCH  13  16
HETATM   16  C9  UNL     1      15.798   7.083   8.166  1.00  0.00     0.124 C 
HETATM   17  N6  UNL     1      16.464   6.281   8.919  1.00  0.00    -0.373 N 
HETATM   18  C10 UNL     1      17.747   5.934   8.388  1.00  0.00     0.141 C 
ATOM     19  H6  UNL     1      16.112   5.926   9.808  1.00  0.00     0.161 HD
HETATM   20  C11 UNL     1      17.942   6.899   7.237  1.00  0.00     0.141 C 
HETATM   21  N7  UNL     1      16.592   7.359   7.025  1.00  0.00    -0.373 N 
ATOM     22  H7  UNL     1      16.257   7.816   6.177  1.00  0.00     0.161 HD
ENDBRANCH  13  16
BRANCH   5  23
HETATM   23  C3  UNL     1       9.607   9.055   9.588  1.00  0.00     0.143 C 
BRANCH  23  24
HETATM   24  C4  UNL     1       8.620   8.892   8.465  1.00  0.00     0.120 C 
BRANCH  24  25
HETATM   25  C5  UNL     1       8.633   7.472   8.039  1.00  0.00     0.232 C 
HETATM   26  N3  UNL     1       9.296   7.078   6.853  1.00  0.00    -0.062 NA
HETATM   27  O2  UNL     1       8.062   6.574   8.704  1.00  0.00    -0.277 OA
ENDBRANCH  24  25
ENDBRANCH  23  24
ENDBRANCH   5  23
TORSDOF 4
ENDMDL
MODEL 5
REMARK VINA RESULT: -5.036782434      3.476      6.031
REMARK  4 active torsions:
REMARK  status: ('A' for Active; 'I' for Inactive)
REMARK    1  A    between atoms: N2_5  and  C3_6 
REMARK    2  A    between atoms: C3_6  and  C4_7 
REMARK    3  A    between atoms: C4_7  and  C5_8 
REMARK    4  A    between atoms: C8_18  and  C9_19 
ROOT
HETATM    1  C1  UNL     1       9.288  11.654   6.432  1.00  0.00     0.161 C 
HETATM    2  N1  UNL     1       9.443  10.328   7.008  1.00  0.00    -0.301 N 
HETATM    3  C2  UNL     1       9.378   9.944   8.276  1.00  0.00     0.329 A 
HETATM    4  O1  UNL     1       9.159  10.706   9.252  1.00  0.00    -0.246 OA
HETATM    5  N2  UNL     1       9.587   8.586   8.367  1.00  0.00    -0.294 N 
HETATM    6  C6  UNL     1       9.787   8.099   7.128  1.00  0.00     0.110 A 
HETATM    7  C7  UNL     1      10.040   6.812   6.634  1.00  0.00     0.129 A 
HETATM    8  N4  UNL     1      10.115   5.782   7.333  1.00  0.00    -0.384 N 
ATOM      9  H41 UNL     1      10.299   4.845   6.974  1.00  0.00     0.157 HD
ATOM     10  H42 UNL     1      10.004   5.852   8.345  1.00  0.00     0.157 HD
HETATM   11  N5  UNL     1      10.190   6.717   5.268  1.00  0.00    -0.338 N 
ATOM     12  H5  UNL     1      10.376   5.798   4.868  1.00  0.00     0.167 HD
HETATM   13  C8  UNL     1      10.109   7.751   4.443  1.00  0.00     0.080 A 
HETATM   14  C12 UNL     1       9.860   9.011   4.930  1.00  0.00     0.065 A 
HETATM   15  C13 UNL     1       9.696   9.198   6.285  1.00  0.00     0.071 A 
ENDROOT
BRANCH  13  16
HETATM   16  C9  UNL     1      10.277   7.608   2.979  1.00  0.00     0.124 C 
HETATM   17  N6  UNL     1      11.401   7.653   2.357  1.00  0.00    -0.373 N 
HETATM   18  C10 UNL     1      11.277   7.486   0.941  1.00  0.00     0.141 C 
ATOM     19  H6  UNL     1      12.296   7.795   2.827  1.00  0.00     0.161 HD
HETATM   20  C11 UNL     1       9.788   7.601   0.687  1.00  0.00     0.141 C 
HETATM   21  N7  UNL     1       9.261   7.399   2.014  1.00  0.00    -0.373 N 
ATOM     22  H7  UNL     1       8.296   7.144   2.226  1.00  0.00     0.161 HD
ENDBRANCH  13  16
BRANCH   5  23
HETATM   23  C3  UNL     1       9.584   7.859   9.589  1.00  0.00     0.143 C 
BRANCH  23  24
HETATM   24  C4  UNL     1      10.765   8.098  10.488  1.00  0.00     0.120 C 
BRANCH  24  25
HETATM   25  C5  UNL     1      11.995   7.739   9.743  1.00  0.00     0.232 C 
HETATM   26  N3  UNL     1      12.969   8.720   9.437  1.00  0.00    -0.062 NA
HETATM   27  O2  UNL     1      12.220   6.566   9.357  1.00  0.00    -0.277 OA
ENDBRANCH  24  25
ENDBRANCH  23  24
ENDBRANCH   5  23
TORSDOF 4
ENDMDL
