MODEL 1
REMARK VINA RESULT: -8.677262064      0.000      0.000
REMARK  5 active torsions:
REMARK  status: ('A' for Active; 'I' for Inactive)
REMARK    1  A    between atoms: N1_5  and  C5_6 
REMARK    2  A    between atoms: C5_6  and  C6_7 
REMARK    3  A    between atoms: C5_6  and  C15_19 
REMARK    4  A    between atoms: C12_13  and  O1_14 
REMARK    5  A    between atoms: N5_26  and  C16_27 
ROOT
HETATM    1  C5  UNL     1       0.043  -8.459  20.580  1.00  0.00     0.326 C 
ENDROOT
BRANCH   1   2
HETATM    2  N1  UNL     1      -0.448  -8.311  19.240  1.00  0.00     0.104 N 
HETATM    3  C4  UNL     1      -1.713  -7.646  19.222  1.00  0.00     0.274 C 
HETATM    4  C3  UNL     1      -1.955  -7.150  17.807  1.00  0.00     0.034 C 
HETATM    5  C2  UNL     1      -2.046  -8.354  16.901  1.00  0.00    -0.015 C 
HETATM    6  C1  UNL     1      -3.475  -8.420  16.396  1.00  0.00     0.010 C 
HETATM    7  C22 UNL     1      -1.754  -9.621  17.666  1.00  0.00     0.034 C 
HETATM    8  C21 UNL     1      -0.482  -9.518  18.479  1.00  0.00     0.274 C 
ENDBRANCH   1   2
BRANCH   1   9
HETATM    9  C6  UNL     1       0.638  -7.151  20.986  1.00  0.00    -0.017 A 
HETATM   10  C7  UNL     1       0.743  -6.832  22.302  1.00  0.00     0.011 A 
HETATM   11  C8  UNL     1       1.288  -5.636  22.666  1.00  0.00     0.020 A 
HETATM   12  C9  UNL     1       1.726  -4.770  21.701  1.00  0.00     0.009 A 
HETATM   13  C10 UNL     1       1.643  -5.045  20.337  1.00  0.00    -0.012 A 
HETATM   14  S1  UNL     1       2.430  -3.223  22.196  1.00  0.00    -0.129 SA
HETATM   15  C11 UNL     1       1.086  -6.265  20.009  1.00  0.00     0.021 A 
HETATM   16  C12 UNL     1       2.104  -4.136  19.289  1.00  0.00     0.153 C 
HETATM   17  C13 UNL     1       3.393  -3.433  19.615  1.00  0.00     0.047 C 
HETATM   18  C14 UNL     1       3.318  -2.535  20.796  1.00  0.00     0.082 C 
BRANCH  16  19
HETATM   19  O1  UNL     1       1.085  -3.231  18.968  1.00  0.00    -0.391 OA
ATOM     20  H1  UNL     1       1.216  -2.419  19.444  1.00  0.00     0.210 HD
ENDBRANCH  16  19
ENDBRANCH   1   9
BRANCH   1  21
HETATM   21  C15 UNL     1       1.049  -9.513  20.725  1.00  0.00     0.154 A 
HETATM   22  N2  UNL     1       2.076  -9.809  19.925  1.00  0.00    -0.270 N 
HETATM   23  N3  UNL     1       2.760 -10.843  20.412  1.00  0.00    -0.227 N 
ATOM     24  H2  UNL     1       2.304  -9.315  19.063  1.00  0.00     0.190 HD
HETATM   25  N4  UNL     1       2.157 -11.197  21.525  1.00  0.00    -0.224 N 
ATOM     26  H3  UNL     1       3.589 -11.275  20.003  1.00  0.00     0.210 HD
HETATM   27  N5  UNL     1       1.116 -10.408  21.741  1.00  0.00    -0.256 N 
ATOM     28  H4  UNL     1       2.447 -11.964  22.131  1.00  0.00     0.210 HD
BRANCH  27  29
HETATM   29  C16 UNL     1       0.252 -10.550  22.890  1.00  0.00     0.111 C 
HETATM   30  C17 UNL     1       0.231 -11.955  23.430  1.00  0.00     0.027 C 
HETATM   31  C18 UNL     1       1.028 -11.962  24.699  1.00  0.00     0.002 C 
HETATM   32  C19 UNL     1       0.787 -10.574  25.248  1.00  0.00     0.002 C 
HETATM   33  C20 UNL     1       0.742  -9.672  24.041  1.00  0.00     0.027 C 
ENDBRANCH  27  29
ENDBRANCH   1  21
TORSDOF 5
ENDMDL
MODEL 2
REMARK VINA RESULT: -8.459831736      1.443      1.842
REMARK  5 active torsions:
REMARK  status: ('A' for Active; 'I' for Inactive)
REMARK    1  A    between atoms: N1_5  and  C5_6 
REMARK    2  A    between atoms: C5_6  and  C6_7 
REMARK    3  A    between atoms: C5_6  and  C15_19 
REMARK    4  A    between atoms: C12_13  and  O1_14 
REMARK    5  A    between atoms: N5_26  and  C16_27 
ROOT
HETATM    1  C5  UNL     1       0.473  -7.973  21.862  1.00  0.00     0.326 C 
ENDROOT
BRANCH   1   2
HETATM    2  N1  UNL     1       0.391  -8.333  20.476  1.00  0.00     0.104 N 
HETATM    3  C4  UNL     1      -0.879  -7.982  19.922  1.00  0.00     0.274 C 
HETATM    4  C3  UNL     1      -0.743  -7.989  18.410  1.00  0.00     0.034 C 
HETATM    5  C2  UNL     1      -0.419  -9.400  17.979  1.00  0.00    -0.015 C 
HETATM    6  C1  UNL     1      -1.614  -9.908  17.195  1.00  0.00     0.010 C 
HETATM    7  C22 UNL     1      -0.224 -10.293  19.179  1.00  0.00     0.034 C 
HETATM    8  C21 UNL     1       0.727  -9.692  20.192  1.00  0.00     0.274 C 
ENDBRANCH   1   2
BRANCH   1   9
HETATM    9  C6  UNL     1       1.039  -6.592  21.932  1.00  0.00    -0.017 A 
HETATM   10  C7  UNL     1       1.195  -5.982  23.136  1.00  0.00     0.011 A 
HETATM   11  C8  UNL     1       1.713  -4.722  23.193  1.00  0.00     0.020 A 
HETATM   12  C9  UNL     1       2.071  -4.084  22.036  1.00  0.00     0.009 A 
HETATM   13  C10 UNL     1       1.933  -4.661  20.775  1.00  0.00    -0.012 A 
HETATM   14  S1  UNL     1       2.742  -2.448  22.134  1.00  0.00    -0.129 SA
HETATM   15  C11 UNL     1       1.406  -5.937  20.759  1.00  0.00     0.021 A 
HETATM   16  C12 UNL     1       2.309  -4.000  19.527  1.00  0.00     0.153 C 
HETATM   17  C13 UNL     1       3.586  -3.209  19.616  1.00  0.00     0.047 C 
HETATM   18  C14 UNL     1       3.535  -2.071  20.569  1.00  0.00     0.082 C 
BRANCH  16  19
HETATM   19  O1  UNL     1       1.243  -3.216  19.068  1.00  0.00    -0.391 OA
ATOM     20  H1  UNL     1       1.133  -2.462  19.636  1.00  0.00     0.210 HD
ENDBRANCH  16  19
ENDBRANCH   1   9
BRANCH   1  21
HETATM   21  C15 UNL     1       1.306  -8.876  22.658  1.00  0.00     0.154 A 
HETATM   22  N2  UNL     1       2.604  -9.156  22.525  1.00  0.00    -0.270 N 
HETATM   23  N3  UNL     1       2.988 -10.032  23.453  1.00  0.00    -0.227 N 
ATOM     24  H2  UNL     1       3.216  -8.757  21.814  1.00  0.00     0.190 HD
HETATM   25  N4  UNL     1       1.921 -10.302  24.171  1.00  0.00    -0.224 N 
ATOM     26  H3  UNL     1       3.923 -10.417  23.581  1.00  0.00     0.210 HD
HETATM   27  N5  UNL     1       0.886  -9.616  23.713  1.00  0.00    -0.256 N 
ATOM     28  H4  UNL     1       1.894 -10.945  24.963  1.00  0.00     0.210 HD
BRANCH  27  29
HETATM   29  C16 UNL     1      -0.432  -9.703  24.300  1.00  0.00     0.111 C 
HETATM   30  C17 UNL     1      -0.623 -10.953  25.115  1.00  0.00     0.027 C 
HETATM   31  C18 UNL     1      -0.591 -10.558  26.560  1.00  0.00     0.002 C 
HETATM   32  C19 UNL     1      -1.181  -9.165  26.534  1.00  0.00     0.002 C 
HETATM   33  C20 UNL     1      -0.668  -8.540  25.263  1.00  0.00     0.027 C 
ENDBRANCH  27  29
ENDBRANCH   1  21
TORSDOF 5
ENDMDL
MODEL 3
REMARK VINA RESULT: -8.248148431      1.064      1.218
REMARK  5 active torsions:
REMARK  status: ('A' for Active; 'I' for Inactive)
REMARK    1  A    between atoms: N1_5  and  C5_6 
REMARK    2  A    between atoms: C5_6  and  C6_7 
REMARK    3  A    between atoms: C5_6  and  C15_19 
REMARK    4  A    between atoms: C12_13  and  O1_14 
REMARK    5  A    between atoms: N5_26  and  C16_27 
ROOT
HETATM    1  C5  UNL     1       0.668  -8.755  21.015  1.00  0.00     0.326 C 
ENDROOT
BRANCH   1   2
HETATM    2  N1  UNL     1       0.448  -8.821  19.600  1.00  0.00     0.104 N 
HETATM    3  C4  UNL     1      -0.944  -8.948  19.297  1.00  0.00     0.274 C 
HETATM    4  C3  UNL     1      -1.134  -8.584  17.835  1.00  0.00     0.034 C 
HETATM    5  C2  UNL     1      -0.381  -9.594  17.003  1.00  0.00    -0.015 C 
HETATM    6  C1  UNL     1      -1.416 -10.394  16.235  1.00  0.00     0.010 C 
HETATM    7  C22 UNL     1       0.394 -10.541  17.885  1.00  0.00     0.034 C 
HETATM    8  C21 UNL     1       1.222  -9.810  18.920  1.00  0.00     0.274 C 
ENDBRANCH   1   2
BRANCH   1   9
HETATM    9  C6  UNL     1       1.068  -7.352  21.340  1.00  0.00    -0.017 A 
HETATM   10  C7  UNL     1       1.151  -6.953  22.636  1.00  0.00     0.011 A 
HETATM   11  C8  UNL     1       1.517  -5.671  22.925  1.00  0.00     0.020 A 
HETATM   12  C9  UNL     1       1.797  -4.801  21.907  1.00  0.00     0.009 A 
HETATM   13  C10 UNL     1       1.728  -5.156  20.561  1.00  0.00    -0.012 A 
HETATM   14  S1  UNL     1       2.270  -3.142  22.307  1.00  0.00    -0.129 SA
HETATM   15  C11 UNL     1       1.355  -6.461  20.309  1.00  0.00     0.021 A 
HETATM   16  C12 UNL     1       2.023  -4.244  19.458  1.00  0.00     0.153 C 
HETATM   17  C13 UNL     1       3.198  -3.339  19.712  1.00  0.00     0.047 C 
HETATM   18  C14 UNL     1       3.014  -2.403  20.850  1.00  0.00     0.082 C 
BRANCH  16  19
HETATM   19  O1  UNL     1       0.872  -3.520  19.123  1.00  0.00    -0.391 OA
ATOM     20  H1  UNL     1       0.868  -3.340  18.190  1.00  0.00     0.210 HD
ENDBRANCH  16  19
ENDBRANCH   1   9
BRANCH   1  21
HETATM   21  C15 UNL     1       1.703  -9.674  21.494  1.00  0.00     0.154 A 
HETATM   22  N2  UNL     1       3.013  -9.667  21.243  1.00  0.00    -0.270 N 
HETATM   23  N3  UNL     1       3.612 -10.677  21.871  1.00  0.00    -0.227 N 
ATOM     24  H2  UNL     1       3.489  -8.985  20.653  1.00  0.00     0.190 HD
HETATM   25  N4  UNL     1       2.669 -11.322  22.520  1.00  0.00    -0.224 N 
ATOM     26  H3  UNL     1       4.606 -10.906  21.853  1.00  0.00     0.210 HD
HETATM   27  N5  UNL     1       1.500 -10.736  22.311  1.00  0.00    -0.256 N 
ATOM     28  H4  UNL     1       2.815 -12.149  23.098  1.00  0.00     0.210 HD
BRANCH  27  29
HETATM   29  C16 UNL     1       0.269 -11.217  22.894  1.00  0.00     0.111 C 
HETATM   30  C17 UNL     1       0.370 -12.641  23.373  1.00  0.00     0.027 C 
HETATM   31  C18 UNL     1       0.441 -12.609  24.869  1.00  0.00     0.002 C 
HETATM   32  C19 UNL     1      -0.392 -11.394  25.213  1.00  0.00     0.002 C 
HETATM   33  C20 UNL     1      -0.099 -10.392  24.126  1.00  0.00     0.027 C 
ENDBRANCH  27  29
ENDBRANCH   1  21
TORSDOF 5
ENDMDL
MODEL 4
REMARK VINA RESULT: -7.982976224      1.834      2.536
REMARK  5 active torsions:
REMARK  status: ('A' for Active; 'I' for Inactive)
REMARK    1  A    between atoms: N1_5  and  C5_6 
REMARK    2  A    between atoms: C5_6  and  C6_7 
REMARK    3  A    between atoms: C5_6  and  C15_19 
REMARK    4  A    between atoms: C12_13  and  O1_14 
REMARK    5  A    between atoms: N5_26  and  C16_27 
ROOT
HETATM    1  C5  UNL     1       0.945  -8.668  22.277  1.00  0.00     0.326 C 
ENDROOT
BRANCH   1   2
HETATM    2  N1  UNL     1       1.187  -8.877  20.879  1.00  0.00     0.104 N 
HETATM    3  C4  UNL     1      -0.037  -9.052  20.161  1.00  0.00     0.274 C 
HETATM    4  C3  UNL     1       0.257  -8.837  18.687  1.00  0.00     0.034 C 
HETATM    5  C2  UNL     1       1.218  -9.914  18.242  1.00  0.00    -0.015 C 
HETATM    6  C1  UNL     1       0.467 -10.801  17.266  1.00  0.00     0.010 C 
HETATM    7  C22 UNL     1       1.652 -10.759  19.414  1.00  0.00     0.034 C 
HETATM    8  C21 UNL     1       2.119  -9.918  20.583  1.00  0.00     0.274 C 
ENDBRANCH   1   2
BRANCH   1   9
HETATM    9  C6  UNL     1       1.174  -7.219  22.558  1.00  0.00    -0.017 A 
HETATM   10  C7  UNL     1       0.946  -6.725  23.803  1.00  0.00     0.011 A 
HETATM   11  C8  UNL     1       1.157  -5.401  24.053  1.00  0.00     0.020 A 
HETATM   12  C9  UNL     1       1.600  -4.584  23.048  1.00  0.00     0.009 A 
HETATM   13  C10 UNL     1       1.851  -5.037  21.754  1.00  0.00    -0.012 A 
HETATM   14  S1  UNL     1       1.868  -2.869  23.396  1.00  0.00    -0.129 SA
HETATM   15  C11 UNL     1       1.625  -6.382  21.540  1.00  0.00     0.021 A 
HETATM   16  C12 UNL     1       2.323  -4.183  20.666  1.00  0.00     0.153 C 
HETATM   17  C13 UNL     1       3.354  -3.172  21.087  1.00  0.00     0.047 C 
HETATM   18  C14 UNL     1       2.866  -2.176  22.075  1.00  0.00     0.082 C 
BRANCH  16  19
HETATM   19  O1  UNL     1       1.231  -3.579  20.032  1.00  0.00    -0.391 OA
ATOM     20  H1  UNL     1       1.501  -3.234  19.188  1.00  0.00     0.210 HD
ENDBRANCH  16  19
ENDBRANCH   1   9
BRANCH   1  21
HETATM   21  C15 UNL     1       1.804  -9.471  23.150  1.00  0.00     0.154 A 
HETATM   22  N2  UNL     1       3.007  -9.175  23.645  1.00  0.00    -0.270 N 
HETATM   23  N3  UNL     1       3.457 -10.176  24.401  1.00  0.00    -0.227 N 
ATOM     24  H2  UNL     1       3.511  -8.307  23.470  1.00  0.00     0.190 HD
HETATM   25  N4  UNL     1       2.528 -11.105  24.377  1.00  0.00    -0.224 N 
ATOM     26  H3  UNL     1       4.346 -10.214  24.899  1.00  0.00     0.210 HD
HETATM   27  N5  UNL     1       1.513 -10.706  23.627  1.00  0.00    -0.256 N 
ATOM     28  H4  UNL     1       2.580 -12.000  24.864  1.00  0.00     0.210 HD
BRANCH  27  29
HETATM   29  C16 UNL     1       0.336 -11.515  23.409  1.00  0.00     0.111 C 
HETATM   30  C17 UNL     1       0.624 -12.756  22.609  1.00  0.00     0.027 C 
HETATM   31  C18 UNL     1       0.593 -13.919  23.553  1.00  0.00     0.002 C 
HETATM   32  C19 UNL     1      -0.437 -13.487  24.574  1.00  0.00     0.002 C 
HETATM   33  C20 UNL     1      -0.233 -12.003  24.740  1.00  0.00     0.027 C 
ENDBRANCH  27  29
ENDBRANCH   1  21
TORSDOF 5
ENDMDL
MODEL 5
REMARK VINA RESULT: -7.977212893      1.381      1.917
REMARK  5 active torsions:
REMARK  status: ('A' for Active; 'I' for Inactive)
REMARK    1  A    between atoms: N1_5  and  C5_6 
REMARK    2  A    between atoms: C5_6  and  C6_7 
REMARK    3  A    between atoms: C5_6  and  C15_19 
REMARK    4  A    between atoms: C12_13  and  O1_14 
REMARK    5  A    between atoms: N5_26  and  C16_27 
ROOT
HETATM    1  C5  UNL     1       0.030  -7.920  20.344  1.00  0.00     0.326 C 
ENDROOT
BRANCH   1   2
HETATM    2  N1  UNL     1      -0.519  -7.930  19.020  1.00  0.00     0.104 N 
HETATM    3  C4  UNL     1      -1.809  -7.316  18.989  1.00  0.00     0.274 C 
HETATM    4  C3  UNL     1      -2.127  -6.979  17.543  1.00  0.00     0.034 C 
HETATM    5  C2  UNL     1      -2.207  -8.274  16.771  1.00  0.00    -0.015 C 
HETATM    6  C1  UNL     1      -3.651  -8.443  16.338  1.00  0.00     0.010 C 
HETATM    7  C22 UNL     1      -1.834  -9.443  17.648  1.00  0.00     0.034 C 
HETATM    8  C21 UNL     1      -0.535  -9.211  18.389  1.00  0.00     0.274 C 
ENDBRANCH   1   2
BRANCH   1   9
HETATM    9  C6  UNL     1       0.762  -6.629  20.516  1.00  0.00    -0.017 A 
HETATM   10  C7  UNL     1       1.241  -5.969  19.430  1.00  0.00     0.011 A 
HETATM   11  C8  UNL     1       1.907  -4.791  19.594  1.00  0.00     0.020 A 
HETATM   12  C9  UNL     1       2.085  -4.283  20.852  1.00  0.00     0.009 A 
HETATM   13  C10 UNL     1       1.615  -4.917  22.002  1.00  0.00    -0.012 A 
HETATM   14  S1  UNL     1       2.953  -2.752  21.041  1.00  0.00    -0.129 SA
HETATM   15  C11 UNL     1       0.946  -6.106  21.794  1.00  0.00     0.021 A 
HETATM   16  C12 UNL     1       1.793  -4.393  23.355  1.00  0.00     0.153 C 
HETATM   17  C13 UNL     1       1.625  -2.902  23.460  1.00  0.00     0.047 C 
HETATM   18  C14 UNL     1       2.623  -2.118  22.688  1.00  0.00     0.082 C 
BRANCH  16  19
HETATM   19  O1  UNL     1       3.028  -4.815  23.865  1.00  0.00    -0.391 OA
ATOM     20  H1  UNL     1       3.694  -4.167  23.665  1.00  0.00     0.210 HD
ENDBRANCH  16  19
ENDBRANCH   1   9
BRANCH   1  21
HETATM   21  C15 UNL     1       0.946  -9.031  20.611  1.00  0.00     0.154 A 
HETATM   22  N2  UNL     1       1.853  -9.584  19.802  1.00  0.00    -0.270 N 
HETATM   23  N3  UNL     1       2.487 -10.577  20.425  1.00  0.00    -0.227 N 
ATOM     24  H2  UNL     1       2.035  -9.289  18.844  1.00  0.00     0.190 HD
HETATM   25  N4  UNL     1       1.972 -10.646  21.632  1.00  0.00    -0.224 N 
ATOM     26  H3  UNL     1       3.225 -11.166  20.041  1.00  0.00     0.210 HD
HETATM   27  N5  UNL     1       1.036  -9.721  21.774  1.00  0.00    -0.256 N 
ATOM     28  H4  UNL     1       2.252 -11.313  22.352  1.00  0.00     0.210 HD
BRANCH  27  29
HETATM   29  C16 UNL     1       0.286  -9.549  22.998  1.00  0.00     0.111 C 
HETATM   30  C17 UNL     1      -0.032 -10.855  23.672  1.00  0.00     0.027 C 
HETATM   31  C18 UNL     1       0.863 -10.975  24.868  1.00  0.00     0.002 C 
HETATM   32  C19 UNL     1       1.037  -9.535  25.296  1.00  0.00     0.002 C 
HETATM   33  C20 UNL     1       1.096  -8.745  24.014  1.00  0.00     0.027 C 
ENDBRANCH  27  29
ENDBRANCH   1  21
TORSDOF 5
ENDMDL
