MODEL 1
REMARK VINA RESULT: -9.438643689      0.000      0.000
REMARK  5 active torsions:
REMARK  status: ('A' for Active; 'I' for Inactive)
REMARK    1  A    between atoms: C4_6  and  C5_7 
REMARK       I    between atoms: C5_7  and  N2_9 
REMARK    2  A    between atoms: N2_9  and  C6_11 
REMARK    3  A    between atoms: C13_18  and  C14_19 
REMARK    4  A    between atoms: C18_25  and  C19_26 
REMARK    5  A    between atoms: C19_26  and  N3_27 
ROOT
HETATM    1  C5  UNL     1      20.355  11.977   5.326  1.00  0.00     0.240 C 
HETATM    2  O1  UNL     1      20.838  12.323   6.428  1.00  0.00    -0.271 OA
HETATM    3  N2  UNL     1      19.780  10.676   5.214  1.00  0.00    -0.354 N 
ATOM      4  H2  UNL     1      19.383  10.382   4.322  1.00  0.00     0.162 HD
ENDROOT
BRANCH   1   5
HETATM    5  C4  UNL     1      20.395  12.925   4.182  1.00  0.00     0.169 C 
HETATM    6  N1  UNL     1      21.626  13.627   4.158  1.00  0.00    -0.409 N 
HETATM    7  C3  UNL     1      22.003  14.224   2.921  1.00  0.00     0.119 C 
ATOM      8  H1  UNL     1      22.215  13.700   4.987  1.00  0.00     0.154 HD
HETATM    9  C2  UNL     1      20.801  14.276   1.974  1.00  0.00     0.004 C 
HETATM   10  C1  UNL     1      21.044  15.135   0.792  1.00  0.00     0.012 C 
HETATM   11  C18 UNL     1      20.491  12.839   1.668  1.00  0.00     0.018 C 
HETATM   12  C17 UNL     1      20.001  12.219   2.939  1.00  0.00     0.041 C 
BRANCH  11  13
HETATM   13  C19 UNL     1      19.470  12.660   0.583  1.00  0.00     0.234 C 
BRANCH  13  14
HETATM   14  N3  UNL     1      18.118  12.740   1.052  1.00  0.00    -0.079 N 
ATOM     15  H33 UNL     1      17.949  12.056   1.789  1.00  0.00     0.274 HD
ATOM     16  H32 UNL     1      17.969  13.599   1.581  1.00  0.00     0.274 HD
ATOM     17  H31 UNL     1      17.424  12.650   0.310  1.00  0.00     0.274 HD
ENDBRANCH  13  14
ENDBRANCH  11  13
ENDBRANCH   1   5
BRANCH   3  18
HETATM   18  C6  UNL     1      19.749   9.773   6.323  1.00  0.00     0.092 C 
HETATM   19  C7  UNL     1      19.526   8.340   5.919  1.00  0.00     0.010 C 
HETATM   20  C8  UNL     1      19.840   7.484   7.144  1.00  0.00     0.011 C 
HETATM   21  C16 UNL     1      18.121   8.047   5.494  1.00  0.00     0.027 C 
HETATM   22  C9  UNL     1      18.890   7.842   8.238  1.00  0.00    -0.012 C 
HETATM   23  C10 UNL     1      19.021   9.312   8.601  1.00  0.00     0.011 C 
HETATM   24  C15 UNL     1      17.457   7.610   7.811  1.00  0.00     0.025 C 
HETATM   25  C11 UNL     1      18.727  10.174   7.375  1.00  0.00     0.010 C 
HETATM   26  C12 UNL     1      17.348   9.918   6.842  1.00  0.00     0.027 C 
HETATM   27  C13 UNL     1      17.165   8.437   6.600  1.00  0.00     0.049 C 
BRANCH  27  28
HETATM   28  C14 UNL     1      15.791   8.227   6.119  1.00  0.00     0.181 C 
HETATM   29  O2  UNL     1      15.611   7.955   4.905  1.00  0.00    -0.647 OA
HETATM   30  O3  UNL     1      14.691   8.315   6.937  1.00  0.00    -0.647 OA
ENDBRANCH  27  28
ENDBRANCH   3  18
TORSDOF 5
ENDMDL
MODEL 2
REMARK VINA RESULT: -9.190593502      0.992      1.227
REMARK  5 active torsions:
REMARK  status: ('A' for Active; 'I' for Inactive)
REMARK    1  A    between atoms: C4_6  and  C5_7 
REMARK       I    between atoms: C5_7  and  N2_9 
REMARK    2  A    between atoms: N2_9  and  C6_11 
REMARK    3  A    between atoms: C13_18  and  C14_19 
REMARK    4  A    between atoms: C18_25  and  C19_26 
REMARK    5  A    between atoms: C19_26  and  N3_27 
ROOT
HETATM    1  C5  UNL     1      20.104  11.506   4.643  1.00  0.00     0.240 C 
HETATM    2  O1  UNL     1      20.610  12.101   5.622  1.00  0.00    -0.271 OA
HETATM    3  N2  UNL     1      19.692  10.150   4.811  1.00  0.00    -0.354 N 
ATOM      4  H2  UNL     1      19.278   9.654   4.021  1.00  0.00     0.162 HD
ENDROOT
BRANCH   1   5
HETATM    5  C4  UNL     1      19.950  12.225   3.351  1.00  0.00     0.169 C 
HETATM    6  N1  UNL     1      20.747  13.397   3.335  1.00  0.00    -0.409 N 
HETATM    7  C3  UNL     1      21.058  13.946   2.058  1.00  0.00     0.119 C 
ATOM      8  H1  UNL     1      21.082  13.827   4.197  1.00  0.00     0.154 HD
HETATM    9  C2  UNL     1      20.149  13.337   0.988  1.00  0.00     0.004 C 
HETATM   10  C1  UNL     1      20.221  14.065  -0.301  1.00  0.00     0.012 C 
HETATM   11  C18 UNL     1      20.542  11.890   0.928  1.00  0.00     0.018 C 
HETATM   12  C17 UNL     1      20.135  11.273   2.230  1.00  0.00     0.041 C 
BRANCH  11  13
HETATM   13  C19 UNL     1      19.918  11.141  -0.213  1.00  0.00     0.234 C 
BRANCH  13  14
HETATM   14  N3  UNL     1      18.556  10.762   0.030  1.00  0.00    -0.079 N 
ATOM     15  H33 UNL     1      18.022  11.549   0.399  1.00  0.00     0.274 HD
ATOM     16  H32 UNL     1      18.059  10.617  -0.848  1.00  0.00     0.274 HD
ATOM     17  H31 UNL     1      18.464   9.947   0.636  1.00  0.00     0.274 HD
ENDBRANCH  13  14
ENDBRANCH  11  13
ENDBRANCH   1   5
BRANCH   3  18
HETATM   18  C6  UNL     1      19.846   9.469   6.060  1.00  0.00     0.092 C 
HETATM   19  C7  UNL     1      19.441   8.020   6.002  1.00  0.00     0.010 C 
HETATM   20  C8  UNL     1      19.959   7.368   7.282  1.00  0.00     0.011 C 
HETATM   21  C16 UNL     1      17.960   7.812   5.942  1.00  0.00     0.027 C 
HETATM   22  C9  UNL     1      19.303   8.019   8.454  1.00  0.00    -0.012 C 
HETATM   23  C10 UNL     1      19.612   9.506   8.483  1.00  0.00     0.011 C 
HETATM   24  C15 UNL     1      17.799   7.872   8.385  1.00  0.00     0.025 C 
HETATM   25  C11 UNL     1      19.113  10.162   7.198  1.00  0.00     0.010 C 
HETATM   26  C12 UNL     1      17.635   9.967   7.021  1.00  0.00     0.027 C 
HETATM   27  C13 UNL     1      17.302   8.496   7.119  1.00  0.00     0.049 C 
BRANCH  27  28
HETATM   28  C14 UNL     1      15.845   8.356   6.983  1.00  0.00     0.181 C 
HETATM   29  O2  UNL     1      15.164   8.107   8.010  1.00  0.00    -0.647 OA
HETATM   30  O3  UNL     1      15.191   8.485   5.782  1.00  0.00    -0.647 OA
ENDBRANCH  27  28
ENDBRANCH   3  18
TORSDOF 5
ENDMDL
MODEL 3
REMARK VINA RESULT: -8.952744241      0.970      1.992
REMARK  5 active torsions:
REMARK  status: ('A' for Active; 'I' for Inactive)
REMARK    1  A    between atoms: C4_6  and  C5_7 
REMARK       I    between atoms: C5_7  and  N2_9 
REMARK    2  A    between atoms: N2_9  and  C6_11 
REMARK    3  A    between atoms: C13_18  and  C14_19 
REMARK    4  A    between atoms: C18_25  and  C19_26 
REMARK    5  A    between atoms: C19_26  and  N3_27 
ROOT
HETATM    1  C5  UNL     1      20.159  11.103   4.571  1.00  0.00     0.240 C 
HETATM    2  O1  UNL     1      20.460  11.840   5.537  1.00  0.00    -0.271 OA
HETATM    3  N2  UNL     1      19.798   9.748   4.836  1.00  0.00    -0.354 N 
ATOM      4  H2  UNL     1      19.551   9.137   4.058  1.00  0.00     0.162 HD
ENDROOT
BRANCH   1   5
HETATM    5  C4  UNL     1      20.187  11.658   3.192  1.00  0.00     0.169 C 
HETATM    6  N1  UNL     1      18.898  11.602   2.606  1.00  0.00    -0.409 N 
HETATM    7  C3  UNL     1      18.654  12.468   1.501  1.00  0.00     0.119 C 
ATOM      8  H1  UNL     1      18.178  10.971   2.958  1.00  0.00     0.154 HD
HETATM    9  C2  UNL     1      19.977  13.018   0.963  1.00  0.00     0.004 C 
HETATM   10  C1  UNL     1      19.823  13.688  -0.349  1.00  0.00     0.012 C 
HETATM   11  C18 UNL     1      20.510  13.885   2.066  1.00  0.00     0.018 C 
HETATM   12  C17 UNL     1      20.861  12.978   3.203  1.00  0.00     0.041 C 
BRANCH  11  13
HETATM   13  C19 UNL     1      21.707  14.700   1.670  1.00  0.00     0.234 C 
BRANCH  13  14
HETATM   14  N3  UNL     1      22.661  14.863   2.728  1.00  0.00    -0.079 N 
ATOM     15  H33 UNL     1      23.153  15.751   2.637  1.00  0.00     0.274 HD
ATOM     16  H32 UNL     1      22.191  15.020   3.619  1.00  0.00     0.274 HD
ATOM     17  H31 UNL     1      23.323  14.090   2.800  1.00  0.00     0.274 HD
ENDBRANCH  13  14
ENDBRANCH  11  13
ENDBRANCH   1   5
BRANCH   3  18
HETATM   18  C6  UNL     1      19.776   9.226   6.168  1.00  0.00     0.092 C 
HETATM   19  C7  UNL     1      19.364   7.779   6.233  1.00  0.00     0.010 C 
HETATM   20  C8  UNL     1      19.699   7.291   7.641  1.00  0.00     0.011 C 
HETATM   21  C16 UNL     1      17.901   7.560   6.002  1.00  0.00     0.027 C 
HETATM   22  C9  UNL     1      18.902   8.077   8.627  1.00  0.00    -0.012 C 
HETATM   23  C10 UNL     1      19.223   9.558   8.516  1.00  0.00     0.011 C 
HETATM   24  C15 UNL     1      17.418   7.918   8.376  1.00  0.00     0.025 C 
HETATM   25  C11 UNL     1      18.908  10.050   7.105  1.00  0.00     0.010 C 
HETATM   26  C12 UNL     1      17.464   9.831   6.757  1.00  0.00     0.027 C 
HETATM   27  C13 UNL     1      17.102   8.381   6.989  1.00  0.00     0.049 C 
BRANCH  27  28
HETATM   28  C14 UNL     1      15.674   8.221   6.677  1.00  0.00     0.181 C 
HETATM   29  O2  UNL     1      14.855   8.127   7.627  1.00  0.00    -0.647 OA
HETATM   30  O3  UNL     1      15.190   8.169   5.393  1.00  0.00    -0.647 OA
ENDBRANCH  27  28
ENDBRANCH   3  18
TORSDOF 5
ENDMDL
MODEL 4
REMARK VINA RESULT: -8.425536101      1.612      2.365
REMARK  5 active torsions:
REMARK  status: ('A' for Active; 'I' for Inactive)
REMARK    1  A    between atoms: C4_6  and  C5_7 
REMARK       I    between atoms: C5_7  and  N2_9 
REMARK    2  A    between atoms: N2_9  and  C6_11 
REMARK    3  A    between atoms: C13_18  and  C14_19 
REMARK    4  A    between atoms: C18_25  and  C19_26 
REMARK    5  A    between atoms: C19_26  and  N3_27 
ROOT
HETATM    1  C5  UNL     1      19.737  10.629   3.949  1.00  0.00     0.240 C 
HETATM    2  O1  UNL     1      20.448  11.387   4.647  1.00  0.00    -0.271 OA
HETATM    3  N2  UNL     1      19.321   9.383   4.507  1.00  0.00    -0.354 N 
ATOM      4  H2  UNL     1      18.742   8.757   3.948  1.00  0.00     0.162 HD
ENDROOT
BRANCH   1   5
HETATM    5  C4  UNL     1      19.354  11.047   2.575  1.00  0.00     0.169 C 
HETATM    6  N1  UNL     1      17.989  11.426   2.532  1.00  0.00    -0.409 N 
HETATM    7  C3  UNL     1      17.583  12.249   1.442  1.00  0.00     0.119 C 
ATOM      8  H1  UNL     1      17.327  11.124   3.247  1.00  0.00     0.154 HD
HETATM    9  C2  UNL     1      18.657  12.245   0.352  1.00  0.00     0.004 C 
HETATM   10  C1  UNL     1      18.181  12.841  -0.919  1.00  0.00     0.012 C 
HETATM   11  C18 UNL     1      19.840  12.928   0.975  1.00  0.00     0.018 C 
HETATM   12  C17 UNL     1      20.339  12.030   2.063  1.00  0.00     0.041 C 
BRANCH  11  13
HETATM   13  C19 UNL     1      20.947  13.224   0.005  1.00  0.00     0.234 C 
BRANCH  13  14
HETATM   14  N3  UNL     1      21.961  14.085   0.542  1.00  0.00    -0.079 N 
ATOM     15  H33 UNL     1      21.585  15.015   0.726  1.00  0.00     0.274 HD
ATOM     16  H32 UNL     1      22.202  13.809   1.494  1.00  0.00     0.274 HD
ATOM     17  H31 UNL     1      22.796  14.140  -0.040  1.00  0.00     0.274 HD
ENDBRANCH  13  14
ENDBRANCH  11  13
ENDBRANCH   1   5
BRANCH   3  18
HETATM   18  C6  UNL     1      19.698   8.992   5.830  1.00  0.00     0.092 C 
HETATM   19  C7  UNL     1      19.264   7.595   6.185  1.00  0.00     0.010 C 
HETATM   20  C8  UNL     1      20.004   7.217   7.466  1.00  0.00     0.011 C 
HETATM   21  C16 UNL     1      17.794   7.469   6.443  1.00  0.00     0.027 C 
HETATM   22  C9  UNL     1      19.595   8.153   8.554  1.00  0.00    -0.012 C 
HETATM   23  C10 UNL     1      19.930   9.587   8.180  1.00  0.00     0.011 C 
HETATM   24  C15 UNL     1      18.103   8.086   8.794  1.00  0.00     0.025 C 
HETATM   25  C11 UNL     1      19.207   9.967   6.890  1.00  0.00     0.010 C 
HETATM   26  C12 UNL     1      17.720   9.828   7.033  1.00  0.00     0.027 C 
HETATM   27  C13 UNL     1      17.385   8.440   7.529  1.00  0.00     0.049 C 
BRANCH  27  28
HETATM   28  C14 UNL     1      15.926   8.362   7.695  1.00  0.00     0.181 C 
HETATM   29  O2  UNL     1      15.459   8.157   8.845  1.00  0.00    -0.647 OA
HETATM   30  O3  UNL     1      15.046   8.502   6.650  1.00  0.00    -0.647 OA
ENDBRANCH  27  28
ENDBRANCH   3  18
TORSDOF 5
ENDMDL
MODEL 5
REMARK VINA RESULT: -8.301985930      1.819      2.274
REMARK  5 active torsions:
REMARK  status: ('A' for Active; 'I' for Inactive)
REMARK    1  A    between atoms: C4_6  and  C5_7 
REMARK       I    between atoms: C5_7  and  N2_9 
REMARK    2  A    between atoms: N2_9  and  C6_11 
REMARK    3  A    between atoms: C13_18  and  C14_19 
REMARK    4  A    between atoms: C18_25  and  C19_26 
REMARK    5  A    between atoms: C19_26  and  N3_27 
ROOT
HETATM    1  C5  UNL     1      19.838  11.113   4.143  1.00  0.00     0.240 C 
HETATM    2  O1  UNL     1      20.608  11.731   4.913  1.00  0.00    -0.271 OA
HETATM    3  N2  UNL     1      19.356   9.833   4.548  1.00  0.00    -0.354 N 
ATOM      4  H2  UNL     1      18.728   9.319   3.930  1.00  0.00     0.162 HD
ENDROOT
BRANCH   1   5
HETATM    5  C4  UNL     1      19.454  11.728   2.845  1.00  0.00     0.169 C 
HETATM    6  N1  UNL     1      20.352  11.332   1.822  1.00  0.00    -0.409 N 
HETATM    7  C3  UNL     1      19.894  11.460   0.479  1.00  0.00     0.119 C 
ATOM      8  H1  UNL     1      21.282  10.974   2.036  1.00  0.00     0.154 HD
HETATM    9  C2  UNL     1      18.645  12.344   0.431  1.00  0.00     0.004 C 
HETATM   10  C1  UNL     1      18.289  12.751  -0.948  1.00  0.00     0.012 C 
HETATM   11  C18 UNL     1      17.592  11.562   1.160  1.00  0.00     0.018 C 
HETATM   12  C17 UNL     1      18.011  11.500   2.595  1.00  0.00     0.041 C 
BRANCH  11  13
HETATM   13  C19 UNL     1      16.217  12.153   1.051  1.00  0.00     0.234 C 
BRANCH  13  14
HETATM   14  N3  UNL     1      15.169  11.177   1.125  1.00  0.00    -0.079 N 
ATOM     15  H33 UNL     1      14.318  11.588   1.507  1.00  0.00     0.274 HD
ATOM     16  H32 UNL     1      14.835  10.933   0.193  1.00  0.00     0.274 HD
ATOM     17  H31 UNL     1      15.430  10.340   1.646  1.00  0.00     0.274 HD
ENDBRANCH  13  14
ENDBRANCH  11  13
ENDBRANCH   1   5
BRANCH   3  18
HETATM   18  C6  UNL     1      19.733   9.252   5.800  1.00  0.00     0.092 C 
HETATM   19  C7  UNL     1      19.255   7.834   5.966  1.00  0.00     0.010 C 
HETATM   20  C8  UNL     1      19.995   7.260   7.172  1.00  0.00     0.011 C 
HETATM   21  C16 UNL     1      17.785   7.722   6.228  1.00  0.00     0.027 C 
HETATM   22  C9  UNL     1      19.630   8.050   8.384  1.00  0.00    -0.012 C 
HETATM   23  C10 UNL     1      20.010   9.511   8.205  1.00  0.00     0.011 C 
HETATM   24  C15 UNL     1      18.139   8.001   8.635  1.00  0.00     0.025 C 
HETATM   25  C11 UNL     1      19.287  10.087   6.990  1.00  0.00     0.010 C 
HETATM   26  C12 UNL     1      17.798   9.979   7.136  1.00  0.00     0.027 C 
HETATM   27  C13 UNL     1      17.421   8.547   7.443  1.00  0.00     0.049 C 
BRANCH  27  28
HETATM   28  C14 UNL     1      15.962   8.495   7.618  1.00  0.00     0.181 C 
HETATM   29  O2  UNL     1      15.499   8.345   8.778  1.00  0.00    -0.647 OA
HETATM   30  O3  UNL     1      15.078   8.603   6.572  1.00  0.00    -0.647 OA
ENDBRANCH  27  28
ENDBRANCH   3  18
TORSDOF 5
ENDMDL
