MODEL 1
REMARK VINA RESULT: -7.415187339      0.000      0.000
REMARK  5 active torsions:
REMARK  status: ('A' for Active; 'I' for Inactive)
REMARK    1  A    between atoms: C3_3  and  O1_4 
REMARK    2  A    between atoms: C6_8  and  N1_9 
REMARK       I    between atoms: N1_9  and  C7_11 
REMARK    3  A    between atoms: C7_11  and  C8_13 
REMARK    4  A    between atoms: C13_18  and  N2_19 
REMARK       I    between atoms: N2_19  and  C14_21 
REMARK    5  A    between atoms: C14_21  and  C15_23 
ROOT
HETATM    1  C8  UNL     1      20.650  12.715   1.898  1.00  0.00     0.100 C 
HETATM    2  C9  UNL     1      20.798  14.205   1.810  1.00  0.00     0.016 C 
HETATM    3  C10 UNL     1      21.772  14.468   0.653  1.00  0.00     0.001 C 
HETATM    4  C11 UNL     1      21.130  13.998  -0.620  1.00  0.00     0.002 C 
HETATM    5  C12 UNL     1      20.587  12.626  -0.572  1.00  0.00     0.026 C 
HETATM    6  C13 UNL     1      19.871  12.256   0.691  1.00  0.00     0.097 C 
ENDROOT
BRANCH   1   7
HETATM    7  C7  UNL     1      20.032  12.299   3.157  1.00  0.00     0.224 C 
HETATM    8  N1  UNL     1      20.325  11.079   3.807  1.00  0.00    -0.356 N 
ATOM      9  H1  UNL     1      21.004  10.447   3.383  1.00  0.00     0.162 HD
HETATM   10  O2  UNL     1      19.189  13.075   3.692  1.00  0.00    -0.273 OA
BRANCH   8  11
HETATM   11  C6  UNL     1      19.700  10.697   5.048  1.00  0.00     0.090 C 
HETATM   12  C2  UNL     1      20.569  10.951   6.253  1.00  0.00     0.033 C 
HETATM   13  C1  UNL     1      20.341  12.346   6.759  1.00  0.00     0.014 C 
HETATM   14  C3  UNL     1      19.970   9.994   7.272  1.00  0.00     0.124 C 
HETATM   15  C4  UNL     1      19.696   8.755   6.469  1.00  0.00     0.034 C 
HETATM   16  C5  UNL     1      19.370   9.233   5.092  1.00  0.00     0.028 C 
BRANCH  14  17
HETATM   17  O1  UNL     1      20.849   9.702   8.299  1.00  0.00    -0.395 OA
ATOM     18  H1  UNL     1      21.323  10.470   8.599  1.00  0.00     0.210 HD
ENDBRANCH  14  17
ENDBRANCH   8  11
ENDBRANCH   1   7
BRANCH   6  19
HETATM   19  N2  UNL     1      18.543  12.782   0.638  1.00  0.00    -0.355 N 
HETATM   20  C14 UNL     1      17.432  11.912   0.779  1.00  0.00     0.227 C 
HETATM   21  O3  UNL     1      17.603  10.669   0.950  1.00  0.00    -0.273 OA
ATOM     22  H2  UNL     1      18.395  13.782   0.500  1.00  0.00     0.162 HD
BRANCH  20  23
HETATM   23  C15 UNL     1      16.022  12.377   0.735  1.00  0.00     0.187 C 
HETATM   24 BR1  UNL     1      14.963  11.296  -0.453  1.00  0.00    -0.087 Br
ENDBRANCH  20  23
ENDBRANCH   6  19
TORSDOF 5
ENDMDL
MODEL 2
REMARK VINA RESULT: -7.399462622      2.386      3.313
REMARK  5 active torsions:
REMARK  status: ('A' for Active; 'I' for Inactive)
REMARK    1  A    between atoms: C3_3  and  O1_4 
REMARK    2  A    between atoms: C6_8  and  N1_9 
REMARK       I    between atoms: N1_9  and  C7_11 
REMARK    3  A    between atoms: C7_11  and  C8_13 
REMARK    4  A    between atoms: C13_18  and  N2_19 
REMARK       I    between atoms: N2_19  and  C14_21 
REMARK    5  A    between atoms: C14_21  and  C15_23 
ROOT
HETATM    1  C8  UNL     1      20.023  10.906   3.790  1.00  0.00     0.100 C 
HETATM    2  C9  UNL     1      19.960  12.125   4.662  1.00  0.00     0.016 C 
HETATM    3  C10 UNL     1      21.010  13.098   4.109  1.00  0.00     0.001 C 
HETATM    4  C11 UNL     1      20.594  13.505   2.725  1.00  0.00     0.002 C 
HETATM    5  C12 UNL     1      20.255  12.386   1.824  1.00  0.00     0.026 C 
HETATM    6  C13 UNL     1      19.463  11.275   2.440  1.00  0.00     0.097 C 
ENDROOT
BRANCH   1   7
HETATM    7  C7  UNL     1      19.333   9.765   4.393  1.00  0.00     0.224 C 
HETATM    8  N1  UNL     1      18.929   9.722   5.747  1.00  0.00    -0.356 N 
ATOM      9  H1  UNL     1      19.124  10.525   6.344  1.00  0.00     0.162 HD
HETATM   10  O2  UNL     1      19.086   8.764   3.663  1.00  0.00    -0.273 OA
BRANCH   8  11
HETATM   11  C6  UNL     1      18.250   8.583   6.312  1.00  0.00     0.090 C 
HETATM   12  C2  UNL     1      16.772   8.807   6.502  1.00  0.00     0.033 C 
HETATM   13  C1  UNL     1      16.035   8.418   5.253  1.00  0.00     0.014 C 
HETATM   14  C3  UNL     1      16.438   7.776   7.567  1.00  0.00     0.124 C 
HETATM   15  C4  UNL     1      17.600   7.861   8.514  1.00  0.00     0.034 C 
HETATM   16  C5  UNL     1      18.779   8.222   7.670  1.00  0.00     0.028 C 
BRANCH  14  17
HETATM   17  O1  UNL     1      15.265   8.073   8.238  1.00  0.00    -0.395 OA
ATOM     18  H1  UNL     1      15.338   8.862   8.761  1.00  0.00     0.210 HD
ENDBRANCH  14  17
ENDBRANCH   8  11
ENDBRANCH   1   7
BRANCH   6  19
HETATM   19  N2  UNL     1      18.087  11.659   2.482  1.00  0.00    -0.355 N 
HETATM   20  C14 UNL     1      17.229  11.333   1.401  1.00  0.00     0.227 C 
HETATM   21  O3  UNL     1      17.668  10.703   0.394  1.00  0.00    -0.273 OA
ATOM     22  H2  UNL     1      17.723  12.167   3.288  1.00  0.00     0.162 HD
BRANCH  20  23
HETATM   23  C15 UNL     1      15.788  11.696   1.365  1.00  0.00     0.187 C 
HETATM   24 BR1  UNL     1      14.928  11.002  -0.209  1.00  0.00    -0.087 Br
ENDBRANCH  20  23
ENDBRANCH   6  19
TORSDOF 5
ENDMDL
MODEL 3
REMARK VINA RESULT: -7.096708588      0.932      1.147
REMARK  5 active torsions:
REMARK  status: ('A' for Active; 'I' for Inactive)
REMARK    1  A    between atoms: C3_3  and  O1_4 
REMARK    2  A    between atoms: C6_8  and  N1_9 
REMARK       I    between atoms: N1_9  and  C7_11 
REMARK    3  A    between atoms: C7_11  and  C8_13 
REMARK    4  A    between atoms: C13_18  and  N2_19 
REMARK       I    between atoms: N2_19  and  C14_21 
REMARK    5  A    between atoms: C14_21  and  C15_23 
ROOT
HETATM    1  C8  UNL     1      20.653  12.681   1.895  1.00  0.00     0.100 C 
HETATM    2  C9  UNL     1      20.807  14.173   1.920  1.00  0.00     0.016 C 
HETATM    3  C10 UNL     1      21.893  14.505   0.888  1.00  0.00     0.001 C 
HETATM    4  C11 UNL     1      21.386  14.122  -0.472  1.00  0.00     0.002 C 
HETATM    5  C12 UNL     1      20.842  12.753  -0.569  1.00  0.00     0.026 C 
HETATM    6  C13 UNL     1      20.003  12.305   0.588  1.00  0.00     0.097 C 
ENDROOT
BRANCH   1   7
HETATM    7  C7  UNL     1      19.911  12.187   3.055  1.00  0.00     0.224 C 
HETATM    8  N1  UNL     1      19.610  10.823   3.268  1.00  0.00    -0.356 N 
ATOM      9  H1  UNL     1      19.923  10.137   2.581  1.00  0.00     0.162 HD
HETATM   10  O2  UNL     1      19.518  13.028   3.913  1.00  0.00    -0.273 OA
BRANCH   8  11
HETATM   11  C6  UNL     1      18.876  10.367   4.422  1.00  0.00     0.090 C 
HETATM   12  C2  UNL     1      19.756   9.746   5.477  1.00  0.00     0.033 C 
HETATM   13  C1  UNL     1      20.249  10.808   6.416  1.00  0.00     0.014 C 
HETATM   14  C3  UNL     1      18.761   8.889   6.242  1.00  0.00     0.124 C 
HETATM   15  C4  UNL     1      17.909   8.291   5.160  1.00  0.00     0.034 C 
HETATM   16  C5  UNL     1      17.864   9.315   4.073  1.00  0.00     0.028 C 
BRANCH  14  17
HETATM   17  O1  UNL     1      19.378   7.881   6.962  1.00  0.00    -0.395 OA
ATOM     18  H1  UNL     1      18.793   7.477   7.592  1.00  0.00     0.210 HD
ENDBRANCH  14  17
ENDBRANCH   8  11
ENDBRANCH   1   7
BRANCH   6  19
HETATM   19  N2  UNL     1      18.686  12.840   0.435  1.00  0.00    -0.355 N 
HETATM   20  C14 UNL     1      17.560  11.982   0.525  1.00  0.00     0.227 C 
HETATM   21  O3  UNL     1      17.707  10.744   0.740  1.00  0.00    -0.273 OA
ATOM     22  H2  UNL     1      18.557  13.837   0.261  1.00  0.00     0.162 HD
BRANCH  20  23
HETATM   23  C15 UNL     1      16.160  12.457   0.377  1.00  0.00     0.187 C 
HETATM   24 BR1  UNL     1      15.023  11.079  -0.336  1.00  0.00    -0.087 Br
ENDBRANCH  20  23
ENDBRANCH   6  19
TORSDOF 5
ENDMDL
MODEL 4
REMARK VINA RESULT: -7.061363401      2.902      6.904
REMARK  5 active torsions:
REMARK  status: ('A' for Active; 'I' for Inactive)
REMARK    1  A    between atoms: C3_3  and  O1_4 
REMARK    2  A    between atoms: C6_8  and  N1_9 
REMARK       I    between atoms: N1_9  and  C7_11 
REMARK    3  A    between atoms: C7_11  and  C8_13 
REMARK    4  A    between atoms: C13_18  and  N2_19 
REMARK       I    between atoms: N2_19  and  C14_21 
REMARK    5  A    between atoms: C14_21  and  C15_23 
ROOT
HETATM    1  C8  UNL     1      18.094   8.654   3.878  1.00  0.00     0.100 C 
HETATM    2  C9  UNL     1      16.748   9.304   4.004  1.00  0.00     0.016 C 
HETATM    3  C10 UNL     1      15.870   8.316   4.784  1.00  0.00     0.001 C 
HETATM    4  C11 UNL     1      16.438   8.171   6.167  1.00  0.00     0.002 C 
HETATM    5  C12 UNL     1      17.885   7.882   6.217  1.00  0.00     0.026 C 
HETATM    6  C13 UNL     1      18.732   8.642   5.244  1.00  0.00     0.097 C 
ENDROOT
BRANCH   1   7
HETATM    7  C7  UNL     1      18.929   9.312   2.873  1.00  0.00     0.224 C 
HETATM    8  N1  UNL     1      18.615  10.562   2.293  1.00  0.00    -0.356 N 
ATOM      9  H1  UNL     1      17.762  11.039   2.584  1.00  0.00     0.162 HD
HETATM   10  O2  UNL     1      19.988   8.730   2.504  1.00  0.00    -0.273 OA
BRANCH   8  11
HETATM   11  C6  UNL     1      19.458  11.186   1.304  1.00  0.00     0.090 C 
HETATM   12  C2  UNL     1      19.464  12.691   1.393  1.00  0.00     0.033 C 
HETATM   13  C1  UNL     1      20.533  13.139   2.348  1.00  0.00     0.014 C 
HETATM   14  C3  UNL     1      19.911  13.081  -0.006  1.00  0.00     0.124 C 
HETATM   15  C4  UNL     1      19.163  12.126  -0.891  1.00  0.00     0.034 C 
HETATM   16  C5  UNL     1      19.022  10.869  -0.096  1.00  0.00     0.028 C 
BRANCH  14  17
HETATM   17  O1  UNL     1      19.567  14.383  -0.324  1.00  0.00    -0.395 OA
ATOM     18  H1  UNL     1      20.071  15.020   0.168  1.00  0.00     0.210 HD
ENDBRANCH  14  17
ENDBRANCH   8  11
ENDBRANCH   1   7
BRANCH   6  19
HETATM   19  N2  UNL     1      18.973   9.950   5.769  1.00  0.00    -0.355 N 
HETATM   20  C14 UNL     1      19.911  10.128   6.818  1.00  0.00     0.227 C 
HETATM   21  O3  UNL     1      20.538   9.139   7.299  1.00  0.00    -0.273 OA
ATOM     22  H2  UNL     1      18.473  10.753   5.389  1.00  0.00     0.162 HD
BRANCH  20  23
HETATM   23  C15 UNL     1      20.219  11.451   7.420  1.00  0.00     0.187 C 
HETATM   24 BR1  UNL     1      20.605  12.764   6.068  1.00  0.00    -0.087 Br
ENDBRANCH  20  23
ENDBRANCH   6  19
TORSDOF 5
ENDMDL
MODEL 5
REMARK VINA RESULT: -6.989513623      3.295      7.389
REMARK  5 active torsions:
REMARK  status: ('A' for Active; 'I' for Inactive)
REMARK    1  A    between atoms: C3_3  and  O1_4 
REMARK    2  A    between atoms: C6_8  and  N1_9 
REMARK       I    between atoms: N1_9  and  C7_11 
REMARK    3  A    between atoms: C7_11  and  C8_13 
REMARK    4  A    between atoms: C13_18  and  N2_19 
REMARK       I    between atoms: N2_19  and  C14_21 
REMARK    5  A    between atoms: C14_21  and  C15_23 
ROOT
HETATM    1  C8  UNL     1      16.891   8.246   5.376  1.00  0.00     0.100 C 
HETATM    2  C9  UNL     1      15.827   9.176   5.879  1.00  0.00     0.016 C 
HETATM    3  C10 UNL     1      14.974   8.358   6.857  1.00  0.00     0.001 C 
HETATM    4  C11 UNL     1      15.834   7.975   8.027  1.00  0.00     0.002 C 
HETATM    5  C12 UNL     1      17.127   7.358   7.672  1.00  0.00     0.026 C 
HETATM    6  C13 UNL     1      17.845   7.978   6.513  1.00  0.00     0.097 C 
ENDROOT
BRANCH   1   7
HETATM    7  C7  UNL     1      17.564   8.773   4.189  1.00  0.00     0.224 C 
HETATM    8  N1  UNL     1      17.165   9.954   3.524  1.00  0.00    -0.356 N 
ATOM      9  H1  UNL     1      16.366  10.475   3.883  1.00  0.00     0.162 HD
HETATM   10  O2  UNL     1      18.556   8.135   3.734  1.00  0.00    -0.273 OA
BRANCH   8  11
HETATM   11  C6  UNL     1      17.850  10.448   2.355  1.00  0.00     0.090 C 
HETATM   12  C2  UNL     1      18.794  11.584   2.657  1.00  0.00     0.033 C 
HETATM   13  C1  UNL     1      20.146  11.038   3.014  1.00  0.00     0.014 C 
HETATM   14  C3  UNL     1      18.918  12.251   1.297  1.00  0.00     0.124 C 
HETATM   15  C4  UNL     1      17.514  12.221   0.763  1.00  0.00     0.034 C 
HETATM   16  C5  UNL     1      16.899  10.981   1.323  1.00  0.00     0.028 C 
BRANCH  14  17
HETATM   17  O1  UNL     1      19.356  13.560   1.391  1.00  0.00    -0.395 OA
ATOM     18  H1  UNL     1      20.229  13.675   1.034  1.00  0.00     0.210 HD
ENDBRANCH  14  17
ENDBRANCH   8  11
ENDBRANCH   1   7
BRANCH   6  19
HETATM   19  N2  UNL     1      18.528   9.149   6.968  1.00  0.00    -0.355 N 
HETATM   20  C14 UNL     1      19.859   9.049   7.448  1.00  0.00     0.227 C 
HETATM   21  O3  UNL     1      20.452   7.931   7.478  1.00  0.00    -0.273 OA
ATOM     22  H2  UNL     1      18.058  10.054   6.948  1.00  0.00     0.162 HD
BRANCH  20  23
HETATM   23  C15 UNL     1      20.638  10.215   7.940  1.00  0.00     0.187 C 
HETATM   24 BR1  UNL     1      20.384  11.754   6.814  1.00  0.00    -0.087 Br
ENDBRANCH  20  23
ENDBRANCH   6  19
TORSDOF 5
ENDMDL
