MODEL 1
REMARK VINA RESULT: -6.429974176      0.000      0.000
REMARK  13 active torsions:
REMARK  status: ('A' for Active; 'I' for Inactive)
REMARK    1  A    between atoms: N1_1  and  C1_5 
REMARK    2  A    between atoms: C1_5  and  C2_6 
REMARK    3  A    between atoms: C2_6  and  C3_7 
REMARK    4  A    between atoms: C3_7  and  N2_8 
REMARK    5  A    between atoms: N2_8  and  C4_10 
REMARK    6  A    between atoms: C5_13  and  C6_14 
REMARK    7  A    between atoms: C12_22  and  N5_23 
REMARK    8  A    between atoms: N5_23  and  C13_25 
REMARK    9  A    between atoms: C13_25  and  C14_26 
REMARK   10  A    between atoms: C14_26  and  N6_27 
REMARK   11  A    between atoms: N6_27  and  C15_29 
REMARK   12  A    between atoms: C15_29  and  C16_30 
REMARK   13  A    between atoms: C16_30  and  N7_31 
ROOT
HETATM    1  C4  UNL     1     -16.097 -63.504 -30.273  1.00  0.00     0.694 A 
HETATM    2  N3  UNL     1     -16.187 -64.790 -30.661  1.00  0.00    -0.175 N 
ATOM      3  H3  UNL     1     -16.909 -65.378 -30.245  1.00  0.00     0.186 HD
HETATM    4  C5  UNL     1     -15.366 -65.326 -31.571  1.00  0.00     0.146 A 
HETATM    5  N4  UNL     1     -14.431 -64.519 -32.093  1.00  0.00    -0.175 N 
ATOM      6  H4  UNL     1     -13.790 -64.898 -32.790  1.00  0.00     0.186 HD
HETATM    7  C12 UNL     1     -14.304 -63.201 -31.725  1.00  0.00     0.694 A 
HETATM    8  N8  UNL     1     -15.134 -62.706 -30.823  1.00  0.00    -0.022 N 
ATOM      9  H8  UNL     1     -15.055 -61.730 -30.539  1.00  0.00     0.203 HD
ENDROOT
BRANCH   7  10
HETATM   10  N5  UNL     1     -13.391 -62.480 -32.259  1.00  0.00    -0.224 N 
ATOM     11  H5  UNL     1     -13.542 -62.126 -33.203  1.00  0.00     0.177 HD
BRANCH  10  12
HETATM   12  C13 UNL     1     -12.172 -62.150 -31.598  1.00  0.00     0.157 C 
BRANCH  12  13
HETATM   13  C14 UNL     1     -12.141 -60.643 -31.396  1.00  0.00     0.134 C 
BRANCH  13  14
HETATM   14  N6  UNL     1     -11.769 -60.334 -30.055  1.00  0.00    -0.418 N 
ATOM     15  H6  UNL     1     -11.086 -60.887 -29.538  1.00  0.00     0.153 HD
BRANCH  14  16
HETATM   16  C15 UNL     1     -12.417 -59.195 -29.484  1.00  0.00     0.141 C 
BRANCH  16  17
HETATM   17  C16 UNL     1     -13.346 -59.615 -28.374  1.00  0.00     0.248 C 
BRANCH  17  18
HETATM   18  N7  UNL     1     -14.657 -59.962 -28.842  1.00  0.00    -0.078 N 
ATOM     19  H73 UNL     1     -15.369 -59.384 -28.394  1.00  0.00     0.274 HD
ATOM     20  H72 UNL     1     -14.788 -59.667 -29.810  1.00  0.00     0.274 HD
ATOM     21  H71 UNL     1     -14.871 -60.953 -28.732  1.00  0.00     0.274 HD
ENDBRANCH  17  18
ENDBRANCH  16  17
ENDBRANCH  14  16
ENDBRANCH  13  14
ENDBRANCH  12  13
ENDBRANCH  10  12
ENDBRANCH   7  10
BRANCH   4  22
HETATM   22  C6  UNL     1     -15.432 -66.728 -32.021  1.00  0.00     0.009 A 
HETATM   23  C7  UNL     1     -15.475 -67.001 -33.378  1.00  0.00     0.015 A 
HETATM   24  C8  UNL     1     -15.538 -68.262 -33.913  1.00  0.00     0.001 A 
HETATM   25  C9  UNL     1     -15.559 -69.325 -33.034  1.00  0.00     0.000 A 
HETATM   26  C10 UNL     1     -15.517 -69.084 -31.676  1.00  0.00     0.001 A 
HETATM   27  C11 UNL     1     -15.453 -67.785 -31.157  1.00  0.00     0.015 A 
ENDBRANCH   4  22
BRANCH   1  28
HETATM   28  N2  UNL     1     -16.863 -62.970 -29.412  1.00  0.00    -0.225 N 
ATOM     29  H2  UNL     1     -16.880 -61.954 -29.322  1.00  0.00     0.177 HD
BRANCH  28  30
HETATM   30  C3  UNL     1     -17.700 -63.759 -28.565  1.00  0.00     0.139 C 
BRANCH  30  31
HETATM   31  C2  UNL     1     -17.772 -63.084 -27.203  1.00  0.00     0.047 C 
BRANCH  31  32
HETATM   32  C1  UNL     1     -18.458 -64.096 -26.272  1.00  0.00     0.231 C 
BRANCH  32  33
HETATM   33  N1  UNL     1     -18.478 -63.469 -24.959  1.00  0.00    -0.079 N 
ATOM     34  H13 UNL     1     -17.554 -63.364 -24.542  1.00  0.00     0.274 HD
ATOM     35  H12 UNL     1     -18.713 -62.477 -24.983  1.00  0.00     0.274 HD
ATOM     36  H11 UNL     1     -19.120 -64.030 -24.398  1.00  0.00     0.274 HD
ENDBRANCH  32  33
ENDBRANCH  31  32
ENDBRANCH  30  31
ENDBRANCH  28  30
ENDBRANCH   1  28
TORSDOF 13
ENDMDL
MODEL 2
REMARK VINA RESULT: -6.358257304      1.683      5.274
REMARK  13 active torsions:
REMARK  status: ('A' for Active; 'I' for Inactive)
REMARK    1  A    between atoms: N1_1  and  C1_5 
REMARK    2  A    between atoms: C1_5  and  C2_6 
REMARK    3  A    between atoms: C2_6  and  C3_7 
REMARK    4  A    between atoms: C3_7  and  N2_8 
REMARK    5  A    between atoms: N2_8  and  C4_10 
REMARK    6  A    between atoms: C5_13  and  C6_14 
REMARK    7  A    between atoms: C12_22  and  N5_23 
REMARK    8  A    between atoms: N5_23  and  C13_25 
REMARK    9  A    between atoms: C13_25  and  C14_26 
REMARK   10  A    between atoms: C14_26  and  N6_27 
REMARK   11  A    between atoms: N6_27  and  C15_29 
REMARK   12  A    between atoms: C15_29  and  C16_30 
REMARK   13  A    between atoms: C16_30  and  N7_31 
ROOT
HETATM    1  C4  UNL     1     -14.128 -63.323 -31.802  1.00  0.00     0.694 A 
HETATM    2  N3  UNL     1     -14.189 -64.648 -32.030  1.00  0.00    -0.175 N 
ATOM      3  H3  UNL     1     -13.472 -65.078 -32.616  1.00  0.00     0.186 HD
HETATM    4  C5  UNL     1     -15.151 -65.424 -31.519  1.00  0.00     0.146 A 
HETATM    5  N4  UNL     1     -16.074 -64.820 -30.756  1.00  0.00    -0.175 N 
ATOM      6  H4  UNL     1     -16.821 -65.383 -30.351  1.00  0.00     0.186 HD
HETATM    7  C12 UNL     1     -16.050 -63.469 -30.498  1.00  0.00     0.694 A 
HETATM    8  N8  UNL     1     -15.083 -62.736 -31.020  1.00  0.00    -0.022 N 
ATOM      9  H8  UNL     1     -15.049 -61.733 -30.839  1.00  0.00     0.203 HD
ENDROOT
BRANCH   7  10
HETATM   10  N5  UNL     1     -16.959 -62.950 -29.762  1.00  0.00    -0.224 N 
ATOM     11  H5  UNL     1     -16.710 -62.160 -29.168  1.00  0.00     0.177 HD
BRANCH  10  12
HETATM   12  C13 UNL     1     -18.303 -63.423 -29.732  1.00  0.00     0.157 C 
BRANCH  12  13
HETATM   13  C14 UNL     1     -18.931 -63.141 -31.088  1.00  0.00     0.134 C 
BRANCH  13  14
HETATM   14  N6  UNL     1     -19.339 -64.360 -31.705  1.00  0.00    -0.418 N 
ATOM     15  H6  UNL     1     -20.043 -64.971 -31.292  1.00  0.00     0.153 HD
BRANCH  14  16
HETATM   16  C15 UNL     1     -18.694 -64.667 -32.943  1.00  0.00     0.141 C 
BRANCH  16  17
HETATM   17  C16 UNL     1     -18.253 -63.406 -33.639  1.00  0.00     0.248 C 
BRANCH  17  18
HETATM   18  N7  UNL     1     -16.876 -63.439 -34.039  1.00  0.00    -0.078 N 
ATOM     19  H73 UNL     1     -16.314 -62.812 -33.463  1.00  0.00     0.274 HD
ATOM     20  H72 UNL     1     -16.444 -64.328 -33.786  1.00  0.00     0.274 HD
ATOM     21  H71 UNL     1     -16.743 -63.239 -35.030  1.00  0.00     0.274 HD
ENDBRANCH  17  18
ENDBRANCH  16  17
ENDBRANCH  14  16
ENDBRANCH  13  14
ENDBRANCH  12  13
ENDBRANCH  10  12
ENDBRANCH   7  10
BRANCH   4  22
HETATM   22  C6  UNL     1     -15.252 -66.877 -31.746  1.00  0.00     0.009 A 
HETATM   23  C7  UNL     1     -15.542 -67.343 -33.017  1.00  0.00     0.015 A 
HETATM   24  C8  UNL     1     -15.662 -68.669 -33.347  1.00  0.00     0.001 A 
HETATM   25  C9  UNL     1     -15.479 -69.593 -32.340  1.00  0.00     0.000 A 
HETATM   26  C10 UNL     1     -15.188 -69.158 -31.063  1.00  0.00     0.001 A 
HETATM   27  C11 UNL     1     -15.073 -67.797 -30.754  1.00  0.00     0.015 A 
ENDBRANCH   4  22
BRANCH   1  28
HETATM   28  N2  UNL     1     -13.226 -62.564 -32.275  1.00  0.00    -0.225 N 
ATOM     29  H2  UNL     1     -13.328 -62.199 -33.221  1.00  0.00     0.177 HD
BRANCH  28  30
HETATM   30  C3  UNL     1     -12.072 -62.211 -31.511  1.00  0.00     0.139 C 
BRANCH  30  31
HETATM   31  C2  UNL     1     -12.081 -60.703 -31.304  1.00  0.00     0.047 C 
BRANCH  31  32
HETATM   32  C1  UNL     1     -12.457 -60.486 -29.831  1.00  0.00     0.231 C 
BRANCH  32  33
HETATM   33  N1  UNL     1     -12.062 -59.120 -29.523  1.00  0.00    -0.079 N 
ATOM     34  H13 UNL     1     -12.218 -58.859 -28.549  1.00  0.00     0.274 HD
ATOM     35  H12 UNL     1     -11.053 -58.975 -29.527  1.00  0.00     0.274 HD
ATOM     36  H11 UNL     1     -12.564 -58.532 -30.189  1.00  0.00     0.274 HD
ENDBRANCH  32  33
ENDBRANCH  31  32
ENDBRANCH  30  31
ENDBRANCH  28  30
ENDBRANCH   1  28
TORSDOF 13
ENDMDL
MODEL 3
REMARK VINA RESULT: -6.250641390      0.924      5.389
REMARK  13 active torsions:
REMARK  status: ('A' for Active; 'I' for Inactive)
REMARK    1  A    between atoms: N1_1  and  C1_5 
REMARK    2  A    between atoms: C1_5  and  C2_6 
REMARK    3  A    between atoms: C2_6  and  C3_7 
REMARK    4  A    between atoms: C3_7  and  N2_8 
REMARK    5  A    between atoms: N2_8  and  C4_10 
REMARK    6  A    between atoms: C5_13  and  C6_14 
REMARK    7  A    between atoms: C12_22  and  N5_23 
REMARK    8  A    between atoms: N5_23  and  C13_25 
REMARK    9  A    between atoms: C13_25  and  C14_26 
REMARK   10  A    between atoms: C14_26  and  N6_27 
REMARK   11  A    between atoms: N6_27  and  C15_29 
REMARK   12  A    between atoms: C15_29  and  C16_30 
REMARK   13  A    between atoms: C16_30  and  N7_31 
ROOT
HETATM    1  C4  UNL     1     -14.166 -63.254 -31.835  1.00  0.00     0.694 A 
HETATM    2  N3  UNL     1     -14.275 -64.540 -32.215  1.00  0.00    -0.175 N 
ATOM      3  H3  UNL     1     -13.615 -64.906 -32.902  1.00  0.00     0.186 HD
HETATM    4  C5  UNL     1     -15.215 -65.358 -31.728  1.00  0.00     0.146 A 
HETATM    5  N4  UNL     1     -16.063 -64.838 -30.829  1.00  0.00    -0.175 N 
ATOM      6  H4  UNL     1     -16.791 -65.436 -30.439  1.00  0.00     0.186 HD
HETATM    7  C12 UNL     1     -15.988 -63.530 -30.413  1.00  0.00     0.694 A 
HETATM    8  N8  UNL     1     -15.045 -62.753 -30.916  1.00  0.00    -0.022 N 
ATOM      9  H8  UNL     1     -14.974 -61.780 -30.618  1.00  0.00     0.203 HD
ENDROOT
BRANCH   7  10
HETATM   10  N5  UNL     1     -16.826 -63.091 -29.551  1.00  0.00    -0.224 N 
ATOM     11  H5  UNL     1     -16.567 -62.280 -28.990  1.00  0.00     0.177 HD
BRANCH  10  12
HETATM   12  C13 UNL     1     -18.106 -63.681 -29.337  1.00  0.00     0.157 C 
BRANCH  12  13
HETATM   13  C14 UNL     1     -18.164 -64.172 -27.899  1.00  0.00     0.134 C 
BRANCH  13  14
HETATM   14  N6  UNL     1     -19.514 -64.421 -27.518  1.00  0.00    -0.418 N 
ATOM     15  H6  UNL     1     -20.105 -65.090 -28.012  1.00  0.00     0.153 HD
BRANCH  14  16
HETATM   16  C15 UNL     1     -19.985 -63.672 -26.396  1.00  0.00     0.141 C 
BRANCH  16  17
HETATM   17  C16 UNL     1     -18.833 -63.030 -25.666  1.00  0.00     0.248 C 
BRANCH  17  18
HETATM   18  N7  UNL     1     -18.759 -63.417 -24.287  1.00  0.00    -0.078 N 
ATOM     19  H73 UNL     1     -18.489 -62.627 -23.701  1.00  0.00     0.274 HD
ATOM     20  H72 UNL     1     -19.689 -63.595 -23.907  1.00  0.00     0.274 HD
ATOM     21  H71 UNL     1     -18.143 -64.214 -24.129  1.00  0.00     0.274 HD
ENDBRANCH  17  18
ENDBRANCH  16  17
ENDBRANCH  14  16
ENDBRANCH  13  14
ENDBRANCH  12  13
ENDBRANCH  10  12
ENDBRANCH   7  10
BRANCH   4  22
HETATM   22  C6  UNL     1     -15.367 -66.770 -32.121  1.00  0.00     0.009 A 
HETATM   23  C7  UNL     1     -15.388 -67.746 -31.138  1.00  0.00     0.015 A 
HETATM   24  C8  UNL     1     -15.524 -69.088 -31.382  1.00  0.00     0.001 A 
HETATM   25  C9  UNL     1     -15.647 -69.486 -32.697  1.00  0.00     0.000 A 
HETATM   26  C10 UNL     1     -15.630 -68.536 -33.698  1.00  0.00     0.001 A 
HETATM   27  C11 UNL     1     -15.491 -67.171 -33.420  1.00  0.00     0.015 A 
ENDBRANCH   4  22
BRANCH   1  28
HETATM   28  N2  UNL     1     -13.284 -62.456 -32.281  1.00  0.00    -0.225 N 
ATOM     29  H2  UNL     1     -13.414 -62.033 -33.199  1.00  0.00     0.177 HD
BRANCH  28  30
HETATM   30  C3  UNL     1     -12.115 -62.137 -31.525  1.00  0.00     0.139 C 
BRANCH  30  31
HETATM   31  C2  UNL     1     -12.099 -60.634 -31.283  1.00  0.00     0.047 C 
BRANCH  31  32
HETATM   32  C1  UNL     1     -12.449 -60.447 -29.799  1.00  0.00     0.231 C 
BRANCH  32  33
HETATM   33  N1  UNL     1     -12.086 -59.074 -29.481  1.00  0.00    -0.079 N 
ATOM     34  H13 UNL     1     -11.261 -58.997 -28.886  1.00  0.00     0.274 HD
ATOM     35  H12 UNL     1     -11.711 -58.556 -30.275  1.00  0.00     0.274 HD
ATOM     36  H11 UNL     1     -12.923 -58.655 -29.076  1.00  0.00     0.274 HD
ENDBRANCH  32  33
ENDBRANCH  31  32
ENDBRANCH  30  31
ENDBRANCH  28  30
ENDBRANCH   1  28
TORSDOF 13
ENDMDL
MODEL 4
REMARK VINA RESULT: -6.192620146      0.995      1.064
REMARK  13 active torsions:
REMARK  status: ('A' for Active; 'I' for Inactive)
REMARK    1  A    between atoms: N1_1  and  C1_5 
REMARK    2  A    between atoms: C1_5  and  C2_6 
REMARK    3  A    between atoms: C2_6  and  C3_7 
REMARK    4  A    between atoms: C3_7  and  N2_8 
REMARK    5  A    between atoms: N2_8  and  C4_10 
REMARK    6  A    between atoms: C5_13  and  C6_14 
REMARK    7  A    between atoms: C12_22  and  N5_23 
REMARK    8  A    between atoms: N5_23  and  C13_25 
REMARK    9  A    between atoms: C13_25  and  C14_26 
REMARK   10  A    between atoms: C14_26  and  N6_27 
REMARK   11  A    between atoms: N6_27  and  C15_29 
REMARK   12  A    between atoms: C15_29  and  C16_30 
REMARK   13  A    between atoms: C16_30  and  N7_31 
ROOT
HETATM    1  C4  UNL     1     -16.057 -63.458 -30.413  1.00  0.00     0.694 A 
HETATM    2  N3  UNL     1     -16.168 -64.741 -30.804  1.00  0.00    -0.175 N 
ATOM      3  H3  UNL     1     -16.926 -65.306 -30.421  1.00  0.00     0.186 HD
HETATM    4  C5  UNL     1     -15.323 -65.303 -31.676  1.00  0.00     0.146 A 
HETATM    5  N4  UNL     1     -14.341 -64.526 -32.155  1.00  0.00    -0.175 N 
ATOM      6  H4  UNL     1     -13.681 -64.925 -32.821  1.00  0.00     0.186 HD
HETATM    7  C12 UNL     1     -14.192 -63.211 -31.782  1.00  0.00     0.694 A 
HETATM    8  N8  UNL     1     -15.046 -62.690 -30.919  1.00  0.00    -0.022 N 
ATOM      9  H8  UNL     1     -14.951 -61.716 -30.632  1.00  0.00     0.203 HD
ENDROOT
BRANCH   7  10
HETATM   10  N5  UNL     1     -13.234 -62.520 -32.274  1.00  0.00    -0.224 N 
ATOM     11  H5  UNL     1     -13.298 -62.227 -33.249  1.00  0.00     0.177 HD
BRANCH  10  12
HETATM   12  C13 UNL     1     -12.081 -62.139 -31.526  1.00  0.00     0.157 C 
BRANCH  12  13
HETATM   13  C14 UNL     1     -12.104 -60.627 -31.364  1.00  0.00     0.134 C 
BRANCH  13  14
HETATM   14  N6  UNL     1     -11.740 -60.269 -30.033  1.00  0.00    -0.418 N 
ATOM     15  H6  UNL     1     -11.011 -60.762 -29.517  1.00  0.00     0.153 HD
BRANCH  14  16
HETATM   16  C15 UNL     1     -12.465 -59.174 -29.471  1.00  0.00     0.141 C 
BRANCH  16  17
HETATM   17  C16 UNL     1     -13.384 -59.652 -28.377  1.00  0.00     0.248 C 
BRANCH  17  18
HETATM   18  N7  UNL     1     -14.684 -60.020 -28.857  1.00  0.00    -0.078 N 
ATOM     19  H73 UNL     1     -15.415 -59.518 -28.352  1.00  0.00     0.274 HD
ATOM     20  H72 UNL     1     -14.845 -59.649 -29.794  1.00  0.00     0.274 HD
ATOM     21  H71 UNL     1     -14.849 -61.026 -28.831  1.00  0.00     0.274 HD
ENDBRANCH  17  18
ENDBRANCH  16  17
ENDBRANCH  14  16
ENDBRANCH  13  14
ENDBRANCH  12  13
ENDBRANCH  10  12
ENDBRANCH   7  10
BRANCH   4  22
HETATM   22  C6  UNL     1     -15.411 -66.703 -32.127  1.00  0.00     0.009 A 
HETATM   23  C7  UNL     1     -15.444 -66.974 -33.484  1.00  0.00     0.015 A 
HETATM   24  C8  UNL     1     -15.524 -68.234 -34.021  1.00  0.00     0.001 A 
HETATM   25  C9  UNL     1     -15.576 -69.297 -33.143  1.00  0.00     0.000 A 
HETATM   26  C10 UNL     1     -15.545 -69.057 -31.785  1.00  0.00     0.001 A 
HETATM   27  C11 UNL     1     -15.462 -67.760 -31.264  1.00  0.00     0.015 A 
ENDBRANCH   4  22
BRANCH   1  28
HETATM   28  N2  UNL     1     -16.845 -62.899 -29.587  1.00  0.00    -0.225 N 
ATOM     29  H2  UNL     1     -16.998 -61.893 -29.649  1.00  0.00     0.177 HD
BRANCH  28  30
HETATM   30  C3  UNL     1     -17.520 -63.647 -28.576  1.00  0.00     0.139 C 
BRANCH  30  31
HETATM   31  C2  UNL     1     -18.915 -63.984 -29.083  1.00  0.00     0.047 C 
BRANCH  31  32
HETATM   32  C1  UNL     1     -19.717 -64.412 -27.845  1.00  0.00     0.231 C 
BRANCH  32  33
HETATM   33  N1  UNL     1     -21.090 -64.009 -28.109  1.00  0.00    -0.079 N 
ATOM     34  H13 UNL     1     -21.781 -64.707 -27.835  1.00  0.00     0.274 HD
ATOM     35  H12 UNL     1     -21.422 -63.264 -27.497  1.00  0.00     0.274 HD
ATOM     36  H11 UNL     1     -21.120 -63.770 -29.100  1.00  0.00     0.274 HD
ENDBRANCH  32  33
ENDBRANCH  31  32
ENDBRANCH  30  31
ENDBRANCH  28  30
ENDBRANCH   1  28
TORSDOF 13
ENDMDL
MODEL 5
REMARK VINA RESULT: -6.162596547      1.167      1.687
REMARK  13 active torsions:
REMARK  status: ('A' for Active; 'I' for Inactive)
REMARK    1  A    between atoms: N1_1  and  C1_5 
REMARK    2  A    between atoms: C1_5  and  C2_6 
REMARK    3  A    between atoms: C2_6  and  C3_7 
REMARK    4  A    between atoms: C3_7  and  N2_8 
REMARK    5  A    between atoms: N2_8  and  C4_10 
REMARK    6  A    between atoms: C5_13  and  C6_14 
REMARK    7  A    between atoms: C12_22  and  N5_23 
REMARK    8  A    between atoms: N5_23  and  C13_25 
REMARK    9  A    between atoms: C13_25  and  C14_26 
REMARK   10  A    between atoms: C14_26  and  N6_27 
REMARK   11  A    between atoms: N6_27  and  C15_29 
REMARK   12  A    between atoms: C15_29  and  C16_30 
REMARK   13  A    between atoms: C16_30  and  N7_31 
ROOT
HETATM    1  C4  UNL     1     -16.488 -64.491 -29.814  1.00  0.00     0.694 A 
HETATM    2  N3  UNL     1     -16.402 -65.826 -29.962  1.00  0.00    -0.175 N 
ATOM      3  H3  UNL     1     -17.040 -66.420 -29.431  1.00  0.00     0.186 HD
HETATM    4  C5  UNL     1     -15.513 -66.404 -30.777  1.00  0.00     0.146 A 
HETATM    5  N4  UNL     1     -14.693 -65.587 -31.455  1.00  0.00    -0.175 N 
ATOM      6  H4  UNL     1     -14.004 -65.997 -32.085  1.00  0.00     0.186 HD
HETATM    7  C12 UNL     1     -14.747 -64.219 -31.334  1.00  0.00     0.694 A 
HETATM    8  N8  UNL     1     -15.640 -63.685 -30.519  1.00  0.00    -0.022 N 
ATOM      9  H8  UNL     1     -15.695 -62.672 -30.417  1.00  0.00     0.203 HD
ENDROOT
BRANCH   7  10
HETATM   10  N5  UNL     1     -13.938 -63.492 -32.008  1.00  0.00    -0.224 N 
ATOM     11  H5  UNL     1     -13.486 -63.900 -32.826  1.00  0.00     0.177 HD
BRANCH  10  12
HETATM   12  C13 UNL     1     -13.637 -62.141 -31.671  1.00  0.00     0.157 C 
BRANCH  12  13
HETATM   13  C14 UNL     1     -12.142 -62.043 -31.407  1.00  0.00     0.134 C 
BRANCH  13  14
HETATM   14  N6  UNL     1     -11.867 -60.954 -30.529  1.00  0.00    -0.418 N 
ATOM     15  H6  UNL     1     -10.961 -60.486 -30.510  1.00  0.00     0.153 HD
BRANCH  14  16
HETATM   16  C15 UNL     1     -12.946 -60.562 -29.679  1.00  0.00     0.141 C 
BRANCH  16  17
HETATM   17  C16 UNL     1     -12.694 -59.194 -29.098  1.00  0.00     0.248 C 
BRANCH  17  18
HETATM   18  N7  UNL     1     -13.711 -58.781 -28.175  1.00  0.00    -0.078 N 
ATOM     19  H73 UNL     1     -14.609 -59.203 -28.409  1.00  0.00     0.274 HD
ATOM     20  H72 UNL     1     -13.563 -59.202 -27.258  1.00  0.00     0.274 HD
ATOM     21  H71 UNL     1     -13.794 -57.767 -28.100  1.00  0.00     0.274 HD
ENDBRANCH  17  18
ENDBRANCH  16  17
ENDBRANCH  14  16
ENDBRANCH  13  14
ENDBRANCH  12  13
ENDBRANCH  10  12
ENDBRANCH   7  10
BRANCH   4  22
HETATM   22  C6  UNL     1     -15.387 -67.860 -30.965  1.00  0.00     0.009 A 
HETATM   23  C7  UNL     1     -14.671 -68.601 -30.040  1.00  0.00     0.015 A 
HETATM   24  C8  UNL     1     -14.485 -69.958 -30.111  1.00  0.00     0.001 A 
HETATM   25  C9  UNL     1     -15.054 -70.622 -31.177  1.00  0.00     0.000 A 
HETATM   26  C10 UNL     1     -15.774 -69.910 -32.115  1.00  0.00     0.001 A 
HETATM   27  C11 UNL     1     -15.947 -68.524 -32.018  1.00  0.00     0.015 A 
ENDBRANCH   4  22
BRANCH   1  28
HETATM   28  N2  UNL     1     -17.322 -63.916 -29.047  1.00  0.00    -0.225 N 
ATOM     29  H2  UNL     1     -17.501 -62.919 -29.164  1.00  0.00     0.177 HD
BRANCH  28  30
HETATM   30  C3  UNL     1     -18.016 -64.634 -28.026  1.00  0.00     0.139 C 
BRANCH  30  31
HETATM   31  C2  UNL     1     -18.306 -63.674 -26.881  1.00  0.00     0.047 C 
BRANCH  31  32
HETATM   32  C1  UNL     1     -18.439 -64.550 -25.626  1.00  0.00     0.231 C 
BRANCH  32  33
HETATM   33  N1  UNL     1     -18.586 -63.622 -24.514  1.00  0.00    -0.079 N 
ATOM     34  H13 UNL     1     -19.229 -62.853 -24.706  1.00  0.00     0.274 HD
ATOM     35  H12 UNL     1     -19.096 -64.011 -23.721  1.00  0.00     0.274 HD
ATOM     36  H11 UNL     1     -17.640 -63.317 -24.284  1.00  0.00     0.274 HD
ENDBRANCH  32  33
ENDBRANCH  31  32
ENDBRANCH  30  31
ENDBRANCH  28  30
ENDBRANCH   1  28
TORSDOF 13
ENDMDL
