MODEL 1
REMARK VINA RESULT: -5.171756935      0.000      0.000
REMARK  5 active torsions:
REMARK  status: ('A' for Active; 'I' for Inactive)
REMARK    1  A    between atoms: N1_2  and  C3_4 
REMARK    2  A    between atoms: C5_9  and  C6_10 
REMARK    3  A    between atoms: C6_10  and  C7_11 
REMARK    4  A    between atoms: C7_11  and  N3_12 
REMARK    5  A    between atoms: N3_12  and  C8_14 
ROOT
HETATM    1  C3  UNL     1     123.293  54.108  30.613  1.00  0.00     0.446 C 
HETATM    2  C4  UNL     1     123.196  52.705  30.133  1.00  0.00     0.300 C 
HETATM    3  N2  UNL     1     123.062  51.947  31.370  1.00  0.00    -0.042 N 
ATOM      4  H21 UNL     1     123.248  50.949  31.273  1.00  0.00     0.279 HD
ATOM      5  H22 UNL     1     122.102  51.847  31.701  1.00  0.00     0.279 HD
HETATM    6  C5  UNL     1     123.931  52.621  32.281  1.00  0.00     0.387 C 
HETATM    7  N5  UNL     1     124.095  53.975  31.839  1.00  0.00    -0.013 N 
ATOM      8  H51 UNL     1     123.862  54.666  32.554  1.00  0.00     0.282 HD
ATOM      9  H52 UNL     1     125.071  54.246  31.717  1.00  0.00     0.282 HD
ENDROOT
BRANCH   6  10
HETATM   10  C6  UNL     1     125.255  51.938  32.514  1.00  0.00     0.082 C 
BRANCH  10  11
HETATM   11  C7  UNL     1     126.402  52.763  31.974  1.00  0.00     0.124 C 
BRANCH  11  12
HETATM   12  N3  UNL     1     127.589  52.577  32.810  1.00  0.00    -0.386 N 
ATOM     13  H3  UNL     1     127.494  52.186  33.747  1.00  0.00     0.160 HD
BRANCH  12  14
HETATM   14  C8  UNL     1     128.856  52.933  32.329  1.00  0.00     0.168 C 
HETATM   15  N4  UNL     1     129.267  54.143  32.206  1.00  0.00    -0.396 N 
ATOM     16  H42 UNL     1     128.617  54.881  32.479  1.00  0.00     0.156 HD
ATOM     17  H41 UNL     1     130.189  54.402  31.856  1.00  0.00     0.156 HD
ENDBRANCH  12  14
ENDBRANCH  11  12
ENDBRANCH  10  11
ENDBRANCH   6  10
BRANCH   1  18
HETATM   18  N1  UNL     1     124.037  54.973  29.742  1.00  0.00     0.112 N 
HETATM   19  C1  UNL     1     125.159  54.372  29.092  1.00  0.00     0.312 C 
HETATM   20  C2  UNL     1     123.188  55.715  28.837  1.00  0.00     0.312 C 
ENDBRANCH   1  18
TORSDOF 5
ENDMDL
MODEL 2
REMARK VINA RESULT: -5.129992986      1.611      2.449
REMARK  5 active torsions:
REMARK  status: ('A' for Active; 'I' for Inactive)
REMARK    1  A    between atoms: N1_2  and  C3_4 
REMARK    2  A    between atoms: C5_9  and  C6_10 
REMARK    3  A    between atoms: C6_10  and  C7_11 
REMARK    4  A    between atoms: C7_11  and  N3_12 
REMARK    5  A    between atoms: N3_12  and  C8_14 
ROOT
HETATM    1  C3  UNL     1     124.042  53.540  30.288  1.00  0.00     0.446 C 
HETATM    2  C4  UNL     1     125.019  54.253  29.425  1.00  0.00     0.300 C 
HETATM    3  N2  UNL     1     126.211  53.421  29.527  1.00  0.00    -0.042 N 
ATOM      4  H21 UNL     1     127.070  53.878  29.222  1.00  0.00     0.279 HD
ATOM      5  H22 UNL     1     126.248  52.657  28.852  1.00  0.00     0.279 HD
HETATM    6  C5  UNL     1     126.219  53.000  30.891  1.00  0.00     0.387 C 
HETATM    7  N5  UNL     1     124.880  53.060  31.397  1.00  0.00    -0.013 N 
ATOM      8  H51 UNL     1     124.557  52.178  31.797  1.00  0.00     0.282 HD
ATOM      9  H52 UNL     1     124.790  53.621  32.244  1.00  0.00     0.282 HD
ENDROOT
BRANCH   6  10
HETATM   10  C6  UNL     1     127.191  53.742  31.775  1.00  0.00     0.082 C 
BRANCH  10  11
HETATM   11  C7  UNL     1     128.080  52.786  32.539  1.00  0.00     0.124 C 
BRANCH  11  12
HETATM   12  N3  UNL     1     129.446  53.308  32.593  1.00  0.00    -0.386 N 
ATOM     13  H3  UNL     1     129.671  54.190  32.134  1.00  0.00     0.160 HD
BRANCH  12  14
HETATM   14  C8  UNL     1     130.447  52.602  33.274  1.00  0.00     0.168 C 
HETATM   15  N4  UNL     1     131.654  53.018  33.414  1.00  0.00    -0.396 N 
ATOM     16  H42 UNL     1     131.883  53.920  32.997  1.00  0.00     0.156 HD
ATOM     17  H41 UNL     1     132.382  52.504  33.910  1.00  0.00     0.156 HD
ENDBRANCH  12  14
ENDBRANCH  11  12
ENDBRANCH  10  11
ENDBRANCH   6  10
BRANCH   1  18
HETATM   18  N1  UNL     1     123.050  54.395  30.877  1.00  0.00     0.112 N 
HETATM   19  C1  UNL     1     123.027  54.414  32.306  1.00  0.00     0.312 C 
HETATM   20  C2  UNL     1     123.035  55.716  30.292  1.00  0.00     0.312 C 
ENDBRANCH   1  18
TORSDOF 5
ENDMDL
MODEL 3
REMARK VINA RESULT: -5.097276157      0.656      1.145
REMARK  5 active torsions:
REMARK  status: ('A' for Active; 'I' for Inactive)
REMARK    1  A    between atoms: N1_2  and  C3_4 
REMARK    2  A    between atoms: C5_9  and  C6_10 
REMARK    3  A    between atoms: C6_10  and  C7_11 
REMARK    4  A    between atoms: C7_11  and  N3_12 
REMARK    5  A    between atoms: N3_12  and  C8_14 
ROOT
HETATM    1  C3  UNL     1     123.501  53.851  30.579  1.00  0.00     0.446 C 
HETATM    2  C4  UNL     1     122.960  52.476  30.421  1.00  0.00     0.300 C 
HETATM    3  N2  UNL     1     123.041  51.937  31.772  1.00  0.00    -0.042 N 
ATOM      4  H21 UNL     1     122.967  50.921  31.825  1.00  0.00     0.279 HD
ATOM      5  H22 UNL     1     122.228  52.136  32.354  1.00  0.00     0.279 HD
HETATM    6  C5  UNL     1     124.269  52.464  32.277  1.00  0.00     0.387 C 
HETATM    7  N5  UNL     1     124.584  53.662  31.555  1.00  0.00    -0.013 N 
ATOM      8  H51 UNL     1     124.733  54.471  32.159  1.00  0.00     0.282 HD
ATOM      9  H52 UNL     1     125.513  53.648  31.133  1.00  0.00     0.282 HD
ENDROOT
BRANCH   6  10
HETATM   10  C6  UNL     1     125.420  51.489  32.284  1.00  0.00     0.082 C 
BRANCH  10  11
HETATM   11  C7  UNL     1     126.554  51.983  33.154  1.00  0.00     0.124 C 
BRANCH  11  12
HETATM   12  N3  UNL     1     127.789  52.058  32.371  1.00  0.00    -0.386 N 
ATOM     13  H3  UNL     1     128.316  51.208  32.173  1.00  0.00     0.160 HD
BRANCH  12  14
HETATM   14  C8  UNL     1     128.249  53.291  31.892  1.00  0.00     0.168 C 
HETATM   15  N4  UNL     1     129.348  53.844  32.262  1.00  0.00    -0.396 N 
ATOM     16  H42 UNL     1     129.909  53.340  32.949  1.00  0.00     0.156 HD
ATOM     17  H41 UNL     1     129.684  54.741  31.913  1.00  0.00     0.156 HD
ENDBRANCH  12  14
ENDBRANCH  11  12
ENDBRANCH  10  11
ENDBRANCH   6  10
BRANCH   1  18
HETATM   18  N1  UNL     1     124.118  54.375  29.393  1.00  0.00     0.112 N 
HETATM   19  C1  UNL     1     123.620  55.640  28.950  1.00  0.00     0.312 C 
HETATM   20  C2  UNL     1     125.561  54.322  29.447  1.00  0.00     0.312 C 
ENDBRANCH   1  18
TORSDOF 5
ENDMDL
MODEL 4
REMARK VINA RESULT: -4.994544842      0.764      1.223
REMARK  5 active torsions:
REMARK  status: ('A' for Active; 'I' for Inactive)
REMARK    1  A    between atoms: N1_2  and  C3_4 
REMARK    2  A    between atoms: C5_9  and  C6_10 
REMARK    3  A    between atoms: C6_10  and  C7_11 
REMARK    4  A    between atoms: C7_11  and  N3_12 
REMARK    5  A    between atoms: N3_12  and  C8_14 
ROOT
HETATM    1  C3  UNL     1     123.394  53.865  30.458  1.00  0.00     0.446 C 
HETATM    2  C4  UNL     1     123.389  52.388  30.299  1.00  0.00     0.300 C 
HETATM    3  N2  UNL     1     123.632  51.915  31.656  1.00  0.00    -0.042 N 
ATOM      4  H21 UNL     1     123.928  50.941  31.715  1.00  0.00     0.279 HD
ATOM      5  H22 UNL     1     122.789  51.807  32.221  1.00  0.00     0.279 HD
HETATM    6  C5  UNL     1     124.576  52.850  32.181  1.00  0.00     0.387 C 
HETATM    7  N5  UNL     1     124.452  54.080  31.456  1.00  0.00    -0.013 N 
ATOM      8  H51 UNL     1     124.286  54.889  32.056  1.00  0.00     0.282 HD
ATOM      9  H52 UNL     1     125.331  54.403  31.052  1.00  0.00     0.282 HD
ENDROOT
BRANCH   6  10
HETATM   10  C6  UNL     1     126.000  52.356  32.218  1.00  0.00     0.082 C 
BRANCH  10  11
HETATM   11  C7  UNL     1     126.945  53.353  31.584  1.00  0.00     0.124 C 
BRANCH  11  12
HETATM   12  N3  UNL     1     128.081  53.601  32.473  1.00  0.00    -0.386 N 
ATOM     13  H3  UNL     1     127.918  53.922  33.427  1.00  0.00     0.160 HD
BRANCH  12  14
HETATM   14  C8  UNL     1     129.391  53.401  32.020  1.00  0.00     0.168 C 
HETATM   15  N4  UNL     1     129.791  53.670  30.829  1.00  0.00    -0.396 N 
ATOM     16  H42 UNL     1     129.099  54.052  30.185  1.00  0.00     0.156 HD
ATOM     17  H41 UNL     1     130.745  53.524  30.499  1.00  0.00     0.156 HD
ENDBRANCH  12  14
ENDBRANCH  11  12
ENDBRANCH  10  11
ENDBRANCH   6  10
BRANCH   1  18
HETATM   18  N1  UNL     1     123.805  54.578  29.280  1.00  0.00     0.112 N 
HETATM   19  C1  UNL     1     123.226  55.874  29.114  1.00  0.00     0.312 C 
HETATM   20  C2  UNL     1     125.238  54.569  29.097  1.00  0.00     0.312 C 
ENDBRANCH   1  18
TORSDOF 5
ENDMDL
MODEL 5
REMARK VINA RESULT: -4.969897065      1.517      2.161
REMARK  5 active torsions:
REMARK  status: ('A' for Active; 'I' for Inactive)
REMARK    1  A    between atoms: N1_2  and  C3_4 
REMARK    2  A    between atoms: C5_9  and  C6_10 
REMARK    3  A    between atoms: C6_10  and  C7_11 
REMARK    4  A    between atoms: C7_11  and  N3_12 
REMARK    5  A    between atoms: N3_12  and  C8_14 
ROOT
HETATM    1  C3  UNL     1     124.440  54.015  30.902  1.00  0.00     0.446 C 
HETATM    2  C4  UNL     1     124.436  52.534  31.031  1.00  0.00     0.300 C 
HETATM    3  N2  UNL     1     125.382  52.300  32.115  1.00  0.00    -0.042 N 
ATOM      4  H21 UNL     1     125.720  51.340  32.178  1.00  0.00     0.279 HD
ATOM      5  H22 UNL     1     124.970  52.333  33.047  1.00  0.00     0.279 HD
HETATM    6  C5  UNL     1     126.406  53.270  31.890  1.00  0.00     0.387 C 
HETATM    7  N5  UNL     1     125.851  54.357  31.137  1.00  0.00    -0.013 N 
ATOM      8  H51 UNL     1     125.979  55.266  31.582  1.00  0.00     0.282 HD
ATOM      9  H52 UNL     1     126.366  54.562  30.281  1.00  0.00     0.282 HD
ENDROOT
BRANCH   6  10
HETATM   10  C6  UNL     1     127.663  52.728  31.256  1.00  0.00     0.082 C 
BRANCH  10  11
HETATM   11  C7  UNL     1     128.900  53.260  31.945  1.00  0.00     0.124 C 
BRANCH  11  12
HETATM   12  N3  UNL     1     129.124  52.539  33.199  1.00  0.00    -0.386 N 
ATOM     13  H3  UNL     1     128.329  52.271  33.779  1.00  0.00     0.160 HD
BRANCH  12  14
HETATM   14  C8  UNL     1     130.424  52.215  33.606  1.00  0.00     0.168 C 
HETATM   15  N4  UNL     1     131.448  52.966  33.415  1.00  0.00    -0.396 N 
ATOM     16  H42 UNL     1     131.288  53.851  32.934  1.00  0.00     0.156 HD
ATOM     17  H41 UNL     1     132.395  52.730  33.712  1.00  0.00     0.156 HD
ENDBRANCH  12  14
ENDBRANCH  11  12
ENDBRANCH  10  11
ENDBRANCH   6  10
BRANCH   1  18
HETATM   18  N1  UNL     1     124.129  54.486  29.582  1.00  0.00     0.112 N 
HETATM   19  C1  UNL     1     123.132  55.509  29.514  1.00  0.00     0.312 C 
HETATM   20  C2  UNL     1     125.310  54.795  28.809  1.00  0.00     0.312 C 
ENDBRANCH   1  18
TORSDOF 5
ENDMDL
