MODEL 1
REMARK VINA RESULT: -7.662105378      0.000      0.000
REMARK  12 active torsions:
REMARK  status: ('A' for Active; 'I' for Inactive)
REMARK    1  A    between atoms: C2_2  and  C3_3 
REMARK    2  A    between atoms: C3_3  and  C4_4 
REMARK    3  A    between atoms: C4_4  and  C5_5 
REMARK    4  A    between atoms: C5_5  and  C6_6 
REMARK    5  A    between atoms: C6_6  and  C7_7 
REMARK    6  A    between atoms: C7_7  and  C8_8 
REMARK    7  A    between atoms: C8_8  and  C9_9 
REMARK    8  A    between atoms: C9_9  and  C10_10 
REMARK    9  A    between atoms: C10_10  and  C12_12 
REMARK   10  A    between atoms: C16_16  and  C17_17 
REMARK   11  A    between atoms: C17_17  and  O1_18 
REMARK   12  A    between atoms: C22_24  and  O2_25 
ROOT
HETATM    1  C12 UNL     1     -14.140  21.746  -9.810  1.00  0.00     0.126 C 
HETATM    2  C13 UNL     1     -15.568  21.768 -10.258  1.00  0.00     0.033 C 
HETATM    3  C14 UNL     1     -16.374  22.402  -9.117  1.00  0.00     0.011 C 
HETATM    4  C15 UNL     1     -15.908  23.849  -8.900  1.00  0.00     0.031 C 
HETATM    5  C16 UNL     1     -14.441  23.832  -8.805  1.00  0.00     0.087 C 
HETATM    6  C18 UNL     1     -13.834  24.556  -7.617  1.00  0.00     0.041 C 
HETATM    7  C19 UNL     1     -14.784  24.679  -6.453  1.00  0.00     0.008 C 
HETATM    8  C20 UNL     1     -15.948  25.461  -6.991  1.00  0.00    -0.003 C 
HETATM    9  C21 UNL     1     -16.746  26.164  -5.965  1.00  0.00     0.037 C 
HETATM   10  C22 UNL     1     -17.684  27.120  -6.688  1.00  0.00     0.118 C 
HETATM   11  C23 UNL     1     -17.687  26.859  -8.180  1.00  0.00     0.032 C 
HETATM   12  C24 UNL     1     -17.831  25.405  -8.512  1.00  0.00     0.012 C 
HETATM   13  C25 UNL     1     -16.721  24.548  -7.886  1.00  0.00    -0.034 C 
HETATM   14  C26 UNL     1     -17.459  23.499  -7.056  1.00  0.00     0.016 C 
HETATM   15  O3  UNL     1     -13.867  22.558  -8.749  1.00  0.00    -0.372 OA
ENDROOT
BRANCH   1  16
HETATM   16  C10 UNL     1     -13.678  20.356  -9.412  1.00  0.00     0.011 C 
HETATM   17  C11 UNL     1     -14.436  19.265 -10.119  1.00  0.00     0.012 C 
BRANCH  16  18
HETATM   18  C9  UNL     1     -12.200  20.173  -9.456  1.00  0.00     0.007 C 
BRANCH  18  19
HETATM   19  C8  UNL     1     -11.913  18.690  -9.413  1.00  0.00     0.000 C 
BRANCH  19  20
HETATM   20  C7  UNL     1     -10.523  18.376  -8.912  1.00  0.00     0.000 C 
BRANCH  20  21
HETATM   21  C6  UNL     1      -9.456  18.967  -9.816  1.00  0.00     0.000 C 
BRANCH  21  22
HETATM   22  C5  UNL     1      -8.401  17.912 -10.172  1.00  0.00     0.000 C 
BRANCH  22  23
HETATM   23  C4  UNL     1      -9.058  16.784 -10.863  1.00  0.00     0.000 C 
BRANCH  23  24
HETATM   24  C3  UNL     1      -8.248  15.595 -11.233  1.00  0.00    -0.000 C 
BRANCH  24  25
HETATM   25  C2  UNL     1      -8.930  14.500 -11.975  1.00  0.00    -0.005 C 
HETATM   26  C1  UNL     1     -10.072  14.821 -12.844  1.00  0.00     0.005 C 
ENDBRANCH  24  25
ENDBRANCH  23  24
ENDBRANCH  22  23
ENDBRANCH  21  22
ENDBRANCH  20  21
ENDBRANCH  19  20
ENDBRANCH  18  19
ENDBRANCH  16  18
ENDBRANCH   1  16
BRANCH   5  27
HETATM   27  C17 UNL     1     -13.766  24.492 -10.023  1.00  0.00     0.202 C 
BRANCH  27  28
HETATM   28  O1  UNL     1     -14.233  25.785 -10.210  1.00  0.00    -0.398 OA
ATOM     29  H1  UNL     1     -13.533  26.362 -10.492  1.00  0.00     0.209 HD
ENDBRANCH  27  28
ENDBRANCH   5  27
BRANCH  10  30
HETATM   30  O2  UNL     1     -17.310  28.453  -6.512  1.00  0.00    -0.396 OA
ATOM     31  H2  UNL     1     -17.863  28.898  -5.880  1.00  0.00     0.210 HD
ENDBRANCH  10  30
TORSDOF 12
ENDMDL
MODEL 2
REMARK VINA RESULT: -7.443937108      2.104      3.494
REMARK  12 active torsions:
REMARK  status: ('A' for Active; 'I' for Inactive)
REMARK    1  A    between atoms: C2_2  and  C3_3 
REMARK    2  A    between atoms: C3_3  and  C4_4 
REMARK    3  A    between atoms: C4_4  and  C5_5 
REMARK    4  A    between atoms: C5_5  and  C6_6 
REMARK    5  A    between atoms: C6_6  and  C7_7 
REMARK    6  A    between atoms: C7_7  and  C8_8 
REMARK    7  A    between atoms: C8_8  and  C9_9 
REMARK    8  A    between atoms: C9_9  and  C10_10 
REMARK    9  A    between atoms: C10_10  and  C12_12 
REMARK   10  A    between atoms: C16_16  and  C17_17 
REMARK   11  A    between atoms: C17_17  and  O1_18 
REMARK   12  A    between atoms: C22_24  and  O2_25 
ROOT
HETATM    1  C12 UNL     1     -14.423  21.402 -10.236  1.00  0.00     0.126 C 
HETATM    2  C13 UNL     1     -15.864  21.573 -10.605  1.00  0.00     0.033 C 
HETATM    3  C14 UNL     1     -16.557  22.196  -9.387  1.00  0.00     0.011 C 
HETATM    4  C15 UNL     1     -15.957  23.581  -9.106  1.00  0.00     0.031 C 
HETATM    5  C16 UNL     1     -14.495  23.436  -9.090  1.00  0.00     0.087 C 
HETATM    6  C18 UNL     1     -13.771  24.027  -7.894  1.00  0.00     0.041 C 
HETATM    7  C19 UNL     1     -14.651  24.152  -6.675  1.00  0.00     0.008 C 
HETATM    8  C20 UNL     1     -15.767  25.062  -7.103  1.00  0.00    -0.003 C 
HETATM    9  C21 UNL     1     -16.451  25.760  -5.994  1.00  0.00     0.037 C 
HETATM   10  C22 UNL     1     -17.336  26.837  -6.607  1.00  0.00     0.118 C 
HETATM   11  C23 UNL     1     -17.433  26.675  -8.110  1.00  0.00     0.032 C 
HETATM   12  C24 UNL     1     -17.717  25.264  -8.522  1.00  0.00     0.012 C 
HETATM   13  C25 UNL     1     -16.658  24.278  -8.010  1.00  0.00    -0.034 C 
HETATM   14  C26 UNL     1     -17.444  23.242  -7.208  1.00  0.00     0.016 C 
HETATM   15  O3  UNL     1     -14.030  22.117  -9.143  1.00  0.00    -0.372 OA
ENDROOT
BRANCH   1  16
HETATM   16  C10 UNL     1     -14.065  19.956  -9.949  1.00  0.00     0.011 C 
HETATM   17  C11 UNL     1     -12.731  19.809  -9.269  1.00  0.00     0.012 C 
BRANCH  16  18
HETATM   18  C9  UNL     1     -15.153  19.183  -9.287  1.00  0.00     0.007 C 
BRANCH  18  19
HETATM   19  C8  UNL     1     -15.463  17.981 -10.150  1.00  0.00     0.000 C 
BRANCH  19  20
HETATM   20  C7  UNL     1     -16.851  18.028 -10.744  1.00  0.00     0.000 C 
BRANCH  20  21
HETATM   21  C6  UNL     1     -16.824  17.817 -12.247  1.00  0.00     0.000 C 
BRANCH  21  22
HETATM   22  C5  UNL     1     -16.018  18.923 -12.938  1.00  0.00     0.000 C 
BRANCH  22  23
HETATM   23  C4  UNL     1     -15.256  18.338 -14.060  1.00  0.00     0.000 C 
BRANCH  23  24
HETATM   24  C3  UNL     1     -15.106  16.862 -14.136  1.00  0.00    -0.000 C 
BRANCH  24  25
HETATM   25  C2  UNL     1     -13.752  16.293 -13.896  1.00  0.00    -0.005 C 
HETATM   26  C1  UNL     1     -12.968  16.762 -12.743  1.00  0.00     0.005 C 
ENDBRANCH  24  25
ENDBRANCH  23  24
ENDBRANCH  22  23
ENDBRANCH  21  22
ENDBRANCH  20  21
ENDBRANCH  19  20
ENDBRANCH  18  19
ENDBRANCH  16  18
ENDBRANCH   1  16
BRANCH   5  27
HETATM   27  C17 UNL     1     -13.823  24.116 -10.300  1.00  0.00     0.202 C 
BRANCH  27  28
HETATM   28  O1  UNL     1     -14.110  25.473 -10.329  1.00  0.00    -0.398 OA
ATOM     29  H1  UNL     1     -13.326  25.983 -10.493  1.00  0.00     0.209 HD
ENDBRANCH  27  28
ENDBRANCH   5  27
BRANCH  10  30
HETATM   30  O2  UNL     1     -16.839  28.120  -6.369  1.00  0.00    -0.396 OA
ATOM     31  H2  UNL     1     -17.494  28.688  -5.981  1.00  0.00     0.210 HD
ENDBRANCH  10  30
TORSDOF 12
ENDMDL
MODEL 3
REMARK VINA RESULT: -7.408637356      1.884      2.678
REMARK  12 active torsions:
REMARK  status: ('A' for Active; 'I' for Inactive)
REMARK    1  A    between atoms: C2_2  and  C3_3 
REMARK    2  A    between atoms: C3_3  and  C4_4 
REMARK    3  A    between atoms: C4_4  and  C5_5 
REMARK    4  A    between atoms: C5_5  and  C6_6 
REMARK    5  A    between atoms: C6_6  and  C7_7 
REMARK    6  A    between atoms: C7_7  and  C8_8 
REMARK    7  A    between atoms: C8_8  and  C9_9 
REMARK    8  A    between atoms: C9_9  and  C10_10 
REMARK    9  A    between atoms: C10_10  and  C12_12 
REMARK   10  A    between atoms: C16_16  and  C17_17 
REMARK   11  A    between atoms: C17_17  and  O1_18 
REMARK   12  A    between atoms: C22_24  and  O2_25 
ROOT
HETATM    1  C12 UNL     1     -14.801  21.286  -9.903  1.00  0.00     0.126 C 
HETATM    2  C13 UNL     1     -16.206  21.633 -10.286  1.00  0.00     0.033 C 
HETATM    3  C14 UNL     1     -16.779  22.471  -9.138  1.00  0.00     0.011 C 
HETATM    4  C15 UNL     1     -15.976  23.772  -8.999  1.00  0.00     0.031 C 
HETATM    5  C16 UNL     1     -14.551  23.412  -8.970  1.00  0.00     0.087 C 
HETATM    6  C18 UNL     1     -13.728  24.005  -7.841  1.00  0.00     0.041 C 
HETATM    7  C19 UNL     1     -14.559  24.383  -6.641  1.00  0.00     0.008 C 
HETATM    8  C20 UNL     1     -15.535  25.402  -7.158  1.00  0.00    -0.003 C 
HETATM    9  C21 UNL     1     -16.090  26.303  -6.126  1.00  0.00     0.037 C 
HETATM   10  C22 UNL     1     -16.813  27.433  -6.845  1.00  0.00     0.118 C 
HETATM   11  C23 UNL     1     -16.957  27.137  -8.323  1.00  0.00     0.032 C 
HETATM   12  C24 UNL     1     -17.455  25.749  -8.589  1.00  0.00     0.012 C 
HETATM   13  C25 UNL     1     -16.546  24.673  -7.980  1.00  0.00    -0.034 C 
HETATM   14  C26 UNL     1     -17.465  23.852  -7.076  1.00  0.00     0.016 C 
HETATM   15  O3  UNL     1     -14.289  22.040  -8.888  1.00  0.00    -0.372 OA
ENDROOT
BRANCH   1  16
HETATM   16  C10 UNL     1     -14.658  19.838  -9.470  1.00  0.00     0.011 C 
HETATM   17  C11 UNL     1     -15.933  19.054  -9.625  1.00  0.00     0.012 C 
BRANCH  16  18
HETATM   18  C9  UNL     1     -13.468  19.149 -10.043  1.00  0.00     0.007 C 
BRANCH  18  19
HETATM   19  C8  UNL     1     -13.902  17.780 -10.511  1.00  0.00     0.000 C 
BRANCH  19  20
HETATM   20  C7  UNL     1     -13.538  17.510 -11.951  1.00  0.00     0.000 C 
BRANCH  20  21
HETATM   21  C6  UNL     1     -14.740  17.645 -12.868  1.00  0.00     0.000 C 
BRANCH  21  22
HETATM   22  C5  UNL     1     -14.479  16.956 -14.213  1.00  0.00     0.000 C 
BRANCH  22  23
HETATM   23  C4  UNL     1     -13.509  15.859 -14.015  1.00  0.00     0.000 C 
BRANCH  23  24
HETATM   24  C3  UNL     1     -12.423  15.669 -15.010  1.00  0.00    -0.000 C 
BRANCH  24  25
HETATM   25  C2  UNL     1     -11.198  14.950 -14.565  1.00  0.00    -0.005 C 
HETATM   26  C1  UNL     1     -11.053  14.582 -13.149  1.00  0.00     0.005 C 
ENDBRANCH  24  25
ENDBRANCH  23  24
ENDBRANCH  22  23
ENDBRANCH  21  22
ENDBRANCH  20  21
ENDBRANCH  19  20
ENDBRANCH  18  19
ENDBRANCH  16  18
ENDBRANCH   1  16
BRANCH   5  27
HETATM   27  C17 UNL     1     -13.805  23.859 -10.243  1.00  0.00     0.202 C 
BRANCH  27  28
HETATM   28  O1  UNL     1     -13.950  25.223 -10.451  1.00  0.00    -0.398 OA
ATOM     29  H1  UNL     1     -13.419  25.513 -11.183  1.00  0.00     0.209 HD
ENDBRANCH  27  28
ENDBRANCH   5  27
BRANCH  10  30
HETATM   30  O2  UNL     1     -16.128  28.644  -6.739  1.00  0.00    -0.396 OA
ATOM     31  H2  UNL     1     -16.616  29.364  -7.122  1.00  0.00     0.210 HD
ENDBRANCH  10  30
TORSDOF 12
ENDMDL
MODEL 4
REMARK VINA RESULT: -7.392286920      2.544      4.772
REMARK  12 active torsions:
REMARK  status: ('A' for Active; 'I' for Inactive)
REMARK    1  A    between atoms: C2_2  and  C3_3 
REMARK    2  A    between atoms: C3_3  and  C4_4 
REMARK    3  A    between atoms: C4_4  and  C5_5 
REMARK    4  A    between atoms: C5_5  and  C6_6 
REMARK    5  A    between atoms: C6_6  and  C7_7 
REMARK    6  A    between atoms: C7_7  and  C8_8 
REMARK    7  A    between atoms: C8_8  and  C9_9 
REMARK    8  A    between atoms: C9_9  and  C10_10 
REMARK    9  A    between atoms: C10_10  and  C12_12 
REMARK   10  A    between atoms: C16_16  and  C17_17 
REMARK   11  A    between atoms: C17_17  and  O1_18 
REMARK   12  A    between atoms: C22_24  and  O2_25 
ROOT
HETATM    1  C12 UNL     1     -14.165  21.560 -10.218  1.00  0.00     0.126 C 
HETATM    2  C13 UNL     1     -15.602  21.598 -10.635  1.00  0.00     0.033 C 
HETATM    3  C14 UNL     1     -16.393  22.126  -9.432  1.00  0.00     0.011 C 
HETATM    4  C15 UNL     1     -15.941  23.557  -9.107  1.00  0.00     0.031 C 
HETATM    5  C16 UNL     1     -14.472  23.554  -9.042  1.00  0.00     0.087 C 
HETATM    6  C18 UNL     1     -13.850  24.189  -7.813  1.00  0.00     0.041 C 
HETATM    7  C19 UNL     1     -14.778  24.205  -6.624  1.00  0.00     0.008 C 
HETATM    8  C20 UNL     1     -15.963  25.010  -7.075  1.00  0.00    -0.003 C 
HETATM    9  C21 UNL     1     -16.748  25.617  -5.980  1.00  0.00     0.037 C 
HETATM   10  C22 UNL     1     -17.712  26.615  -6.606  1.00  0.00     0.118 C 
HETATM   11  C23 UNL     1     -17.743  26.474  -8.113  1.00  0.00     0.032 C 
HETATM   12  C24 UNL     1     -17.875  25.050  -8.558  1.00  0.00     0.012 C 
HETATM   13  C25 UNL     1     -16.742  24.162  -8.025  1.00  0.00    -0.034 C 
HETATM   14  C26 UNL     1     -17.449  23.039  -7.268  1.00  0.00     0.016 C 
HETATM   15  O3  UNL     1     -13.880  22.288  -9.100  1.00  0.00    -0.372 OA
ENDROOT
BRANCH   1  16
HETATM   16  C10 UNL     1     -13.678  20.150  -9.942  1.00  0.00     0.011 C 
HETATM   17  C11 UNL     1     -12.327  20.118  -9.278  1.00  0.00     0.012 C 
BRANCH  16  18
HETATM   18  C9  UNL     1     -14.686  19.281  -9.272  1.00  0.00     0.007 C 
BRANCH  18  19
HETATM   19  C8  UNL     1     -14.701  17.949  -9.986  1.00  0.00     0.000 C 
BRANCH  19  20
HETATM   20  C7  UNL     1     -14.608  18.087 -11.487  1.00  0.00     0.000 C 
BRANCH  20  21
HETATM   21  C6  UNL     1     -15.953  18.427 -12.104  1.00  0.00     0.000 C 
BRANCH  21  22
HETATM   22  C5  UNL     1     -17.091  17.747 -11.333  1.00  0.00     0.000 C 
BRANCH  22  23
HETATM   23  C4  UNL     1     -17.995  18.781 -10.792  1.00  0.00     0.000 C 
BRANCH  23  24
HETATM   24  C3  UNL     1     -18.290  18.790  -9.335  1.00  0.00    -0.000 C 
BRANCH  24  25
HETATM   25  C2  UNL     1     -19.326  19.741  -8.848  1.00  0.00    -0.005 C 
HETATM   26  C1  UNL     1     -20.236  20.373  -9.814  1.00  0.00     0.005 C 
ENDBRANCH  24  25
ENDBRANCH  23  24
ENDBRANCH  22  23
ENDBRANCH  21  22
ENDBRANCH  20  21
ENDBRANCH  19  20
ENDBRANCH  18  19
ENDBRANCH  16  18
ENDBRANCH   1  16
BRANCH   5  27
HETATM   27  C17 UNL     1     -13.831  24.320 -10.217  1.00  0.00     0.202 C 
BRANCH  27  28
HETATM   28  O1  UNL     1     -14.227  25.650 -10.219  1.00  0.00    -0.398 OA
ATOM     29  H1  UNL     1     -14.293  25.983 -11.106  1.00  0.00     0.209 HD
ENDBRANCH  27  28
ENDBRANCH   5  27
BRANCH  10  30
HETATM   30  O2  UNL     1     -17.352  27.935  -6.330  1.00  0.00    -0.396 OA
ATOM     31  H2  UNL     1     -16.485  27.994  -5.944  1.00  0.00     0.210 HD
ENDBRANCH  10  30
TORSDOF 12
ENDMDL
MODEL 5
REMARK VINA RESULT: -7.344411266      2.073      3.321
REMARK  12 active torsions:
REMARK  status: ('A' for Active; 'I' for Inactive)
REMARK    1  A    between atoms: C2_2  and  C3_3 
REMARK    2  A    between atoms: C3_3  and  C4_4 
REMARK    3  A    between atoms: C4_4  and  C5_5 
REMARK    4  A    between atoms: C5_5  and  C6_6 
REMARK    5  A    between atoms: C6_6  and  C7_7 
REMARK    6  A    between atoms: C7_7  and  C8_8 
REMARK    7  A    between atoms: C8_8  and  C9_9 
REMARK    8  A    between atoms: C9_9  and  C10_10 
REMARK    9  A    between atoms: C10_10  and  C12_12 
REMARK   10  A    between atoms: C16_16  and  C17_17 
REMARK   11  A    between atoms: C17_17  and  O1_18 
REMARK   12  A    between atoms: C22_24  and  O2_25 
ROOT
HETATM    1  C12 UNL     1     -14.712  21.078  -9.903  1.00  0.00     0.126 C 
HETATM    2  C13 UNL     1     -16.138  21.334 -10.279  1.00  0.00     0.033 C 
HETATM    3  C14 UNL     1     -16.752  22.155  -9.139  1.00  0.00     0.011 C 
HETATM    4  C15 UNL     1     -16.027  23.504  -9.028  1.00  0.00     0.031 C 
HETATM    5  C16 UNL     1     -14.582  23.231  -9.005  1.00  0.00     0.087 C 
HETATM    6  C18 UNL     1     -13.788  23.891  -7.894  1.00  0.00     0.041 C 
HETATM    7  C19 UNL     1     -14.631  24.238  -6.692  1.00  0.00     0.008 C 
HETATM    8  C20 UNL     1     -15.670  25.188  -7.217  1.00  0.00    -0.003 C 
HETATM    9  C21 UNL     1     -16.270  26.071  -6.194  1.00  0.00     0.037 C 
HETATM   10  C22 UNL     1     -17.065  27.143  -6.925  1.00  0.00     0.118 C 
HETATM   11  C23 UNL     1     -17.203  26.815  -8.396  1.00  0.00     0.032 C 
HETATM   12  C24 UNL     1     -17.619  25.396  -8.636  1.00  0.00     0.012 C 
HETATM   13  C25 UNL     1     -16.642  24.386  -8.018  1.00  0.00    -0.034 C 
HETATM   14  C26 UNL     1     -17.503  23.526  -7.093  1.00  0.00     0.016 C 
HETATM   15  O3  UNL     1     -14.238  21.878  -8.905  1.00  0.00    -0.372 OA
ENDROOT
BRANCH   1  16
HETATM   16  C10 UNL     1     -14.479  19.649  -9.448  1.00  0.00     0.011 C 
HETATM   17  C11 UNL     1     -15.688  18.773  -9.636  1.00  0.00     0.012 C 
BRANCH  16  18
HETATM   18  C9  UNL     1     -13.223  19.044  -9.973  1.00  0.00     0.007 C 
BRANCH  18  19
HETATM   19  C8  UNL     1     -13.598  17.835 -10.799  1.00  0.00     0.000 C 
BRANCH  19  20
HETATM   20  C7  UNL     1     -12.533  17.456 -11.800  1.00  0.00     0.000 C 
BRANCH  20  21
HETATM   21  C6  UNL     1     -13.036  16.420 -12.788  1.00  0.00     0.000 C 
BRANCH  21  22
HETATM   22  C5  UNL     1     -12.838  16.902 -14.230  1.00  0.00     0.000 C 
BRANCH  22  23
HETATM   23  C4  UNL     1     -14.118  17.433 -14.742  1.00  0.00     0.000 C 
BRANCH  23  24
HETATM   24  C3  UNL     1     -15.391  16.868 -14.225  1.00  0.00    -0.000 C 
BRANCH  24  25
HETATM   25  C2  UNL     1     -16.306  17.788 -13.494  1.00  0.00    -0.005 C 
HETATM   26  C1  UNL     1     -15.880  19.170 -13.231  1.00  0.00     0.005 C 
ENDBRANCH  24  25
ENDBRANCH  23  24
ENDBRANCH  22  23
ENDBRANCH  21  22
ENDBRANCH  20  21
ENDBRANCH  19  20
ENDBRANCH  18  19
ENDBRANCH  16  18
ENDBRANCH   1  16
BRANCH   5  27
HETATM   27  C17 UNL     1     -13.875  23.700 -10.293  1.00  0.00     0.202 C 
BRANCH  27  28
HETATM   28  O1  UNL     1     -13.952  25.079 -10.427  1.00  0.00    -0.398 OA
ATOM     29  H1  UNL     1     -13.127  25.489 -10.197  1.00  0.00     0.209 HD
ENDBRANCH  27  28
ENDBRANCH   5  27
BRANCH  10  30
HETATM   30  O2  UNL     1     -16.453  28.395  -6.844  1.00  0.00    -0.396 OA
ATOM     31  H2  UNL     1     -17.082  29.104  -6.909  1.00  0.00     0.210 HD
ENDBRANCH  10  30
TORSDOF 12
ENDMDL
