MODEL 1
REMARK VINA RESULT: -7.725835538      0.000      0.000
REMARK  8 active torsions:
REMARK  status: ('A' for Active; 'I' for Inactive)
REMARK    1  A    between atoms: C1_2  and  C2_4 
REMARK    2  A    between atoms: C2_4  and  C3_5 
REMARK    3  A    between atoms: C3_5  and  N2_6 
REMARK    4  A    between atoms: N2_6  and  C4_7 
REMARK    5  A    between atoms: N2_6  and  C7_11 
REMARK    6  A    between atoms: C4_7  and  C5_8 
REMARK    7  A    between atoms: C7_11  and  C8_12 
REMARK       I    between atoms: C8_12  and  N3_14 
REMARK    8  A    between atoms: N3_14  and  C9_16 
ROOT
HETATM    1  C5  UNL     1      47.496   7.902  52.910  1.00  0.00    -0.075 C 
HETATM    2  C6  UNL     1      46.534   8.061  52.193  1.00  0.00    -0.022 C 
HETATM    3 BR1  UNL     1      45.039   8.275  51.088  1.00  0.00     0.010 Br
ENDROOT
BRANCH   1   4
HETATM    4  C4  UNL     1      48.676   7.679  53.780  1.00  0.00     0.213 C 
BRANCH   4   5
HETATM    5  N2  UNL     1      48.234   7.593  55.127  1.00  0.00    -0.394 N 
BRANCH   5   6
HETATM    6  C3  UNL     1      47.472   8.692  55.607  1.00  0.00     0.127 C 
BRANCH   6   7
HETATM    7  C2  UNL     1      47.347   8.762  57.112  1.00  0.00     0.119 C 
BRANCH   7   8
HETATM    8  C1  UNL     1      47.978   9.996  57.640  1.00  0.00     0.232 C 
HETATM    9  N1  UNL     1      49.042  10.001  58.558  1.00  0.00    -0.062 NA
HETATM   10  O1  UNL     1      47.536  11.101  57.245  1.00  0.00    -0.277 OA
ENDBRANCH   7   8
ENDBRANCH   6   7
ENDBRANCH   5   6
BRANCH   5  11
HETATM   11  C7  UNL     1      49.174   7.159  56.094  1.00  0.00     0.220 C 
BRANCH  11  12
HETATM   12  C8  UNL     1      48.928   5.792  56.636  1.00  0.00     0.237 C 
HETATM   13  O2  UNL     1      48.525   4.850  55.917  1.00  0.00    -0.272 OA
HETATM   14  N3  UNL     1      49.155   5.527  58.011  1.00  0.00    -0.327 N 
ATOM     15  H3  UNL     1      49.488   6.300  58.587  1.00  0.00     0.165 HD
BRANCH  14  16
HETATM   16  C9  UNL     1      48.954   4.263  58.657  1.00  0.00     0.201 C 
HETATM   17  C10 UNL     1      47.514   3.814  58.704  1.00  0.00     0.066 C 
HETATM   18  C11 UNL     1      47.467   2.439  59.324  1.00  0.00    -0.008 C 
HETATM   19  C12 UNL     1      48.025   2.464  60.717  1.00  0.00     0.009 C 
HETATM   20  C16 UNL     1      48.247   1.485  58.442  1.00  0.00     0.037 C 
HETATM   21  C13 UNL     1      49.458   2.925  60.666  1.00  0.00    -0.008 C 
HETATM   22  C14 UNL     1      50.227   1.939  59.832  1.00  0.00     0.037 C 
HETATM   23  C17 UNL     1      49.472   4.324  60.077  1.00  0.00     0.066 C 
HETATM   24  C15 UNL     1      49.670   1.969  58.429  1.00  0.00     0.189 C 
HETATM   25  N4  UNL     1      49.775   3.294  57.917  1.00  0.00    -0.044 N 
ATOM     26  H42 UNL     1      49.557   3.317  56.921  1.00  0.00     0.280 HD
ATOM     27  H41 UNL     1      50.749   3.594  57.882  1.00  0.00     0.280 HD
ENDBRANCH  14  16
ENDBRANCH  11  12
ENDBRANCH   5  11
ENDBRANCH   4   5
ENDBRANCH   1   4
TORSDOF 8
ENDMDL
MODEL 2
REMARK VINA RESULT: -7.644453567      0.892      1.484
REMARK  8 active torsions:
REMARK  status: ('A' for Active; 'I' for Inactive)
REMARK    1  A    between atoms: C1_2  and  C2_4 
REMARK    2  A    between atoms: C2_4  and  C3_5 
REMARK    3  A    between atoms: C3_5  and  N2_6 
REMARK    4  A    between atoms: N2_6  and  C4_7 
REMARK    5  A    between atoms: N2_6  and  C7_11 
REMARK    6  A    between atoms: C4_7  and  C5_8 
REMARK    7  A    between atoms: C7_11  and  C8_12 
REMARK       I    between atoms: C8_12  and  N3_14 
REMARK    8  A    between atoms: N3_14  and  C9_16 
ROOT
HETATM    1  C5  UNL     1      47.549   7.929  53.019  1.00  0.00    -0.075 C 
HETATM    2  C6  UNL     1      46.536   8.196  52.412  1.00  0.00    -0.022 C 
HETATM    3 BR1  UNL     1      44.975   8.580  51.453  1.00  0.00     0.010 Br
ENDROOT
BRANCH   1   4
HETATM    4  C4  UNL     1      48.798   7.588  53.741  1.00  0.00     0.213 C 
BRANCH   4   5
HETATM    5  N2  UNL     1      48.526   7.578  55.135  1.00  0.00    -0.394 N 
BRANCH   5   6
HETATM    6  C3  UNL     1      47.583   8.536  55.596  1.00  0.00     0.127 C 
BRANCH   6   7
HETATM    7  C2  UNL     1      47.444   8.609  57.099  1.00  0.00     0.119 C 
BRANCH   7   8
HETATM    8  C1  UNL     1      47.982   9.889  57.620  1.00  0.00     0.232 C 
HETATM    9  N1  UNL     1      48.936   9.978  58.648  1.00  0.00    -0.062 NA
HETATM   10  O1  UNL     1      47.562  10.957  57.113  1.00  0.00    -0.277 OA
ENDBRANCH   7   8
ENDBRANCH   6   7
ENDBRANCH   5   6
BRANCH   5  11
HETATM   11  C7  UNL     1      49.633   7.483  56.014  1.00  0.00     0.220 C 
BRANCH  11  12
HETATM   12  C8  UNL     1      49.816   6.147  56.648  1.00  0.00     0.237 C 
HETATM   13  O2  UNL     1      50.923   5.561  56.665  1.00  0.00    -0.272 OA
HETATM   14  N3  UNL     1      48.714   5.498  57.259  1.00  0.00    -0.327 N 
ATOM     15  H3  UNL     1      47.818   5.985  57.244  1.00  0.00     0.165 HD
BRANCH  14  16
HETATM   16  C9  UNL     1      48.754   4.215  57.898  1.00  0.00     0.201 C 
HETATM   17  C10 UNL     1      49.084   3.072  56.969  1.00  0.00     0.066 C 
HETATM   18  C11 UNL     1      49.182   1.808  57.788  1.00  0.00    -0.008 C 
HETATM   19  C12 UNL     1      47.884   1.524  58.483  1.00  0.00     0.009 C 
HETATM   20  C16 UNL     1      50.311   1.968  58.787  1.00  0.00     0.037 C 
HETATM   21  C13 UNL     1      47.552   2.673  59.400  1.00  0.00    -0.008 C 
HETATM   22  C14 UNL     1      48.654   2.782  60.415  1.00  0.00     0.037 C 
HETATM   23  C17 UNL     1      47.420   3.921  58.545  1.00  0.00     0.066 C 
HETATM   24  C15 UNL     1      49.937   3.110  59.690  1.00  0.00     0.189 C 
HETATM   25  N4  UNL     1      49.760   4.323  58.964  1.00  0.00    -0.044 N 
ATOM     26  H42 UNL     1      50.650   4.657  58.592  1.00  0.00     0.280 HD
ATOM     27  H41 UNL     1      49.542   5.095  59.593  1.00  0.00     0.280 HD
ENDBRANCH  14  16
ENDBRANCH  11  12
ENDBRANCH   5  11
ENDBRANCH   4   5
ENDBRANCH   1   4
TORSDOF 8
ENDMDL
MODEL 3
REMARK VINA RESULT: -7.326402260      2.602      3.457
REMARK  8 active torsions:
REMARK  status: ('A' for Active; 'I' for Inactive)
REMARK    1  A    between atoms: C1_2  and  C2_4 
REMARK    2  A    between atoms: C2_4  and  C3_5 
REMARK    3  A    between atoms: C3_5  and  N2_6 
REMARK    4  A    between atoms: N2_6  and  C4_7 
REMARK    5  A    between atoms: N2_6  and  C7_11 
REMARK    6  A    between atoms: C4_7  and  C5_8 
REMARK    7  A    between atoms: C7_11  and  C8_12 
REMARK       I    between atoms: C8_12  and  N3_14 
REMARK    8  A    between atoms: N3_14  and  C9_16 
ROOT
HETATM    1  C5  UNL     1      50.240   7.592  53.022  1.00  0.00    -0.075 C 
HETATM    2  C6  UNL     1      51.449   7.563  52.981  1.00  0.00    -0.022 C 
HETATM    3 BR1  UNL     1      53.318   7.493  52.895  1.00  0.00     0.010 Br
ENDROOT
BRANCH   1   4
HETATM    4  C4  UNL     1      48.758   7.601  53.064  1.00  0.00     0.213 C 
BRANCH   4   5
HETATM    5  N2  UNL     1      48.345   7.595  54.423  1.00  0.00    -0.394 N 
BRANCH   5   6
HETATM    6  C3  UNL     1      47.250   8.440  54.748  1.00  0.00     0.127 C 
BRANCH   6   7
HETATM    7  C2  UNL     1      46.858   9.410  53.659  1.00  0.00     0.119 C 
BRANCH   7   8
HETATM    8  C1  UNL     1      45.450   9.201  53.243  1.00  0.00     0.232 C 
HETATM    9  N1  UNL     1      45.066   8.416  52.143  1.00  0.00    -0.062 NA
HETATM   10  O1  UNL     1      44.547   9.758  53.913  1.00  0.00    -0.277 OA
ENDBRANCH   7   8
ENDBRANCH   6   7
ENDBRANCH   5   6
BRANCH   5  11
HETATM   11  C7  UNL     1      49.357   7.663  55.411  1.00  0.00     0.220 C 
BRANCH  11  12
HETATM   12  C8  UNL     1      49.211   6.685  56.527  1.00  0.00     0.237 C 
HETATM   13  O2  UNL     1      49.070   7.045  57.718  1.00  0.00    -0.272 OA
HETATM   14  N3  UNL     1      49.226   5.294  56.252  1.00  0.00    -0.327 N 
ATOM     15  H3  UNL     1      49.337   5.011  55.278  1.00  0.00     0.165 HD
BRANCH  14  16
HETATM   16  C9  UNL     1      49.100   4.252  57.229  1.00  0.00     0.201 C 
HETATM   17  C10 UNL     1      49.146   2.857  56.656  1.00  0.00     0.066 C 
HETATM   18  C11 UNL     1      49.096   1.873  57.799  1.00  0.00    -0.008 C 
HETATM   19  C12 UNL     1      47.833   2.043  58.590  1.00  0.00     0.009 C 
HETATM   20  C16 UNL     1      50.317   2.084  58.670  1.00  0.00     0.037 C 
HETATM   21  C13 UNL     1      47.785   3.441  59.150  1.00  0.00    -0.008 C 
HETATM   22  C14 UNL     1      48.973   3.613  60.053  1.00  0.00     0.037 C 
HETATM   23  C17 UNL     1      47.796   4.407  57.979  1.00  0.00     0.066 C 
HETATM   24  C15 UNL     1      50.226   3.480  59.220  1.00  0.00     0.189 C 
HETATM   25  N4  UNL     1      50.199   4.457  58.184  1.00  0.00    -0.044 N 
ATOM     26  H42 UNL     1      51.097   4.500  57.702  1.00  0.00     0.280 HD
ATOM     27  H41 UNL     1      50.172   5.399  58.573  1.00  0.00     0.280 HD
ENDBRANCH  14  16
ENDBRANCH  11  12
ENDBRANCH   5  11
ENDBRANCH   4   5
ENDBRANCH   1   4
TORSDOF 8
ENDMDL
MODEL 4
REMARK VINA RESULT: -7.264196973      1.877      2.349
REMARK  8 active torsions:
REMARK  status: ('A' for Active; 'I' for Inactive)
REMARK    1  A    between atoms: C1_2  and  C2_4 
REMARK    2  A    between atoms: C2_4  and  C3_5 
REMARK    3  A    between atoms: C3_5  and  N2_6 
REMARK    4  A    between atoms: N2_6  and  C4_7 
REMARK    5  A    between atoms: N2_6  and  C7_11 
REMARK    6  A    between atoms: C4_7  and  C5_8 
REMARK    7  A    between atoms: C7_11  and  C8_12 
REMARK       I    between atoms: C8_12  and  N3_14 
REMARK    8  A    between atoms: N3_14  and  C9_16 
ROOT
HETATM    1  C5  UNL     1      49.695   7.800  53.127  1.00  0.00    -0.075 C 
HETATM    2  C6  UNL     1      50.838   7.959  52.763  1.00  0.00    -0.022 C 
HETATM    3 BR1  UNL     1      52.598   8.236  52.187  1.00  0.00     0.010 Br
ENDROOT
BRANCH   1   4
HETATM    4  C4  UNL     1      48.286   7.622  53.552  1.00  0.00     0.213 C 
BRANCH   4   5
HETATM    5  N2  UNL     1      48.236   7.643  54.971  1.00  0.00    -0.394 N 
BRANCH   5   6
HETATM    6  C3  UNL     1      47.424   8.652  55.555  1.00  0.00     0.127 C 
BRANCH   6   7
HETATM    7  C2  UNL     1      47.417   8.659  57.066  1.00  0.00     0.119 C 
BRANCH   7   8
HETATM    8  C1  UNL     1      48.005   9.915  57.593  1.00  0.00     0.232 C 
HETATM    9  N1  UNL     1      49.046   9.958  58.536  1.00  0.00    -0.062 NA
HETATM   10  O1  UNL     1      47.545  11.004  57.174  1.00  0.00    -0.277 OA
ENDBRANCH   7   8
ENDBRANCH   6   7
ENDBRANCH   5   6
BRANCH   5  11
HETATM   11  C7  UNL     1      49.462   7.505  55.667  1.00  0.00     0.220 C 
BRANCH  11  12
HETATM   12  C8  UNL     1      49.701   6.155  56.254  1.00  0.00     0.237 C 
HETATM   13  O2  UNL     1      50.732   5.491  56.004  1.00  0.00    -0.272 OA
HETATM   14  N3  UNL     1      48.741   5.586  57.128  1.00  0.00    -0.327 N 
ATOM     15  H3  UNL     1      47.907   6.137  57.329  1.00  0.00     0.165 HD
BRANCH  14  16
HETATM   16  C9  UNL     1      48.847   4.300  57.754  1.00  0.00     0.201 C 
HETATM   17  C10 UNL     1      49.066   3.160  56.790  1.00  0.00     0.066 C 
HETATM   18  C11 UNL     1      49.249   1.892  57.589  1.00  0.00    -0.008 C 
HETATM   19  C12 UNL     1      48.034   1.610  58.423  1.00  0.00     0.009 C 
HETATM   20  C16 UNL     1      50.482   2.043  58.456  1.00  0.00     0.037 C 
HETATM   21  C13 UNL     1      47.812   2.757  59.375  1.00  0.00    -0.008 C 
HETATM   22  C14 UNL     1      49.020   2.857  60.261  1.00  0.00     0.037 C 
HETATM   23  C17 UNL     1      47.591   4.009  58.544  1.00  0.00     0.066 C 
HETATM   24  C15 UNL     1      50.216   3.183  59.399  1.00  0.00     0.189 C 
HETATM   25  N4  UNL     1      49.965   4.400  58.702  1.00  0.00    -0.044 N 
ATOM     26  H42 UNL     1      50.809   4.731  58.235  1.00  0.00     0.280 HD
ATOM     27  H41 UNL     1      49.822   5.170  59.354  1.00  0.00     0.280 HD
ENDBRANCH  14  16
ENDBRANCH  11  12
ENDBRANCH   5  11
ENDBRANCH   4   5
ENDBRANCH   1   4
TORSDOF 8
ENDMDL
MODEL 5
REMARK VINA RESULT: -7.210978431      2.522      3.295
REMARK  8 active torsions:
REMARK  status: ('A' for Active; 'I' for Inactive)
REMARK    1  A    between atoms: C1_2  and  C2_4 
REMARK    2  A    between atoms: C2_4  and  C3_5 
REMARK    3  A    between atoms: C3_5  and  N2_6 
REMARK    4  A    between atoms: N2_6  and  C4_7 
REMARK    5  A    between atoms: N2_6  and  C7_11 
REMARK    6  A    between atoms: C4_7  and  C5_8 
REMARK    7  A    between atoms: C7_11  and  C8_12 
REMARK       I    between atoms: C8_12  and  N3_14 
REMARK    8  A    between atoms: N3_14  and  C9_16 
ROOT
HETATM    1  C5  UNL     1      50.385   7.674  53.018  1.00  0.00    -0.075 C 
HETATM    2  C6  UNL     1      49.209   7.939  52.909  1.00  0.00    -0.022 C 
HETATM    3 BR1  UNL     1      47.384   8.333  52.770  1.00  0.00     0.010 Br
ENDROOT
BRANCH   1   4
HETATM    4  C4  UNL     1      51.819   7.327  53.168  1.00  0.00     0.213 C 
BRANCH   4   5
HETATM    5  N2  UNL     1      51.989   6.630  54.393  1.00  0.00    -0.394 N 
BRANCH   5   6
HETATM    6  C3  UNL     1      52.843   7.243  55.349  1.00  0.00     0.127 C 
BRANCH   6   7
HETATM    7  C2  UNL     1      52.185   8.315  56.186  1.00  0.00     0.119 C 
BRANCH   7   8
HETATM    8  C1  UNL     1      51.016   7.772  56.921  1.00  0.00     0.232 C 
HETATM    9  N1  UNL     1      49.680   8.012  56.556  1.00  0.00    -0.062 NA
HETATM   10  O1  UNL     1      51.233   7.056  57.928  1.00  0.00    -0.277 OA
ENDBRANCH   7   8
ENDBRANCH   6   7
ENDBRANCH   5   6
BRANCH   5  11
HETATM   11  C7  UNL     1      52.218   5.234  54.322  1.00  0.00     0.220 C 
BRANCH  11  12
HETATM   12  C8  UNL     1      51.702   4.454  55.483  1.00  0.00     0.237 C 
HETATM   13  O2  UNL     1      52.404   3.612  56.088  1.00  0.00    -0.272 OA
HETATM   14  N3  UNL     1      50.375   4.660  55.937  1.00  0.00    -0.327 N 
ATOM     15  H3  UNL     1      49.813   5.352  55.441  1.00  0.00     0.165 HD
BRANCH  14  16
HETATM   16  C9  UNL     1      49.757   3.976  57.035  1.00  0.00     0.201 C 
HETATM   17  C10 UNL     1      49.396   2.539  56.745  1.00  0.00     0.066 C 
HETATM   18  C11 UNL     1      48.845   1.925  58.008  1.00  0.00    -0.008 C 
HETATM   19  C12 UNL     1      47.621   2.661  58.467  1.00  0.00     0.009 C 
HETATM   20  C16 UNL     1      49.926   1.952  59.069  1.00  0.00     0.037 C 
HETATM   21  C13 UNL     1      47.983   4.097  58.743  1.00  0.00    -0.008 C 
HETATM   22  C14 UNL     1      49.015   4.107  59.834  1.00  0.00     0.037 C 
HETATM   23  C17 UNL     1      48.495   4.700  57.448  1.00  0.00     0.066 C 
HETATM   24  C15 UNL     1      50.248   3.398  59.327  1.00  0.00     0.189 C 
HETATM   25  N4  UNL     1      50.710   4.055  58.151  1.00  0.00    -0.044 N 
ATOM     26  H42 UNL     1      51.626   3.703  57.873  1.00  0.00     0.280 HD
ATOM     27  H41 UNL     1      50.957   5.025  58.350  1.00  0.00     0.280 HD
ENDBRANCH  14  16
ENDBRANCH  11  12
ENDBRANCH   5  11
ENDBRANCH   4   5
ENDBRANCH   1   4
TORSDOF 8
ENDMDL
