MODEL 1
REMARK VINA RESULT: -8.948877615      0.000      0.000
REMARK  10 active torsions:
REMARK  status: ('A' for Active; 'I' for Inactive)
REMARK    1  A    between atoms: C1_2  and  C2_4 
REMARK    2  A    between atoms: C2_4  and  N1_5 
REMARK    3  A    between atoms: C3_6  and  O3_7 
REMARK    4  A    between atoms: C4_11  and  N3_12 
REMARK    5  A    between atoms: N3_12  and  C5_14 
REMARK    6  A    between atoms: C5_14  and  C6_15 
REMARK    7  A    between atoms: C6_15  and  C7_16 
REMARK    8  A    between atoms: C13_24  and  N5_25 
REMARK    9  A    between atoms: N5_25  and  C14_26 
REMARK   10  A    between atoms: C14_26  and  C15_27 
ROOT
HETATM    1  N1  UNL     1      48.483   7.697  56.420  1.00  0.00    -0.262 N 
HETATM    2  C3  UNL     1      49.381   6.995  57.146  1.00  0.00     0.241 A 
HETATM    3  N2  UNL     1      50.318   6.262  56.533  1.00  0.00    -0.155 N 
ATOM      4  H2  UNL     1      50.984   5.740  57.103  1.00  0.00     0.188 HD
HETATM    5  C4  UNL     1      50.414   6.188  55.195  1.00  0.00     0.684 A 
HETATM    6  N4  UNL     1      49.521   6.887  54.494  1.00  0.00    -0.148 N 
ATOM      7  H4  UNL     1      49.571   6.849  53.476  1.00  0.00     0.188 HD
HETATM    8  C13 UNL     1      48.542   7.651  55.066  1.00  0.00     0.279 A 
ENDROOT
BRANCH   5   9
HETATM    9  N3  UNL     1      51.341   5.478  54.595  1.00  0.00    -0.226 N 
ATOM     10  H3  UNL     1      51.516   5.560  53.594  1.00  0.00     0.177 HD
BRANCH   9  11
HETATM   11  C5  UNL     1      52.099   4.574  55.427  1.00  0.00     0.142 C 
BRANCH  11  12
HETATM   12  C6  UNL     1      51.538   3.169  55.133  1.00  0.00     0.058 C 
BRANCH  12  13
HETATM   13  C7  UNL     1      50.805   2.762  56.340  1.00  0.00    -0.057 A 
HETATM   14  C8  UNL     1      51.475   2.721  57.557  1.00  0.00     0.007 A 
HETATM   15  C9  UNL     1      50.763   2.339  58.669  1.00  0.00     0.001 A 
HETATM   16  C10 UNL     1      49.407   2.001  58.587  1.00  0.00     0.000 A 
HETATM   17  C11 UNL     1      48.741   2.042  57.378  1.00  0.00     0.001 A 
HETATM   18  C12 UNL     1      49.489   2.431  56.273  1.00  0.00     0.007 A 
ENDBRANCH  12  13
ENDBRANCH  11  12
ENDBRANCH   9  11
ENDBRANCH   5   9
BRANCH   2  19
HETATM   19  O3  UNL     1      49.301   7.056  58.552  1.00  0.00    -0.332 OA
ATOM     20  H3  UNL     1      49.923   6.551  59.063  1.00  0.00     0.221 HD
ENDBRANCH   2  19
BRANCH   8  21
HETATM   21  N5  UNL     1      47.779   8.239  54.366  1.00  0.00    -0.382 NA
BRANCH  21  22
HETATM   22  C14 UNL     1      47.073   9.107  53.629  1.00  0.00     0.198 C 
BRANCH  22  23
HETATM   23  C15 UNL     1      46.404   8.408  52.479  1.00  0.00    -0.004 A 
HETATM   24  C16 UNL     1      47.114   7.717  51.537  1.00  0.00     0.014 A 
HETATM   25  C17 UNL     1      46.485   7.069  50.480  1.00  0.00     0.004 A 
HETATM   26  C18 UNL     1      45.118   7.118  50.370  1.00  0.00     0.042 A 
HETATM   27  C19 UNL     1      44.392   7.803  51.302  1.00  0.00     0.117 A 
HETATM   28  F1  UNL     1      43.050   7.884  51.244  1.00  0.00    -0.206 F 
HETATM   29  C20 UNL     1      45.038   8.445  52.353  1.00  0.00     0.056 A 
ENDBRANCH  22  23
ENDBRANCH  21  22
ENDBRANCH   8  21
BRANCH   1  30
HETATM   30  C2  UNL     1      47.486   8.470  57.153  1.00  0.00     0.250 C 
BRANCH  30  31
HETATM   31  C1  UNL     1      47.949   9.805  57.545  1.00  0.00     0.192 C 
HETATM   32  O1  UNL     1      47.636  10.820  56.905  1.00  0.00    -0.647 OA
HETATM   33  O2  UNL     1      48.768   9.942  58.668  1.00  0.00    -0.647 OA
ENDBRANCH  30  31
ENDBRANCH   1  30
TORSDOF 10
ENDMDL
MODEL 2
REMARK VINA RESULT: -8.916705875      2.634      3.509
REMARK  10 active torsions:
REMARK  status: ('A' for Active; 'I' for Inactive)
REMARK    1  A    between atoms: C1_2  and  C2_4 
REMARK    2  A    between atoms: C2_4  and  N1_5 
REMARK    3  A    between atoms: C3_6  and  O3_7 
REMARK    4  A    between atoms: C4_11  and  N3_12 
REMARK    5  A    between atoms: N3_12  and  C5_14 
REMARK    6  A    between atoms: C5_14  and  C6_15 
REMARK    7  A    between atoms: C6_15  and  C7_16 
REMARK    8  A    between atoms: C13_24  and  N5_25 
REMARK    9  A    between atoms: N5_25  and  C14_26 
REMARK   10  A    between atoms: C14_26  and  C15_27 
ROOT
HETATM    1  N1  UNL     1      49.905   7.296  53.881  1.00  0.00    -0.262 N 
HETATM    2  C3  UNL     1      50.668   6.446  54.602  1.00  0.00     0.241 A 
HETATM    3  N2  UNL     1      50.246   6.007  55.794  1.00  0.00    -0.155 N 
ATOM      4  H2  UNL     1      50.840   5.366  56.320  1.00  0.00     0.188 HD
HETATM    5  C4  UNL     1      49.069   6.378  56.323  1.00  0.00     0.684 A 
HETATM    6  N4  UNL     1      48.328   7.218  55.598  1.00  0.00    -0.148 N 
ATOM      7  H4  UNL     1      47.429   7.517  55.976  1.00  0.00     0.188 HD
HETATM    8  C13 UNL     1      48.709   7.699  54.376  1.00  0.00     0.279 A 
ENDROOT
BRANCH   5   9
HETATM    9  N3  UNL     1      48.651   5.939  57.487  1.00  0.00    -0.226 N 
ATOM     10  H3  UNL     1      48.307   6.573  58.208  1.00  0.00     0.177 HD
BRANCH   9  11
HETATM   11  C5  UNL     1      48.703   4.511  57.693  1.00  0.00     0.142 C 
BRANCH  11  12
HETATM   12  C6  UNL     1      48.845   4.316  59.215  1.00  0.00     0.058 C 
BRANCH  12  13
HETATM   13  C7  UNL     1      48.224   3.020  59.519  1.00  0.00    -0.057 A 
HETATM   14  C8  UNL     1      48.817   2.189  60.463  1.00  0.00     0.007 A 
HETATM   15  C9  UNL     1      48.211   0.983  60.728  1.00  0.00     0.001 A 
HETATM   16  C10 UNL     1      47.037   0.598  60.073  1.00  0.00     0.000 A 
HETATM   17  C11 UNL     1      46.447   1.421  59.134  1.00  0.00     0.001 A 
HETATM   18  C12 UNL     1      47.084   2.633  58.889  1.00  0.00     0.007 A 
ENDBRANCH  12  13
ENDBRANCH  11  12
ENDBRANCH   9  11
ENDBRANCH   5   9
BRANCH   2  19
HETATM   19  O3  UNL     1      51.909   6.039  54.069  1.00  0.00    -0.332 OA
ATOM     20  H3  UNL     1      52.540   6.709  53.831  1.00  0.00     0.221 HD
ENDBRANCH   2  19
BRANCH   8  21
HETATM   21  N5  UNL     1      47.990   8.451  53.798  1.00  0.00    -0.382 NA
BRANCH  21  22
HETATM   22  C14 UNL     1      46.992   9.190  53.293  1.00  0.00     0.198 C 
BRANCH  22  23
HETATM   23  C15 UNL     1      46.251   8.427  52.232  1.00  0.00    -0.004 A 
HETATM   24  C16 UNL     1      46.899   7.700  51.272  1.00  0.00     0.014 A 
HETATM   25  C17 UNL     1      46.205   6.993  50.298  1.00  0.00     0.004 A 
HETATM   26  C18 UNL     1      44.833   7.020  50.289  1.00  0.00     0.042 A 
HETATM   27  C19 UNL     1      44.167   7.740  51.239  1.00  0.00     0.117 A 
HETATM   28  F1  UNL     1      42.824   7.802  51.278  1.00  0.00    -0.206 F 
HETATM   29  C20 UNL     1      44.879   8.441  52.206  1.00  0.00     0.056 A 
ENDBRANCH  22  23
ENDBRANCH  21  22
ENDBRANCH   8  21
BRANCH   1  30
HETATM   30  C2  UNL     1      50.429   7.738  52.592  1.00  0.00     0.250 C 
BRANCH  30  31
HETATM   31  C1  UNL     1      51.742   8.385  52.683  1.00  0.00     0.192 C 
HETATM   32  O1  UNL     1      51.993   9.236  53.549  1.00  0.00    -0.647 OA
HETATM   33  O2  UNL     1      52.740   8.036  51.771  1.00  0.00    -0.647 OA
ENDBRANCH  30  31
ENDBRANCH   1  30
TORSDOF 10
ENDMDL
MODEL 3
REMARK VINA RESULT: -8.873273016      2.670      3.648
REMARK  10 active torsions:
REMARK  status: ('A' for Active; 'I' for Inactive)
REMARK    1  A    between atoms: C1_2  and  C2_4 
REMARK    2  A    between atoms: C2_4  and  N1_5 
REMARK    3  A    between atoms: C3_6  and  O3_7 
REMARK    4  A    between atoms: C4_11  and  N3_12 
REMARK    5  A    between atoms: N3_12  and  C5_14 
REMARK    6  A    between atoms: C5_14  and  C6_15 
REMARK    7  A    between atoms: C6_15  and  C7_16 
REMARK    8  A    between atoms: C13_24  and  N5_25 
REMARK    9  A    between atoms: N5_25  and  C14_26 
REMARK   10  A    between atoms: C14_26  and  C15_27 
ROOT
HETATM    1  N1  UNL     1      49.986   7.240  54.312  1.00  0.00    -0.262 N 
HETATM    2  C3  UNL     1      50.831   6.565  55.122  1.00  0.00     0.241 A 
HETATM    3  N2  UNL     1      50.490   6.311  56.391  1.00  0.00    -0.155 N 
ATOM      4  H2  UNL     1      51.146   5.800  56.983  1.00  0.00     0.188 HD
HETATM    5  C4  UNL     1      49.317   6.705  56.914  1.00  0.00     0.684 A 
HETATM    6  N4  UNL     1      48.496   7.370  56.102  1.00  0.00    -0.148 N 
ATOM      7  H4  UNL     1      47.598   7.681  56.473  1.00  0.00     0.188 HD
HETATM    8  C13 UNL     1      48.791   7.658  54.798  1.00  0.00     0.279 A 
ENDROOT
BRANCH   5   9
HETATM    9  N3  UNL     1      48.980   6.446  58.156  1.00  0.00    -0.226 N 
ATOM     10  H3  UNL     1      48.602   7.167  58.770  1.00  0.00     0.177 HD
BRANCH   9  11
HETATM   11  C5  UNL     1      49.170   5.088  58.606  1.00  0.00     0.142 C 
BRANCH  11  12
HETATM   12  C6  UNL     1      47.898   4.328  58.182  1.00  0.00     0.058 C 
BRANCH  12  13
HETATM   13  C7  UNL     1      47.821   3.146  59.051  1.00  0.00    -0.057 A 
HETATM   14  C8  UNL     1      48.621   3.086  60.186  1.00  0.00     0.007 A 
HETATM   15  C9  UNL     1      48.525   1.968  60.981  1.00  0.00     0.001 A 
HETATM   16  C10 UNL     1      47.654   0.921  60.664  1.00  0.00     0.000 A 
HETATM   17  C11 UNL     1      46.859   0.978  59.536  1.00  0.00     0.001 A 
HETATM   18  C12 UNL     1      46.979   2.121  58.754  1.00  0.00     0.007 A 
ENDBRANCH  12  13
ENDBRANCH  11  12
ENDBRANCH   9  11
ENDBRANCH   5   9
BRANCH   2  19
HETATM   19  O3  UNL     1      52.069   6.141  54.596  1.00  0.00    -0.332 OA
ATOM     20  H3  UNL     1      52.859   6.580  54.890  1.00  0.00     0.221 HD
ENDBRANCH   2  19
BRANCH   8  21
HETATM   21  N5  UNL     1      48.003   8.263  54.143  1.00  0.00    -0.382 NA
BRANCH  21  22
HETATM   22  C14 UNL     1      47.167   9.141  53.570  1.00  0.00     0.198 C 
BRANCH  22  23
HETATM   23  C15 UNL     1      46.347   8.474  52.501  1.00  0.00    -0.004 A 
HETATM   24  C16 UNL     1      44.988   8.605  52.441  1.00  0.00     0.014 A 
HETATM   25  C17 UNL     1      44.238   7.989  51.446  1.00  0.00     0.004 A 
HETATM   26  C18 UNL     1      44.870   7.226  50.495  1.00  0.00     0.042 A 
HETATM   27  C19 UNL     1      46.227   7.084  50.539  1.00  0.00     0.117 A 
HETATM   28  F1  UNL     1      46.898   6.348  49.634  1.00  0.00    -0.206 F 
HETATM   29  C20 UNL     1      46.960   7.708  51.542  1.00  0.00     0.056 A 
ENDBRANCH  22  23
ENDBRANCH  21  22
ENDBRANCH   8  21
BRANCH   1  30
HETATM   30  C2  UNL     1      50.425   7.486  52.942  1.00  0.00     0.250 C 
BRANCH  30  31
HETATM   31  C1  UNL     1      51.696   8.211  52.853  1.00  0.00     0.192 C 
HETATM   32  O1  UNL     1      51.929   9.210  53.549  1.00  0.00    -0.647 OA
HETATM   33  O2  UNL     1      52.674   7.768  51.960  1.00  0.00    -0.647 OA
ENDBRANCH  30  31
ENDBRANCH   1  30
TORSDOF 10
ENDMDL
MODEL 4
REMARK VINA RESULT: -8.790443876      2.872      7.512
REMARK  10 active torsions:
REMARK  status: ('A' for Active; 'I' for Inactive)
REMARK    1  A    between atoms: C1_2  and  C2_4 
REMARK    2  A    between atoms: C2_4  and  N1_5 
REMARK    3  A    between atoms: C3_6  and  O3_7 
REMARK    4  A    between atoms: C4_11  and  N3_12 
REMARK    5  A    between atoms: N3_12  and  C5_14 
REMARK    6  A    between atoms: C5_14  and  C6_15 
REMARK    7  A    between atoms: C6_15  and  C7_16 
REMARK    8  A    between atoms: C13_24  and  N5_25 
REMARK    9  A    between atoms: N5_25  and  C14_26 
REMARK   10  A    between atoms: C14_26  and  C15_27 
ROOT
HETATM    1  N1  UNL     1      50.040   6.541  55.313  1.00  0.00    -0.262 N 
HETATM    2  C3  UNL     1      49.738   7.103  54.122  1.00  0.00     0.241 A 
HETATM    3  N2  UNL     1      48.658   7.883  53.999  1.00  0.00    -0.155 N 
ATOM      4  H2  UNL     1      48.451   8.295  53.089  1.00  0.00     0.188 HD
HETATM    5  C4  UNL     1      47.836   8.143  55.029  1.00  0.00     0.684 A 
HETATM    6  N4  UNL     1      48.148   7.581  56.197  1.00  0.00    -0.148 N 
ATOM      7  H4  UNL     1      47.541   7.761  56.997  1.00  0.00     0.188 HD
HETATM    8  C13 UNL     1      49.238   6.775  56.381  1.00  0.00     0.279 A 
ENDROOT
BRANCH   5   9
HETATM    9  N3  UNL     1      46.782   8.917  54.910  1.00  0.00    -0.226 N 
ATOM     10  H3  UNL     1      46.122   9.045  55.676  1.00  0.00     0.177 HD
BRANCH   9  11
HETATM   11  C5  UNL     1      46.608   9.576  53.638  1.00  0.00     0.142 C 
BRANCH  11  12
HETATM   12  C6  UNL     1      45.124   9.385  53.271  1.00  0.00     0.058 C 
BRANCH  12  13
HETATM   13  C7  UNL     1      45.101   8.455  52.134  1.00  0.00    -0.057 A 
HETATM   14  C8  UNL     1      43.880   7.982  51.670  1.00  0.00     0.007 A 
HETATM   15  C9  UNL     1      43.890   7.115  50.603  1.00  0.00     0.001 A 
HETATM   16  C10 UNL     1      45.087   6.717  49.998  1.00  0.00     0.000 A 
HETATM   17  C11 UNL     1      46.302   7.187  50.458  1.00  0.00     0.001 A 
HETATM   18  C12 UNL     1      46.257   8.061  51.538  1.00  0.00     0.007 A 
ENDBRANCH  12  13
ENDBRANCH  11  12
ENDBRANCH   9  11
ENDBRANCH   5   9
BRANCH   2  19
HETATM   19  O3  UNL     1      50.586   6.845  53.025  1.00  0.00    -0.332 OA
ATOM     20  H3  UNL     1      51.173   7.534  52.736  1.00  0.00     0.221 HD
ENDBRANCH   2  19
BRANCH   8  21
HETATM   21  N5  UNL     1      49.441   6.308  57.457  1.00  0.00    -0.382 NA
BRANCH  21  22
HETATM   22  C14 UNL     1      49.440   5.659  58.630  1.00  0.00     0.198 C 
BRANCH  22  23
HETATM   23  C15 UNL     1      48.984   4.238  58.450  1.00  0.00    -0.004 A 
HETATM   24  C16 UNL     1      49.768   3.294  57.846  1.00  0.00     0.014 A 
HETATM   25  C17 UNL     1      49.339   1.981  57.689  1.00  0.00     0.004 A 
HETATM   26  C18 UNL     1      48.099   1.613  58.147  1.00  0.00     0.042 A 
HETATM   27  C19 UNL     1      47.302   2.542  58.752  1.00  0.00     0.117 A 
HETATM   28  F1  UNL     1      46.078   2.237  59.220  1.00  0.00    -0.206 F 
HETATM   29  C20 UNL     1      47.748   3.850  58.901  1.00  0.00     0.056 A 
ENDBRANCH  22  23
ENDBRANCH  21  22
ENDBRANCH   8  21
BRANCH   1  30
HETATM   30  C2  UNL     1      51.230   5.698  55.374  1.00  0.00     0.250 C 
BRANCH  30  31
HETATM   31  C1  UNL     1      52.458   6.437  55.689  1.00  0.00     0.192 C 
HETATM   32  O1  UNL     1      52.847   6.592  56.855  1.00  0.00    -0.647 OA
HETATM   33  O2  UNL     1      53.211   6.983  54.647  1.00  0.00    -0.647 OA
ENDBRANCH  30  31
ENDBRANCH   1  30
TORSDOF 10
ENDMDL
MODEL 5
REMARK VINA RESULT: -8.764388822      3.012      7.737
REMARK  10 active torsions:
REMARK  status: ('A' for Active; 'I' for Inactive)
REMARK    1  A    between atoms: C1_2  and  C2_4 
REMARK    2  A    between atoms: C2_4  and  N1_5 
REMARK    3  A    between atoms: C3_6  and  O3_7 
REMARK    4  A    between atoms: C4_11  and  N3_12 
REMARK    5  A    between atoms: N3_12  and  C5_14 
REMARK    6  A    between atoms: C5_14  and  C6_15 
REMARK    7  A    between atoms: C6_15  and  C7_16 
REMARK    8  A    between atoms: C13_24  and  N5_25 
REMARK    9  A    between atoms: N5_25  and  C14_26 
REMARK   10  A    between atoms: C14_26  and  C15_27 
ROOT
HETATM    1  N1  UNL     1      50.501   6.274  55.540  1.00  0.00    -0.262 N 
HETATM    2  C3  UNL     1      50.239   6.782  54.316  1.00  0.00     0.241 A 
HETATM    3  N2  UNL     1      49.112   7.470  54.098  1.00  0.00    -0.155 N 
ATOM      4  H2  UNL     1      48.938   7.843  53.164  1.00  0.00     0.188 HD
HETATM    5  C4  UNL     1      48.203   7.688  55.062  1.00  0.00     0.684 A 
HETATM    6  N4  UNL     1      48.476   7.179  56.264  1.00  0.00    -0.148 N 
ATOM      7  H4  UNL     1      47.803   7.329  57.015  1.00  0.00     0.188 HD
HETATM    8  C13 UNL     1      49.610   6.468  56.544  1.00  0.00     0.279 A 
ENDROOT
BRANCH   5   9
HETATM    9  N3  UNL     1      47.103   8.372  54.850  1.00  0.00    -0.226 N 
ATOM     10  H3  UNL     1      46.301   8.304  55.475  1.00  0.00     0.177 HD
BRANCH   9  11
HETATM   11  C5  UNL     1      47.090   9.225  53.686  1.00  0.00     0.142 C 
BRANCH  11  12
HETATM   12  C6  UNL     1      45.609   9.346  53.277  1.00  0.00     0.058 C 
BRANCH  12  13
HETATM   13  C7  UNL     1      45.424   8.436  52.139  1.00  0.00    -0.057 A 
HETATM   14  C8  UNL     1      46.542   7.929  51.489  1.00  0.00     0.007 A 
HETATM   15  C9  UNL     1      46.338   7.077  50.428  1.00  0.00     0.001 A 
HETATM   16  C10 UNL     1      45.049   6.729  50.011  1.00  0.00     0.000 A 
HETATM   17  C11 UNL     1      43.937   7.233  50.656  1.00  0.00     0.001 A 
HETATM   18  C12 UNL     1      44.177   8.091  51.723  1.00  0.00     0.007 A 
ENDBRANCH  12  13
ENDBRANCH  11  12
ENDBRANCH   9  11
ENDBRANCH   5   9
BRANCH   2  19
HETATM   19  O3  UNL     1      51.179   6.568  53.286  1.00  0.00    -0.332 OA
ATOM     20  H3  UNL     1      51.320   7.261  52.651  1.00  0.00     0.221 HD
ENDBRANCH   2  19
BRANCH   8  21
HETATM   21  N5  UNL     1      49.773   6.043  57.644  1.00  0.00    -0.382 NA
BRANCH  21  22
HETATM   22  C14 UNL     1      49.708   5.637  58.920  1.00  0.00     0.198 C 
BRANCH  22  23
HETATM   23  C15 UNL     1      49.243   4.210  59.000  1.00  0.00    -0.004 A 
HETATM   24  C16 UNL     1      50.118   3.167  59.130  1.00  0.00     0.014 A 
HETATM   25  C17 UNL     1      49.679   1.851  59.208  1.00  0.00     0.004 A 
HETATM   26  C18 UNL     1      48.335   1.580  59.153  1.00  0.00     0.042 A 
HETATM   27  C19 UNL     1      47.445   2.608  59.023  1.00  0.00     0.117 A 
HETATM   28  F1  UNL     1      46.117   2.401  58.964  1.00  0.00    -0.206 F 
HETATM   29  C20 UNL     1      47.904   3.919  58.947  1.00  0.00     0.056 A 
ENDBRANCH  22  23
ENDBRANCH  21  22
ENDBRANCH   8  21
BRANCH   1  30
HETATM   30  C2  UNL     1      51.746   5.530  55.705  1.00  0.00     0.250 C 
BRANCH  30  31
HETATM   31  C1  UNL     1      51.675   4.150  55.214  1.00  0.00     0.192 C 
HETATM   32  O1  UNL     1      51.006   3.283  55.794  1.00  0.00    -0.647 OA
HETATM   33  O2  UNL     1      52.380   3.800  54.060  1.00  0.00    -0.647 OA
ENDBRANCH  30  31
ENDBRANCH   1  30
TORSDOF 10
ENDMDL
