MODEL 1
REMARK VINA RESULT: -7.324975920      0.000      0.000
REMARK  19 active torsions:
REMARK  status: ('A' for Active; 'I' for Inactive)
REMARK    1  A    between atoms: C2_2  and  N1_3 
REMARK    2  A    between atoms: C2_2  and  C11_23 
REMARK    3  A    between atoms: N1_3  and  C3_5 
REMARK    4  A    between atoms: C3_5  and  O1_6 
REMARK    5  A    between atoms: C3_5  and  C4_8 
REMARK    6  A    between atoms: C5_11  and  C6_12 
REMARK    7  A    between atoms: C6_12  and  C7_13 
REMARK    8  A    between atoms: C8_16  and  O4_17 
REMARK    9  A    between atoms: C10_20  and  O5_21 
REMARK       I    between atoms: C11_23  and  N3_25 
REMARK   10  A    between atoms: N3_25  and  C12_27 
REMARK   11  A    between atoms: C12_27  and  O7_28 
REMARK   12  A    between atoms: C12_27  and  C13_30 
REMARK   13  A    between atoms: C13_30  and  N4_31 
REMARK   14  A    between atoms: C13_30  and  C19_40 
REMARK       I    between atoms: N4_31  and  C14_33 
REMARK   15  A    between atoms: C14_33  and  O9_35 
REMARK   16  A    between atoms: O9_35  and  C15_36 
REMARK   17  A    between atoms: C19_40  and  C22_43 
REMARK   18  A    between atoms: C23_44  and  C24_45 
REMARK   19  A    between atoms: C31_52  and  O10_53 
ROOT
HETATM    1  C12 UNL     1       1.768  48.090 -52.074  1.00  0.00     0.142 C 
ENDROOT
BRANCH   1   2
HETATM    2  N3  UNL     1       2.080  49.417 -52.294  1.00  0.00    -0.308 N 
HETATM    3  C11 UNL     1       2.173  50.514 -51.450  1.00  0.00     0.245 C 
HETATM    4  O6  UNL     1       2.624  51.613 -51.928  1.00  0.00    -0.271 OA
ATOM      5  H3  UNL     1       2.282  49.633 -53.270  1.00  0.00     0.170 HD
BRANCH   3   6
HETATM    6  C2  UNL     1       1.779  50.540 -49.998  1.00  0.00     0.167 C 
HETATM    7  C1  UNL     1       0.998  51.816 -49.742  1.00  0.00     0.042 C 
BRANCH   6   8
HETATM    8  N1  UNL     1       2.876  50.384 -49.173  1.00  0.00    -0.383 N 
ATOM      9  H1  UNL     1       3.539  49.705 -49.547  1.00  0.00     0.156 HD
BRANCH   8  10
HETATM   10  C3  UNL     1       3.291  50.898 -48.008  1.00  0.00     0.239 C 
BRANCH  10  11
HETATM   11  O1  UNL     1       4.421  50.041 -47.521  1.00  0.00    -0.375 OA
ATOM     12  H1  UNL     1       5.008  50.603 -47.028  1.00  0.00     0.212 HD
ENDBRANCH  10  11
BRANCH  10  13
HETATM   13  C4  UNL     1       3.861  52.250 -47.857  1.00  0.00     0.154 C 
HETATM   14  N2  UNL     1       5.227  52.366 -47.633  1.00  0.00    -0.404 N 
HETATM   15  C5  UNL     1       5.771  53.700 -47.595  1.00  0.00     0.116 C 
ATOM     16  H2  UNL     1       5.818  51.544 -47.500  1.00  0.00     0.154 HD
HETATM   17  C8  UNL     1       4.960  54.556 -46.708  1.00  0.00     0.143 C 
HETATM   18  C9  UNL     1       3.842  53.866 -45.954  1.00  0.00     0.067 C 
HETATM   19  C10 UNL     1       2.994  53.018 -46.850  1.00  0.00     0.147 C 
BRANCH  15  20
HETATM   20  C6  UNL     1       5.999  54.253 -48.989  1.00  0.00     0.140 C 
BRANCH  20  21
HETATM   21  C7  UNL     1       6.900  53.435 -49.801  1.00  0.00     0.174 C 
HETATM   22  O2  UNL     1       8.080  53.839 -49.944  1.00  0.00    -0.648 OA
HETATM   23  O3  UNL     1       6.557  52.253 -50.423  1.00  0.00    -0.648 OA
ENDBRANCH  20  21
ENDBRANCH  15  20
BRANCH  17  24
HETATM   24  O4  UNL     1       5.744  55.161 -45.741  1.00  0.00    -0.393 OA
ATOM     25  H4  UNL     1       5.437  54.952 -44.867  1.00  0.00     0.210 HD
ENDBRANCH  17  24
BRANCH  19  26
HETATM   26  O5  UNL     1       2.283  52.112 -46.075  1.00  0.00    -0.393 OA
ATOM     27  H5  UNL     1       1.355  52.299 -46.147  1.00  0.00     0.210 HD
ENDBRANCH  19  26
ENDBRANCH  10  13
ENDBRANCH   8  10
ENDBRANCH   6   8
ENDBRANCH   3   6
ENDBRANCH   1   2
BRANCH   1  28
HETATM   28  O7  UNL     1       0.511  47.762 -52.260  1.00  0.00    -0.348 OA
ATOM     29  H7  UNL     1       0.289  46.856 -52.077  1.00  0.00     0.219 HD
ENDBRANCH   1  28
BRANCH   1  30
HETATM   30  C13 UNL     1       2.631  46.957 -51.668  1.00  0.00     0.173 C 
BRANCH  30  31
HETATM   31  N4  UNL     1       2.051  46.423 -50.458  1.00  0.00    -0.324 N 
HETATM   32  C14 UNL     1       2.279  46.711 -49.131  1.00  0.00     0.362 C 
HETATM   33  O8  UNL     1       3.115  47.523 -48.712  1.00  0.00    -0.238 OA
ATOM     34  H4  UNL     1       1.346  45.703 -50.614  1.00  0.00     0.165 HD
BRANCH  32  35
HETATM   35  O9  UNL     1       1.524  46.053 -48.134  1.00  0.00    -0.294 OA
BRANCH  35  36
HETATM   36  C15 UNL     1       1.648  44.657 -48.014  1.00  0.00     0.061 C 
HETATM   37  C16 UNL     1       0.935  44.212 -46.756  1.00  0.00     0.046 C 
HETATM   38  C17 UNL     1       3.032  44.131 -48.066  1.00  0.00     0.046 C 
HETATM   39  C18 UNL     1       0.808  44.003 -49.152  1.00  0.00     0.046 C 
ENDBRANCH  35  36
ENDBRANCH  32  35
ENDBRANCH  30  31
BRANCH  30  40
HETATM   40  C19 UNL     1       2.956  45.976 -52.733  1.00  0.00    -0.002 C 
HETATM   41  C20 UNL     1       2.879  46.475 -54.134  1.00  0.00     0.021 C 
HETATM   42  C21 UNL     1       2.139  44.685 -52.627  1.00  0.00     0.021 C 
BRANCH  40  43
HETATM   43  C22 UNL     1       4.378  45.479 -52.496  1.00  0.00    -0.019 C 
HETATM   44  C23 UNL     1       4.613  44.488 -51.676  1.00  0.00    -0.023 C 
BRANCH  44  45
HETATM   45  C24 UNL     1       5.943  43.932 -51.389  1.00  0.00     0.036 C 
HETATM   46  C25 UNL     1       7.004  44.840 -51.953  1.00  0.00     0.011 C 
HETATM   47  C26 UNL     1       8.052  44.017 -52.716  1.00  0.00     0.001 C 
HETATM   48  C27 UNL     1       9.372  44.130 -52.040  1.00  0.00     0.000 C 
HETATM   49  C28 UNL     1       9.657  43.154 -50.955  1.00  0.00     0.000 C 
HETATM   50  C29 UNL     1       8.440  42.541 -50.304  1.00  0.00     0.002 C 
HETATM   51  C30 UNL     1       7.603  43.530 -49.529  1.00  0.00     0.032 C 
HETATM   52  C31 UNL     1       6.148  43.532 -49.965  1.00  0.00     0.126 C 
BRANCH  52  53
HETATM   53  O10 UNL     1       5.566  42.318 -49.633  1.00  0.00    -0.395 OA
ATOM     54  H10 UNL     1       4.912  42.379 -48.946  1.00  0.00     0.210 HD
ENDBRANCH  52  53
ENDBRANCH  44  45
ENDBRANCH  40  43
ENDBRANCH  30  40
ENDBRANCH   1  30
TORSDOF 19
ENDMDL
MODEL 2
REMARK VINA RESULT: -7.012769293      1.991      3.550
REMARK  19 active torsions:
REMARK  status: ('A' for Active; 'I' for Inactive)
REMARK    1  A    between atoms: C2_2  and  N1_3 
REMARK    2  A    between atoms: C2_2  and  C11_23 
REMARK    3  A    between atoms: N1_3  and  C3_5 
REMARK    4  A    between atoms: C3_5  and  O1_6 
REMARK    5  A    between atoms: C3_5  and  C4_8 
REMARK    6  A    between atoms: C5_11  and  C6_12 
REMARK    7  A    between atoms: C6_12  and  C7_13 
REMARK    8  A    between atoms: C8_16  and  O4_17 
REMARK    9  A    between atoms: C10_20  and  O5_21 
REMARK       I    between atoms: C11_23  and  N3_25 
REMARK   10  A    between atoms: N3_25  and  C12_27 
REMARK   11  A    between atoms: C12_27  and  O7_28 
REMARK   12  A    between atoms: C12_27  and  C13_30 
REMARK   13  A    between atoms: C13_30  and  N4_31 
REMARK   14  A    between atoms: C13_30  and  C19_40 
REMARK       I    between atoms: N4_31  and  C14_33 
REMARK   15  A    between atoms: C14_33  and  O9_35 
REMARK   16  A    between atoms: O9_35  and  C15_36 
REMARK   17  A    between atoms: C19_40  and  C22_43 
REMARK   18  A    between atoms: C23_44  and  C24_45 
REMARK   19  A    between atoms: C31_52  and  O10_53 
ROOT
HETATM    1  C12 UNL     1       1.880  48.264 -51.857  1.00  0.00     0.142 C 
ENDROOT
BRANCH   1   2
HETATM    2  N3  UNL     1       1.799  49.608 -52.165  1.00  0.00    -0.308 N 
HETATM    3  C11 UNL     1       1.683  50.746 -51.381  1.00  0.00     0.245 C 
HETATM    4  O6  UNL     1       1.768  51.889 -51.952  1.00  0.00    -0.271 OA
ATOM      5  H3  UNL     1       1.830  49.802 -53.166  1.00  0.00     0.170 HD
BRANCH   3   6
HETATM    6  C2  UNL     1       1.454  50.770 -49.894  1.00  0.00     0.167 C 
HETATM    7  C1  UNL     1       0.748  52.066 -49.544  1.00  0.00     0.042 C 
BRANCH   6   8
HETATM    8  N1  UNL     1       2.630  50.571 -49.198  1.00  0.00    -0.383 N 
ATOM      9  H1  UNL     1       3.246  49.911 -49.673  1.00  0.00     0.156 HD
BRANCH   8  10
HETATM   10  C3  UNL     1       3.168  51.025 -48.058  1.00  0.00     0.239 C 
BRANCH  10  11
HETATM   11  O1  UNL     1       4.300  50.107 -47.704  1.00  0.00    -0.375 OA
ATOM     12  H1  UNL     1       5.061  50.651 -47.537  1.00  0.00     0.212 HD
ENDBRANCH  10  11
BRANCH  10  13
HETATM   13  C4  UNL     1       3.805  52.347 -47.914  1.00  0.00     0.154 C 
HETATM   14  N2  UNL     1       5.185  52.399 -47.761  1.00  0.00    -0.404 N 
HETATM   15  C5  UNL     1       5.789  53.707 -47.728  1.00  0.00     0.116 C 
ATOM     16  H2  UNL     1       5.745  51.550 -47.675  1.00  0.00     0.154 HD
HETATM   17  C8  UNL     1       5.065  54.580 -46.785  1.00  0.00     0.143 C 
HETATM   18  C9  UNL     1       3.958  53.925 -45.984  1.00  0.00     0.067 C 
HETATM   19  C10 UNL     1       3.028  53.132 -46.849  1.00  0.00     0.147 C 
BRANCH  15  20
HETATM   20  C6  UNL     1       5.968  54.277 -49.123  1.00  0.00     0.140 C 
BRANCH  20  21
HETATM   21  C7  UNL     1       6.870  53.491 -49.963  1.00  0.00     0.174 C 
HETATM   22  O2  UNL     1       6.416  52.438 -50.476  1.00  0.00    -0.648 OA
HETATM   23  O3  UNL     1       8.183  53.812 -50.238  1.00  0.00    -0.648 OA
ENDBRANCH  20  21
ENDBRANCH  15  20
BRANCH  17  24
HETATM   24  O4  UNL     1       5.925  55.131 -45.850  1.00  0.00    -0.393 OA
ATOM     25  H4  UNL     1       6.658  55.564 -46.270  1.00  0.00     0.210 HD
ENDBRANCH  17  24
BRANCH  19  26
HETATM   26  O5  UNL     1       2.319  52.242 -46.053  1.00  0.00    -0.393 OA
ATOM     27  H5  UNL     1       1.695  52.725 -45.523  1.00  0.00     0.210 HD
ENDBRANCH  19  26
ENDBRANCH  10  13
ENDBRANCH   8  10
ENDBRANCH   6   8
ENDBRANCH   3   6
ENDBRANCH   1   2
BRANCH   1  28
HETATM   28  O7  UNL     1       0.892  47.519 -52.293  1.00  0.00    -0.348 OA
ATOM     29  H7  UNL     1       0.262  47.956 -52.853  1.00  0.00     0.219 HD
ENDBRANCH   1  28
BRANCH   1  30
HETATM   30  C13 UNL     1       2.919  47.512 -51.117  1.00  0.00     0.173 C 
BRANCH  30  31
HETATM   31  N4  UNL     1       2.224  46.773 -50.089  1.00  0.00    -0.324 N 
HETATM   32  C14 UNL     1       2.246  46.876 -48.716  1.00  0.00     0.362 C 
HETATM   33  O8  UNL     1       2.950  47.665 -48.072  1.00  0.00    -0.238 OA
ATOM     34  H4  UNL     1       1.606  46.043 -50.443  1.00  0.00     0.165 HD
BRANCH  32  35
HETATM   35  O9  UNL     1       1.417  46.035 -47.939  1.00  0.00    -0.294 OA
BRANCH  35  36
HETATM   36  C15 UNL     1       1.638  44.647 -47.989  1.00  0.00     0.061 C 
HETATM   37  C16 UNL     1       0.919  43.998 -46.826  1.00  0.00     0.046 C 
HETATM   38  C17 UNL     1       3.057  44.227 -48.049  1.00  0.00     0.046 C 
HETATM   39  C18 UNL     1       0.885  44.088 -49.233  1.00  0.00     0.046 C 
ENDBRANCH  35  36
ENDBRANCH  32  35
ENDBRANCH  30  31
BRANCH  30  40
HETATM   40  C19 UNL     1       3.878  46.743 -51.947  1.00  0.00    -0.002 C 
HETATM   41  C20 UNL     1       4.917  45.971 -51.209  1.00  0.00     0.021 C 
HETATM   42  C21 UNL     1       4.569  47.599 -53.013  1.00  0.00     0.021 C 
BRANCH  40  43
HETATM   43  C22 UNL     1       3.082  45.755 -52.792  1.00  0.00    -0.019 C 
HETATM   44  C23 UNL     1       3.584  45.259 -53.894  1.00  0.00    -0.023 C 
BRANCH  44  45
HETATM   45  C24 UNL     1       2.902  44.296 -54.769  1.00  0.00     0.036 C 
HETATM   46  C25 UNL     1       3.699  43.020 -54.836  1.00  0.00     0.011 C 
HETATM   47  C26 UNL     1       3.832  42.555 -56.294  1.00  0.00     0.001 C 
HETATM   48  C27 UNL     1       3.138  41.253 -56.474  1.00  0.00     0.000 C 
HETATM   49  C28 UNL     1       1.691  41.304 -56.811  1.00  0.00     0.000 C 
HETATM   50  C29 UNL     1       0.980  42.575 -56.410  1.00  0.00     0.002 C 
HETATM   51  C30 UNL     1       0.891  42.776 -54.917  1.00  0.00     0.032 C 
HETATM   52  C31 UNL     1       1.450  44.117 -54.473  1.00  0.00     0.126 C 
BRANCH  52  53
HETATM   53  O10 UNL     1       0.646  45.135 -54.964  1.00  0.00    -0.395 OA
ATOM     54  H10 UNL     1       0.781  45.322 -55.886  1.00  0.00     0.210 HD
ENDBRANCH  52  53
ENDBRANCH  44  45
ENDBRANCH  40  43
ENDBRANCH  30  40
ENDBRANCH   1  30
TORSDOF 19
ENDMDL
MODEL 3
REMARK VINA RESULT: -6.937351599      3.179      9.186
REMARK  19 active torsions:
REMARK  status: ('A' for Active; 'I' for Inactive)
REMARK    1  A    between atoms: C2_2  and  N1_3 
REMARK    2  A    between atoms: C2_2  and  C11_23 
REMARK    3  A    between atoms: N1_3  and  C3_5 
REMARK    4  A    between atoms: C3_5  and  O1_6 
REMARK    5  A    between atoms: C3_5  and  C4_8 
REMARK    6  A    between atoms: C5_11  and  C6_12 
REMARK    7  A    between atoms: C6_12  and  C7_13 
REMARK    8  A    between atoms: C8_16  and  O4_17 
REMARK    9  A    between atoms: C10_20  and  O5_21 
REMARK       I    between atoms: C11_23  and  N3_25 
REMARK   10  A    between atoms: N3_25  and  C12_27 
REMARK   11  A    between atoms: C12_27  and  O7_28 
REMARK   12  A    between atoms: C12_27  and  C13_30 
REMARK   13  A    between atoms: C13_30  and  N4_31 
REMARK   14  A    between atoms: C13_30  and  C19_40 
REMARK       I    between atoms: N4_31  and  C14_33 
REMARK   15  A    between atoms: C14_33  and  O9_35 
REMARK   16  A    between atoms: O9_35  and  C15_36 
REMARK   17  A    between atoms: C19_40  and  C22_43 
REMARK   18  A    between atoms: C23_44  and  C24_45 
REMARK   19  A    between atoms: C31_52  and  O10_53 
ROOT
HETATM    1  C12 UNL     1       2.485  47.821 -50.589  1.00  0.00     0.142 C 
ENDROOT
BRANCH   1   2
HETATM    2  N3  UNL     1       1.784  46.645 -50.775  1.00  0.00    -0.308 N 
HETATM    3  C11 UNL     1       1.684  45.769 -51.846  1.00  0.00     0.245 C 
HETATM    4  O6  UNL     1       1.051  44.669 -51.674  1.00  0.00    -0.271 OA
ATOM      5  H3  UNL     1       1.231  46.366 -49.965  1.00  0.00     0.170 HD
BRANCH   3   6
HETATM    6  C2  UNL     1       2.251  45.994 -53.221  1.00  0.00     0.167 C 
HETATM    7  C1  UNL     1       1.122  45.868 -54.226  1.00  0.00     0.042 C 
BRANCH   6   8
HETATM    8  N1  UNL     1       3.317  45.153 -53.473  1.00  0.00    -0.383 N 
ATOM      9  H1  UNL     1       3.057  44.384 -54.091  1.00  0.00     0.156 HD
BRANCH   8  10
HETATM   10  C3  UNL     1       4.605  45.090 -53.111  1.00  0.00     0.239 C 
BRANCH  10  11
HETATM   11  O1  UNL     1       5.052  46.489 -52.811  1.00  0.00    -0.375 OA
ATOM     12  H1  UNL     1       5.097  46.954 -53.639  1.00  0.00     0.212 HD
ENDBRANCH  10  11
BRANCH  10  13
HETATM   13  C4  UNL     1       5.097  44.364 -51.925  1.00  0.00     0.154 C 
HETATM   14  N2  UNL     1       5.069  45.014 -50.698  1.00  0.00    -0.404 N 
HETATM   15  C5  UNL     1       5.456  44.244 -49.544  1.00  0.00     0.116 C 
ATOM     16  H2  UNL     1       4.788  45.992 -50.618  1.00  0.00     0.154 HD
HETATM   17  C8  UNL     1       6.727  43.541 -49.802  1.00  0.00     0.143 C 
HETATM   18  C9  UNL     1       7.404  43.848 -51.122  1.00  0.00     0.067 C 
HETATM   19  C10 UNL     1       6.459  43.751 -52.278  1.00  0.00     0.147 C 
BRANCH  15  20
HETATM   20  C6  UNL     1       4.323  43.363 -49.051  1.00  0.00     0.140 C 
BRANCH  20  21
HETATM   21  C7  UNL     1       3.228  44.111 -48.434  1.00  0.00     0.174 C 
HETATM   22  O2  UNL     1       2.200  43.470 -48.105  1.00  0.00    -0.648 OA
HETATM   23  O3  UNL     1       3.234  45.468 -48.185  1.00  0.00    -0.648 OA
ENDBRANCH  20  21
ENDBRANCH  15  20
BRANCH  17  24
HETATM   24  O4  UNL     1       7.666  43.827 -48.825  1.00  0.00    -0.393 OA
ATOM     25  H4  UNL     1       8.539  43.576 -49.103  1.00  0.00     0.210 HD
ENDBRANCH  17  24
BRANCH  19  26
HETATM   26  O5  UNL     1       6.998  44.431 -53.362  1.00  0.00    -0.393 OA
ATOM     27  H5  UNL     1       7.713  43.921 -53.726  1.00  0.00     0.210 HD
ENDBRANCH  19  26
ENDBRANCH  10  13
ENDBRANCH   8  10
ENDBRANCH   6   8
ENDBRANCH   3   6
ENDBRANCH   1   2
BRANCH   1  28
HETATM   28  O7  UNL     1       3.762  47.687 -50.324  1.00  0.00    -0.348 OA
ATOM     29  H7  UNL     1       3.972  47.173 -49.553  1.00  0.00     0.219 HD
ENDBRANCH   1  28
BRANCH   1  30
HETATM   30  C13 UNL     1       2.028  49.228 -50.654  1.00  0.00     0.173 C 
BRANCH  30  31
HETATM   31  N4  UNL     1       2.799  49.947 -49.666  1.00  0.00    -0.324 N 
HETATM   32  C14 UNL     1       2.426  50.591 -48.507  1.00  0.00     0.362 C 
HETATM   33  O8  UNL     1       1.263  50.702 -48.096  1.00  0.00    -0.238 OA
ATOM     34  H4  UNL     1       3.799  49.984 -49.861  1.00  0.00     0.165 HD
BRANCH  32  35
HETATM   35  O9  UNL     1       3.414  51.187 -47.692  1.00  0.00    -0.294 OA
BRANCH  35  36
HETATM   36  C15 UNL     1       3.608  52.577 -47.784  1.00  0.00     0.061 C 
HETATM   37  C16 UNL     1       2.937  53.242 -46.602  1.00  0.00     0.046 C 
HETATM   38  C17 UNL     1       3.190  53.197 -49.063  1.00  0.00     0.046 C 
HETATM   39  C18 UNL     1       5.121  52.865 -47.546  1.00  0.00     0.046 C 
ENDBRANCH  35  36
ENDBRANCH  32  35
ENDBRANCH  30  31
BRANCH  30  40
HETATM   40  C19 UNL     1       1.969  49.829 -52.009  1.00  0.00    -0.002 C 
HETATM   41  C20 UNL     1       2.927  49.285 -53.012  1.00  0.00     0.021 C 
HETATM   42  C21 UNL     1       2.090  51.356 -51.994  1.00  0.00     0.021 C 
BRANCH  40  43
HETATM   43  C22 UNL     1       0.561  49.622 -52.554  1.00  0.00    -0.019 C 
HETATM   44  C23 UNL     1      -0.030  50.554 -53.257  1.00  0.00    -0.023 C 
BRANCH  44  45
HETATM   45  C24 UNL     1      -1.377  50.447 -53.833  1.00  0.00     0.036 C 
HETATM   46  C25 UNL     1      -1.393  49.369 -54.885  1.00  0.00     0.011 C 
HETATM   47  C26 UNL     1      -2.105  49.875 -56.148  1.00  0.00     0.001 C 
HETATM   48  C27 UNL     1      -3.341  49.083 -56.383  1.00  0.00     0.000 C 
HETATM   49  C28 UNL     1      -4.581  49.557 -55.712  1.00  0.00     0.000 C 
HETATM   50  C29 UNL     1      -4.363  50.413 -54.487  1.00  0.00     0.002 C 
HETATM   51  C30 UNL     1      -3.729  49.674 -53.335  1.00  0.00     0.032 C 
HETATM   52  C31 UNL     1      -2.472  50.358 -52.822  1.00  0.00     0.126 C 
BRANCH  52  53
HETATM   53  O10 UNL     1      -2.811  51.575 -52.251  1.00  0.00    -0.395 OA
ATOM     54  H10 UNL     1      -3.663  51.579 -51.830  1.00  0.00     0.210 HD
ENDBRANCH  52  53
ENDBRANCH  44  45
ENDBRANCH  40  43
ENDBRANCH  30  40
ENDBRANCH   1  30
TORSDOF 19
ENDMDL
MODEL 4
REMARK VINA RESULT: -6.923976891      1.011      2.138
REMARK  19 active torsions:
REMARK  status: ('A' for Active; 'I' for Inactive)
REMARK    1  A    between atoms: C2_2  and  N1_3 
REMARK    2  A    between atoms: C2_2  and  C11_23 
REMARK    3  A    between atoms: N1_3  and  C3_5 
REMARK    4  A    between atoms: C3_5  and  O1_6 
REMARK    5  A    between atoms: C3_5  and  C4_8 
REMARK    6  A    between atoms: C5_11  and  C6_12 
REMARK    7  A    between atoms: C6_12  and  C7_13 
REMARK    8  A    between atoms: C8_16  and  O4_17 
REMARK    9  A    between atoms: C10_20  and  O5_21 
REMARK       I    between atoms: C11_23  and  N3_25 
REMARK   10  A    between atoms: N3_25  and  C12_27 
REMARK   11  A    between atoms: C12_27  and  O7_28 
REMARK   12  A    between atoms: C12_27  and  C13_30 
REMARK   13  A    between atoms: C13_30  and  N4_31 
REMARK   14  A    between atoms: C13_30  and  C19_40 
REMARK       I    between atoms: N4_31  and  C14_33 
REMARK   15  A    between atoms: C14_33  and  O9_35 
REMARK   16  A    between atoms: O9_35  and  C15_36 
REMARK   17  A    between atoms: C19_40  and  C22_43 
REMARK   18  A    between atoms: C23_44  and  C24_45 
REMARK   19  A    between atoms: C31_52  and  O10_53 
ROOT
HETATM    1  C12 UNL     1       1.688  48.498 -51.770  1.00  0.00     0.142 C 
ENDROOT
BRANCH   1   2
HETATM    2  N3  UNL     1       1.870  49.866 -51.848  1.00  0.00    -0.308 N 
HETATM    3  C11 UNL     1       1.855  50.872 -50.893  1.00  0.00     0.245 C 
HETATM    4  O6  UNL     1       2.196  52.054 -51.250  1.00  0.00    -0.271 OA
ATOM      5  H3  UNL     1       2.050  50.201 -52.794  1.00  0.00     0.170 HD
BRANCH   3   6
HETATM    6  C2  UNL     1       1.460  50.709 -49.450  1.00  0.00     0.167 C 
HETATM    7  C1  UNL     1       0.856  52.016 -48.974  1.00  0.00     0.042 C 
BRANCH   6   8
HETATM    8  N1  UNL     1       2.522  50.273 -48.682  1.00  0.00    -0.383 N 
ATOM      9  H1  UNL     1       2.593  49.256 -48.674  1.00  0.00     0.156 HD
BRANCH   8  10
HETATM   10  C3  UNL     1       3.481  50.847 -47.944  1.00  0.00     0.239 C 
BRANCH  10  11
HETATM   11  O1  UNL     1       4.291  49.744 -47.332  1.00  0.00    -0.375 OA
ATOM     12  H1  UNL     1       5.021  50.149 -46.879  1.00  0.00     0.212 HD
ENDBRANCH  10  11
BRANCH  10  13
HETATM   13  C4  UNL     1       4.538  51.717 -48.494  1.00  0.00     0.154 C 
HETATM   14  N2  UNL     1       4.170  52.957 -49.001  1.00  0.00    -0.404 N 
HETATM   15  C5  UNL     1       5.235  53.826 -49.433  1.00  0.00     0.116 C 
ATOM     16  H2  UNL     1       3.192  53.239 -49.066  1.00  0.00     0.154 HD
HETATM   17  C8  UNL     1       6.170  53.092 -50.307  1.00  0.00     0.143 C 
HETATM   18  C9  UNL     1       5.779  51.672 -50.659  1.00  0.00     0.067 C 
HETATM   19  C10 UNL     1       5.391  50.876 -49.452  1.00  0.00     0.147 C 
BRANCH  15  20
HETATM   20  C6  UNL     1       5.880  54.547 -48.263  1.00  0.00     0.140 C 
BRANCH  20  21
HETATM   21  C7  UNL     1       4.966  54.782 -47.147  1.00  0.00     0.174 C 
HETATM   22  O2  UNL     1       5.385  54.530 -45.990  1.00  0.00    -0.648 OA
HETATM   23  O3  UNL     1       3.676  55.258 -47.262  1.00  0.00    -0.648 OA
ENDBRANCH  20  21
ENDBRANCH  15  20
BRANCH  17  24
HETATM   24  O4  UNL     1       6.341  53.743 -51.517  1.00  0.00    -0.393 OA
ATOM     25  H4  UNL     1       5.627  53.554 -52.114  1.00  0.00     0.210 HD
ENDBRANCH  17  24
BRANCH  19  26
HETATM   26  O5  UNL     1       4.662  49.766 -49.857  1.00  0.00    -0.393 OA
ATOM     27  H5  UNL     1       4.927  49.522 -50.737  1.00  0.00     0.210 HD
ENDBRANCH  19  26
ENDBRANCH  10  13
ENDBRANCH   8  10
ENDBRANCH   6   8
ENDBRANCH   3   6
ENDBRANCH   1   2
BRANCH   1  28
HETATM   28  O7  UNL     1       0.507  48.059 -52.134  1.00  0.00    -0.348 OA
ATOM     29  H7  UNL     1       0.502  47.438 -52.853  1.00  0.00     0.219 HD
ENDBRANCH   1  28
BRANCH   1  30
HETATM   30  C13 UNL     1       2.624  47.431 -51.348  1.00  0.00     0.173 C 
BRANCH  30  31
HETATM   31  N4  UNL     1       1.984  46.747 -50.248  1.00  0.00    -0.324 N 
HETATM   32  C14 UNL     1       2.187  46.816 -48.888  1.00  0.00     0.362 C 
HETATM   33  O8  UNL     1       3.048  47.510 -48.330  1.00  0.00    -0.238 OA
ATOM     34  H4  UNL     1       1.251  46.096 -50.529  1.00  0.00     0.165 HD
BRANCH  32  35
HETATM   35  O9  UNL     1       1.374  46.052 -48.021  1.00  0.00    -0.294 OA
BRANCH  35  36
HETATM   36  C15 UNL     1       1.577  44.662 -47.966  1.00  0.00     0.061 C 
HETATM   37  C16 UNL     1       0.897  44.119 -46.728  1.00  0.00     0.046 C 
HETATM   38  C17 UNL     1       2.987  44.217 -48.048  1.00  0.00     0.046 C 
HETATM   39  C18 UNL     1       0.768  44.015 -49.131  1.00  0.00     0.046 C 
ENDBRANCH  35  36
ENDBRANCH  32  35
ENDBRANCH  30  31
BRANCH  30  40
HETATM   40  C19 UNL     1       3.161  46.574 -52.434  1.00  0.00    -0.002 C 
HETATM   41  C20 UNL     1       3.415  47.246 -53.738  1.00  0.00     0.021 C 
HETATM   42  C21 UNL     1       2.314  45.323 -52.684  1.00  0.00     0.021 C 
BRANCH  40  43
HETATM   43  C22 UNL     1       4.481  45.980 -51.955  1.00  0.00    -0.019 C 
HETATM   44  C23 UNL     1       4.736  44.706 -52.106  1.00  0.00    -0.023 C 
BRANCH  44  45
HETATM   45  C24 UNL     1       5.979  44.042 -51.688  1.00  0.00     0.036 C 
HETATM   46  C25 UNL     1       7.164  44.851 -52.146  1.00  0.00     0.011 C 
HETATM   47  C26 UNL     1       8.208  43.934 -52.800  1.00  0.00     0.001 C 
HETATM   48  C27 UNL     1       9.459  43.941 -51.997  1.00  0.00     0.000 C 
HETATM   49  C28 UNL     1       9.552  42.956 -50.888  1.00  0.00     0.000 C 
HETATM   50  C29 UNL     1       8.229  42.455 -50.359  1.00  0.00     0.002 C 
HETATM   51  C30 UNL     1       7.408  43.519 -49.673  1.00  0.00     0.032 C 
HETATM   52  C31 UNL     1       6.008  43.641 -50.251  1.00  0.00     0.126 C 
BRANCH  52  53
HETATM   53  O10 UNL     1       5.294  42.484 -49.975  1.00  0.00    -0.395 OA
ATOM     54  H10 UNL     1       5.197  42.303 -49.048  1.00  0.00     0.210 HD
ENDBRANCH  52  53
ENDBRANCH  44  45
ENDBRANCH  40  43
ENDBRANCH  30  40
ENDBRANCH   1  30
TORSDOF 19
ENDMDL
MODEL 5
REMARK VINA RESULT: -6.912552303      2.570      9.588
REMARK  19 active torsions:
REMARK  status: ('A' for Active; 'I' for Inactive)
REMARK    1  A    between atoms: C2_2  and  N1_3 
REMARK    2  A    between atoms: C2_2  and  C11_23 
REMARK    3  A    between atoms: N1_3  and  C3_5 
REMARK    4  A    between atoms: C3_5  and  O1_6 
REMARK    5  A    between atoms: C3_5  and  C4_8 
REMARK    6  A    between atoms: C5_11  and  C6_12 
REMARK    7  A    between atoms: C6_12  and  C7_13 
REMARK    8  A    between atoms: C8_16  and  O4_17 
REMARK    9  A    between atoms: C10_20  and  O5_21 
REMARK       I    between atoms: C11_23  and  N3_25 
REMARK   10  A    between atoms: N3_25  and  C12_27 
REMARK   11  A    between atoms: C12_27  and  O7_28 
REMARK   12  A    between atoms: C12_27  and  C13_30 
REMARK   13  A    between atoms: C13_30  and  N4_31 
REMARK   14  A    between atoms: C13_30  and  C19_40 
REMARK       I    between atoms: N4_31  and  C14_33 
REMARK   15  A    between atoms: C14_33  and  O9_35 
REMARK   16  A    between atoms: O9_35  and  C15_36 
REMARK   17  A    between atoms: C19_40  and  C22_43 
REMARK   18  A    between atoms: C23_44  and  C24_45 
REMARK   19  A    between atoms: C31_52  and  O10_53 
ROOT
HETATM    1  C12 UNL     1       1.823  50.987 -50.197  1.00  0.00     0.142 C 
ENDROOT
BRANCH   1   2
HETATM    2  N3  UNL     1       0.871  50.701 -51.156  1.00  0.00    -0.308 N 
HETATM    3  C11 UNL     1       0.685  49.617 -52.002  1.00  0.00     0.245 C 
HETATM    4  O6  UNL     1      -0.386  49.570 -52.703  1.00  0.00    -0.271 OA
ATOM      5  H3  UNL     1       0.166  51.429 -51.263  1.00  0.00     0.170 HD
BRANCH   3   6
HETATM    6  C2  UNL     1       1.643  48.472 -52.186  1.00  0.00     0.167 C 
HETATM    7  C1  UNL     1       1.266  47.740 -53.461  1.00  0.00     0.042 C 
BRANCH   6   8
HETATM    8  N1  UNL     1       1.683  47.660 -51.069  1.00  0.00    -0.383 N 
ATOM      9  H1  UNL     1       0.761  47.292 -50.834  1.00  0.00     0.156 HD
BRANCH   8  10
HETATM   10  C3  UNL     1       2.623  47.234 -50.217  1.00  0.00     0.239 C 
BRANCH  10  11
HETATM   11  O1  UNL     1       2.144  47.550 -48.831  1.00  0.00    -0.375 OA
ATOM     12  H1  UNL     1       1.901  46.727 -48.423  1.00  0.00     0.212 HD
ENDBRANCH  10  11
BRANCH  10  13
HETATM   13  C4  UNL     1       3.031  45.824 -50.072  1.00  0.00     0.154 C 
HETATM   14  N2  UNL     1       3.304  45.346 -48.797  1.00  0.00    -0.404 N 
HETATM   15  C5  UNL     1       3.596  43.940 -48.677  1.00  0.00     0.116 C 
ATOM     16  H2  UNL     1       3.298  45.962 -47.984  1.00  0.00     0.154 HD
HETATM   17  C8  UNL     1       4.606  43.542 -49.677  1.00  0.00     0.143 C 
HETATM   18  C9  UNL     1       5.196  44.660 -50.512  1.00  0.00     0.067 C 
HETATM   19  C10 UNL     1       4.141  45.547 -51.095  1.00  0.00     0.147 C 
BRANCH  15  20
HETATM   20  C6  UNL     1       2.332  43.102 -48.671  1.00  0.00     0.140 C 
BRANCH  20  21
HETATM   21  C7  UNL     1       1.149  43.834 -48.217  1.00  0.00     0.174 C 
HETATM   22  O2  UNL     1       1.025  44.027 -46.983  1.00  0.00    -0.648 OA
HETATM   23  O3  UNL     1       0.157  44.329 -49.038  1.00  0.00    -0.648 OA
ENDBRANCH  20  21
ENDBRANCH  15  20
BRANCH  17  24
HETATM   24  O4  UNL     1       5.685  42.914 -49.078  1.00  0.00    -0.393 OA
ATOM     25  H4  UNL     1       6.203  42.437 -49.715  1.00  0.00     0.210 HD
ENDBRANCH  17  24
BRANCH  19  26
HETATM   26  O5  UNL     1       4.721  46.749 -51.476  1.00  0.00    -0.393 OA
ATOM     27  H5  UNL     1       5.455  46.938 -50.903  1.00  0.00     0.210 HD
ENDBRANCH  19  26
ENDBRANCH  10  13
ENDBRANCH   8  10
ENDBRANCH   6   8
ENDBRANCH   3   6
ENDBRANCH   1   2
BRANCH   1  28
HETATM   28  O7  UNL     1       1.633  50.436 -49.023  1.00  0.00    -0.348 OA
ATOM     29  H7  UNL     1       1.797  49.501 -48.974  1.00  0.00     0.219 HD
ENDBRANCH   1  28
BRANCH   1  30
HETATM   30  C13 UNL     1       3.047  51.817 -50.281  1.00  0.00     0.173 C 
BRANCH  30  31
HETATM   31  N4  UNL     1       3.926  51.143 -51.209  1.00  0.00    -0.324 N 
HETATM   32  C14 UNL     1       4.791  50.085 -51.042  1.00  0.00     0.362 C 
HETATM   33  O8  UNL     1       5.006  49.501 -49.971  1.00  0.00    -0.238 OA
ATOM     34  H4  UNL     1       3.903  51.519 -52.156  1.00  0.00     0.165 HD
BRANCH  32  35
HETATM   35  O9  UNL     1       5.513  49.592 -52.153  1.00  0.00    -0.294 OA
BRANCH  35  36
HETATM   36  C15 UNL     1       6.837  50.028 -52.337  1.00  0.00     0.061 C 
HETATM   37  C16 UNL     1       7.770  48.857 -52.116  1.00  0.00     0.046 C 
HETATM   38  C17 UNL     1       7.242  51.202 -51.529  1.00  0.00     0.046 C 
HETATM   39  C18 UNL     1       7.026  50.357 -53.848  1.00  0.00     0.046 C 
ENDBRANCH  35  36
ENDBRANCH  32  35
ENDBRANCH  30  31
BRANCH  30  40
HETATM   40  C19 UNL     1       2.832  53.267 -50.512  1.00  0.00    -0.002 C 
HETATM   41  C20 UNL     1       2.009  53.630 -51.699  1.00  0.00     0.021 C 
HETATM   42  C21 UNL     1       4.137  54.067 -50.557  1.00  0.00     0.021 C 
BRANCH  40  43
HETATM   43  C22 UNL     1       2.143  53.841 -49.279  1.00  0.00    -0.019 C 
HETATM   44  C23 UNL     1       2.790  53.973 -48.150  1.00  0.00    -0.023 C 
BRANCH  44  45
HETATM   45  C24 UNL     1       2.219  54.522 -46.912  1.00  0.00     0.036 C 
HETATM   46  C25 UNL     1       0.726  54.655 -47.060  1.00  0.00     0.011 C 
HETATM   47  C26 UNL     1       0.267  56.035 -46.565  1.00  0.00     0.001 C 
HETATM   48  C27 UNL     1      -0.614  55.879 -45.378  1.00  0.00     0.000 C 
HETATM   49  C28 UNL     1       0.051  55.822 -44.049  1.00  0.00     0.000 C 
HETATM   50  C29 UNL     1       1.499  55.391 -44.072  1.00  0.00     0.002 C 
HETATM   51  C30 UNL     1       1.700  53.960 -44.506  1.00  0.00     0.032 C 
HETATM   52  C31 UNL     1       2.671  53.833 -45.668  1.00  0.00     0.126 C 
BRANCH  52  53
HETATM   53  O10 UNL     1       3.940  54.203 -45.249  1.00  0.00    -0.395 OA
ATOM     54  H10 UNL     1       3.956  54.991 -44.718  1.00  0.00     0.210 HD
ENDBRANCH  52  53
ENDBRANCH  44  45
ENDBRANCH  40  43
ENDBRANCH  30  40
ENDBRANCH   1  30
TORSDOF 19
ENDMDL
