MODEL 1
REMARK VINA RESULT: -5.182803109      0.000      0.000
REMARK  5 active torsions:
REMARK  status: ('A' for Active; 'I' for Inactive)
REMARK    1  A    between atoms: S1_2  and  C2_3 
REMARK    2  A    between atoms: C3_6  and  N2_7 
REMARK    3  A    between atoms: N2_7  and  N3_9 
REMARK    4  A    between atoms: C5_16  and  N7_17 
REMARK    5  A    between atoms: N7_17  and  N8_19 
ROOT
HETATM    1  C2  UNL     1     -24.025  -5.387 -26.937  1.00  0.00     0.174 A 
HETATM    2  N1  UNL     1     -24.765  -6.137 -26.110  1.00  0.00    -0.168 N 
ATOM      3  H1  UNL     1     -25.278  -5.697 -25.346  1.00  0.00     0.186 HD
HETATM    4  C3  UNL     1     -24.832  -7.467 -26.283  1.00  0.00     0.713 A 
HETATM    5  N6  UNL     1     -24.179  -8.106 -27.270  1.00  0.00    -0.019 N 
ATOM      6  H6  UNL     1     -24.242  -9.118 -27.387  1.00  0.00     0.203 HD
HETATM    7  C5  UNL     1     -23.438  -7.338 -28.098  1.00  0.00     0.713 A 
HETATM    8  N9  UNL     1     -23.367  -6.012 -27.929  1.00  0.00    -0.168 N 
ATOM      9  H9  UNL     1     -22.799  -5.460 -28.571  1.00  0.00     0.186 HD
ENDROOT
BRANCH   4  10
HETATM   10  N2  UNL     1     -25.537  -8.177 -25.492  1.00  0.00    -0.129 N 
ATOM     11  H2  UNL     1     -26.538  -8.286 -25.655  1.00  0.00     0.205 HD
BRANCH  10  12
HETATM   12  N3  UNL     1     -24.933  -8.799 -24.408  1.00  0.00    -0.262 N 
HETATM   13  C4  UNL     1     -25.121  -8.328 -23.232  1.00  0.00     0.216 C 
HETATM   14  N4  UNL     1     -25.941  -7.187 -23.077  1.00  0.00    -0.065 NA
HETATM   15  N5  UNL     1     -24.489  -8.989 -22.149  1.00  0.00    -0.065 NA
ATOM     16  H3  UNL     1     -24.347  -9.623 -24.546  1.00  0.00     0.190 HD
ENDBRANCH  10  12
ENDBRANCH   4  10
BRANCH   1  17
HETATM   17  S1  UNL     1     -23.892  -3.606 -26.762  1.00  0.00    -0.097 SA
HETATM   18  C1  UNL     1     -22.476  -3.159 -25.756  1.00  0.00     0.099 C 
ENDBRANCH   1  17
BRANCH   7  19
HETATM   19  N7  UNL     1     -22.794  -7.912 -29.060  1.00  0.00    -0.138 N 
ATOM     20  H7  UNL     1     -22.143  -8.666 -28.844  1.00  0.00     0.205 HD
BRANCH  19  21
HETATM   21  N8  UNL     1     -22.970  -7.526 -30.383  1.00  0.00    -0.331 N 
ATOM     22  H82 UNL     1     -23.903  -7.243 -30.682  1.00  0.00     0.177 HD
ATOM     23  H81 UNL     1     -22.194  -7.523 -31.045  1.00  0.00     0.177 HD
ENDBRANCH  19  21
ENDBRANCH   7  19
TORSDOF 5
ENDMDL
MODEL 2
REMARK VINA RESULT: -4.883988162      2.666      3.803
REMARK  5 active torsions:
REMARK  status: ('A' for Active; 'I' for Inactive)
REMARK    1  A    between atoms: S1_2  and  C2_3 
REMARK    2  A    between atoms: C3_6  and  N2_7 
REMARK    3  A    between atoms: N2_7  and  N3_9 
REMARK    4  A    between atoms: C5_16  and  N7_17 
REMARK    5  A    between atoms: N7_17  and  N8_19 
ROOT
HETATM    1  C2  UNL     1     -23.950  -9.747 -27.924  1.00  0.00     0.174 A 
HETATM    2  N1  UNL     1     -24.664  -9.741 -26.791  1.00  0.00    -0.168 N 
ATOM      3  H1  UNL     1     -25.049 -10.613 -26.428  1.00  0.00     0.186 HD
HETATM    4  C3  UNL     1     -24.875  -8.590 -26.132  1.00  0.00     0.713 A 
HETATM    5  N6  UNL     1     -24.394  -7.408 -26.559  1.00  0.00    -0.019 N 
ATOM      6  H6  UNL     1     -24.564  -6.543 -26.046  1.00  0.00     0.203 HD
HETATM    7  C5  UNL     1     -23.674  -7.428 -27.702  1.00  0.00     0.713 A 
HETATM    8  N9  UNL     1     -23.462  -8.573 -28.363  1.00  0.00    -0.168 N 
ATOM      9  H9  UNL     1     -22.914  -8.555 -29.223  1.00  0.00     0.186 HD
ENDROOT
BRANCH   4  10
HETATM   10  N2  UNL     1     -25.557  -8.590 -25.055  1.00  0.00    -0.129 N 
ATOM     11  H2  UNL     1     -26.438  -8.079 -25.005  1.00  0.00     0.205 HD
BRANCH  10  12
HETATM   12  N3  UNL     1     -25.091  -9.289 -23.949  1.00  0.00    -0.262 N 
HETATM   13  C4  UNL     1     -25.108  -8.726 -22.800  1.00  0.00     0.216 C 
HETATM   14  N4  UNL     1     -25.602  -7.405 -22.693  1.00  0.00    -0.065 NA
HETATM   15  N5  UNL     1     -24.624  -9.470 -21.694  1.00  0.00    -0.065 NA
ATOM     16  H3  UNL     1     -24.740 -10.242 -24.051  1.00  0.00     0.190 HD
ENDBRANCH  10  12
ENDBRANCH   4  10
BRANCH   1  17
HETATM   17  S1  UNL     1     -23.630 -11.249 -28.853  1.00  0.00    -0.097 SA
HETATM   18  C1  UNL     1     -22.878 -12.503 -27.815  1.00  0.00     0.099 C 
ENDBRANCH   1  17
BRANCH   7  19
HETATM   19  N7  UNL     1     -23.194  -6.315 -28.148  1.00  0.00    -0.138 N 
ATOM     20  H7  UNL     1     -23.273  -6.101 -29.141  1.00  0.00     0.205 HD
BRANCH  19  21
HETATM   21  N8  UNL     1     -22.572  -5.404 -27.304  1.00  0.00    -0.331 N 
ATOM     22  H82 UNL     1     -23.062  -5.120 -26.456  1.00  0.00     0.177 HD
ATOM     23  H81 UNL     1     -21.651  -5.022 -27.518  1.00  0.00     0.177 HD
ENDBRANCH  19  21
ENDBRANCH   7  19
TORSDOF 5
ENDMDL
MODEL 3
REMARK VINA RESULT: -4.799035830      2.840      3.828
REMARK  5 active torsions:
REMARK  status: ('A' for Active; 'I' for Inactive)
REMARK    1  A    between atoms: S1_2  and  C2_3 
REMARK    2  A    between atoms: C3_6  and  N2_7 
REMARK    3  A    between atoms: N2_7  and  N3_9 
REMARK    4  A    between atoms: C5_16  and  N7_17 
REMARK    5  A    between atoms: N7_17  and  N8_19 
ROOT
HETATM    1  C2  UNL     1     -24.168 -10.192 -27.764  1.00  0.00     0.174 A 
HETATM    2  N1  UNL     1     -24.637  -9.825 -26.564  1.00  0.00    -0.168 N 
ATOM      3  H1  UNL     1     -24.989 -10.531 -25.917  1.00  0.00     0.186 HD
HETATM    4  C3  UNL     1     -24.645  -8.530 -26.210  1.00  0.00     0.713 A 
HETATM    5  N6  UNL     1     -24.196  -7.552 -27.017  1.00  0.00    -0.019 N 
ATOM      6  H6  UNL     1     -24.210  -6.573 -26.732  1.00  0.00     0.203 HD
HETATM    7  C5  UNL     1     -23.725  -7.936 -28.224  1.00  0.00     0.713 A 
HETATM    8  N9  UNL     1     -23.715  -9.226 -28.581  1.00  0.00    -0.168 N 
ATOM      9  H9  UNL     1     -23.352  -9.484 -29.499  1.00  0.00     0.186 HD
ENDROOT
BRANCH   4  10
HETATM   10  N2  UNL     1     -25.093  -8.185 -25.067  1.00  0.00    -0.129 N 
ATOM     11  H2  UNL     1     -25.695  -7.367 -24.977  1.00  0.00     0.205 HD
BRANCH  10  12
HETATM   12  N3  UNL     1     -24.757  -8.933 -23.946  1.00  0.00    -0.262 N 
HETATM   13  C4  UNL     1     -25.101  -8.511 -22.787  1.00  0.00     0.216 C 
HETATM   14  N4  UNL     1     -25.814  -7.294 -22.687  1.00  0.00    -0.065 NA
HETATM   15  N5  UNL     1     -24.740  -9.299 -21.666  1.00  0.00    -0.065 NA
ATOM     16  H3  UNL     1     -24.242  -9.808 -24.044  1.00  0.00     0.190 HD
ENDBRANCH  10  12
ENDBRANCH   4  10
BRANCH   1  17
HETATM   17  S1  UNL     1     -24.128 -11.905 -28.298  1.00  0.00    -0.097 SA
HETATM   18  C1  UNL     1     -22.664 -12.740 -27.684  1.00  0.00     0.099 C 
ENDBRANCH   1  17
BRANCH   7  19
HETATM   19  N7  UNL     1     -23.283  -7.029 -29.030  1.00  0.00    -0.138 N 
ATOM     20  H7  UNL     1     -23.155  -6.077 -28.687  1.00  0.00     0.205 HD
BRANCH  19  21
HETATM   21  N8  UNL     1     -22.977  -7.319 -30.353  1.00  0.00    -0.331 N 
ATOM     22  H82 UNL     1     -22.916  -8.299 -30.629  1.00  0.00     0.177 HD
ATOM     23  H81 UNL     1     -22.817  -6.581 -31.038  1.00  0.00     0.177 HD
ENDBRANCH  19  21
ENDBRANCH   7  19
TORSDOF 5
ENDMDL
MODEL 4
REMARK VINA RESULT: -4.773816116      2.692      3.956
REMARK  5 active torsions:
REMARK  status: ('A' for Active; 'I' for Inactive)
REMARK    1  A    between atoms: S1_2  and  C2_3 
REMARK    2  A    between atoms: C3_6  and  N2_7 
REMARK    3  A    between atoms: N2_7  and  N3_9 
REMARK    4  A    between atoms: C5_16  and  N7_17 
REMARK    5  A    between atoms: N7_17  and  N8_19 
ROOT
HETATM    1  C2  UNL     1     -23.747  -9.640 -28.465  1.00  0.00     0.174 A 
HETATM    2  N1  UNL     1     -24.334  -9.890 -27.287  1.00  0.00    -0.168 N 
ATOM      3  H1  UNL     1     -24.616 -10.840 -27.050  1.00  0.00     0.186 HD
HETATM    4  C3  UNL     1     -24.550  -8.891 -26.415  1.00  0.00     0.713 A 
HETATM    5  N6  UNL     1     -24.200  -7.616 -26.667  1.00  0.00    -0.019 N 
ATOM      6  H6  UNL     1     -24.372  -6.870 -25.994  1.00  0.00     0.203 HD
HETATM    7  C5  UNL     1     -23.609  -7.378 -27.859  1.00  0.00     0.713 A 
HETATM    8  N9  UNL     1     -23.391  -8.371 -28.731  1.00  0.00    -0.168 N 
ATOM      9  H9  UNL     1     -22.943  -8.159 -29.622  1.00  0.00     0.186 HD
ENDROOT
BRANCH   4  10
HETATM   10  N2  UNL     1     -25.109  -9.133 -25.295  1.00  0.00    -0.129 N 
ATOM     11  H2  UNL     1     -25.629 -10.000 -25.158  1.00  0.00     0.205 HD
BRANCH  10  12
HETATM   12  N3  UNL     1     -25.005  -8.209 -24.264  1.00  0.00    -0.262 N 
HETATM   13  C4  UNL     1     -25.067  -8.616 -23.052  1.00  0.00     0.216 C 
HETATM   14  N4  UNL     1     -25.238  -9.998 -22.802  1.00  0.00    -0.065 NA
HETATM   15  N5  UNL     1     -24.958  -7.645 -22.025  1.00  0.00    -0.065 NA
ATOM     16  H3  UNL     1     -24.882  -7.218 -24.469  1.00  0.00     0.190 HD
ENDBRANCH  10  12
ENDBRANCH   4  10
BRANCH   1  17
HETATM   17  S1  UNL     1     -23.428 -10.928 -29.673  1.00  0.00    -0.097 SA
HETATM   18  C1  UNL     1     -22.939 -12.457 -28.875  1.00  0.00     0.099 C 
ENDBRANCH   1  17
BRANCH   7  19
HETATM   19  N7  UNL     1     -23.257  -6.168 -28.141  1.00  0.00    -0.138 N 
ATOM     20  H7  UNL     1     -23.515  -5.772 -29.045  1.00  0.00     0.205 HD
BRANCH  19  21
HETATM   21  N8  UNL     1     -22.535  -5.394 -27.243  1.00  0.00    -0.331 N 
ATOM     22  H82 UNL     1     -23.034  -4.974 -26.459  1.00  0.00     0.177 HD
ATOM     23  H81 UNL     1     -21.533  -5.242 -27.355  1.00  0.00     0.177 HD
ENDBRANCH  19  21
ENDBRANCH   7  19
TORSDOF 5
ENDMDL
MODEL 5
REMARK VINA RESULT: -4.737701901      3.744      5.370
REMARK  5 active torsions:
REMARK  status: ('A' for Active; 'I' for Inactive)
REMARK    1  A    between atoms: S1_2  and  C2_3 
REMARK    2  A    between atoms: C3_6  and  N2_7 
REMARK    3  A    between atoms: N2_7  and  N3_9 
REMARK    4  A    between atoms: C5_16  and  N7_17 
REMARK    5  A    between atoms: N7_17  and  N8_19 
ROOT
HETATM    1  C2  UNL     1     -24.326  -3.165 -28.129  1.00  0.00     0.174 A 
HETATM    2  N1  UNL     1     -23.746  -2.521 -27.108  1.00  0.00    -0.168 N 
ATOM      3  H1  UNL     1     -23.926  -1.527 -26.965  1.00  0.00     0.186 HD
HETATM    4  C3  UNL     1     -22.928  -3.180 -26.271  1.00  0.00     0.713 A 
HETATM    5  N6  UNL     1     -22.651  -4.489 -26.405  1.00  0.00    -0.019 N 
ATOM      6  H6  UNL     1     -22.027  -4.974 -25.761  1.00  0.00     0.203 HD
HETATM    7  C5  UNL     1     -23.243  -5.128 -27.439  1.00  0.00     0.713 A 
HETATM    8  N9  UNL     1     -24.059  -4.475 -28.276  1.00  0.00    -0.168 N 
ATOM      9  H9  UNL     1     -24.490  -4.985 -29.046  1.00  0.00     0.186 HD
ENDROOT
BRANCH   4  10
HETATM   10  N2  UNL     1     -22.378  -2.562 -25.301  1.00  0.00    -0.129 N 
ATOM     11  H2  UNL     1     -21.985  -3.083 -24.517  1.00  0.00     0.205 HD
BRANCH  10  12
HETATM   12  N3  UNL     1     -22.318  -1.175 -25.318  1.00  0.00    -0.262 N 
HETATM   13  C4  UNL     1     -23.177  -0.503 -24.648  1.00  0.00     0.216 C 
HETATM   14  N4  UNL     1     -24.163  -1.198 -23.910  1.00  0.00    -0.065 NA
HETATM   15  N5  UNL     1     -23.085   0.911 -24.690  1.00  0.00    -0.065 NA
ATOM     16  H3  UNL     1     -21.597  -0.696 -25.858  1.00  0.00     0.190 HD
ENDBRANCH  10  12
ENDBRANCH   4  10
BRANCH   1  17
HETATM   17  S1  UNL     1     -25.429  -2.345 -29.282  1.00  0.00    -0.097 SA
HETATM   18  C1  UNL     1     -25.222  -0.565 -29.221  1.00  0.00     0.099 C 
ENDBRANCH   1  17
BRANCH   7  19
HETATM   19  N7  UNL     1     -23.004  -6.386 -27.604  1.00  0.00    -0.138 N 
ATOM     20  H7  UNL     1     -22.593  -6.920 -26.839  1.00  0.00     0.205 HD
BRANCH  19  21
HETATM   21  N8  UNL     1     -23.294  -7.029 -28.801  1.00  0.00    -0.331 N 
ATOM     22  H82 UNL     1     -22.570  -7.061 -29.518  1.00  0.00     0.177 HD
ATOM     23  H81 UNL     1     -24.203  -7.460 -28.968  1.00  0.00     0.177 HD
ENDBRANCH  19  21
ENDBRANCH   7  19
TORSDOF 5
ENDMDL
