MODEL 1
REMARK VINA RESULT: -4.992353983      0.000      0.000
REMARK  3 active torsions:
REMARK  status: ('A' for Active; 'I' for Inactive)
REMARK    1  A    between atoms: C2_2  and  N1_5 
REMARK       I    between atoms: N1_5  and  C5_7 
REMARK    2  A    between atoms: C5_7  and  C6_9 
REMARK    3  A    between atoms: C6_9  and  N2_10 
ROOT
HETATM    1  N1  UNL     1      -0.571 -10.408  14.270  1.00  0.00    -0.351 N 
ATOM      2  H1  UNL     1      -0.242 -10.222  15.218  1.00  0.00     0.163 HD
HETATM    3  C5  UNL     1      -0.028 -11.525  13.607  1.00  0.00     0.246 C 
HETATM    4  O1  UNL     1      -0.474 -11.695  12.404  1.00  0.00    -0.272 OA
ENDROOT
BRANCH   3   5
HETATM    5  C6  UNL     1       0.954 -12.483  14.107  1.00  0.00     0.374 C 
BRANCH   5   6
HETATM    6  N2  UNL     1       0.588 -13.332  15.172  1.00  0.00     0.097 N 
HETATM    7  C7  UNL     1       0.669 -14.721  14.903  1.00  0.00     0.273 C 
HETATM    8  C8  UNL     1       0.801 -15.520  16.190  1.00  0.00     0.030 C 
HETATM    9  C9  UNL     1       2.061 -15.253  16.941  1.00  0.00     0.003 C 
HETATM   10  C10 UNL     1       2.561 -13.877  16.521  1.00  0.00     0.030 C 
HETATM   11  C11 UNL     1       1.322 -12.989  16.376  1.00  0.00     0.273 C 
ENDBRANCH   5   6
ENDBRANCH   3   5
BRANCH   1  12
HETATM   12  C2  UNL     1      -1.556  -9.500  13.723  1.00  0.00     0.022 C 
HETATM   13  C1  UNL     1      -1.891  -8.413  14.761  1.00  0.00     0.037 C 
HETATM   14  C3  UNL     1      -2.852 -10.193  13.411  1.00  0.00     0.037 C 
HETATM   15  C4  UNL     1      -1.076  -8.779  12.486  1.00  0.00     0.037 C 
ENDBRANCH   1  12
TORSDOF 3
ENDMDL
MODEL 2
REMARK VINA RESULT: -4.977252861      1.773      2.600
REMARK  3 active torsions:
REMARK  status: ('A' for Active; 'I' for Inactive)
REMARK    1  A    between atoms: C2_2  and  N1_5 
REMARK       I    between atoms: N1_5  and  C5_7 
REMARK    2  A    between atoms: C5_7  and  C6_9 
REMARK    3  A    between atoms: C6_9  and  N2_10 
ROOT
HETATM    1  N1  UNL     1       1.062 -10.680  12.904  1.00  0.00    -0.351 N 
ATOM      2  H1  UNL     1       1.909 -10.359  13.374  1.00  0.00     0.163 HD
HETATM    3  C5  UNL     1       0.193 -11.510  13.639  1.00  0.00     0.246 C 
HETATM    4  O1  UNL     1      -0.852 -11.895  12.980  1.00  0.00    -0.272 OA
ENDROOT
BRANCH   3   5
HETATM    5  C6  UNL     1       0.335 -11.972  15.016  1.00  0.00     0.374 C 
BRANCH   5   6
HETATM    6  N2  UNL     1       1.437 -12.789  15.345  1.00  0.00     0.097 N 
HETATM    7  C7  UNL     1       1.677 -12.963  16.731  1.00  0.00     0.273 C 
HETATM    8  C8  UNL     1       2.476 -14.231  16.991  1.00  0.00     0.030 C 
HETATM    9  C9  UNL     1       1.759 -15.484  16.618  1.00  0.00     0.003 C 
HETATM   10  C10 UNL     1       0.709 -15.118  15.578  1.00  0.00     0.030 C 
HETATM   11  C11 UNL     1       1.347 -14.068  14.665  1.00  0.00     0.273 C 
ENDBRANCH   5   6
ENDBRANCH   3   5
BRANCH   1  12
HETATM   12  C2  UNL     1       0.858 -10.244  11.540  1.00  0.00     0.022 C 
HETATM   13  C1  UNL     1       1.920  -9.193  11.169  1.00  0.00     0.037 C 
HETATM   14  C3  UNL     1      -0.474  -9.576  11.353  1.00  0.00     0.037 C 
HETATM   15  C4  UNL     1       0.990 -11.362  10.533  1.00  0.00     0.037 C 
ENDBRANCH   1  12
TORSDOF 3
ENDMDL
MODEL 3
REMARK VINA RESULT: -4.974973373      1.880      2.440
REMARK  3 active torsions:
REMARK  status: ('A' for Active; 'I' for Inactive)
REMARK    1  A    between atoms: C2_2  and  N1_5 
REMARK       I    between atoms: N1_5  and  C5_7 
REMARK    2  A    between atoms: C5_7  and  C6_9 
REMARK    3  A    between atoms: C6_9  and  N2_10 
ROOT
HETATM    1  N1  UNL     1       1.605 -10.922  12.092  1.00  0.00    -0.351 N 
ATOM      2  H1  UNL     1       2.592 -10.677  12.182  1.00  0.00     0.163 HD
HETATM    3  C5  UNL     1       1.094 -11.876  12.994  1.00  0.00     0.246 C 
HETATM    4  O1  UNL     1      -0.157 -12.154  12.815  1.00  0.00    -0.272 OA
ENDROOT
BRANCH   3   5
HETATM    5  C6  UNL     1       1.795 -12.565  14.073  1.00  0.00     0.374 C 
BRANCH   5   6
HETATM    6  N2  UNL     1       1.048 -13.367  14.961  1.00  0.00     0.097 N 
HETATM    7  C7  UNL     1       1.137 -14.765  14.746  1.00  0.00     0.273 C 
HETATM    8  C8  UNL     1       0.787 -15.535  16.010  1.00  0.00     0.030 C 
HETATM    9  C9  UNL     1       1.737 -15.309  17.137  1.00  0.00     0.003 C 
HETATM   10  C10 UNL     1       2.424 -13.972  16.897  1.00  0.00     0.030 C 
HETATM   11  C11 UNL     1       1.356 -13.028  16.338  1.00  0.00     0.273 C 
ENDBRANCH   5   6
ENDBRANCH   3   5
BRANCH   1  12
HETATM   12  C2  UNL     1       0.852 -10.261  11.048  1.00  0.00     0.022 C 
HETATM   13  C1  UNL     1       1.681  -9.099  10.470  1.00  0.00     0.037 C 
HETATM   14  C3  UNL     1      -0.418  -9.650  11.568  1.00  0.00     0.037 C 
HETATM   15  C4  UNL     1       0.520 -11.170   9.889  1.00  0.00     0.037 C 
ENDBRANCH   1  12
TORSDOF 3
ENDMDL
MODEL 4
REMARK VINA RESULT: -4.900666490      1.871      2.625
REMARK  3 active torsions:
REMARK  status: ('A' for Active; 'I' for Inactive)
REMARK    1  A    between atoms: C2_2  and  N1_5 
REMARK       I    between atoms: N1_5  and  C5_7 
REMARK    2  A    between atoms: C5_7  and  C6_9 
REMARK    3  A    between atoms: C6_9  and  N2_10 
ROOT
HETATM    1  N1  UNL     1       1.630 -10.910  12.116  1.00  0.00    -0.351 N 
ATOM      2  H1  UNL     1       2.617 -10.672  12.210  1.00  0.00     0.163 HD
HETATM    3  C5  UNL     1       1.113 -11.877  13.000  1.00  0.00     0.246 C 
HETATM    4  O1  UNL     1      -0.139 -12.145  12.817  1.00  0.00    -0.272 OA
ENDROOT
BRANCH   3   5
HETATM    5  C6  UNL     1       1.811 -12.591  14.066  1.00  0.00     0.374 C 
BRANCH   5   6
HETATM    6  N2  UNL     1       1.055 -13.380  14.958  1.00  0.00     0.097 N 
HETATM    7  C7  UNL     1       1.135 -14.780  14.753  1.00  0.00     0.273 C 
HETATM    8  C8  UNL     1       0.776 -15.538  16.022  1.00  0.00     0.030 C 
HETATM    9  C9  UNL     1       1.725 -15.312  17.150  1.00  0.00     0.003 C 
HETATM   10  C10 UNL     1       2.422 -13.981  16.902  1.00  0.00     0.030 C 
HETATM   11  C11 UNL     1       1.362 -13.033  16.334  1.00  0.00     0.273 C 
ENDBRANCH   5   6
ENDBRANCH   3   5
BRANCH   1  12
HETATM   12  C2  UNL     1       0.880 -10.226  11.084  1.00  0.00     0.022 C 
HETATM   13  C1  UNL     1       0.571 -11.203   9.935  1.00  0.00     0.037 C 
HETATM   14  C3  UNL     1       1.661  -9.097  10.473  1.00  0.00     0.037 C 
HETATM   15  C4  UNL     1      -0.448  -9.696  11.568  1.00  0.00     0.037 C 
ENDBRANCH   1  12
TORSDOF 3
ENDMDL
MODEL 5
REMARK VINA RESULT: -4.887658063      0.201      1.072
REMARK  3 active torsions:
REMARK  status: ('A' for Active; 'I' for Inactive)
REMARK    1  A    between atoms: C2_2  and  N1_5 
REMARK       I    between atoms: N1_5  and  C5_7 
REMARK    2  A    between atoms: C5_7  and  C6_9 
REMARK    3  A    between atoms: C6_9  and  N2_10 
ROOT
HETATM    1  N1  UNL     1      -0.508 -10.434  14.147  1.00  0.00    -0.351 N 
ATOM      2  H1  UNL     1      -0.194 -10.216  15.092  1.00  0.00     0.163 HD
HETATM    3  C5  UNL     1       0.042 -11.577  13.533  1.00  0.00     0.246 C 
HETATM    4  O1  UNL     1      -0.384 -11.788  12.330  1.00  0.00    -0.272 OA
ENDROOT
BRANCH   3   5
HETATM    5  C6  UNL     1       1.012 -12.519  14.085  1.00  0.00     0.374 C 
BRANCH   5   6
HETATM    6  N2  UNL     1       0.614 -13.353  15.150  1.00  0.00     0.097 N 
HETATM    7  C7  UNL     1       0.700 -14.745  14.902  1.00  0.00     0.273 C 
HETATM    8  C8  UNL     1       0.793 -15.527  16.203  1.00  0.00     0.030 C 
HETATM    9  C9  UNL     1       2.032 -15.251  16.986  1.00  0.00     0.003 C 
HETATM   10  C10 UNL     1       2.546 -13.882  16.562  1.00  0.00     0.030 C 
HETATM   11  C11 UNL     1       1.314 -12.994  16.370  1.00  0.00     0.273 C 
ENDBRANCH   5   6
ENDBRANCH   3   5
BRANCH   1  12
HETATM   12  C2  UNL     1      -1.480  -9.544  13.550  1.00  0.00     0.022 C 
HETATM   13  C1  UNL     1      -2.839 -10.261  13.440  1.00  0.00     0.037 C 
HETATM   14  C3  UNL     1      -1.101  -9.149  12.151  1.00  0.00     0.037 C 
HETATM   15  C4  UNL     1      -1.718  -8.294  14.363  1.00  0.00     0.037 C 
ENDBRANCH   1  12
TORSDOF 3
ENDMDL
