MODEL 1
REMARK VINA RESULT: -4.969936316      0.000      0.000
REMARK  2 active torsions:
REMARK  status: ('A' for Active; 'I' for Inactive)
REMARK    1  A    between atoms: C2_2  and  C3_4 
REMARK    2  A    between atoms: C3_4  and  C4_5 
ROOT
HETATM    1  C3  UNL     1      -1.707  12.240  14.978  1.00  0.00     0.030 C 
HETATM    2  C7  UNL     1      -0.624  13.297  14.678  1.00  0.00     0.025 C 
HETATM    3  C8  UNL     1      -1.716  14.343  14.712  1.00  0.00     0.019 C 
HETATM    4  C9  UNL     1      -1.511  15.503  15.636  1.00  0.00     0.237 C 
HETATM    5  N1  UNL     1      -2.098  15.186  16.917  1.00  0.00    -0.074 N 
ATOM      6  H11 UNL     1      -2.983  15.661  17.093  1.00  0.00     0.277 HD
ATOM      7  H12 UNL     1      -1.592  15.580  17.710  1.00  0.00     0.277 HD
HETATM    8  C10 UNL     1      -2.195  13.728  16.944  1.00  0.00     0.238 C 
HETATM    9  C11 UNL     1      -2.527  13.343  15.513  1.00  0.00     0.033 C 
ENDROOT
BRANCH   1  10
HETATM   10  C2  UNL     1      -1.209  11.242  15.994  1.00  0.00     0.132 C 
HETATM   11  C1  UNL     1      -2.190  10.274  16.553  1.00  0.00     0.091 C 
HETATM   12  O1  UNL     1      -0.063  11.189  16.376  1.00  0.00    -0.298 OA
ENDBRANCH   1  10
BRANCH   1  13
HETATM   13  C4  UNL     1      -2.160  11.490  13.768  1.00  0.00     0.002 A 
HETATM   14  C5  UNL     1      -1.491  10.349  13.160  1.00  0.00     0.006 A 
HETATM   15  C6  UNL     1      -1.597  11.720  12.415  1.00  0.00     0.006 A 
ENDBRANCH   1  13
TORSDOF 2
ENDMDL
MODEL 2
REMARK VINA RESULT: -4.832174572      2.249      3.757
REMARK  2 active torsions:
REMARK  status: ('A' for Active; 'I' for Inactive)
REMARK    1  A    between atoms: C2_2  and  C3_4 
REMARK    2  A    between atoms: C3_4  and  C4_5 
ROOT
HETATM    1  C3  UNL     1      -0.858  12.491  14.760  1.00  0.00     0.030 C 
HETATM    2  C7  UNL     1      -1.074  11.720  16.078  1.00  0.00     0.025 C 
HETATM    3  C8  UNL     1      -2.562  11.910  15.879  1.00  0.00     0.019 C 
HETATM    4  C9  UNL     1      -3.409  10.676  15.906  1.00  0.00     0.237 C 
HETATM    5  N1  UNL     1      -3.531  10.166  14.561  1.00  0.00    -0.074 N 
ATOM      6  H11 UNL     1      -4.439  10.348  14.132  1.00  0.00     0.277 HD
ATOM      7  H12 UNL     1      -3.578   9.148  14.509  1.00  0.00     0.277 HD
HETATM    8  C10 UNL     1      -2.406  10.744  13.829  1.00  0.00     0.238 C 
HETATM    9  C11 UNL     1      -2.248  12.137  14.413  1.00  0.00     0.033 C 
ENDROOT
BRANCH   1  10
HETATM   10  C2  UNL     1       0.214  11.832  13.927  1.00  0.00     0.132 C 
HETATM   11  C1  UNL     1       1.110  10.854  14.600  1.00  0.00     0.091 C 
HETATM   12  O1  UNL     1       0.382  12.056  12.752  1.00  0.00    -0.298 OA
ENDBRANCH   1  10
BRANCH   1  13
HETATM   13  C4  UNL     1      -0.480  13.922  14.961  1.00  0.00     0.002 A 
HETATM   14  C5  UNL     1      -1.094  14.854  15.894  1.00  0.00     0.006 A 
HETATM   15  C6  UNL     1      -1.224  15.051  14.348  1.00  0.00     0.006 A 
ENDBRANCH   1  13
TORSDOF 2
ENDMDL
MODEL 3
REMARK VINA RESULT: -4.823510851      2.268      3.816
REMARK  2 active torsions:
REMARK  status: ('A' for Active; 'I' for Inactive)
REMARK    1  A    between atoms: C2_2  and  C3_4 
REMARK    2  A    between atoms: C3_4  and  C4_5 
ROOT
HETATM    1  C3  UNL     1      -1.826  12.821  15.010  1.00  0.00     0.030 C 
HETATM    2  C7  UNL     1      -1.329  12.127  16.296  1.00  0.00     0.025 C 
HETATM    3  C8  UNL     1      -2.772  12.038  16.738  1.00  0.00     0.019 C 
HETATM    4  C9  UNL     1      -3.281  10.681  17.113  1.00  0.00     0.237 C 
HETATM    5  N1  UNL     1      -3.846  10.056  15.940  1.00  0.00    -0.074 N 
ATOM      6  H11 UNL     1      -4.866  10.044  15.932  1.00  0.00     0.277 HD
ATOM      7  H12 UNL     1      -3.715   9.045  15.909  1.00  0.00     0.277 HD
HETATM    8  C10 UNL     1      -3.255  10.764  14.806  1.00  0.00     0.238 C 
HETATM    9  C11 UNL     1      -3.139  12.203  15.276  1.00  0.00     0.033 C 
ENDROOT
BRANCH   1  10
HETATM   10  C2  UNL     1      -1.087  12.297  13.804  1.00  0.00     0.132 C 
HETATM   11  C1  UNL     1       0.178  11.550  14.035  1.00  0.00     0.091 C 
HETATM   12  O1  UNL     1      -1.466  12.453  12.666  1.00  0.00    -0.298 OA
ENDBRANCH   1  10
BRANCH   1  13
HETATM   13  C4  UNL     1      -1.679  14.307  15.040  1.00  0.00     0.002 A 
HETATM   14  C5  UNL     1      -0.437  15.054  14.903  1.00  0.00     0.006 A 
HETATM   15  C6  UNL     1      -1.241  15.054  16.245  1.00  0.00     0.006 A 
ENDBRANCH   1  13
TORSDOF 2
ENDMDL
MODEL 4
REMARK VINA RESULT: -4.769289198      1.667      2.756
REMARK  2 active torsions:
REMARK  status: ('A' for Active; 'I' for Inactive)
REMARK    1  A    between atoms: C2_2  and  C3_4 
REMARK    2  A    between atoms: C3_4  and  C4_5 
ROOT
HETATM    1  C3  UNL     1      -0.623  12.115  14.979  1.00  0.00     0.030 C 
HETATM    2  C7  UNL     1      -2.051  12.220  15.555  1.00  0.00     0.025 C 
HETATM    3  C8  UNL     1      -1.569  13.391  16.383  1.00  0.00     0.019 C 
HETATM    4  C9  UNL     1      -2.344  14.666  16.263  1.00  0.00     0.237 C 
HETATM    5  N1  UNL     1      -1.759  15.468  15.215  1.00  0.00    -0.074 N 
ATOM      6  H11 UNL     1      -1.206  16.254  15.558  1.00  0.00     0.277 HD
ATOM      7  H12 UNL     1      -2.439  16.021  14.692  1.00  0.00     0.277 HD
HETATM    8  C10 UNL     1      -1.002  14.528  14.390  1.00  0.00     0.238 C 
HETATM    9  C11 UNL     1      -0.440  13.523  15.380  1.00  0.00     0.033 C 
ENDROOT
BRANCH   1  10
HETATM   10  C2  UNL     1      -0.667  11.857  13.493  1.00  0.00     0.132 C 
HETATM   11  C1  UNL     1      -1.924  11.303  12.923  1.00  0.00     0.091 C 
HETATM   12  O1  UNL     1       0.260  12.073  12.748  1.00  0.00    -0.298 OA
ENDBRANCH   1  10
BRANCH   1  13
HETATM   13  C4  UNL     1       0.200  11.043  15.616  1.00  0.00     0.002 A 
HETATM   14  C5  UNL     1       0.615   9.793  14.998  1.00  0.00     0.006 A 
HETATM   15  C6  UNL     1      -0.386   9.811  16.199  1.00  0.00     0.006 A 
ENDBRANCH   1  13
TORSDOF 2
ENDMDL
MODEL 5
REMARK VINA RESULT: -4.724708820      0.943      1.096
REMARK  2 active torsions:
REMARK  status: ('A' for Active; 'I' for Inactive)
REMARK    1  A    between atoms: C2_2  and  C3_4 
REMARK    2  A    between atoms: C3_4  and  C4_5 
ROOT
HETATM    1  C3  UNL     1      -1.670  12.065  14.908  1.00  0.00     0.030 C 
HETATM    2  C7  UNL     1      -0.621  13.193  14.991  1.00  0.00     0.025 C 
HETATM    3  C8  UNL     1      -1.766  14.168  15.160  1.00  0.00     0.019 C 
HETATM    4  C9  UNL     1      -1.714  15.068  16.355  1.00  0.00     0.237 C 
HETATM    5  N1  UNL     1      -2.405  14.430  17.450  1.00  0.00    -0.074 N 
ATOM      6  H11 UNL     1      -3.327  14.822  17.640  1.00  0.00     0.277 HD
ATOM      7  H12 UNL     1      -2.000  14.629  18.365  1.00  0.00     0.277 HD
HETATM    8  C10 UNL     1      -2.426  13.007  17.111  1.00  0.00     0.238 C 
HETATM    9  C11 UNL     1      -2.597  12.979  15.603  1.00  0.00     0.033 C 
ENDROOT
BRANCH   1  10
HETATM   10  C2  UNL     1      -1.221  10.861  15.698  1.00  0.00     0.132 C 
HETATM   11  C1  UNL     1       0.234  10.711  15.965  1.00  0.00     0.091 C 
HETATM   12  O1  UNL     1      -1.976  10.018  16.122  1.00  0.00    -0.298 OA
ENDBRANCH   1  10
BRANCH   1  13
HETATM   13  C4  UNL     1      -1.963  11.624  13.510  1.00  0.00     0.002 A 
HETATM   14  C5  UNL     1      -1.955  10.255  13.019  1.00  0.00     0.006 A 
HETATM   15  C6  UNL     1      -0.902  11.300  12.525  1.00  0.00     0.006 A 
ENDBRANCH   1  13
TORSDOF 2
ENDMDL
