MODEL 1
REMARK VINA RESULT: -4.705960148      0.000      0.000
REMARK  3 active torsions:
REMARK  status: ('A' for Active; 'I' for Inactive)
REMARK    1  A    between atoms: C3_3  and  C4_4 
REMARK    2  A    between atoms: C4_4  and  N1_5 
REMARK    3  A    between atoms: C9_10  and  C10_11 
ROOT
HETATM    1  C1  UNL     1       1.210   9.326  17.026  1.00  0.00     0.112 C 
HETATM    2  C2  UNL     1       0.348  10.350  16.441  1.00  0.00    -0.108 C 
HETATM    3  C3  UNL     1      -0.386  11.197  15.907  1.00  0.00    -0.064 C 
ENDROOT
BRANCH   3   4
HETATM    4  C4  UNL     1      -1.229  12.202  15.204  1.00  0.00     0.237 A 
HETATM    5  C7  UNL     1      -2.506  12.596  15.772  1.00  0.00     0.050 A 
HETATM    6  C8  UNL     1      -3.100  11.650  16.796  1.00  0.00     0.014 C 
HETATM    7  C9  UNL     1      -1.357  13.467  16.141  1.00  0.00     0.134 A 
BRANCH   4   8
HETATM    8  N1  UNL     1      -0.850  12.398  13.848  1.00  0.00     0.102 N 
HETATM    9  C5  UNL     1      -1.805  11.982  12.843  1.00  0.00     0.311 C 
HETATM   10  C6  UNL     1       0.406  11.806  13.468  1.00  0.00     0.311 C 
ENDBRANCH   4   8
BRANCH   7  11
HETATM   11  C10 UNL     1      -1.020  14.751  15.557  1.00  0.00     0.239 C 
HETATM   12  N2  UNL     1      -1.955  15.825  15.718  1.00  0.00    -0.062 NA
HETATM   13  O1  UNL     1       0.026  14.999  14.916  1.00  0.00    -0.276 OA
ENDBRANCH   7  11
ENDBRANCH   3   4
TORSDOF 3
ENDMDL
MODEL 2
REMARK VINA RESULT: -4.481132735      2.918      4.556
REMARK  3 active torsions:
REMARK  status: ('A' for Active; 'I' for Inactive)
REMARK    1  A    between atoms: C3_3  and  C4_4 
REMARK    2  A    between atoms: C4_4  and  N1_5 
REMARK    3  A    between atoms: C9_10  and  C10_11 
ROOT
HETATM    1  C1  UNL     1      -4.569  10.890  15.736  1.00  0.00     0.112 C 
HETATM    2  C2  UNL     1      -3.374  10.856  14.896  1.00  0.00    -0.108 C 
HETATM    3  C3  UNL     1      -2.380  10.803  14.154  1.00  0.00    -0.064 C 
ENDROOT
BRANCH   3   4
HETATM    4  C4  UNL     1      -1.205  10.669  13.251  1.00  0.00     0.237 A 
HETATM    5  C7  UNL     1      -0.999   9.435  12.514  1.00  0.00     0.050 A 
HETATM    6  C8  UNL     1      -1.730   8.215  13.039  1.00  0.00     0.014 C 
HETATM    7  C9  UNL     1      -1.745  10.491  11.778  1.00  0.00     0.134 A 
BRANCH   4   8
HETATM    8  N1  UNL     1      -0.201  11.646  13.492  1.00  0.00     0.102 N 
HETATM    9  C5  UNL     1       1.066  11.161  13.999  1.00  0.00     0.311 C 
HETATM   10  C6  UNL     1      -0.588  12.724  14.365  1.00  0.00     0.311 C 
ENDBRANCH   4   8
BRANCH   7  11
HETATM   11  C10 UNL     1      -1.209  11.388  10.772  1.00  0.00     0.239 C 
HETATM   12  N2  UNL     1      -1.993  12.531  10.409  1.00  0.00    -0.062 NA
HETATM   13  O1  UNL     1      -0.111  11.243  10.188  1.00  0.00    -0.276 OA
ENDBRANCH   7  11
ENDBRANCH   3   4
TORSDOF 3
ENDMDL
MODEL 3
REMARK VINA RESULT: -4.466085655      3.127      4.455
REMARK  3 active torsions:
REMARK  status: ('A' for Active; 'I' for Inactive)
REMARK    1  A    between atoms: C3_3  and  C4_4 
REMARK    2  A    between atoms: C4_4  and  N1_5 
REMARK    3  A    between atoms: C9_10  and  C10_11 
ROOT
HETATM    1  C1  UNL     1      -0.530  14.830  15.351  1.00  0.00     0.112 C 
HETATM    2  C2  UNL     1      -0.544  13.525  14.695  1.00  0.00    -0.108 C 
HETATM    3  C3  UNL     1      -0.575  12.433  14.104  1.00  0.00    -0.064 C 
ENDROOT
BRANCH   3   4
HETATM    4  C4  UNL     1      -0.680  11.142  13.371  1.00  0.00     0.237 A 
HETATM    5  C7  UNL     1      -1.955  10.453  13.304  1.00  0.00     0.050 A 
HETATM    6  C8  UNL     1      -2.986  10.854  14.341  1.00  0.00     0.014 C 
HETATM    7  C9  UNL     1      -1.665  11.355  12.156  1.00  0.00     0.134 A 
BRANCH   4   8
HETATM    8  N1  UNL     1       0.583  10.538  13.123  1.00  0.00     0.102 N 
HETATM    9  C5  UNL     1       0.646   9.097  13.253  1.00  0.00     0.311 C 
HETATM   10  C6  UNL     1       1.677  11.053  13.905  1.00  0.00     0.311 C 
ENDBRANCH   4   8
BRANCH   7  11
HETATM   11  C10 UNL     1      -1.183  10.962  10.846  1.00  0.00     0.239 C 
HETATM   12  N2  UNL     1      -1.701   9.753  10.277  1.00  0.00    -0.062 NA
HETATM   13  O1  UNL     1      -0.342  11.595  10.167  1.00  0.00    -0.276 OA
ENDBRANCH   7  11
ENDBRANCH   3   4
TORSDOF 3
ENDMDL
MODEL 4
REMARK VINA RESULT: -4.458485379      2.540      4.486
REMARK  3 active torsions:
REMARK  status: ('A' for Active; 'I' for Inactive)
REMARK    1  A    between atoms: C3_3  and  C4_4 
REMARK    2  A    between atoms: C4_4  and  N1_5 
REMARK    3  A    between atoms: C9_10  and  C10_11 
ROOT
HETATM    1  C1  UNL     1      -5.694  10.277  15.725  1.00  0.00     0.112 C 
HETATM    2  C2  UNL     1      -4.364  10.560  15.189  1.00  0.00    -0.108 C 
HETATM    3  C3  UNL     1      -3.242  10.772  14.702  1.00  0.00    -0.064 C 
ENDROOT
BRANCH   3   4
HETATM    4  C4  UNL     1      -1.892  10.955  14.103  1.00  0.00     0.237 A 
HETATM    5  C7  UNL     1      -1.134   9.796  13.667  1.00  0.00     0.050 A 
HETATM    6  C8  UNL     1      -1.563   8.462  14.246  1.00  0.00     0.014 C 
HETATM    7  C9  UNL     1      -1.953  10.447  12.609  1.00  0.00     0.134 A 
BRANCH   4   8
HETATM    8  N1  UNL     1      -1.336  12.237  14.361  1.00  0.00     0.102 N 
HETATM    9  C5  UNL     1      -0.003  12.262  14.928  1.00  0.00     0.311 C 
HETATM   10  C6  UNL     1      -2.134  13.099  15.194  1.00  0.00     0.311 C 
ENDBRANCH   4   8
BRANCH   7  11
HETATM   11  C10 UNL     1      -1.480  11.361  11.588  1.00  0.00     0.239 C 
HETATM   12  N2  UNL     1      -0.137  11.199  11.114  1.00  0.00    -0.062 NA
HETATM   13  O1  UNL     1      -2.152  12.289  11.083  1.00  0.00    -0.276 OA
ENDBRANCH   7  11
ENDBRANCH   3   4
TORSDOF 3
ENDMDL
MODEL 5
REMARK VINA RESULT: -4.411227812      2.701      4.128
REMARK  3 active torsions:
REMARK  status: ('A' for Active; 'I' for Inactive)
REMARK    1  A    between atoms: C3_3  and  C4_4 
REMARK    2  A    between atoms: C4_4  and  N1_5 
REMARK    3  A    between atoms: C9_10  and  C10_11 
ROOT
HETATM    1  C1  UNL     1      -0.582  15.407  15.710  1.00  0.00     0.112 C 
HETATM    2  C2  UNL     1      -0.691  14.014  15.283  1.00  0.00    -0.108 C 
HETATM    3  C3  UNL     1      -0.824  12.838  14.909  1.00  0.00    -0.064 C 
ENDROOT
BRANCH   3   4
HETATM    4  C4  UNL     1      -1.052  11.428  14.489  1.00  0.00     0.237 A 
HETATM    5  C7  UNL     1      -2.401  10.896  14.454  1.00  0.00     0.050 A 
HETATM    6  C8  UNL     1      -3.439  11.653  15.259  1.00  0.00     0.014 C 
HETATM    7  C9  UNL     1      -1.909  11.451  13.164  1.00  0.00     0.134 A 
BRANCH   4   8
HETATM    8  N1  UNL     1       0.131  10.640  14.519  1.00  0.00     0.102 N 
HETATM    9  C5  UNL     1       0.399   9.923  15.749  1.00  0.00     0.311 C 
HETATM   10  C6  UNL     1       1.347  11.339  14.197  1.00  0.00     0.311 C 
ENDBRANCH   4   8
BRANCH   7  11
HETATM   11  C10 UNL     1      -1.393  10.697  12.038  1.00  0.00     0.239 C 
HETATM   12  N2  UNL     1      -0.539  11.380  11.110  1.00  0.00    -0.062 NA
HETATM   13  O1  UNL     1      -1.635   9.491  11.805  1.00  0.00    -0.276 OA
ENDBRANCH   7  11
ENDBRANCH   3   4
TORSDOF 3
ENDMDL
