MODEL 1
REMARK VINA RESULT: -5.022138671      0.000      0.000
REMARK  3 active torsions:
REMARK  status: ('A' for Active; 'I' for Inactive)
REMARK    1  A    between atoms: C1_2  and  N1_3 
REMARK    2  A    between atoms: C1_2  and  N2_11 
REMARK    3  A    between atoms: N1_3  and  C2_5 
ROOT
HETATM    1  N1  UNL     1      -0.525 -12.052  14.213  1.00  0.00    -0.361 N 
ATOM      2  H1  UNL     1      -0.938 -12.900  13.825  1.00  0.00     0.162 HD
ENDROOT
BRANCH   1   3
HETATM    3  C1  UNL     1       0.434 -12.144  15.266  1.00  0.00     0.170 C 
HETATM    4  S1  UNL     1       0.997 -10.809  16.050  1.00  0.00    -0.041 SA
BRANCH   3   5
HETATM    5  N2  UNL     1       0.967 -13.393  15.684  1.00  0.00    -0.358 N 
HETATM    6  C7  UNL     1       1.885 -13.601  16.814  1.00  0.00     0.125 C 
HETATM    7  C8  UNL     1       1.827 -15.064  17.087  1.00  0.00     0.021 C 
HETATM    8  C9  UNL     1       1.641 -15.648  15.694  1.00  0.00     0.021 C 
HETATM    9  C10 UNL     1       0.698 -14.668  15.068  1.00  0.00     0.125 C 
ENDBRANCH   3   5
ENDBRANCH   1   3
BRANCH   1  10
HETATM   10  C2  UNL     1      -0.905 -10.784  13.705  1.00  0.00     0.102 C 
HETATM   11  C3  UNL     1      -2.363 -10.496  13.616  1.00  0.00     0.027 C 
HETATM   12  C4  UNL     1      -2.378  -9.199  12.791  1.00  0.00     0.004 C 
HETATM   13  C5  UNL     1      -1.086  -9.193  12.000  1.00  0.00     0.022 C 
HETATM   14  C6  UNL     1      -0.430 -10.529  12.292  1.00  0.00     0.105 C 
HETATM   15 CL1  UNL     1       1.318 -10.484  12.145  1.00  0.00    -0.123 Cl
ENDBRANCH   1  10
TORSDOF 3
ENDMDL
MODEL 2
REMARK VINA RESULT: -4.961623650      0.082      1.066
REMARK  3 active torsions:
REMARK  status: ('A' for Active; 'I' for Inactive)
REMARK    1  A    between atoms: C1_2  and  N1_3 
REMARK    2  A    between atoms: C1_2  and  N2_11 
REMARK    3  A    between atoms: N1_3  and  C2_5 
ROOT
HETATM    1  N1  UNL     1      -0.482 -12.056  14.163  1.00  0.00    -0.361 N 
ATOM      2  H1  UNL     1      -0.902 -12.903  13.782  1.00  0.00     0.162 HD
ENDROOT
BRANCH   1   3
HETATM    3  C1  UNL     1       0.499 -12.149  15.197  1.00  0.00     0.170 C 
HETATM    4  S1  UNL     1       1.155 -10.810  15.898  1.00  0.00    -0.041 SA
BRANCH   3   5
HETATM    5  N2  UNL     1       0.972 -13.404  15.666  1.00  0.00    -0.358 N 
HETATM    6  C7  UNL     1       0.641 -14.716  15.090  1.00  0.00     0.125 C 
HETATM    7  C8  UNL     1       1.662 -15.645  15.647  1.00  0.00     0.021 C 
HETATM    8  C9  UNL     1       1.893 -15.077  17.040  1.00  0.00     0.021 C 
HETATM    9  C10 UNL     1       1.856 -13.603  16.786  1.00  0.00     0.125 C 
ENDBRANCH   3   5
ENDBRANCH   1   3
BRANCH   1  10
HETATM   10  C2  UNL     1      -0.872 -10.787  13.665  1.00  0.00     0.102 C 
HETATM   11  C3  UNL     1      -2.332 -10.513  13.572  1.00  0.00     0.027 C 
HETATM   12  C4  UNL     1      -2.356  -9.209  12.759  1.00  0.00     0.004 C 
HETATM   13  C5  UNL     1      -1.061  -9.183  11.973  1.00  0.00     0.022 C 
HETATM   14  C6  UNL     1      -0.393 -10.514  12.255  1.00  0.00     0.105 C 
HETATM   15 CL1  UNL     1       1.355 -10.452  12.117  1.00  0.00    -0.123 Cl
ENDBRANCH   1  10
TORSDOF 3
ENDMDL
MODEL 3
REMARK VINA RESULT: -4.924631210      2.085      2.680
REMARK  3 active torsions:
REMARK  status: ('A' for Active; 'I' for Inactive)
REMARK    1  A    between atoms: C1_2  and  N1_3 
REMARK    2  A    between atoms: C1_2  and  N2_11 
REMARK    3  A    between atoms: N1_3  and  C2_5 
ROOT
HETATM    1  N1  UNL     1      -0.787 -11.746  14.324  1.00  0.00    -0.361 N 
ATOM      2  H1  UNL     1      -1.603 -12.281  14.027  1.00  0.00     0.162 HD
ENDROOT
BRANCH   1   3
HETATM    3  C1  UNL     1       0.519 -12.311  14.201  1.00  0.00     0.170 C 
HETATM    4  S1  UNL     1       1.617 -11.736  13.116  1.00  0.00    -0.041 SA
BRANCH   3   5
HETATM    5  N2  UNL     1       0.935 -13.410  14.999  1.00  0.00    -0.358 N 
HETATM    6  C7  UNL     1       0.574 -14.818  14.776  1.00  0.00     0.125 C 
HETATM    7  C8  UNL     1       1.547 -15.595  15.594  1.00  0.00     0.021 C 
HETATM    8  C9  UNL     1       1.759 -14.686  16.796  1.00  0.00     0.021 C 
HETATM    9  C10 UNL     1       1.780 -13.330  16.163  1.00  0.00     0.125 C 
ENDBRANCH   3   5
ENDBRANCH   1   3
BRANCH   1  10
HETATM   10  C2  UNL     1      -0.951 -10.443  14.857  1.00  0.00     0.102 C 
HETATM   11  C3  UNL     1      -0.582 -10.241  16.285  1.00  0.00     0.027 C 
HETATM   12  C4  UNL     1      -1.142  -8.837  16.560  1.00  0.00     0.004 C 
HETATM   13  C5  UNL     1      -2.250  -8.625  15.549  1.00  0.00     0.022 C 
HETATM   14  C6  UNL     1      -2.379  -9.943  14.810  1.00  0.00     0.105 C 
HETATM   15 CL1  UNL     1      -2.997  -9.762  13.179  1.00  0.00    -0.123 Cl
ENDBRANCH   1  10
TORSDOF 3
ENDMDL
MODEL 4
REMARK VINA RESULT: -4.913506554      2.102      2.492
REMARK  3 active torsions:
REMARK  status: ('A' for Active; 'I' for Inactive)
REMARK    1  A    between atoms: C1_2  and  N1_3 
REMARK    2  A    between atoms: C1_2  and  N2_11 
REMARK    3  A    between atoms: N1_3  and  C2_5 
ROOT
HETATM    1  N1  UNL     1      -0.711 -11.778  14.303  1.00  0.00    -0.361 N 
ATOM      2  H1  UNL     1      -1.527 -12.339  14.063  1.00  0.00     0.162 HD
ENDROOT
BRANCH   1   3
HETATM    3  C1  UNL     1       0.601 -12.299  14.087  1.00  0.00     0.170 C 
HETATM    4  S1  UNL     1       1.618 -11.657  12.961  1.00  0.00    -0.041 SA
BRANCH   3   5
HETATM    5  N2  UNL     1       1.094 -13.410  14.822  1.00  0.00    -0.358 N 
HETATM    6  C7  UNL     1       2.173 -13.370  15.820  1.00  0.00     0.125 C 
HETATM    7  C8  UNL     1       2.044 -14.649  16.573  1.00  0.00     0.021 C 
HETATM    8  C9  UNL     1       1.572 -15.614  15.495  1.00  0.00     0.021 C 
HETATM    9  C10 UNL     1       0.619 -14.767  14.712  1.00  0.00     0.125 C 
ENDBRANCH   3   5
ENDBRANCH   1   3
BRANCH   1  10
HETATM   10  C2  UNL     1      -0.880 -10.482  14.852  1.00  0.00     0.102 C 
HETATM   11  C3  UNL     1      -0.506 -10.294  16.281  1.00  0.00     0.027 C 
HETATM   12  C4  UNL     1      -1.074  -8.896  16.573  1.00  0.00     0.004 C 
HETATM   13  C5  UNL     1      -2.186  -8.679  15.569  1.00  0.00     0.022 C 
HETATM   14  C6  UNL     1      -2.310  -9.989  14.816  1.00  0.00     0.105 C 
HETATM   15 CL1  UNL     1      -2.936  -9.793  13.189  1.00  0.00    -0.123 Cl
ENDBRANCH   1  10
TORSDOF 3
ENDMDL
MODEL 5
REMARK VINA RESULT: -4.883454072      1.374      1.926
REMARK  3 active torsions:
REMARK  status: ('A' for Active; 'I' for Inactive)
REMARK    1  A    between atoms: C1_2  and  N1_3 
REMARK    2  A    between atoms: C1_2  and  N2_11 
REMARK    3  A    between atoms: N1_3  and  C2_5 
ROOT
HETATM    1  N1  UNL     1      -0.487 -11.930  14.454  1.00  0.00    -0.361 N 
ATOM      2  H1  UNL     1      -1.471 -12.103  14.655  1.00  0.00     0.162 HD
ENDROOT
BRANCH   1   3
HETATM    3  C1  UNL     1       0.495 -12.130  15.471  1.00  0.00     0.170 C 
HETATM    4  S1  UNL     1       1.122 -10.876  16.336  1.00  0.00    -0.041 SA
BRANCH   3   5
HETATM    5  N2  UNL     1       0.995 -13.424  15.781  1.00  0.00    -0.358 N 
HETATM    6  C7  UNL     1       1.854 -13.761  16.927  1.00  0.00     0.125 C 
HETATM    7  C8  UNL     1       1.770 -15.243  17.041  1.00  0.00     0.021 C 
HETATM    8  C9  UNL     1       1.649 -15.676  15.587  1.00  0.00     0.021 C 
HETATM    9  C10 UNL     1       0.747 -14.624  15.022  1.00  0.00     0.125 C 
ENDBRANCH   3   5
ENDBRANCH   1   3
BRANCH   1  10
HETATM   10  C2  UNL     1      -0.095 -11.491  13.164  1.00  0.00     0.102 C 
HETATM   11  C3  UNL     1       1.356 -11.551  12.837  1.00  0.00     0.027 C 
HETATM   12  C4  UNL     1       1.415 -10.763  11.519  1.00  0.00     0.004 C 
HETATM   13  C5  UNL     1       0.206  -9.850  11.525  1.00  0.00     0.022 C 
HETATM   14  C6  UNL     1      -0.438 -10.044  12.884  1.00  0.00     0.105 C 
HETATM   15 CL1  UNL     1      -2.164  -9.729  12.881  1.00  0.00    -0.123 Cl
ENDBRANCH   1  10
TORSDOF 3
ENDMDL
