MODEL 1
REMARK VINA RESULT: -5.206683507      0.000      0.000
REMARK  2 active torsions:
REMARK  status: ('A' for Active; 'I' for Inactive)
REMARK    1  A    between atoms: N1_3  and  C5_6 
REMARK    2  A    between atoms: C5_6  and  C6_7 
REMARK       I    between atoms: C6_7  and  N2_9 
REMARK       I    between atoms: C7_11  and  N4_13 
ROOT
HETATM    1  C1  UNL     1     -25.569   3.776  11.091  1.00  0.00     0.044 C 
HETATM    2  C2  UNL     1     -25.682   3.633  12.283  1.00  0.00     0.105 C 
HETATM    3  N1  UNL     1     -25.818   3.447  13.684  1.00  0.00    -0.003 N 
HETATM    4  C3  UNL     1     -25.740   2.034  13.959  1.00  0.00     0.290 C 
HETATM    5  C4  UNL     1     -27.099   4.011  14.043  1.00  0.00     0.290 C 
ENDROOT
BRANCH   3   6
HETATM    6  C5  UNL     1     -24.720   4.120  14.301  1.00  0.00     0.355 C 
BRANCH   6   7
HETATM    7  C6  UNL     1     -24.805   4.219  15.761  1.00  0.00     0.251 C 
HETATM    8  O1  UNL     1     -25.576   4.973  16.409  1.00  0.00    -0.271 OA
HETATM    9  N2  UNL     1     -23.944   3.394  16.538  1.00  0.00    -0.300 N 
HETATM   10  C7  UNL     1     -22.694   3.715  16.592  1.00  0.00     0.196 C 
ATOM     11  H2  UNL     1     -24.301   2.578  17.034  1.00  0.00     0.171 HD
HETATM   12  N3  UNL     1     -22.175   4.848  15.910  1.00  0.00    -0.063 NA
HETATM   13  N4  UNL     1     -21.749   2.948  17.347  1.00  0.00    -0.323 N 
HETATM   14  C8  UNL     1     -20.948   2.151  16.746  1.00  0.00     0.091 C 
ATOM     15  H4  UNL     1     -21.714   3.036  18.362  1.00  0.00     0.169 HD
HETATM   16  C9  UNL     1     -19.992   1.383  17.598  1.00  0.00     0.085 C 
HETATM   17  N5  UNL     1     -20.977   2.014  15.344  1.00  0.00    -0.088 NA
ENDBRANCH   6   7
ENDBRANCH   3   6
TORSDOF 2
ENDMDL
MODEL 2
REMARK VINA RESULT: -5.150914817      0.974      1.099
REMARK  2 active torsions:
REMARK  status: ('A' for Active; 'I' for Inactive)
REMARK    1  A    between atoms: N1_3  and  C5_6 
REMARK    2  A    between atoms: C5_6  and  C6_7 
REMARK       I    between atoms: C6_7  and  N2_9 
REMARK       I    between atoms: C7_11  and  N4_13 
ROOT
HETATM    1  C1  UNL     1     -27.510   3.391  12.525  1.00  0.00     0.044 C 
HETATM    2  C2  UNL     1     -26.827   3.175  13.495  1.00  0.00     0.105 C 
HETATM    3  N1  UNL     1     -26.019   2.906  14.630  1.00  0.00    -0.003 N 
HETATM    4  C3  UNL     1     -25.094   1.856  14.284  1.00  0.00     0.290 C 
HETATM    5  C4  UNL     1     -26.924   2.521  15.688  1.00  0.00     0.290 C 
ENDROOT
BRANCH   3   6
HETATM    6  C5  UNL     1     -25.299   4.105  14.922  1.00  0.00     0.355 C 
BRANCH   6   7
HETATM    7  C6  UNL     1     -25.043   4.335  16.346  1.00  0.00     0.251 C 
HETATM    8  O1  UNL     1     -25.612   5.188  17.074  1.00  0.00    -0.271 OA
HETATM    9  N2  UNL     1     -24.061   3.527  16.986  1.00  0.00    -0.300 N 
HETATM   10  C7  UNL     1     -22.820   3.773  16.726  1.00  0.00     0.196 C 
ATOM     11  H2  UNL     1     -24.328   2.780  17.627  1.00  0.00     0.171 HD
HETATM   12  N3  UNL     1     -22.425   4.809  15.837  1.00  0.00    -0.063 NA
HETATM   13  N4  UNL     1     -21.759   3.015  17.321  1.00  0.00    -0.323 N 
HETATM   14  C8  UNL     1     -21.152   2.121  16.637  1.00  0.00     0.091 C 
ATOM     15  H4  UNL     1     -21.489   3.188  18.289  1.00  0.00     0.169 HD
HETATM   16  C9  UNL     1     -20.058   1.371  17.322  1.00  0.00     0.085 C 
HETATM   17  N5  UNL     1     -21.508   1.866  15.297  1.00  0.00    -0.088 NA
ENDBRANCH   6   7
ENDBRANCH   3   6
TORSDOF 2
ENDMDL
MODEL 3
REMARK VINA RESULT: -4.973328946      2.746      5.146
REMARK  2 active torsions:
REMARK  status: ('A' for Active; 'I' for Inactive)
REMARK    1  A    between atoms: N1_3  and  C5_6 
REMARK    2  A    between atoms: C5_6  and  C6_7 
REMARK       I    between atoms: C6_7  and  N2_9 
REMARK       I    between atoms: C7_11  and  N4_13 
ROOT
HETATM    1  C1  UNL     1     -22.901   7.791  16.013  1.00  0.00     0.044 C 
HETATM    2  C2  UNL     1     -23.485   6.753  16.204  1.00  0.00     0.105 C 
HETATM    3  N1  UNL     1     -24.188   5.540  16.426  1.00  0.00    -0.003 N 
HETATM    4  C3  UNL     1     -25.560   5.737  16.029  1.00  0.00     0.290 C 
HETATM    5  C4  UNL     1     -24.055   5.249  17.835  1.00  0.00     0.290 C 
ENDROOT
BRANCH   3   6
HETATM    6  C5  UNL     1     -23.582   4.550  15.592  1.00  0.00     0.355 C 
BRANCH   6   7
HETATM    7  C6  UNL     1     -23.622   3.188  16.132  1.00  0.00     0.251 C 
HETATM    8  O1  UNL     1     -22.675   2.589  16.703  1.00  0.00    -0.271 OA
HETATM    9  N2  UNL     1     -24.837   2.457  16.008  1.00  0.00    -0.300 N 
HETATM   10  C7  UNL     1     -25.146   2.000  14.841  1.00  0.00     0.196 C 
ATOM     11  H2  UNL     1     -25.442   2.299  16.814  1.00  0.00     0.171 HD
HETATM   12  N3  UNL     1     -24.318   2.207  13.705  1.00  0.00    -0.063 NA
HETATM   13  N4  UNL     1     -26.347   1.253  14.616  1.00  0.00    -0.323 N 
HETATM   14  C8  UNL     1     -27.352   1.811  14.054  1.00  0.00     0.091 C 
ATOM     15  H4  UNL     1     -26.402   0.276  14.904  1.00  0.00     0.169 HD
HETATM   16  C9  UNL     1     -28.569   0.970  13.853  1.00  0.00     0.085 C 
HETATM   17  N5  UNL     1     -27.298   3.159  13.647  1.00  0.00    -0.088 NA
ENDBRANCH   6   7
ENDBRANCH   3   6
TORSDOF 2
ENDMDL
MODEL 4
REMARK VINA RESULT: -4.954415100      2.294      2.635
REMARK  2 active torsions:
REMARK  status: ('A' for Active; 'I' for Inactive)
REMARK    1  A    between atoms: N1_3  and  C5_6 
REMARK    2  A    between atoms: C5_6  and  C6_7 
REMARK       I    between atoms: C6_7  and  N2_9 
REMARK       I    between atoms: C7_11  and  N4_13 
ROOT
HETATM    1  C1  UNL     1     -26.446   1.914  15.279  1.00  0.00     0.044 C 
HETATM    2  C2  UNL     1     -26.570   2.977  15.835  1.00  0.00     0.105 C 
HETATM    3  N1  UNL     1     -26.724   4.220  16.502  1.00  0.00    -0.003 N 
HETATM    4  C3  UNL     1     -26.948   3.953  17.902  1.00  0.00     0.290 C 
HETATM    5  C4  UNL     1     -27.848   4.878  15.878  1.00  0.00     0.290 C 
ENDROOT
BRANCH   3   6
HETATM    6  C5  UNL     1     -25.497   4.934  16.339  1.00  0.00     0.355 C 
BRANCH   6   7
HETATM    7  C6  UNL     1     -24.506   4.697  17.392  1.00  0.00     0.251 C 
HETATM    8  O1  UNL     1     -24.310   5.420  18.402  1.00  0.00    -0.271 OA
HETATM    9  N2  UNL     1     -23.676   3.546  17.280  1.00  0.00    -0.300 N 
HETATM   10  C7  UNL     1     -22.731   3.571  16.401  1.00  0.00     0.196 C 
ATOM     11  H2  UNL     1     -23.822   2.730  17.875  1.00  0.00     0.171 HD
HETATM   12  N3  UNL     1     -22.508   4.697  15.563  1.00  0.00    -0.063 NA
HETATM   13  N4  UNL     1     -21.844   2.462  16.214  1.00  0.00    -0.323 N 
HETATM   14  C8  UNL     1     -22.001   1.680  15.213  1.00  0.00     0.091 C 
ATOM     15  H4  UNL     1     -21.087   2.295  16.877  1.00  0.00     0.169 HD
HETATM   16  C9  UNL     1     -21.039   0.545  15.083  1.00  0.00     0.085 C 
HETATM   17  N5  UNL     1     -23.038   1.891  14.283  1.00  0.00    -0.088 NA
ENDBRANCH   6   7
ENDBRANCH   3   6
TORSDOF 2
ENDMDL
MODEL 5
REMARK VINA RESULT: -4.954102403      1.750      1.935
REMARK  2 active torsions:
REMARK  status: ('A' for Active; 'I' for Inactive)
REMARK    1  A    between atoms: N1_3  and  C5_6 
REMARK    2  A    between atoms: C5_6  and  C6_7 
REMARK       I    between atoms: C6_7  and  N2_9 
REMARK       I    between atoms: C7_11  and  N4_13 
ROOT
HETATM    1  C1  UNL     1     -27.053   1.274  14.107  1.00  0.00     0.044 C 
HETATM    2  C2  UNL     1     -26.972   2.198  14.877  1.00  0.00     0.105 C 
HETATM    3  N1  UNL     1     -26.882   3.276  15.796  1.00  0.00    -0.003 N 
HETATM    4  C3  UNL     1     -26.983   2.738  17.130  1.00  0.00     0.290 C 
HETATM    5  C4  UNL     1     -27.970   4.171  15.477  1.00  0.00     0.290 C 
ENDROOT
BRANCH   3   6
HETATM    6  C5  UNL     1     -25.597   3.872  15.613  1.00  0.00     0.355 C 
BRANCH   6   7
HETATM    7  C6  UNL     1     -24.993   4.412  16.835  1.00  0.00     0.251 C 
HETATM    8  O1  UNL     1     -25.359   5.448  17.447  1.00  0.00    -0.271 OA
HETATM    9  N2  UNL     1     -23.887   3.714  17.397  1.00  0.00    -0.300 N 
HETATM   10  C7  UNL     1     -22.749   3.810  16.796  1.00  0.00     0.196 C 
ATOM     11  H2  UNL     1     -23.991   3.158  18.246  1.00  0.00     0.171 HD
HETATM   12  N3  UNL     1     -22.581   4.580  15.614  1.00  0.00    -0.063 NA
HETATM   13  N4  UNL     1     -21.578   3.145  17.285  1.00  0.00    -0.323 N 
HETATM   14  C8  UNL     1     -21.164   2.077  16.714  1.00  0.00     0.091 C 
ATOM     15  H4  UNL     1     -21.074   3.522  18.088  1.00  0.00     0.169 HD
HETATM   16  C9  UNL     1     -19.938   1.439  17.279  1.00  0.00     0.085 C 
HETATM   17  N5  UNL     1     -21.844   1.539  15.603  1.00  0.00    -0.088 NA
ENDBRANCH   6   7
ENDBRANCH   3   6
TORSDOF 2
ENDMDL
