MODEL 1
REMARK VINA RESULT: -4.042244366      0.000      0.000
REMARK  3 active torsions:
REMARK  status: ('A' for Active; 'I' for Inactive)
REMARK    1  A    between atoms: C4_4  and  C5_5 
REMARK    2  A    between atoms: C5_5  and  N1_6 
REMARK    3  A    between atoms: C9_10  and  N2_12 
ROOT
HETATM    1  C1  UNL     1       1.594 -12.007  13.073  1.00  0.00     0.018 C 
HETATM    2  C2  UNL     1       1.756 -12.106  14.569  1.00  0.00    -0.007 A 
HETATM    3  C3  UNL     1       3.064 -11.629  15.095  1.00  0.00     0.018 C 
HETATM    4  C4  UNL     1       0.545 -11.789  15.452  1.00  0.00     0.058 A 
HETATM    5  C9  UNL     1       0.958 -13.163  15.230  1.00  0.00     0.133 A 
HETATM    6  C10 UNL     1       1.658 -13.859  16.407  1.00  0.00     0.047 C 
ENDROOT
BRANCH   4   7
HETATM    7  C5  UNL     1      -0.562 -11.114  14.694  1.00  0.00     0.243 C 
BRANCH   7   8
HETATM    8  N1  UNL     1      -0.835  -9.780  15.139  1.00  0.00    -0.078 N 
HETATM    9  C6  UNL     1      -2.203  -9.372  14.853  1.00  0.00     0.271 C 
HETATM   10  C7  UNL     1      -0.732  -9.794  16.606  1.00  0.00     0.271 C 
HETATM   11  C8  UNL     1       0.083  -8.793  14.623  1.00  0.00     0.271 C 
ENDBRANCH   7   8
ENDBRANCH   4   7
BRANCH   5  12
HETATM   12  N2  UNL     1       0.239 -14.091  14.394  1.00  0.00    -0.070 N 
ATOM     13  H23 UNL     1       0.713 -14.994  14.413  1.00  0.00     0.275 HD
ATOM     14  H22 UNL     1      -0.647 -14.326  14.842  1.00  0.00     0.275 HD
ATOM     15  H21 UNL     1       0.063 -13.827  13.425  1.00  0.00     0.275 HD
ENDBRANCH   5  12
TORSDOF 3
ENDMDL
MODEL 2
REMARK VINA RESULT: -4.042235637      0.076      1.182
REMARK  3 active torsions:
REMARK  status: ('A' for Active; 'I' for Inactive)
REMARK    1  A    between atoms: C4_4  and  C5_5 
REMARK    2  A    between atoms: C5_5  and  N1_6 
REMARK    3  A    between atoms: C9_10  and  N2_12 
ROOT
HETATM    1  C1  UNL     1       1.571 -12.003  13.068  1.00  0.00     0.018 C 
HETATM    2  C2  UNL     1       1.758 -12.099  14.562  1.00  0.00    -0.007 A 
HETATM    3  C3  UNL     1       3.073 -11.618  15.066  1.00  0.00     0.018 C 
HETATM    4  C4  UNL     1       0.561 -11.785  15.464  1.00  0.00     0.058 A 
HETATM    5  C9  UNL     1       0.974 -13.158  15.237  1.00  0.00     0.133 A 
HETATM    6  C10 UNL     1       1.694 -13.850  16.404  1.00  0.00     0.047 C 
ENDROOT
BRANCH   4   7
HETATM    7  C5  UNL     1      -0.560 -11.113  14.723  1.00  0.00     0.243 C 
BRANCH   7   8
HETATM    8  N1  UNL     1      -0.866  -9.801  15.206  1.00  0.00    -0.078 N 
HETATM    9  C6  UNL     1      -0.008  -8.782  14.617  1.00  0.00     0.271 C 
HETATM   10  C7  UNL     1      -2.224  -9.483  14.738  1.00  0.00     0.271 C 
HETATM   11  C8  UNL     1      -0.836  -9.685  16.644  1.00  0.00     0.271 C 
ENDBRANCH   7   8
ENDBRANCH   4   7
BRANCH   5  12
HETATM   12  N2  UNL     1       0.244 -14.089  14.414  1.00  0.00    -0.070 N 
ATOM     13  H23 UNL     1       0.484 -13.930  13.436  1.00  0.00     0.275 HD
ATOM     14  H22 UNL     1       0.620 -15.027  14.557  1.00  0.00     0.275 HD
ATOM     15  H21 UNL     1      -0.771 -14.119  14.509  1.00  0.00     0.275 HD
ENDBRANCH   5  12
TORSDOF 3
ENDMDL
MODEL 3
REMARK VINA RESULT: -4.037876246      0.048      1.178
REMARK  3 active torsions:
REMARK  status: ('A' for Active; 'I' for Inactive)
REMARK    1  A    between atoms: C4_4  and  C5_5 
REMARK    2  A    between atoms: C5_5  and  N1_6 
REMARK    3  A    between atoms: C9_10  and  N2_12 
ROOT
HETATM    1  C1  UNL     1       1.602 -12.022  13.067  1.00  0.00     0.018 C 
HETATM    2  C2  UNL     1       1.760 -12.112  14.564  1.00  0.00    -0.007 A 
HETATM    3  C3  UNL     1       3.068 -11.636  15.090  1.00  0.00     0.018 C 
HETATM    4  C4  UNL     1       0.548 -11.787  15.442  1.00  0.00     0.058 A 
HETATM    5  C9  UNL     1       0.958 -13.163  15.229  1.00  0.00     0.133 A 
HETATM    6  C10 UNL     1       1.652 -13.855  16.411  1.00  0.00     0.047 C 
ENDROOT
BRANCH   4   7
HETATM    7  C5  UNL     1      -0.555 -11.113  14.678  1.00  0.00     0.243 C 
BRANCH   7   8
HETATM    8  N1  UNL     1      -0.917  -9.829  15.199  1.00  0.00    -0.078 N 
HETATM    9  C6  UNL     1      -0.753  -9.754  16.644  1.00  0.00     0.271 C 
HETATM   10  C7  UNL     1       0.045  -8.862  14.649  1.00  0.00     0.271 C 
HETATM   11  C8  UNL     1      -2.250  -9.407  14.840  1.00  0.00     0.271 C 
ENDBRANCH   7   8
ENDBRANCH   4   7
BRANCH   5  12
HETATM   12  N2  UNL     1       0.238 -14.094  14.396  1.00  0.00    -0.070 N 
ATOM     13  H23 UNL     1       0.671 -14.120  13.473  1.00  0.00     0.275 HD
ATOM     14  H22 UNL     1       0.419 -15.043  14.723  1.00  0.00     0.275 HD
ATOM     15  H21 UNL     1      -0.768 -13.964  14.290  1.00  0.00     0.275 HD
ENDBRANCH   5  12
TORSDOF 3
ENDMDL
MODEL 4
REMARK VINA RESULT: -3.970331221      1.121      1.880
REMARK  3 active torsions:
REMARK  status: ('A' for Active; 'I' for Inactive)
REMARK    1  A    between atoms: C4_4  and  C5_5 
REMARK    2  A    between atoms: C5_5  and  N1_6 
REMARK    3  A    between atoms: C9_10  and  N2_12 
ROOT
HETATM    1  C1  UNL     1       3.071 -11.937  15.007  1.00  0.00     0.018 C 
HETATM    2  C2  UNL     1       1.928 -12.730  15.587  1.00  0.00    -0.007 A 
HETATM    3  C3  UNL     1       2.050 -13.045  17.036  1.00  0.00     0.018 C 
HETATM    4  C4  UNL     1       0.509 -12.413  15.107  1.00  0.00     0.058 A 
HETATM    5  C9  UNL     1       1.201 -13.597  14.632  1.00  0.00     0.133 A 
HETATM    6  C10 UNL     1       0.726 -14.938  15.210  1.00  0.00     0.047 C 
ENDROOT
BRANCH   4   7
HETATM    7  C5  UNL     1       0.432 -11.123  14.343  1.00  0.00     0.243 C 
BRANCH   7   8
HETATM    8  N1  UNL     1      -0.609 -10.248  14.791  1.00  0.00    -0.078 N 
HETATM    9  C6  UNL     1      -0.651 -10.138  16.242  1.00  0.00     0.271 C 
HETATM   10  C7  UNL     1      -0.267  -8.901  14.308  1.00  0.00     0.271 C 
HETATM   11  C8  UNL     1      -1.919 -10.595  14.294  1.00  0.00     0.271 C 
ENDBRANCH   7   8
ENDBRANCH   4   7
BRANCH   5  12
HETATM   12  N2  UNL     1       1.735 -13.733  13.300  1.00  0.00    -0.070 N 
ATOM     13  H23 UNL     1       1.271 -13.064  12.685  1.00  0.00     0.275 HD
ATOM     14  H22 UNL     1       2.692 -13.379  13.286  1.00  0.00     0.275 HD
ATOM     15  H21 UNL     1       1.713 -14.656  12.867  1.00  0.00     0.275 HD
ENDBRANCH   5  12
TORSDOF 3
ENDMDL
MODEL 5
REMARK VINA RESULT: -3.965189447      1.127      1.829
REMARK  3 active torsions:
REMARK  status: ('A' for Active; 'I' for Inactive)
REMARK    1  A    between atoms: C4_4  and  C5_5 
REMARK    2  A    between atoms: C5_5  and  N1_6 
REMARK    3  A    between atoms: C9_10  and  N2_12 
ROOT
HETATM    1  C1  UNL     1       3.075 -11.939  14.995  1.00  0.00     0.018 C 
HETATM    2  C2  UNL     1       1.926 -12.724  15.577  1.00  0.00    -0.007 A 
HETATM    3  C3  UNL     1       2.042 -13.031  17.028  1.00  0.00     0.018 C 
HETATM    4  C4  UNL     1       0.510 -12.404  15.090  1.00  0.00     0.058 A 
HETATM    5  C9  UNL     1       1.199 -13.593  14.624  1.00  0.00     0.133 A 
HETATM    6  C10 UNL     1       0.716 -14.929  15.208  1.00  0.00     0.047 C 
ENDROOT
BRANCH   4   7
HETATM    7  C5  UNL     1       0.441 -11.118  14.318  1.00  0.00     0.243 C 
BRANCH   7   8
HETATM    8  N1  UNL     1      -0.539 -10.199  14.813  1.00  0.00    -0.078 N 
HETATM    9  C6  UNL     1      -0.344  -8.851  14.296  1.00  0.00     0.271 C 
HETATM   10  C7  UNL     1      -1.838 -10.636  14.279  1.00  0.00     0.271 C 
HETATM   11  C8  UNL     1      -0.625 -10.156  16.253  1.00  0.00     0.271 C 
ENDBRANCH   7   8
ENDBRANCH   4   7
BRANCH   5  12
HETATM   12  N2  UNL     1       1.737 -13.739  13.295  1.00  0.00    -0.070 N 
ATOM     13  H23 UNL     1       1.218 -13.135  12.657  1.00  0.00     0.275 HD
ATOM     14  H22 UNL     1       2.662 -13.310  13.260  1.00  0.00     0.275 HD
ATOM     15  H21 UNL     1       1.789 -14.677  12.898  1.00  0.00     0.275 HD
ENDBRANCH   5  12
TORSDOF 3
ENDMDL
