MODEL 1
REMARK VINA RESULT: -8.226576852      0.000      0.000
REMARK  10 active torsions:
REMARK  status: ('A' for Active; 'I' for Inactive)
REMARK    1  A    between atoms: C1_2  and  C2_4 
REMARK    2  A    between atoms: C6_8  and  C7_9 
REMARK    3  A    between atoms: C14_20  and  O4_21 
REMARK    4  A    between atoms: C14_20  and  C15_23 
REMARK    5  A    between atoms: C16_24  and  C17_25 
REMARK    6  A    between atoms: C18_26  and  C19_27 
REMARK    7  A    between atoms: C20_28  and  C21_29 
REMARK    8  A    between atoms: C21_29  and  C22_30 
REMARK    9  A    between atoms: C22_30  and  O5_31 
REMARK   10  A    between atoms: C23_33  and  C24_34 
ROOT
HETATM    1  C2  UNL     1      15.949  14.709  11.759  1.00  0.00     0.102 C 
HETATM    2  C3  UNL     1      17.325  14.051  11.942  1.00  0.00     0.025 C 
HETATM    3  C4  UNL     1      18.122  15.026  12.732  1.00  0.00     0.038 C 
HETATM    4  C5  UNL     1      17.489  16.399  12.481  1.00  0.00     0.020 C 
HETATM    5  C6  UNL     1      18.512  17.244  11.872  1.00  0.00     0.070 C 
HETATM    6  C13 UNL     1      19.813  16.521  11.952  1.00  0.00     0.170 C 
HETATM    7  O3  UNL     1      20.883  16.983  11.672  1.00  0.00    -0.294 OA
HETATM    8  C14 UNL     1      19.565  15.139  12.434  1.00  0.00     0.140 C 
HETATM    9  C23 UNL     1      16.197  16.182  11.801  1.00  0.00     0.106 C 
ENDROOT
BRANCH   8  10
HETATM   10  O4  UNL     1      20.273  14.975  13.665  1.00  0.00    -0.378 OA
ATOM     11  H4  UNL     1      20.815  14.200  13.582  1.00  0.00     0.211 HD
ENDBRANCH   8  10
BRANCH   8  12
HETATM   12  C15 UNL     1      20.142  14.186  11.499  1.00  0.00     0.019 C 
HETATM   13  C16 UNL     1      21.364  13.716  11.441  1.00  0.00    -0.001 C 
BRANCH  13  14
HETATM   14  C17 UNL     1      22.427  14.073  12.344  1.00  0.00    -0.000 C 
HETATM   15  C18 UNL     1      23.540  14.629  11.940  1.00  0.00    -0.000 C 
BRANCH  15  16
HETATM   16  C19 UNL     1      23.802  14.934  10.556  1.00  0.00    -0.004 C 
HETATM   17  C20 UNL     1      23.831  16.215  10.154  1.00  0.00    -0.025 C 
BRANCH  17  18
HETATM   18  C21 UNL     1      24.099  16.520   8.742  1.00  0.00     0.053 C 
BRANCH  18  19
HETATM   19  C22 UNL     1      25.190  15.542   8.283  1.00  0.00     0.168 C 
BRANCH  19  20
HETATM   20  O5  UNL     1      24.959  15.167   6.973  1.00  0.00    -0.401 OA
ATOM     21  H5  UNL     1      25.507  14.423   6.751  1.00  0.00     0.209 HD
ENDBRANCH  19  20
ENDBRANCH  18  19
ENDBRANCH  17  18
ENDBRANCH  15  16
ENDBRANCH  13  14
ENDBRANCH   8  12
BRANCH   5  22
HETATM   22  C7  UNL     1      18.374  17.757  10.499  1.00  0.00     0.026 C 
HETATM   23  C8  UNL     1      19.609  18.263   9.821  1.00  0.00     0.034 C 
HETATM   24  C9  UNL     1      19.348  18.255   8.333  1.00  0.00    -0.029 C 
HETATM   25  C10 UNL     1      18.323  18.871   7.730  1.00  0.00    -0.004 C 
HETATM   26  C11 UNL     1      17.223  19.677   8.295  1.00  0.00     0.259 C 
HETATM   27  N1  UNL     1      16.528  18.890   9.306  1.00  0.00    -0.072 N 
HETATM   28  C12 UNL     1      17.377  18.928  10.495  1.00  0.00     0.238 C 
ATOM     29  H12 UNL     1      15.571  19.200   9.478  1.00  0.00     0.277 HD
ATOM     30  H11 UNL     1      16.298  17.944   9.000  1.00  0.00     0.277 HD
ENDBRANCH   5  22
BRANCH   1  31
HETATM   31  C1  UNL     1      15.087  14.118  12.771  1.00  0.00     0.177 C 
HETATM   32  O1  UNL     1      15.450  13.789  13.889  1.00  0.00    -0.648 OA
HETATM   33  O2  UNL     1      13.749  13.914  12.431  1.00  0.00    -0.648 OA
ENDBRANCH   1  31
BRANCH   9  34
HETATM   34  C24 UNL     1      15.053  16.861  12.478  1.00  0.00     0.178 C 
HETATM   35  O6  UNL     1      15.049  17.187  13.695  1.00  0.00    -0.648 OA
HETATM   36  O7  UNL     1      13.935  17.145  11.713  1.00  0.00    -0.648 OA
ENDBRANCH   9  34
TORSDOF 10
ENDMDL
MODEL 2
REMARK VINA RESULT: -8.189055785      2.249      5.116
REMARK  10 active torsions:
REMARK  status: ('A' for Active; 'I' for Inactive)
REMARK    1  A    between atoms: C1_2  and  C2_4 
REMARK    2  A    between atoms: C6_8  and  C7_9 
REMARK    3  A    between atoms: C14_20  and  O4_21 
REMARK    4  A    between atoms: C14_20  and  C15_23 
REMARK    5  A    between atoms: C16_24  and  C17_25 
REMARK    6  A    between atoms: C18_26  and  C19_27 
REMARK    7  A    between atoms: C20_28  and  C21_29 
REMARK    8  A    between atoms: C21_29  and  C22_30 
REMARK    9  A    between atoms: C22_30  and  O5_31 
REMARK   10  A    between atoms: C23_33  and  C24_34 
ROOT
HETATM    1  C2  UNL     1      20.036  14.588  12.019  1.00  0.00     0.102 C 
HETATM    2  C3  UNL     1      19.898  15.628  10.896  1.00  0.00     0.025 C 
HETATM    3  C4  UNL     1      19.491  16.885  11.576  1.00  0.00     0.038 C 
HETATM    4  C5  UNL     1      18.824  16.465  12.889  1.00  0.00     0.020 C 
HETATM    5  C6  UNL     1      17.450  16.959  12.857  1.00  0.00     0.070 C 
HETATM    6  C13 UNL     1      17.316  17.866  11.681  1.00  0.00     0.170 C 
HETATM    7  O3  UNL     1      16.363  18.550  11.437  1.00  0.00    -0.294 OA
HETATM    8  C14 UNL     1      18.554  17.781  10.866  1.00  0.00     0.140 C 
HETATM    9  C23 UNL     1      19.097  15.028  13.094  1.00  0.00     0.106 C 
ENDROOT
BRANCH   8  10
HETATM   10  O4  UNL     1      19.143  19.083  10.834  1.00  0.00    -0.378 OA
ATOM     11  H4  UNL     1      19.865  19.056  10.218  1.00  0.00     0.211 HD
ENDBRANCH   8  10
BRANCH   8  12
HETATM   12  C15 UNL     1      18.211  17.452   9.492  1.00  0.00     0.019 C 
HETATM   13  C16 UNL     1      18.683  17.954   8.376  1.00  0.00    -0.001 C 
BRANCH  13  14
HETATM   14  C17 UNL     1      19.687  18.981   8.295  1.00  0.00    -0.000 C 
HETATM   15  C18 UNL     1      20.965  18.714   8.207  1.00  0.00    -0.000 C 
BRANCH  15  16
HETATM   16  C19 UNL     1      21.481  17.369   8.183  1.00  0.00    -0.004 C 
HETATM   17  C20 UNL     1      22.548  17.055   8.935  1.00  0.00    -0.025 C 
BRANCH  17  18
HETATM   18  C21 UNL     1      23.069  15.682   8.907  1.00  0.00     0.053 C 
BRANCH  18  19
HETATM   19  C22 UNL     1      24.358  15.686   9.742  1.00  0.00     0.168 C 
BRANCH  19  20
HETATM   20  O5  UNL     1      24.329  14.645  10.651  1.00  0.00    -0.401 OA
ATOM     21  H5  UNL     1      24.744  13.878  10.273  1.00  0.00     0.209 HD
ENDBRANCH  19  20
ENDBRANCH  18  19
ENDBRANCH  17  18
ENDBRANCH  15  16
ENDBRANCH  13  14
ENDBRANCH   8  12
BRANCH   5  22
HETATM   22  C7  UNL     1      16.299  16.042  12.843  1.00  0.00     0.026 C 
HETATM   23  C8  UNL     1      15.946  15.392  11.542  1.00  0.00     0.034 C 
HETATM   24  C9  UNL     1      15.114  14.170  11.853  1.00  0.00    -0.029 C 
HETATM   25  C10 UNL     1      13.987  14.174  12.577  1.00  0.00    -0.004 C 
HETATM   26  C11 UNL     1      13.276  15.285  13.239  1.00  0.00     0.259 C 
HETATM   27  N1  UNL     1      14.196  15.966  14.142  1.00  0.00    -0.072 N 
HETATM   28  C12 UNL     1      15.041  16.804  13.293  1.00  0.00     0.238 C 
ATOM     29  H12 UNL     1      13.729  16.481  14.888  1.00  0.00     0.277 HD
ATOM     30  H11 UNL     1      14.724  15.331  14.742  1.00  0.00     0.277 HD
ENDBRANCH   5  22
BRANCH   1  31
HETATM   31  C1  UNL     1      21.457  14.515  12.321  1.00  0.00     0.177 C 
HETATM   32  O1  UNL     1      22.185  15.482  12.488  1.00  0.00    -0.648 OA
HETATM   33  O2  UNL     1      22.024  13.245  12.427  1.00  0.00    -0.648 OA
ENDBRANCH   1  31
BRANCH   9  34
HETATM   34  C24 UNL     1      19.690  14.725  14.429  1.00  0.00     0.178 C 
HETATM   35  O6  UNL     1      19.786  13.563  14.908  1.00  0.00    -0.648 OA
HETATM   36  O7  UNL     1      20.159  15.791  15.177  1.00  0.00    -0.648 OA
ENDBRANCH   9  34
TORSDOF 10
ENDMDL
MODEL 3
REMARK VINA RESULT: -8.178712843      2.691      4.811
REMARK  10 active torsions:
REMARK  status: ('A' for Active; 'I' for Inactive)
REMARK    1  A    between atoms: C1_2  and  C2_4 
REMARK    2  A    between atoms: C6_8  and  C7_9 
REMARK    3  A    between atoms: C14_20  and  O4_21 
REMARK    4  A    between atoms: C14_20  and  C15_23 
REMARK    5  A    between atoms: C16_24  and  C17_25 
REMARK    6  A    between atoms: C18_26  and  C19_27 
REMARK    7  A    between atoms: C20_28  and  C21_29 
REMARK    8  A    between atoms: C21_29  and  C22_30 
REMARK    9  A    between atoms: C22_30  and  O5_31 
REMARK   10  A    between atoms: C23_33  and  C24_34 
ROOT
HETATM    1  C2  UNL     1      20.285  12.247  13.502  1.00  0.00     0.102 C 
HETATM    2  C3  UNL     1      21.257  12.738  12.419  1.00  0.00     0.025 C 
HETATM    3  C4  UNL     1      21.699  14.083  12.871  1.00  0.00     0.038 C 
HETATM    4  C5  UNL     1      20.597  14.606  13.799  1.00  0.00     0.020 C 
HETATM    5  C6  UNL     1      20.079  15.836  13.208  1.00  0.00     0.070 C 
HETATM    6  C13 UNL     1      20.974  16.215  12.078  1.00  0.00     0.170 C 
HETATM    7  O3  UNL     1      20.921  17.244  11.464  1.00  0.00    -0.294 OA
HETATM    8  C14 UNL     1      21.939  15.113  11.839  1.00  0.00     0.140 C 
HETATM    9  C23 UNL     1      19.690  13.481  14.100  1.00  0.00     0.106 C 
ENDROOT
BRANCH   8  10
HETATM   10  O4  UNL     1      23.254  15.634  12.047  1.00  0.00    -0.378 OA
ATOM     11  H4  UNL     1      23.328  15.865  12.965  1.00  0.00     0.211 HD
ENDBRANCH   8  10
BRANCH   8  12
HETATM   12  C15 UNL     1      21.876  14.704  10.445  1.00  0.00     0.019 C 
HETATM   13  C16 UNL     1      22.558  15.151   9.418  1.00  0.00    -0.001 C 
BRANCH  13  14
HETATM   14  C17 UNL     1      23.554  16.188   9.479  1.00  0.00    -0.000 C 
HETATM   15  C18 UNL     1      23.450  17.309   8.812  1.00  0.00    -0.000 C 
BRANCH  15  16
HETATM   16  C19 UNL     1      22.328  17.605   7.957  1.00  0.00    -0.004 C 
HETATM   17  C20 UNL     1      21.471  18.581   8.304  1.00  0.00    -0.025 C 
BRANCH  17  18
HETATM   18  C21 UNL     1      20.330  18.879   7.429  1.00  0.00     0.053 C 
BRANCH  18  19
HETATM   19  C22 UNL     1      19.074  18.394   8.168  1.00  0.00     0.168 C 
BRANCH  19  20
HETATM   20  O5  UNL     1      19.237  18.572   9.530  1.00  0.00    -0.401 OA
ATOM     21  H5  UNL     1      18.401  18.788   9.927  1.00  0.00     0.209 HD
ENDBRANCH  19  20
ENDBRANCH  18  19
ENDBRANCH  17  18
ENDBRANCH  15  16
ENDBRANCH  13  14
ENDBRANCH   8  12
BRANCH   5  22
HETATM   22  C7  UNL     1      18.691  15.937  12.727  1.00  0.00     0.026 C 
HETATM   23  C8  UNL     1      18.401  15.456  11.340  1.00  0.00     0.034 C 
HETATM   24  C9  UNL     1      16.917  15.187  11.252  1.00  0.00    -0.029 C 
HETATM   25  C10 UNL     1      15.957  16.077  11.538  1.00  0.00    -0.004 C 
HETATM   26  C11 UNL     1      16.054  17.478  11.992  1.00  0.00     0.259 C 
HETATM   27  N1  UNL     1      16.859  17.528  13.206  1.00  0.00    -0.072 N 
HETATM   28  C12 UNL     1      18.249  17.409  12.768  1.00  0.00     0.238 C 
ATOM     29  H12 UNL     1      16.682  18.353  13.780  1.00  0.00     0.277 HD
ATOM     30  H11 UNL     1      16.591  16.833  13.903  1.00  0.00     0.277 HD
ENDBRANCH   5  22
BRANCH   1  31
HETATM   31  C1  UNL     1      21.057  11.360  14.358  1.00  0.00     0.177 C 
HETATM   32  O1  UNL     1      22.235  11.515  14.639  1.00  0.00    -0.648 OA
HETATM   33  O2  UNL     1      20.397  10.253  14.893  1.00  0.00    -0.648 OA
ENDBRANCH   1  31
BRANCH   9  34
HETATM   34  C24 UNL     1      19.474  13.272  15.561  1.00  0.00     0.178 C 
HETATM   35  O6  UNL     1      20.302  13.607  16.450  1.00  0.00    -0.648 OA
HETATM   36  O7  UNL     1      18.288  12.675  15.953  1.00  0.00    -0.648 OA
ENDBRANCH   9  34
TORSDOF 10
ENDMDL
MODEL 4
REMARK VINA RESULT: -8.177297523      3.029      7.034
REMARK  10 active torsions:
REMARK  status: ('A' for Active; 'I' for Inactive)
REMARK    1  A    between atoms: C1_2  and  C2_4 
REMARK    2  A    between atoms: C6_8  and  C7_9 
REMARK    3  A    between atoms: C14_20  and  O4_21 
REMARK    4  A    between atoms: C14_20  and  C15_23 
REMARK    5  A    between atoms: C16_24  and  C17_25 
REMARK    6  A    between atoms: C18_26  and  C19_27 
REMARK    7  A    between atoms: C20_28  and  C21_29 
REMARK    8  A    between atoms: C21_29  and  C22_30 
REMARK    9  A    between atoms: C22_30  and  O5_31 
REMARK   10  A    between atoms: C23_33  and  C24_34 
ROOT
HETATM    1  C2  UNL     1      21.792  15.101  10.249  1.00  0.00     0.102 C 
HETATM    2  C3  UNL     1      20.462  15.867  10.192  1.00  0.00     0.025 C 
HETATM    3  C4  UNL     1      20.396  16.631  11.465  1.00  0.00     0.038 C 
HETATM    4  C5  UNL     1      21.290  15.883  12.459  1.00  0.00     0.020 C 
HETATM    5  C6  UNL     1      20.446  15.466  13.575  1.00  0.00     0.070 C 
HETATM    6  C13 UNL     1      19.120  16.129  13.420  1.00  0.00     0.170 C 
HETATM    7  O3  UNL     1      18.238  16.117  14.232  1.00  0.00    -0.294 OA
HETATM    8  C14 UNL     1      19.072  16.803  12.099  1.00  0.00     0.140 C 
HETATM    9  C23 UNL     1      22.072  14.886  11.701  1.00  0.00     0.106 C 
ENDROOT
BRANCH   8  10
HETATM   10  O4  UNL     1      18.884  18.201  12.331  1.00  0.00    -0.378 OA
ATOM     11  H4  UNL     1      18.445  18.295  13.168  1.00  0.00     0.211 HD
ENDBRANCH   8  10
BRANCH   8  12
HETATM   12  C15 UNL     1      17.903  16.349  11.362  1.00  0.00     0.019 C 
HETATM   13  C16 UNL     1      16.891  17.044  10.902  1.00  0.00    -0.001 C 
BRANCH  13  14
HETATM   14  C17 UNL     1      16.737  18.467  11.044  1.00  0.00    -0.000 C 
HETATM   15  C18 UNL     1      17.167  19.318  10.148  1.00  0.00    -0.000 C 
BRANCH  15  16
HETATM   16  C19 UNL     1      17.834  18.905   8.939  1.00  0.00    -0.004 C 
HETATM   17  C20 UNL     1      19.172  18.993   8.858  1.00  0.00    -0.025 C 
BRANCH  17  18
HETATM   18  C21 UNL     1      19.846  18.571   7.623  1.00  0.00     0.053 C 
BRANCH  18  19
HETATM   19  C22 UNL     1      19.778  19.764   6.659  1.00  0.00     0.168 C 
BRANCH  19  20
HETATM   20  O5  UNL     1      20.435  19.451   5.483  1.00  0.00    -0.401 OA
ATOM     21  H5  UNL     1      20.776  20.244   5.086  1.00  0.00     0.209 HD
ENDBRANCH  19  20
ENDBRANCH  18  19
ENDBRANCH  17  18
ENDBRANCH  15  16
ENDBRANCH  13  14
ENDBRANCH   8  12
BRANCH   5  22
HETATM   22  C7  UNL     1      20.201  14.045  13.870  1.00  0.00     0.026 C 
HETATM   23  C8  UNL     1      19.028  13.393  13.207  1.00  0.00     0.034 C 
HETATM   24  C9  UNL     1      19.258  11.900  13.240  1.00  0.00    -0.029 C 
HETATM   25  C10 UNL     1      19.497  11.184  14.347  1.00  0.00    -0.004 C 
HETATM   26  C11 UNL     1      19.601  11.606  15.757  1.00  0.00     0.259 C 
HETATM   27  N1  UNL     1      20.616  12.647  15.867  1.00  0.00    -0.072 N 
HETATM   28  C12 UNL     1      19.984  13.874  15.383  1.00  0.00     0.238 C 
ATOM     29  H12 UNL     1      21.011  12.735  16.804  1.00  0.00     0.277 HD
ATOM     30  H11 UNL     1      21.487  12.421  15.387  1.00  0.00     0.277 HD
ENDBRANCH   5  22
BRANCH   1  31
HETATM   31  C1  UNL     1      22.735  15.882   9.463  1.00  0.00     0.177 C 
HETATM   32  O1  UNL     1      22.747  17.101   9.401  1.00  0.00    -0.648 OA
HETATM   33  O2  UNL     1      23.693  15.180   8.732  1.00  0.00    -0.648 OA
ENDBRANCH   1  31
BRANCH   9  34
HETATM   34  C24 UNL     1      23.542  14.980  11.944  1.00  0.00     0.178 C 
HETATM   35  O6  UNL     1      24.204  16.048  11.845  1.00  0.00    -0.648 OA
HETATM   36  O7  UNL     1      24.206  13.819  12.298  1.00  0.00    -0.648 OA
ENDBRANCH   9  34
TORSDOF 10
ENDMDL
MODEL 5
REMARK VINA RESULT: -8.050896122      2.262      4.696
REMARK  10 active torsions:
REMARK  status: ('A' for Active; 'I' for Inactive)
REMARK    1  A    between atoms: C1_2  and  C2_4 
REMARK    2  A    between atoms: C6_8  and  C7_9 
REMARK    3  A    between atoms: C14_20  and  O4_21 
REMARK    4  A    between atoms: C14_20  and  C15_23 
REMARK    5  A    between atoms: C16_24  and  C17_25 
REMARK    6  A    between atoms: C18_26  and  C19_27 
REMARK    7  A    between atoms: C20_28  and  C21_29 
REMARK    8  A    between atoms: C21_29  and  C22_30 
REMARK    9  A    between atoms: C22_30  and  O5_31 
REMARK   10  A    between atoms: C23_33  and  C24_34 
ROOT
HETATM    1  C2  UNL     1      15.445  16.513  13.692  1.00  0.00     0.102 C 
HETATM    2  C3  UNL     1      16.233  17.406  12.723  1.00  0.00     0.025 C 
HETATM    3  C4  UNL     1      16.383  16.601  11.482  1.00  0.00     0.038 C 
HETATM    4  C5  UNL     1      16.261  15.134  11.908  1.00  0.00     0.020 C 
HETATM    5  C6  UNL     1      17.514  14.473  11.554  1.00  0.00     0.070 C 
HETATM    6  C13 UNL     1      18.311  15.417  10.718  1.00  0.00     0.170 C 
HETATM    7  O3  UNL     1      19.327  15.147  10.143  1.00  0.00    -0.294 OA
HETATM    8  C14 UNL     1      17.639  16.740  10.717  1.00  0.00     0.140 C 
HETATM    9  C23 UNL     1      15.770  15.108  13.300  1.00  0.00     0.106 C 
ENDROOT
BRANCH   8  10
HETATM   10  O4  UNL     1      17.288  17.047   9.365  1.00  0.00    -0.378 OA
ATOM     11  H4  UNL     1      17.504  16.290   8.834  1.00  0.00     0.211 HD
ENDBRANCH   8  10
BRANCH   8  12
HETATM   12  C15 UNL     1      18.581  17.765  11.138  1.00  0.00     0.019 C 
HETATM   13  C16 UNL     1      19.401  18.487  10.414  1.00  0.00    -0.001 C 
BRANCH  13  14
HETATM   14  C17 UNL     1      19.531  18.399   8.983  1.00  0.00    -0.000 C 
HETATM   15  C18 UNL     1      20.597  17.914   8.399  1.00  0.00    -0.000 C 
BRANCH  15  16
HETATM   16  C19 UNL     1      21.735  17.424   9.136  1.00  0.00    -0.004 C 
HETATM   17  C20 UNL     1      22.973  17.628   8.654  1.00  0.00    -0.025 C 
BRANCH  17  18
HETATM   18  C21 UNL     1      24.129  17.128   9.409  1.00  0.00     0.053 C 
BRANCH  18  19
HETATM   19  C22 UNL     1      24.219  15.622   9.123  1.00  0.00     0.168 C 
BRANCH  19  20
HETATM   20  O5  UNL     1      24.363  15.413   7.763  1.00  0.00    -0.401 OA
ATOM     21  H5  UNL     1      23.722  15.930   7.290  1.00  0.00     0.209 HD
ENDBRANCH  19  20
ENDBRANCH  18  19
ENDBRANCH  17  18
ENDBRANCH  15  16
ENDBRANCH  13  14
ENDBRANCH   8  12
BRANCH   5  22
HETATM   22  C7  UNL     1      18.414  13.921  12.580  1.00  0.00     0.026 C 
HETATM   23  C8  UNL     1      19.390  14.858  13.221  1.00  0.00     0.034 C 
HETATM   24  C9  UNL     1      19.824  14.238  14.529  1.00  0.00    -0.029 C 
HETATM   25  C10 UNL     1      20.352  13.013  14.660  1.00  0.00    -0.004 C 
HETATM   26  C11 UNL     1      20.643  11.982  13.646  1.00  0.00     0.259 C 
HETATM   27  N1  UNL     1      19.422  11.687  12.905  1.00  0.00    -0.072 N 
HETATM   28  C12 UNL     1      19.252  12.791  11.961  1.00  0.00     0.238 C 
ATOM     29  H12 UNL     1      19.426  10.768  12.462  1.00  0.00     0.277 HD
ATOM     30  H11 UNL     1      18.609  11.533  13.502  1.00  0.00     0.277 HD
ENDBRANCH   5  22
BRANCH   1  31
HETATM   31  C1  UNL     1      14.063  16.959  13.611  1.00  0.00     0.177 C 
HETATM   32  O1  UNL     1      13.508  17.322  12.586  1.00  0.00    -0.648 OA
HETATM   33  O2  UNL     1      13.324  16.969  14.794  1.00  0.00    -0.648 OA
ENDBRANCH   1  31
BRANCH   9  34
HETATM   34  C24 UNL     1      14.563  14.248  13.483  1.00  0.00     0.178 C 
HETATM   35  O6  UNL     1      14.251  13.698  14.573  1.00  0.00    -0.648 OA
HETATM   36  O7  UNL     1      13.746  14.051  12.384  1.00  0.00    -0.648 OA
ENDBRANCH   9  34
TORSDOF 10
ENDMDL
