MODEL 1
REMARK VINA RESULT: -5.474476107      0.000      0.000
REMARK  6 active torsions:
REMARK  status: ('A' for Active; 'I' for Inactive)
REMARK    1  A    between atoms: C2_2  and  C3_3 
REMARK    2  A    between atoms: C3_3  and  N1_4 
REMARK    3  A    between atoms: N1_4  and  C4_7 
REMARK    4  A    between atoms: C4_7  and  C5_8 
REMARK    5  A    between atoms: C5_8  and  N2_9 
REMARK    6  A    between atoms: N2_9  and  C6_11 
ROOT
HETATM    1  C6  UNL     1     -12.060  10.266  40.650  1.00  0.00     0.709 A 
HETATM    2  N3  UNL     1     -12.152  11.568  41.054  1.00  0.00    -0.020 N 
ATOM      3  H3  UNL     1     -12.085  12.378  40.438  1.00  0.00     0.203 HD
HETATM    4  C7  UNL     1     -12.340  11.621  42.362  1.00  0.00     0.705 A 
HETATM    5  N4  UNL     1     -12.479  12.641  43.152  1.00  0.00    -0.233 N 
ATOM      6  H41 UNL     1     -12.624  12.682  44.162  1.00  0.00     0.174 HD
ATOM      7  H42 UNL     1     -12.455  13.599  42.802  1.00  0.00     0.174 HD
HETATM    8  N5  UNL     1     -12.373  10.360  42.823  1.00  0.00    -0.116 N 
ATOM      9  H5  UNL     1     -12.504  10.074  43.794  1.00  0.00     0.206 HD
HETATM   10  N6  UNL     1     -12.201   9.546  41.769  1.00  0.00    -0.114 N 
HETATM   11  C8  UNL     1     -12.173   8.089  41.834  1.00  0.00     0.198 C 
ENDROOT
BRANCH   1  12
HETATM   12  N2  UNL     1     -11.877   9.942  39.425  1.00  0.00    -0.223 N 
ATOM     13  H2  UNL     1     -12.706   9.968  38.834  1.00  0.00     0.177 HD
BRANCH  12  14
HETATM   14  C5  UNL     1     -10.676   9.554  38.781  1.00  0.00     0.165 C 
BRANCH  14  15
HETATM   15  C4  UNL     1     -11.036   8.691  37.579  1.00  0.00     0.252 C 
BRANCH  15  16
HETATM   16  N1  UNL     1     -10.407   9.208  36.374  1.00  0.00    -0.071 N 
ATOM     17  H12 UNL     1     -11.059   9.241  35.590  1.00  0.00     0.277 HD
ATOM     18  H11 UNL     1      -9.734   8.547  35.984  1.00  0.00     0.277 HD
BRANCH  16  19
HETATM   19  C3  UNL     1      -9.806  10.500  36.629  1.00  0.00     0.259 C 
BRANCH  19  20
HETATM   20  C2  UNL     1      -8.915  10.823  35.491  1.00  0.00    -0.010 C 
HETATM   21  C1  UNL     1      -8.818  12.083  35.048  1.00  0.00     0.008 C 
ENDBRANCH  19  20
ENDBRANCH  16  19
ENDBRANCH  15  16
ENDBRANCH  14  15
ENDBRANCH  12  14
ENDBRANCH   1  12
TORSDOF 6
ENDMDL
MODEL 2
REMARK VINA RESULT: -5.067908274      0.995      1.606
REMARK  6 active torsions:
REMARK  status: ('A' for Active; 'I' for Inactive)
REMARK    1  A    between atoms: C2_2  and  C3_3 
REMARK    2  A    between atoms: C3_3  and  N1_4 
REMARK    3  A    between atoms: N1_4  and  C4_7 
REMARK    4  A    between atoms: C4_7  and  C5_8 
REMARK    5  A    between atoms: C5_8  and  N2_9 
REMARK    6  A    between atoms: N2_9  and  C6_11 
ROOT
HETATM    1  C6  UNL     1     -11.557   9.856  40.861  1.00  0.00     0.709 A 
HETATM    2  N3  UNL     1     -11.524   9.863  42.227  1.00  0.00    -0.020 N 
ATOM      3  H3  UNL     1     -11.074   9.154  42.806  1.00  0.00     0.203 HD
HETATM    4  C7  UNL     1     -12.161  10.927  42.687  1.00  0.00     0.705 A 
HETATM    5  N4  UNL     1     -12.369  11.323  43.905  1.00  0.00    -0.233 N 
ATOM      6  H41 UNL     1     -12.861  12.144  44.260  1.00  0.00     0.174 HD
ATOM      7  H42 UNL     1     -12.025  10.796  44.708  1.00  0.00     0.174 HD
HETATM    8  N5  UNL     1     -12.614  11.622  41.631  1.00  0.00    -0.116 N 
ATOM      9  H5  UNL     1     -13.146  12.493  41.662  1.00  0.00     0.206 HD
HETATM   10  N6  UNL     1     -12.239  10.957  40.526  1.00  0.00    -0.114 N 
HETATM   11  C8  UNL     1     -12.531  11.375  39.160  1.00  0.00     0.198 C 
ENDROOT
BRANCH   1  12
HETATM   12  N2  UNL     1     -11.009   8.928  40.170  1.00  0.00    -0.223 N 
ATOM     13  H2  UNL     1     -11.152   7.979  40.515  1.00  0.00     0.177 HD
BRANCH  12  14
HETATM   14  C5  UNL     1     -10.232   9.042  38.991  1.00  0.00     0.165 C 
BRANCH  14  15
HETATM   15  C4  UNL     1     -11.032   8.460  37.833  1.00  0.00     0.252 C 
BRANCH  15  16
HETATM   16  N1  UNL     1     -10.664   9.107  36.584  1.00  0.00    -0.071 N 
ATOM     17  H12 UNL     1     -11.476   9.274  35.989  1.00  0.00     0.277 HD
ATOM     18  H11 UNL     1     -10.151   8.476  35.967  1.00  0.00     0.277 HD
BRANCH  16  19
HETATM   19  C3  UNL     1      -9.926  10.326  36.842  1.00  0.00     0.259 C 
BRANCH  19  20
HETATM   20  C2  UNL     1      -9.100  10.621  35.648  1.00  0.00    -0.010 C 
HETATM   21  C1  UNL     1      -8.874  11.889  35.281  1.00  0.00     0.008 C 
ENDBRANCH  19  20
ENDBRANCH  16  19
ENDBRANCH  15  16
ENDBRANCH  14  15
ENDBRANCH  12  14
ENDBRANCH   1  12
TORSDOF 6
ENDMDL
MODEL 3
REMARK VINA RESULT: -4.596512579      1.976      6.577
REMARK  6 active torsions:
REMARK  status: ('A' for Active; 'I' for Inactive)
REMARK    1  A    between atoms: C2_2  and  C3_3 
REMARK    2  A    between atoms: C3_3  and  N1_4 
REMARK    3  A    between atoms: N1_4  and  C4_7 
REMARK    4  A    between atoms: C4_7  and  C5_8 
REMARK    5  A    between atoms: C5_8  and  N2_9 
REMARK    6  A    between atoms: N2_9  and  C6_11 
ROOT
HETATM    1  C6  UNL     1     -11.509  10.356  39.061  1.00  0.00     0.709 A 
HETATM    2  N3  UNL     1     -10.772  11.102  38.184  1.00  0.00    -0.020 N 
ATOM      3  H3  UNL     1     -10.621  12.109  38.253  1.00  0.00     0.203 HD
HETATM    4  C7  UNL     1     -10.285  10.325  37.231  1.00  0.00     0.705 A 
HETATM    5  N4  UNL     1      -9.541  10.613  36.207  1.00  0.00    -0.233 N 
ATOM      6  H41 UNL     1      -9.166  10.014  35.471  1.00  0.00     0.174 HD
ATOM      7  H42 UNL     1      -9.229  11.567  36.021  1.00  0.00     0.174 HD
HETATM    8  N5  UNL     1     -10.696   9.070  37.475  1.00  0.00    -0.116 N 
ATOM      9  H5  UNL     1     -10.483   8.244  36.915  1.00  0.00     0.206 HD
HETATM   10  N6  UNL     1     -11.440   9.105  38.592  1.00  0.00    -0.114 N 
HETATM   11  C8  UNL     1     -12.079   7.947  39.206  1.00  0.00     0.198 C 
ENDROOT
BRANCH   1  12
HETATM   12  N2  UNL     1     -12.089  10.874  40.077  1.00  0.00    -0.223 N 
ATOM     13  H2  UNL     1     -12.802  11.572  39.869  1.00  0.00     0.177 HD
BRANCH  12  14
HETATM   14  C5  UNL     1     -11.875  10.608  41.452  1.00  0.00     0.165 C 
BRANCH  14  15
HETATM   15  C4  UNL     1     -12.703  11.595  42.265  1.00  0.00     0.252 C 
BRANCH  15  16
HETATM   16  N1  UNL     1     -12.035  11.909  43.518  1.00  0.00    -0.071 N 
ATOM     17  H12 UNL     1     -12.305  12.827  43.871  1.00  0.00     0.277 HD
ATOM     18  H11 UNL     1     -11.039  12.083  43.384  1.00  0.00     0.277 HD
BRANCH  16  19
HETATM   19  C3  UNL     1     -12.272  10.866  44.494  1.00  0.00     0.259 C 
BRANCH  19  20
HETATM   20  C2  UNL     1     -13.384  11.303  45.369  1.00  0.00    -0.010 C 
HETATM   21  C1  UNL     1     -13.425  10.918  46.651  1.00  0.00     0.008 C 
ENDBRANCH  19  20
ENDBRANCH  16  19
ENDBRANCH  15  16
ENDBRANCH  14  15
ENDBRANCH  12  14
ENDBRANCH   1  12
TORSDOF 6
ENDMDL
MODEL 4
REMARK VINA RESULT: -4.589195932      2.257      4.050
REMARK  6 active torsions:
REMARK  status: ('A' for Active; 'I' for Inactive)
REMARK    1  A    between atoms: C2_2  and  C3_3 
REMARK    2  A    between atoms: C3_3  and  N1_4 
REMARK    3  A    between atoms: N1_4  and  C4_7 
REMARK    4  A    between atoms: C4_7  and  C5_8 
REMARK    5  A    between atoms: C5_8  and  N2_9 
REMARK    6  A    between atoms: N2_9  and  C6_11 
ROOT
HETATM    1  C6  UNL     1     -12.888  11.602  43.804  1.00  0.00     0.709 A 
HETATM    2  N3  UNL     1     -12.406  10.972  44.916  1.00  0.00    -0.020 N 
ATOM      3  H3  UNL     1     -11.504  10.500  44.978  1.00  0.00     0.203 HD
HETATM    4  C7  UNL     1     -13.283  11.066  45.902  1.00  0.00     0.705 A 
HETATM    5  N4  UNL     1     -13.234  10.616  47.119  1.00  0.00    -0.233 N 
ATOM      6  H41 UNL     1     -13.911  10.689  47.879  1.00  0.00     0.174 HD
ATOM      7  H42 UNL     1     -12.430  10.093  47.466  1.00  0.00     0.174 HD
HETATM    8  N5  UNL     1     -14.341  11.755  45.445  1.00  0.00    -0.116 N 
ATOM      9  H5  UNL     1     -15.182  11.991  45.972  1.00  0.00     0.206 HD
HETATM   10  N6  UNL     1     -14.086  12.074  44.166  1.00  0.00    -0.114 N 
HETATM   11  C8  UNL     1     -14.984  12.828  43.298  1.00  0.00     0.198 C 
ENDROOT
BRANCH   1  12
HETATM   12  N2  UNL     1     -12.227  11.654  42.709  1.00  0.00    -0.223 N 
ATOM     13  H2  UNL     1     -11.437  12.298  42.701  1.00  0.00     0.177 HD
BRANCH  12  14
HETATM   14  C5  UNL     1     -12.446  10.937  41.506  1.00  0.00     0.165 C 
BRANCH  14  15
HETATM   15  C4  UNL     1     -11.754   9.585  41.624  1.00  0.00     0.252 C 
BRANCH  15  16
HETATM   16  N1  UNL     1     -10.779   9.417  40.558  1.00  0.00    -0.071 N 
ATOM     17  H12 UNL     1     -10.373   8.481  40.560  1.00  0.00     0.277 HD
ATOM     18  H11 UNL     1      -9.929   9.952  40.734  1.00  0.00     0.277 HD
BRANCH  16  19
HETATM   19  C3  UNL     1     -11.367   9.747  39.276  1.00  0.00     0.259 C 
BRANCH  19  20
HETATM   20  C2  UNL     1     -10.983   8.689  38.313  1.00  0.00    -0.010 C 
HETATM   21  C1  UNL     1     -10.996   8.939  36.997  1.00  0.00     0.008 C 
ENDBRANCH  19  20
ENDBRANCH  16  19
ENDBRANCH  15  16
ENDBRANCH  14  15
ENDBRANCH  12  14
ENDBRANCH   1  12
TORSDOF 6
ENDMDL
MODEL 5
REMARK VINA RESULT: -4.468233090      2.304      3.880
REMARK  6 active torsions:
REMARK  status: ('A' for Active; 'I' for Inactive)
REMARK    1  A    between atoms: C2_2  and  C3_3 
REMARK    2  A    between atoms: C3_3  and  N1_4 
REMARK    3  A    between atoms: N1_4  and  C4_7 
REMARK    4  A    between atoms: C4_7  and  C5_8 
REMARK    5  A    between atoms: C5_8  and  N2_9 
REMARK    6  A    between atoms: N2_9  and  C6_11 
ROOT
HETATM    1  C6  UNL     1     -13.113  11.397  43.753  1.00  0.00     0.709 A 
HETATM    2  N3  UNL     1     -13.739  12.348  42.998  1.00  0.00    -0.020 N 
ATOM      3  H3  UNL     1     -13.627  12.463  41.990  1.00  0.00     0.203 HD
HETATM    4  C7  UNL     1     -14.512  13.096  43.767  1.00  0.00     0.705 A 
HETATM    5  N4  UNL     1     -15.277  14.101  43.469  1.00  0.00    -0.233 N 
ATOM      6  H41 UNL     1     -15.873  14.679  44.063  1.00  0.00     0.174 HD
ATOM      7  H42 UNL     1     -15.364  14.445  42.512  1.00  0.00     0.174 HD
HETATM    8  N5  UNL     1     -14.399  12.644  45.026  1.00  0.00    -0.116 N 
ATOM      9  H5  UNL     1     -14.874  13.017  45.849  1.00  0.00     0.206 HD
HETATM   10  N6  UNL     1     -13.543  11.609  45.002  1.00  0.00    -0.114 N 
HETATM   11  C8  UNL     1     -13.142  10.829  46.167  1.00  0.00     0.198 C 
ENDROOT
BRANCH   1  12
HETATM   12  N2  UNL     1     -12.306  10.543  43.244  1.00  0.00    -0.223 N 
ATOM     13  H2  UNL     1     -11.713  10.047  43.908  1.00  0.00     0.177 HD
BRANCH  12  14
HETATM   14  C5  UNL     1     -12.127  10.196  41.883  1.00  0.00     0.165 C 
BRANCH  14  15
HETATM   15  C4  UNL     1     -12.099   8.676  41.777  1.00  0.00     0.252 C 
BRANCH  15  16
HETATM   16  N1  UNL     1     -12.076   8.263  40.383  1.00  0.00    -0.071 N 
ATOM     17  H12 UNL     1     -13.015   8.097  40.021  1.00  0.00     0.277 HD
ATOM     18  H11 UNL     1     -11.702   7.320  40.272  1.00  0.00     0.277 HD
BRANCH  16  19
HETATM   19  C3  UNL     1     -11.353   9.227  39.579  1.00  0.00     0.259 C 
BRANCH  19  20
HETATM   20  C2  UNL     1     -10.810   8.520  38.397  1.00  0.00    -0.010 C 
HETATM   21  C1  UNL     1     -11.062   8.978  37.163  1.00  0.00     0.008 C 
ENDBRANCH  19  20
ENDBRANCH  16  19
ENDBRANCH  15  16
ENDBRANCH  14  15
ENDBRANCH  12  14
ENDBRANCH   1  12
TORSDOF 6
ENDMDL
