MODEL 1
REMARK VINA RESULT: -5.151053353      0.000      0.000
REMARK  7 active torsions:
REMARK  status: ('A' for Active; 'I' for Inactive)
REMARK    1  A    between atoms: N1_2  and  C2_4 
REMARK    2  A    between atoms: C2_4  and  C3_5 
REMARK    3  A    between atoms: C3_5  and  O1_6 
REMARK    4  A    between atoms: C3_5  and  C4_8 
REMARK    5  A    between atoms: C4_8  and  N2_9 
REMARK    6  A    between atoms: C4_8  and  C5_13 
REMARK    7  A    between atoms: C5_13  and  C7_15 
ROOT
HETATM    1  C4  UNL     1     -11.431   9.635  40.304  1.00  0.00     0.245 C 
ENDROOT
BRANCH   1   2
HETATM    2  C3  UNL     1     -12.171   9.731  41.596  1.00  0.00     0.089 C 
BRANCH   2   3
HETATM    3  C2  UNL     1     -12.424  11.166  41.993  1.00  0.00     0.117 C 
BRANCH   3   4
HETATM    4  N1  UNL     1     -11.930  11.596  43.236  1.00  0.00    -0.401 N 
HETATM    5  C1  UNL     1     -12.626  11.159  44.413  1.00  0.00     0.145 C 
ATOM      6  H1  UNL     1     -11.107  12.196  43.300  1.00  0.00     0.158 HD
ENDBRANCH   3   4
ENDBRANCH   2   3
BRANCH   2   7
HETATM    7  O1  UNL     1     -13.179   8.854  41.806  1.00  0.00    -0.361 OA
ATOM      8  H1  UNL     1     -13.186   8.073  41.266  1.00  0.00     0.217 HD
ENDBRANCH   2   7
ENDBRANCH   1   2
BRANCH   1   9
HETATM    9  N2  UNL     1     -10.041   9.225  40.554  1.00  0.00    -0.069 N 
ATOM     10  H23 UNL     1      -9.750   9.419  41.512  1.00  0.00     0.275 HD
ATOM     11  H22 UNL     1      -9.938   8.211  40.571  1.00  0.00     0.275 HD
ATOM     12  H21 UNL     1      -9.423   9.663  39.870  1.00  0.00     0.275 HD
ENDBRANCH   1   9
BRANCH   1  13
HETATM   13  C5  UNL     1     -12.001   8.762  39.250  1.00  0.00     0.026 C 
HETATM   14  C6  UNL     1     -11.267   7.450  39.102  1.00  0.00     0.013 C 
BRANCH  13  15
HETATM   15  C7  UNL     1     -12.080   9.483  37.907  1.00  0.00     0.043 C 
HETATM   16  C8  UNL     1     -11.341  10.787  37.859  1.00  0.00     0.239 C 
HETATM   17  N3  UNL     1     -10.171  10.088  37.308  1.00  0.00    -0.074 N 
HETATM   18  C9  UNL     1     -11.059   9.034  36.890  1.00  0.00     0.239 C 
ATOM     19  H32 UNL     1      -9.555  10.549  36.638  1.00  0.00     0.277 HD
ATOM     20  H31 UNL     1      -9.359   9.887  37.891  1.00  0.00     0.277 HD
ENDBRANCH  13  15
ENDBRANCH   1  13
TORSDOF 7
ENDMDL
MODEL 2
REMARK VINA RESULT: -4.965521648      2.401      5.297
REMARK  7 active torsions:
REMARK  status: ('A' for Active; 'I' for Inactive)
REMARK    1  A    between atoms: N1_2  and  C2_4 
REMARK    2  A    between atoms: C2_4  and  C3_5 
REMARK    3  A    between atoms: C3_5  and  O1_6 
REMARK    4  A    between atoms: C3_5  and  C4_8 
REMARK    5  A    between atoms: C4_8  and  N2_9 
REMARK    6  A    between atoms: C4_8  and  C5_13 
REMARK    7  A    between atoms: C5_13  and  C7_15 
ROOT
HETATM    1  C4  UNL     1     -10.817   9.104  38.533  1.00  0.00     0.245 C 
ENDROOT
BRANCH   1   2
HETATM    2  C3  UNL     1     -10.797   9.598  37.125  1.00  0.00     0.089 C 
BRANCH   2   3
HETATM    3  C2  UNL     1      -9.680  10.587  36.893  1.00  0.00     0.117 C 
BRANCH   3   4
HETATM    4  N1  UNL     1      -9.137  10.666  35.599  1.00  0.00    -0.401 N 
HETATM    5  C1  UNL     1      -8.886  11.975  35.066  1.00  0.00     0.145 C 
ATOM      6  H1  UNL     1      -8.929   9.826  35.059  1.00  0.00     0.158 HD
ENDBRANCH   3   4
ENDBRANCH   2   3
BRANCH   2   7
HETATM    7  O1  UNL     1     -11.027   8.697  36.143  1.00  0.00    -0.361 OA
ATOM      8  H1  UNL     1     -11.483   7.901  36.391  1.00  0.00     0.217 HD
ENDBRANCH   2   7
ENDBRANCH   1   2
BRANCH   1   9
HETATM    9  N2  UNL     1      -9.479   9.244  39.129  1.00  0.00    -0.069 N 
ATOM     10  H23 UNL     1      -9.096   8.347  39.428  1.00  0.00     0.275 HD
ATOM     11  H22 UNL     1      -8.772   9.482  38.433  1.00  0.00     0.275 HD
ATOM     12  H21 UNL     1      -9.509   9.921  39.892  1.00  0.00     0.275 HD
ENDBRANCH   1   9
BRANCH   1  13
HETATM   13  C5  UNL     1     -11.812   9.701  39.456  1.00  0.00     0.026 C 
HETATM   14  C6  UNL     1     -12.293  11.062  39.014  1.00  0.00     0.013 C 
BRANCH  13  15
HETATM   15  C7  UNL     1     -11.284   9.760  40.887  1.00  0.00     0.043 C 
HETATM   16  C8  UNL     1     -11.924  10.812  41.742  1.00  0.00     0.239 C 
HETATM   17  N3  UNL     1     -12.879   9.809  42.236  1.00  0.00    -0.074 N 
HETATM   18  C9  UNL     1     -11.940   8.792  41.840  1.00  0.00     0.239 C 
ATOM     19  H32 UNL     1     -13.233   9.851  43.192  1.00  0.00     0.277 HD
ATOM     20  H31 UNL     1     -13.842   9.793  41.898  1.00  0.00     0.277 HD
ENDBRANCH  13  15
ENDBRANCH   1  13
TORSDOF 7
ENDMDL
MODEL 3
REMARK VINA RESULT: -4.949043160      1.627      1.752
REMARK  7 active torsions:
REMARK  status: ('A' for Active; 'I' for Inactive)
REMARK    1  A    between atoms: N1_2  and  C2_4 
REMARK    2  A    between atoms: C2_4  and  C3_5 
REMARK    3  A    between atoms: C3_5  and  O1_6 
REMARK    4  A    between atoms: C3_5  and  C4_8 
REMARK    5  A    between atoms: C4_8  and  N2_9 
REMARK    6  A    between atoms: C4_8  and  C5_13 
REMARK    7  A    between atoms: C5_13  and  C7_15 
ROOT
HETATM    1  C4  UNL     1     -11.425   9.597  40.767  1.00  0.00     0.245 C 
ENDROOT
BRANCH   1   2
HETATM    2  C3  UNL     1     -12.160  10.855  41.086  1.00  0.00     0.089 C 
BRANCH   2   3
HETATM    3  C2  UNL     1     -12.044  11.217  42.548  1.00  0.00     0.117 C 
BRANCH   3   4
HETATM    4  N1  UNL     1     -12.506  12.484  42.946  1.00  0.00    -0.401 N 
HETATM    5  C1  UNL     1     -13.874  12.586  43.367  1.00  0.00     0.145 C 
ATOM      6  H1  UNL     1     -11.892  13.298  42.936  1.00  0.00     0.158 HD
ENDBRANCH   3   4
ENDBRANCH   2   3
BRANCH   2   7
HETATM    7  O1  UNL     1     -12.075  11.873  40.199  1.00  0.00    -0.361 OA
ATOM      8  H1  UNL     1     -12.822  12.004  39.627  1.00  0.00     0.217 HD
ENDBRANCH   2   7
ENDBRANCH   1   2
BRANCH   1   9
HETATM    9  N2  UNL     1     -11.626   8.615  41.844  1.00  0.00    -0.069 N 
ATOM     10  H23 UNL     1     -12.538   8.715  42.290  1.00  0.00     0.275 HD
ATOM     11  H22 UNL     1     -11.742   7.668  41.482  1.00  0.00     0.275 HD
ATOM     12  H21 UNL     1     -10.862   8.678  42.516  1.00  0.00     0.275 HD
ENDBRANCH   1   9
BRANCH   1  13
HETATM   13  C5  UNL     1     -11.716   8.943  39.468  1.00  0.00     0.026 C 
HETATM   14  C6  UNL     1     -12.242   7.535  39.615  1.00  0.00     0.013 C 
BRANCH  13  15
HETATM   15  C7  UNL     1     -10.501   8.966  38.546  1.00  0.00     0.043 C 
HETATM   16  C8  UNL     1     -10.768   9.529  37.182  1.00  0.00     0.239 C 
HETATM   17  N3  UNL     1     -10.317  10.847  37.653  1.00  0.00    -0.074 N 
HETATM   18  C9  UNL     1      -9.609  10.172  38.710  1.00  0.00     0.239 C 
ATOM     19  H32 UNL     1      -9.832  11.489  37.025  1.00  0.00     0.277 HD
ATOM     20  H31 UNL     1     -10.989  11.585  37.861  1.00  0.00     0.277 HD
ENDBRANCH  13  15
ENDBRANCH   1  13
TORSDOF 7
ENDMDL
MODEL 4
REMARK VINA RESULT: -4.793333103      2.272      5.130
REMARK  7 active torsions:
REMARK  status: ('A' for Active; 'I' for Inactive)
REMARK    1  A    between atoms: N1_2  and  C2_4 
REMARK    2  A    between atoms: C2_4  and  C3_5 
REMARK    3  A    between atoms: C3_5  and  O1_6 
REMARK    4  A    between atoms: C3_5  and  C4_8 
REMARK    5  A    between atoms: C4_8  and  N2_9 
REMARK    6  A    between atoms: C4_8  and  C5_13 
REMARK    7  A    between atoms: C5_13  and  C7_15 
ROOT
HETATM    1  C4  UNL     1     -11.311   9.465  38.060  1.00  0.00     0.245 C 
ENDROOT
BRANCH   1   2
HETATM    2  C3  UNL     1     -10.385  10.629  37.943  1.00  0.00     0.089 C 
BRANCH   2   3
HETATM    3  C2  UNL     1      -9.663  10.642  36.616  1.00  0.00     0.117 C 
BRANCH   3   4
HETATM    4  N1  UNL     1      -9.149  11.869  36.164  1.00  0.00    -0.401 N 
HETATM    5  C1  UNL     1      -9.012  12.046  34.746  1.00  0.00     0.145 C 
ATOM      6  H1  UNL     1      -8.884  12.605  36.817  1.00  0.00     0.158 HD
ENDBRANCH   3   4
ENDBRANCH   2   3
BRANCH   2   7
HETATM    7  O1  UNL     1     -10.816  11.822  38.412  1.00  0.00    -0.361 OA
ATOM      8  H1  UNL     1     -10.886  11.911  39.356  1.00  0.00     0.217 HD
ENDBRANCH   2   7
ENDBRANCH   1   2
BRANCH   1   9
HETATM    9  N2  UNL     1     -11.186   8.608  36.871  1.00  0.00    -0.069 N 
ATOM     10  H23 UNL     1     -11.759   8.942  36.095  1.00  0.00     0.275 HD
ATOM     11  H22 UNL     1     -10.272   8.697  36.429  1.00  0.00     0.275 HD
ATOM     12  H21 UNL     1     -11.401   7.641  37.118  1.00  0.00     0.275 HD
ENDBRANCH   1   9
BRANCH   1  13
HETATM   13  C5  UNL     1     -11.198   8.617  39.271  1.00  0.00     0.026 C 
HETATM   14  C6  UNL     1     -11.272   7.138  38.971  1.00  0.00     0.013 C 
BRANCH  13  15
HETATM   15  C7  UNL     1     -12.234   9.001  40.322  1.00  0.00     0.043 C 
HETATM   16  C8  UNL     1     -12.306   8.068  41.493  1.00  0.00     0.239 C 
HETATM   17  N3  UNL     1     -11.376   8.939  42.227  1.00  0.00    -0.074 N 
HETATM   18  C9  UNL     1     -11.754  10.008  41.340  1.00  0.00     0.239 C 
ATOM     19  H32 UNL     1     -11.450   9.048  43.239  1.00  0.00     0.277 HD
ATOM     20  H31 UNL     1     -10.397   8.677  42.344  1.00  0.00     0.277 HD
ENDBRANCH  13  15
ENDBRANCH   1  13
TORSDOF 7
ENDMDL
MODEL 5
REMARK VINA RESULT: -4.638697650      1.727      1.884
REMARK  7 active torsions:
REMARK  status: ('A' for Active; 'I' for Inactive)
REMARK    1  A    between atoms: N1_2  and  C2_4 
REMARK    2  A    between atoms: C2_4  and  C3_5 
REMARK    3  A    between atoms: C3_5  and  O1_6 
REMARK    4  A    between atoms: C3_5  and  C4_8 
REMARK    5  A    between atoms: C4_8  and  N2_9 
REMARK    6  A    between atoms: C4_8  and  C5_13 
REMARK    7  A    between atoms: C5_13  and  C7_15 
ROOT
HETATM    1  C4  UNL     1     -11.580   9.481  41.098  1.00  0.00     0.245 C 
ENDROOT
BRANCH   1   2
HETATM    2  C3  UNL     1     -12.194  10.829  41.276  1.00  0.00     0.089 C 
BRANCH   2   3
HETATM    3  C2  UNL     1     -12.180  11.265  42.722  1.00  0.00     0.117 C 
BRANCH   3   4
HETATM    4  N1  UNL     1     -12.589  12.578  43.012  1.00  0.00    -0.401 N 
HETATM    5  C1  UNL     1     -13.950  12.772  43.423  1.00  0.00     0.145 C 
ATOM      6  H1  UNL     1     -11.943  13.363  42.934  1.00  0.00     0.158 HD
ENDBRANCH   3   4
ENDBRANCH   2   3
BRANCH   2   7
HETATM    7  O1  UNL     1     -11.906  11.774  40.353  1.00  0.00    -0.361 OA
ATOM      8  H1  UNL     1     -12.304  12.628  40.477  1.00  0.00     0.217 HD
ENDBRANCH   2   7
ENDBRANCH   1   2
BRANCH   1   9
HETATM    9  N2  UNL     1     -12.587   8.438  41.348  1.00  0.00    -0.069 N 
ATOM     10  H23 UNL     1     -13.495   8.832  41.596  1.00  0.00     0.275 HD
ATOM     11  H22 UNL     1     -12.863   7.959  40.491  1.00  0.00     0.275 HD
ATOM     12  H21 UNL     1     -12.245   7.789  42.057  1.00  0.00     0.275 HD
ENDBRANCH   1   9
BRANCH   1  13
HETATM   13  C5  UNL     1     -10.913   9.195  39.805  1.00  0.00     0.026 C 
HETATM   14  C6  UNL     1      -9.409   9.312  39.872  1.00  0.00     0.013 C 
BRANCH  13  15
HETATM   15  C7  UNL     1     -11.466  10.071  38.684  1.00  0.00     0.043 C 
HETATM   16  C8  UNL     1     -10.573  10.183  37.486  1.00  0.00     0.239 C 
HETATM   17  N3  UNL     1     -11.304   9.076  36.854  1.00  0.00    -0.074 N 
HETATM   18  C9  UNL     1     -12.404   9.362  37.737  1.00  0.00     0.239 C 
ATOM     19  H32 UNL     1     -11.438   9.047  35.843  1.00  0.00     0.277 HD
ATOM     20  H31 UNL     1     -10.899   8.140  36.808  1.00  0.00     0.277 HD
ENDBRANCH  13  15
ENDBRANCH   1  13
TORSDOF 7
ENDMDL
