MODEL 1
REMARK VINA RESULT: -5.797461846      0.000      0.000
REMARK  2 active torsions:
REMARK  status: ('A' for Active; 'I' for Inactive)
REMARK    1  A    between atoms: N1_2  and  C2_4 
REMARK    2  A    between atoms: C2_4  and  N2_6 
ROOT
HETATM    1  N2  UNL     1      45.500  -1.453  14.825  1.00  0.00    -0.357 N 
HETATM    2  C3  UNL     1      44.713  -0.272  15.108  1.00  0.00     0.126 C 
HETATM    3  C4  UNL     1      44.509  -0.436  16.621  1.00  0.00     0.033 C 
HETATM    4  C5  UNL     1      45.926  -0.742  17.044  1.00  0.00     0.005 C 
HETATM    5  C6  UNL     1      46.737   0.508  17.255  1.00  0.00     0.043 C 
HETATM    6  C7  UNL     1      46.400   0.862  18.688  1.00  0.00     0.272 C 
HETATM    7  N3  UNL     1      46.415  -0.409  19.345  1.00  0.00     0.085 N 
HETATM    8  C8  UNL     1      47.744  -0.677  19.848  1.00  0.00     0.309 C 
HETATM    9  C9  UNL     1      46.001  -1.412  18.384  1.00  0.00     0.283 C 
HETATM   10  C10 UNL     1      46.438  -1.599  15.917  1.00  0.00     0.136 C 
ENDROOT
BRANCH   1  11
HETATM   11  C2  UNL     1      45.332  -2.277  13.668  1.00  0.00     0.169 C 
HETATM   12  S1  UNL     1      46.490  -2.320  12.500  1.00  0.00    -0.041 SA
BRANCH  11  13
HETATM   13  N1  UNL     1      44.186  -3.079  13.476  1.00  0.00    -0.371 N 
HETATM   14  C1  UNL     1      44.306  -4.428  13.002  1.00  0.00     0.148 C 
ATOM     15  H1  UNL     1      43.262  -2.695  13.676  1.00  0.00     0.161 HD
ENDBRANCH  11  13
ENDBRANCH   1  11
TORSDOF 2
ENDMDL
MODEL 2
REMARK VINA RESULT: -5.420501743      2.197      5.528
REMARK  2 active torsions:
REMARK  status: ('A' for Active; 'I' for Inactive)
REMARK    1  A    between atoms: N1_2  and  C2_4 
REMARK    2  A    between atoms: C2_4  and  N2_6 
ROOT
HETATM    1  N2  UNL     1      46.119  -0.961  16.521  1.00  0.00    -0.357 N 
HETATM    2  C3  UNL     1      45.203  -0.023  15.907  1.00  0.00     0.126 C 
HETATM    3  C4  UNL     1      45.671  -0.101  14.447  1.00  0.00     0.033 C 
HETATM    4  C5  UNL     1      45.736  -1.599  14.273  1.00  0.00     0.005 C 
HETATM    5  C6  UNL     1      44.398  -2.187  13.911  1.00  0.00     0.043 C 
HETATM    6  C7  UNL     1      44.384  -2.026  12.405  1.00  0.00     0.272 C 
HETATM    7  N3  UNL     1      45.717  -2.384  12.030  1.00  0.00     0.085 N 
HETATM    8  C8  UNL     1      45.777  -3.804  11.760  1.00  0.00     0.309 C 
HETATM    9  C9  UNL     1      46.599  -2.014  13.119  1.00  0.00     0.283 C 
HETATM   10  C10 UNL     1      46.250  -2.073  15.606  1.00  0.00     0.136 C 
ENDROOT
BRANCH   1  11
HETATM   11  C2  UNL     1      46.743  -0.764  17.794  1.00  0.00     0.169 C 
HETATM   12  S1  UNL     1      47.678   0.562  18.066  1.00  0.00    -0.041 SA
BRANCH  11  13
HETATM   13  N1  UNL     1      46.589  -1.679  18.857  1.00  0.00    -0.371 N 
HETATM   14  C1  UNL     1      47.055  -1.357  20.176  1.00  0.00     0.148 C 
ATOM     15  H1  UNL     1      46.141  -2.580  18.686  1.00  0.00     0.161 HD
ENDBRANCH  11  13
ENDBRANCH   1  11
TORSDOF 2
ENDMDL
MODEL 3
REMARK VINA RESULT: -5.412197017      4.032      5.655
REMARK  2 active torsions:
REMARK  status: ('A' for Active; 'I' for Inactive)
REMARK    1  A    between atoms: N1_2  and  C2_4 
REMARK    2  A    between atoms: C2_4  and  N2_6 
ROOT
HETATM    1  N2  UNL     1      44.840  -5.657  12.800  1.00  0.00    -0.357 N 
HETATM    2  C3  UNL     1      45.556  -5.320  14.011  1.00  0.00     0.126 C 
HETATM    3  C4  UNL     1      46.264  -4.034  13.562  1.00  0.00     0.033 C 
HETATM    4  C5  UNL     1      45.104  -3.307  12.926  1.00  0.00     0.005 C 
HETATM    5  C6  UNL     1      44.289  -2.545  13.936  1.00  0.00     0.043 C 
HETATM    6  C7  UNL     1      45.045  -1.235  14.024  1.00  0.00     0.272 C 
HETATM    7  N3  UNL     1      45.373  -0.961  12.659  1.00  0.00     0.085 N 
HETATM    8  C8  UNL     1      44.318  -0.175  12.058  1.00  0.00     0.309 C 
HETATM    9  C9  UNL     1      45.543  -2.229  11.979  1.00  0.00     0.283 C 
HETATM   10  C10 UNL     1      44.336  -4.415  12.257  1.00  0.00     0.136 C 
ENDROOT
BRANCH   1  11
HETATM   11  C2  UNL     1      44.697  -6.986  12.289  1.00  0.00     0.169 C 
HETATM   12  S1  UNL     1      45.391  -8.257  13.070  1.00  0.00    -0.041 SA
BRANCH  11  13
HETATM   13  N1  UNL     1      43.966  -7.266  11.114  1.00  0.00    -0.371 N 
HETATM   14  C1  UNL     1      44.034  -8.561  10.500  1.00  0.00     0.148 C 
ATOM     15  H1  UNL     1      43.384  -6.540  10.698  1.00  0.00     0.161 HD
ENDBRANCH  11  13
ENDBRANCH   1  11
TORSDOF 2
ENDMDL
MODEL 4
REMARK VINA RESULT: -5.303440299      2.488      4.032
REMARK  2 active torsions:
REMARK  status: ('A' for Active; 'I' for Inactive)
REMARK    1  A    between atoms: N1_2  and  C2_4 
REMARK    2  A    between atoms: C2_4  and  N2_6 
ROOT
HETATM    1  N2  UNL     1      46.745  -0.684  18.142  1.00  0.00    -0.357 N 
HETATM    2  C3  UNL     1      46.199  -0.873  19.468  1.00  0.00     0.126 C 
HETATM    3  C4  UNL     1      47.465  -1.295  20.228  1.00  0.00     0.033 C 
HETATM    4  C5  UNL     1      48.423  -0.230  19.750  1.00  0.00     0.005 C 
HETATM    5  C6  UNL     1      48.317   1.033  20.562  1.00  0.00     0.043 C 
HETATM    6  C7  UNL     1      49.244   0.737  21.723  1.00  0.00     0.272 C 
HETATM    7  N3  UNL     1      50.357   0.099  21.091  1.00  0.00     0.085 N 
HETATM    8  C8  UNL     1      51.336   1.095  20.715  1.00  0.00     0.309 C 
HETATM    9  C9  UNL     1      49.861  -0.618  19.933  1.00  0.00     0.283 C 
HETATM   10  C10 UNL     1      48.031  -0.044  18.309  1.00  0.00     0.136 C 
ENDROOT
BRANCH   1  11
HETATM   11  C2  UNL     1      46.087  -1.081  16.934  1.00  0.00     0.169 C 
HETATM   12  S1  UNL     1      44.751  -0.277  16.411  1.00  0.00    -0.041 SA
BRANCH  11  13
HETATM   13  N1  UNL     1      46.545  -2.160  16.148  1.00  0.00    -0.371 N 
HETATM   14  C1  UNL     1      46.407  -2.137  14.720  1.00  0.00     0.148 C 
ATOM     15  H1  UNL     1      46.980  -2.965  16.600  1.00  0.00     0.161 HD
ENDBRANCH  11  13
ENDBRANCH   1  11
TORSDOF 2
ENDMDL
MODEL 5
REMARK VINA RESULT: -5.195833613      2.376      5.661
REMARK  2 active torsions:
REMARK  status: ('A' for Active; 'I' for Inactive)
REMARK    1  A    between atoms: N1_2  and  C2_4 
REMARK    2  A    between atoms: C2_4  and  N2_6 
ROOT
HETATM    1  N2  UNL     1      46.136  -0.992  16.430  1.00  0.00    -0.357 N 
HETATM    2  C3  UNL     1      45.266  -0.031  15.785  1.00  0.00     0.126 C 
HETATM    3  C4  UNL     1      45.741  -0.164  14.331  1.00  0.00     0.033 C 
HETATM    4  C5  UNL     1      45.744  -1.667  14.194  1.00  0.00     0.005 C 
HETATM    5  C6  UNL     1      44.385  -2.205  13.834  1.00  0.00     0.043 C 
HETATM    6  C7  UNL     1      44.389  -2.080  12.324  1.00  0.00     0.272 C 
HETATM    7  N3  UNL     1      45.709  -2.503  11.970  1.00  0.00     0.085 N 
HETATM    8  C8  UNL     1      45.711  -3.930  11.733  1.00  0.00     0.309 C 
HETATM    9  C9  UNL     1      46.598  -2.145  13.057  1.00  0.00     0.283 C 
HETATM   10  C10 UNL     1      46.227  -2.130  15.542  1.00  0.00     0.136 C 
ENDROOT
BRANCH   1  11
HETATM   11  C2  UNL     1      46.758  -0.791  17.703  1.00  0.00     0.169 C 
HETATM   12  S1  UNL     1      45.844  -0.657  19.064  1.00  0.00    -0.041 SA
BRANCH  11  13
HETATM   13  N1  UNL     1      48.159  -0.700  17.849  1.00  0.00    -0.371 N 
HETATM   14  C1  UNL     1      48.750   0.372  18.598  1.00  0.00     0.148 C 
ATOM     15  H1  UNL     1      48.758  -1.405  17.419  1.00  0.00     0.161 HD
ENDBRANCH  11  13
ENDBRANCH   1  11
TORSDOF 2
ENDMDL
