MODEL 1
REMARK VINA RESULT: -9.497979058      0.000      0.000
REMARK  8 active torsions:
REMARK  status: ('A' for Active; 'I' for Inactive)
REMARK    1  A    between atoms: C3_3  and  O1_4 
REMARK    2  A    between atoms: C4_6  and  C5_7 
REMARK    3  A    between atoms: C5_7  and  O2_8 
REMARK    4  A    between atoms: C5_7  and  N1_10 
REMARK    5  A    between atoms: N1_10  and  C6_12 
REMARK    6  A    between atoms: N2_20  and  C14_21 
REMARK    7  A    between atoms: C17_24  and  C18_25 
REMARK    8  A    between atoms: C18_25  and  C19_26 
ROOT
HETATM    1  C1  UNL     1     -26.269  -1.513 -14.458  1.00  0.00     0.071 C 
HETATM    2  C2  UNL     1     -26.171  -1.553 -12.970  1.00  0.00     0.042 A 
HETATM    3  C3  UNL     1     -27.138  -1.939 -12.093  1.00  0.00     0.104 A 
HETATM    4  C4  UNL     1     -26.625  -1.832 -10.800  1.00  0.00     0.072 A 
HETATM    5  C12 UNL     1     -25.340  -1.375 -10.968  1.00  0.00     0.025 A 
HETATM    6  C13 UNL     1     -24.391  -1.121  -9.844  1.00  0.00     0.069 C 
HETATM    7  N2  UNL     1     -25.066  -1.205 -12.300  1.00  0.00    -0.346 N 
ENDROOT
BRANCH   4   8
HETATM    8  C5  UNL     1     -27.403  -2.167  -9.621  1.00  0.00     0.151 C 
BRANCH   8   9
HETATM    9  O2  UNL     1     -28.511  -1.487  -9.473  1.00  0.00    -0.346 OA
ATOM     10  H2  UNL     1     -28.867  -1.480  -8.592  1.00  0.00     0.219 HD
ENDBRANCH   8   9
BRANCH   8  11
HETATM   11  N1  UNL     1     -27.106  -3.125  -8.637  1.00  0.00    -0.366 N 
ATOM     12  H1  UNL     1     -26.173  -3.155  -8.227  1.00  0.00     0.162 HD
BRANCH  11  13
HETATM   13  C6  UNL     1     -28.124  -4.080  -8.193  1.00  0.00     0.083 C 
HETATM   14  C7  UNL     1     -29.045  -3.464  -7.157  1.00  0.00     0.025 C 
HETATM   15  C8  UNL     1     -30.217  -4.444  -7.023  1.00  0.00     0.002 C 
HETATM   16  C9  UNL     1     -29.719  -5.760  -6.498  1.00  0.00     0.000 C 
HETATM   17  C10 UNL     1     -28.616  -6.314  -7.350  1.00  0.00     0.002 C 
HETATM   18  C11 UNL     1     -27.526  -5.323  -7.627  1.00  0.00     0.025 C 
ENDBRANCH  11  13
ENDBRANCH   8  11
ENDBRANCH   4   8
BRANCH   3  19
HETATM   19  O1  UNL     1     -28.395  -2.356 -12.482  1.00  0.00    -0.358 OA
ATOM     20  H1  UNL     1     -29.197  -1.939 -12.191  1.00  0.00     0.217 HD
ENDBRANCH   3  19
BRANCH   7  21
HETATM   21  C14 UNL     1     -23.808  -0.733 -12.740  1.00  0.00     0.090 C 
HETATM   22  C15 UNL     1     -22.577  -1.291 -12.166  1.00  0.00     0.026 C 
HETATM   23  C16 UNL     1     -21.380  -0.725 -12.954  1.00  0.00     0.007 C 
HETATM   24  C17 UNL     1     -21.480   0.640 -13.458  1.00  0.00    -0.014 C 
HETATM   25  C22 UNL     1     -22.806   1.332 -13.482  1.00  0.00     0.007 C 
HETATM   26  C23 UNL     1     -23.719   0.775 -12.457  1.00  0.00     0.026 C 
BRANCH  24  27
HETATM   27  C18 UNL     1     -20.370   1.593 -13.058  1.00  0.00     0.013 C 
BRANCH  27  28
HETATM   28  C19 UNL     1     -19.212   1.760 -13.911  1.00  0.00     0.034 C 
HETATM   29  C20 UNL     1     -17.834   1.556 -13.269  1.00  0.00     0.174 C 
HETATM   30  O3  UNL     1     -17.363   2.448 -14.271  1.00  0.00    -0.390 OA
HETATM   31  C21 UNL     1     -18.668   3.067 -14.345  1.00  0.00     0.174 C 
ENDBRANCH  27  28
ENDBRANCH  24  27
ENDBRANCH   7  21
TORSDOF 8
ENDMDL
MODEL 2
REMARK VINA RESULT: -9.209144171      2.978     10.849
REMARK  8 active torsions:
REMARK  status: ('A' for Active; 'I' for Inactive)
REMARK    1  A    between atoms: C3_3  and  O1_4 
REMARK    2  A    between atoms: C4_6  and  C5_7 
REMARK    3  A    between atoms: C5_7  and  O2_8 
REMARK    4  A    between atoms: C5_7  and  N1_10 
REMARK    5  A    between atoms: N1_10  and  C6_12 
REMARK    6  A    between atoms: N2_20  and  C14_21 
REMARK    7  A    between atoms: C17_24  and  C18_25 
REMARK    8  A    between atoms: C18_25  and  C19_26 
ROOT
HETATM    1  C1  UNL     1     -22.478   3.250 -12.919  1.00  0.00     0.071 C 
HETATM    2  C2  UNL     1     -21.295   2.455 -13.361  1.00  0.00     0.042 A 
HETATM    3  C3  UNL     1     -20.089   2.936 -13.770  1.00  0.00     0.104 A 
HETATM    4  C4  UNL     1     -19.269   1.852 -14.084  1.00  0.00     0.072 A 
HETATM    5  C12 UNL     1     -20.043   0.743 -13.841  1.00  0.00     0.025 A 
HETATM    6  C13 UNL     1     -19.572  -0.661 -14.027  1.00  0.00     0.069 C 
HETATM    7  N2  UNL     1     -21.285   1.118 -13.398  1.00  0.00    -0.346 N 
ENDROOT
BRANCH   4   8
HETATM    8  C5  UNL     1     -17.906   2.015 -14.558  1.00  0.00     0.151 C 
BRANCH   8   9
HETATM    9  O2  UNL     1     -17.636   3.181 -15.087  1.00  0.00    -0.346 OA
ATOM     10  H2  UNL     1     -18.010   3.927 -14.635  1.00  0.00     0.219 HD
ENDBRANCH   8   9
BRANCH   8  11
HETATM   11  N1  UNL     1     -16.861   1.077 -14.513  1.00  0.00    -0.366 N 
ATOM     12  H1  UNL     1     -17.060   0.090 -14.678  1.00  0.00     0.162 HD
BRANCH  11  13
HETATM   13  C6  UNL     1     -15.488   1.502 -14.232  1.00  0.00     0.083 C 
HETATM   14  C7  UNL     1     -14.543   1.090 -15.344  1.00  0.00     0.025 C 
HETATM   15  C8  UNL     1     -13.241   1.854 -15.075  1.00  0.00     0.002 C 
HETATM   16  C9  UNL     1     -12.658   1.413 -13.764  1.00  0.00     0.000 C 
HETATM   17  C10 UNL     1     -13.641   1.563 -12.642  1.00  0.00     0.002 C 
HETATM   18  C11 UNL     1     -14.979   0.957 -12.940  1.00  0.00     0.025 C 
ENDBRANCH  11  13
ENDBRANCH   8  11
ENDBRANCH   4   8
BRANCH   3  19
HETATM   19  O1  UNL     1     -19.790   4.281 -13.841  1.00  0.00    -0.358 OA
ATOM     20  H1  UNL     1     -19.508   4.794 -13.093  1.00  0.00     0.217 HD
ENDBRANCH   3  19
BRANCH   7  21
HETATM   21  C14 UNL     1     -22.277   0.160 -13.085  1.00  0.00     0.090 C 
HETATM   22  C15 UNL     1     -23.697   0.518 -13.191  1.00  0.00     0.026 C 
HETATM   23  C16 UNL     1     -24.532  -0.757 -12.967  1.00  0.00     0.007 C 
HETATM   24  C17 UNL     1     -24.026  -1.746 -12.022  1.00  0.00    -0.014 C 
HETATM   25  C22 UNL     1     -22.609  -1.666 -11.544  1.00  0.00     0.007 C 
HETATM   26  C23 UNL     1     -22.096  -0.279 -11.623  1.00  0.00     0.026 C 
BRANCH  24  27
HETATM   27  C18 UNL     1     -24.962  -2.153 -10.901  1.00  0.00     0.013 C 
BRANCH  27  28
HETATM   28  C19 UNL     1     -26.199  -1.430 -10.687  1.00  0.00     0.034 C 
HETATM   29  C20 UNL     1     -26.986  -1.754  -9.412  1.00  0.00     0.174 C 
HETATM   30  O3  UNL     1     -28.130  -1.345 -10.152  1.00  0.00    -0.390 OA
HETATM   31  C21 UNL     1     -27.472  -1.714 -11.386  1.00  0.00     0.174 C 
ENDBRANCH  27  28
ENDBRANCH  24  27
ENDBRANCH   7  21
TORSDOF 8
ENDMDL
MODEL 3
REMARK VINA RESULT: -8.856996950      3.019     11.210
REMARK  8 active torsions:
REMARK  status: ('A' for Active; 'I' for Inactive)
REMARK    1  A    between atoms: C3_3  and  O1_4 
REMARK    2  A    between atoms: C4_6  and  C5_7 
REMARK    3  A    between atoms: C5_7  and  O2_8 
REMARK    4  A    between atoms: C5_7  and  N1_10 
REMARK    5  A    between atoms: N1_10  and  C6_12 
REMARK    6  A    between atoms: N2_20  and  C14_21 
REMARK    7  A    between atoms: C17_24  and  C18_25 
REMARK    8  A    between atoms: C18_25  and  C19_26 
ROOT
HETATM    1  C1  UNL     1     -22.557   3.142 -12.847  1.00  0.00     0.071 C 
HETATM    2  C2  UNL     1     -21.373   2.347 -13.286  1.00  0.00     0.042 A 
HETATM    3  C3  UNL     1     -20.158   2.828 -13.669  1.00  0.00     0.104 A 
HETATM    4  C4  UNL     1     -19.340   1.744 -13.989  1.00  0.00     0.072 A 
HETATM    5  C12 UNL     1     -20.123   0.636 -13.776  1.00  0.00     0.025 A 
HETATM    6  C13 UNL     1     -19.657  -0.767 -13.980  1.00  0.00     0.069 C 
HETATM    7  N2  UNL     1     -21.369   1.011 -13.345  1.00  0.00    -0.346 N 
ENDROOT
BRANCH   4   8
HETATM    8  C5  UNL     1     -17.969   1.907 -14.441  1.00  0.00     0.151 C 
BRANCH   8   9
HETATM    9  O2  UNL     1     -17.154   0.938 -14.109  1.00  0.00    -0.346 OA
ATOM     10  H2  UNL     1     -16.236   1.177 -14.072  1.00  0.00     0.219 HD
ENDBRANCH   8   9
BRANCH   8  11
HETATM   11  N1  UNL     1     -17.428   2.970 -15.183  1.00  0.00    -0.366 N 
ATOM     12  H1  UNL     1     -18.040   3.545 -15.762  1.00  0.00     0.162 HD
BRANCH  11  13
HETATM   13  C6  UNL     1     -15.992   3.259 -15.135  1.00  0.00     0.083 C 
HETATM   14  C7  UNL     1     -15.723   4.742 -15.307  1.00  0.00     0.025 C 
HETATM   15  C8  UNL     1     -14.249   4.932 -14.929  1.00  0.00     0.002 C 
HETATM   16  C9  UNL     1     -13.378   4.172 -15.887  1.00  0.00     0.000 C 
HETATM   17  C10 UNL     1     -13.760   2.724 -15.954  1.00  0.00     0.002 C 
HETATM   18  C11 UNL     1     -15.227   2.506 -16.170  1.00  0.00     0.025 C 
ENDBRANCH  11  13
ENDBRANCH   8  11
ENDBRANCH   4   8
BRANCH   3  19
HETATM   19  O1  UNL     1     -19.850   4.172 -13.713  1.00  0.00    -0.358 OA
ATOM     20  H1  UNL     1     -20.259   4.821 -13.152  1.00  0.00     0.217 HD
ENDBRANCH   3  19
BRANCH   7  21
HETATM   21  C14 UNL     1     -22.371   0.054 -13.062  1.00  0.00     0.090 C 
HETATM   22  C15 UNL     1     -23.787   0.414 -13.210  1.00  0.00     0.026 C 
HETATM   23  C16 UNL     1     -24.630  -0.861 -13.012  1.00  0.00     0.007 C 
HETATM   24  C17 UNL     1     -24.153  -1.851 -12.053  1.00  0.00    -0.014 C 
HETATM   25  C22 UNL     1     -22.751  -1.773 -11.533  1.00  0.00     0.007 C 
HETATM   26  C23 UNL     1     -22.234  -0.386 -11.596  1.00  0.00     0.026 C 
BRANCH  24  27
HETATM   27  C18 UNL     1     -25.122  -2.258 -10.960  1.00  0.00     0.013 C 
BRANCH  27  28
HETATM   28  C19 UNL     1     -26.309  -1.467 -10.709  1.00  0.00     0.034 C 
HETATM   29  C20 UNL     1     -27.024  -1.683  -9.370  1.00  0.00     0.174 C 
HETATM   30  O3  UNL     1     -28.195  -1.262 -10.058  1.00  0.00    -0.390 OA
HETATM   31  C21 UNL     1     -27.637  -1.728 -11.308  1.00  0.00     0.174 C 
ENDBRANCH  27  28
ENDBRANCH  24  27
ENDBRANCH   7  21
TORSDOF 8
ENDMDL
MODEL 4
REMARK VINA RESULT: -8.770999346      2.962     10.561
REMARK  8 active torsions:
REMARK  status: ('A' for Active; 'I' for Inactive)
REMARK    1  A    between atoms: C3_3  and  O1_4 
REMARK    2  A    between atoms: C4_6  and  C5_7 
REMARK    3  A    between atoms: C5_7  and  O2_8 
REMARK    4  A    between atoms: C5_7  and  N1_10 
REMARK    5  A    between atoms: N1_10  and  C6_12 
REMARK    6  A    between atoms: N2_20  and  C14_21 
REMARK    7  A    between atoms: C17_24  and  C18_25 
REMARK    8  A    between atoms: C18_25  and  C19_26 
ROOT
HETATM    1  C1  UNL     1     -22.586   3.321 -12.961  1.00  0.00     0.071 C 
HETATM    2  C2  UNL     1     -21.371   2.571 -13.395  1.00  0.00     0.042 A 
HETATM    3  C3  UNL     1     -20.190   3.097 -13.823  1.00  0.00     0.104 A 
HETATM    4  C4  UNL     1     -19.324   2.045 -14.120  1.00  0.00     0.072 A 
HETATM    5  C12 UNL     1     -20.045   0.907 -13.848  1.00  0.00     0.025 A 
HETATM    6  C13 UNL     1     -19.512  -0.477 -14.009  1.00  0.00     0.069 C 
HETATM    7  N2  UNL     1     -21.300   1.235 -13.405  1.00  0.00    -0.346 N 
ENDROOT
BRANCH   4   8
HETATM    8  C5  UNL     1     -17.973   2.259 -14.607  1.00  0.00     0.151 C 
BRANCH   8   9
HETATM    9  O2  UNL     1     -17.579   3.507 -14.625  1.00  0.00    -0.346 OA
ATOM     10  H2  UNL     1     -17.061   3.757 -15.381  1.00  0.00     0.219 HD
ENDBRANCH   8   9
BRANCH   8  11
HETATM   11  N1  UNL     1     -17.055   1.294 -15.054  1.00  0.00    -0.366 N 
ATOM     12  H1  UNL     1     -17.267   0.743 -15.886  1.00  0.00     0.162 HD
BRANCH  11  13
HETATM   13  C6  UNL     1     -15.798   1.071 -14.337  1.00  0.00     0.083 C 
HETATM   14  C7  UNL     1     -16.035   0.881 -12.851  1.00  0.00     0.025 C 
HETATM   15  C8  UNL     1     -14.707   0.358 -12.292  1.00  0.00     0.002 C 
HETATM   16  C9  UNL     1     -13.636   1.395 -12.476  1.00  0.00     0.000 C 
HETATM   17  C10 UNL     1     -13.517   1.818 -13.910  1.00  0.00     0.002 C 
HETATM   18  C11 UNL     1     -14.829   2.188 -14.531  1.00  0.00     0.025 C 
ENDBRANCH  11  13
ENDBRANCH   8  11
ENDBRANCH   4   8
BRANCH   3  19
HETATM   19  O1  UNL     1     -19.954   4.453 -13.923  1.00  0.00    -0.358 OA
ATOM     20  H1  UNL     1     -19.132   4.860 -13.678  1.00  0.00     0.217 HD
ENDBRANCH   3  19
BRANCH   7  21
HETATM   21  C14 UNL     1     -22.246   0.240 -13.064  1.00  0.00     0.090 C 
HETATM   22  C15 UNL     1     -23.681   0.522 -13.193  1.00  0.00     0.026 C 
HETATM   23  C16 UNL     1     -24.453  -0.785 -12.930  1.00  0.00     0.007 C 
HETATM   24  C17 UNL     1     -23.906  -1.713 -11.947  1.00  0.00    -0.014 C 
HETATM   25  C22 UNL     1     -22.499  -1.546 -11.462  1.00  0.00     0.007 C 
HETATM   26  C23 UNL     1     -22.055  -0.138 -11.587  1.00  0.00     0.026 C 
BRANCH  24  27
HETATM   27  C18 UNL     1     -24.830  -2.127 -10.818  1.00  0.00     0.013 C 
BRANCH  27  28
HETATM   28  C19 UNL     1     -26.121  -1.489 -10.663  1.00  0.00     0.034 C 
HETATM   29  C20 UNL     1     -26.949  -1.875  -9.431  1.00  0.00     0.174 C 
HETATM   30  O3  UNL     1     -28.078  -1.536 -10.226  1.00  0.00    -0.390 OA
HETATM   31  C21 UNL     1     -27.336  -1.851 -11.428  1.00  0.00     0.174 C 
ENDBRANCH  27  28
ENDBRANCH  24  27
ENDBRANCH   7  21
TORSDOF 8
ENDMDL
MODEL 5
REMARK VINA RESULT: -8.267555285      3.356     11.490
REMARK  8 active torsions:
REMARK  status: ('A' for Active; 'I' for Inactive)
REMARK    1  A    between atoms: C3_3  and  O1_4 
REMARK    2  A    between atoms: C4_6  and  C5_7 
REMARK    3  A    between atoms: C5_7  and  O2_8 
REMARK    4  A    between atoms: C5_7  and  N1_10 
REMARK    5  A    between atoms: N1_10  and  C6_12 
REMARK    6  A    between atoms: N2_20  and  C14_21 
REMARK    7  A    between atoms: C17_24  and  C18_25 
REMARK    8  A    between atoms: C18_25  and  C19_26 
ROOT
HETATM    1  C1  UNL     1     -21.121   3.674 -12.818  1.00  0.00     0.071 C 
HETATM    2  C2  UNL     1     -20.204   2.595 -13.290  1.00  0.00     0.042 A 
HETATM    3  C3  UNL     1     -18.903   2.730 -13.669  1.00  0.00     0.104 A 
HETATM    4  C4  UNL     1     -18.419   1.473 -14.029  1.00  0.00     0.072 A 
HETATM    5  C12 UNL     1     -19.480   0.620 -13.843  1.00  0.00     0.025 A 
HETATM    6  C13 UNL     1     -19.422  -0.851 -14.092  1.00  0.00     0.069 C 
HETATM    7  N2  UNL     1     -20.572   1.313 -13.390  1.00  0.00    -0.346 N 
ENDROOT
BRANCH   4   8
HETATM    8  C5  UNL     1     -17.057   1.262 -14.486  1.00  0.00     0.151 C 
BRANCH   8   9
HETATM    9  O2  UNL     1     -16.437   0.246 -13.942  1.00  0.00    -0.346 OA
ATOM     10  H2  UNL     1     -15.503   0.203 -14.113  1.00  0.00     0.219 HD
ENDBRANCH   8   9
BRANCH   8  11
HETATM   11  N1  UNL     1     -16.341   2.013 -15.433  1.00  0.00    -0.366 N 
ATOM     12  H1  UNL     1     -16.672   2.059 -16.397  1.00  0.00     0.162 HD
BRANCH  11  13
HETATM   13  C6  UNL     1     -15.123   2.731 -15.050  1.00  0.00     0.083 C 
HETATM   14  C7  UNL     1     -15.184   4.186 -15.475  1.00  0.00     0.025 C 
HETATM   15  C8  UNL     1     -14.016   4.868 -14.751  1.00  0.00     0.002 C 
HETATM   16  C9  UNL     1     -12.716   4.285 -15.225  1.00  0.00     0.000 C 
HETATM   17  C10 UNL     1     -12.686   2.795 -15.062  1.00  0.00     0.002 C 
HETATM   18  C11 UNL     1     -13.895   2.112 -15.627  1.00  0.00     0.025 C 
ENDBRANCH  11  13
ENDBRANCH   8  11
ENDBRANCH   4   8
BRANCH   3  19
HETATM   19  O1  UNL     1     -18.234   3.937 -13.675  1.00  0.00    -0.358 OA
ATOM     20  H1  UNL     1     -18.661   4.771 -13.829  1.00  0.00     0.217 HD
ENDBRANCH   3  19
BRANCH   7  21
HETATM   21  C14 UNL     1     -21.801   0.664 -13.128  1.00  0.00     0.090 C 
HETATM   22  C15 UNL     1     -23.026   1.457 -12.967  1.00  0.00     0.026 C 
HETATM   23  C16 UNL     1     -24.219   0.486 -12.873  1.00  0.00     0.007 C 
HETATM   24  C17 UNL     1     -24.003  -0.796 -12.211  1.00  0.00    -0.014 C 
HETATM   25  C22 UNL     1     -22.611  -1.266 -11.928  1.00  0.00     0.007 C 
HETATM   26  C23 UNL     1     -21.673  -0.125 -11.815  1.00  0.00     0.026 C 
BRANCH  24  27
HETATM   27  C18 UNL     1     -24.940  -1.133 -11.067  1.00  0.00     0.013 C 
BRANCH  27  28
HETATM   28  C19 UNL     1     -26.164  -1.865 -11.320  1.00  0.00     0.034 C 
HETATM   29  C20 UNL     1     -26.714  -1.834 -12.751  1.00  0.00     0.174 C 
HETATM   30  O3  UNL     1     -27.984  -2.040 -12.145  1.00  0.00    -0.390 OA
HETATM   31  C21 UNL     1     -27.516  -1.405 -10.932  1.00  0.00     0.174 C 
ENDBRANCH  27  28
ENDBRANCH  24  27
ENDBRANCH   7  21
TORSDOF 8
ENDMDL
