MODEL 1
REMARK VINA RESULT: -5.746334891      0.000      0.000
REMARK  4 active torsions:
REMARK  status: ('A' for Active; 'I' for Inactive)
REMARK    1  A    between atoms: O1_2  and  C2_3 
REMARK    2  A    between atoms: C6_10  and  C7_11 
REMARK    3  A    between atoms: C7_11  and  N2_12 
REMARK    4  A    between atoms: C12_20  and  N3_21 
ROOT
HETATM    1  N2  UNL     1      90.886  98.133 -43.283  1.00  0.00    -0.315 N 
HETATM    2  C8  UNL     1      91.039  99.038 -42.268  1.00  0.00     0.118 A 
HETATM    3  C9  UNL     1      91.571 100.277 -42.382  1.00  0.00     0.045 A 
HETATM    4 BR1  UNL     1      91.747 101.435 -40.881  1.00  0.00    -0.048 Br
HETATM    5  C10 UNL     1      92.007 100.688 -43.629  1.00  0.00     0.051 A 
HETATM    6 BR2  UNL     1      92.776 102.414 -43.804  1.00  0.00    -0.048 Br
HETATM    7  C11 UNL     1      91.871  99.812 -44.671  1.00  0.00     0.075 A 
HETATM    8 BR3  UNL     1      92.464 100.371 -46.393  1.00  0.00    -0.045 Br
HETATM    9  C12 UNL     1      91.305  98.538 -44.469  1.00  0.00     0.144 A 
ENDROOT
BRANCH   1  10
HETATM   10  C7  UNL     1      90.353  96.877 -42.905  1.00  0.00     0.113 C 
BRANCH  10  11
HETATM   11  C6  UNL     1      91.247  95.791 -42.572  1.00  0.00     0.029 A 
HETATM   12  C2  UNL     1      91.585  94.805 -43.467  1.00  0.00     0.086 A 
HETATM   13  C3  UNL     1      92.359  93.735 -43.080  1.00  0.00     0.112 A 
HETATM   14  C4  UNL     1      92.781  93.693 -41.762  1.00  0.00     0.247 A 
HETATM   15  O2  UNL     1      93.492  92.704 -41.411  1.00  0.00    -0.268 OA
HETATM   16  N1  UNL     1      92.454  94.658 -40.889  1.00  0.00    -0.333 N 
HETATM   17  C5  UNL     1      91.708  95.685 -41.270  1.00  0.00     0.107 A 
ATOM     18  H1  UNL     1      92.782  94.601 -39.924  1.00  0.00     0.168 HD
BRANCH  12  19
HETATM   19  O1  UNL     1      91.170  94.839 -44.813  1.00  0.00    -0.355 OA
HETATM   20  C1  UNL     1      90.910  93.694 -45.584  1.00  0.00     0.210 C 
ENDBRANCH  12  19
ENDBRANCH  10  11
ENDBRANCH   1  10
BRANCH   9  21
HETATM   21  N3  UNL     1      91.220  97.738 -45.625  1.00  0.00    -0.290 N 
HETATM   22  N4  UNL     1      90.115  97.449 -46.152  1.00  0.00    -0.344 N 
ATOM     23  H42 UNL     1      89.267  97.812 -45.717  1.00  0.00     0.176 HD
ATOM     24  H41 UNL     1      90.054  96.869 -46.988  1.00  0.00     0.176 HD
ATOM     25  H3  UNL     1      92.078  97.383 -46.047  1.00  0.00     0.188 HD
ENDBRANCH   9  21
TORSDOF 4
ENDMDL
MODEL 2
REMARK VINA RESULT: -5.626173676      3.157      3.418
REMARK  4 active torsions:
REMARK  status: ('A' for Active; 'I' for Inactive)
REMARK    1  A    between atoms: O1_2  and  C2_3 
REMARK    2  A    between atoms: C6_10  and  C7_11 
REMARK    3  A    between atoms: C7_11  and  N2_12 
REMARK    4  A    between atoms: C12_20  and  N3_21 
ROOT
HETATM    1  N2  UNL     1      89.468  97.907 -44.259  1.00  0.00    -0.315 N 
HETATM    2  C8  UNL     1      89.091  98.953 -43.461  1.00  0.00     0.118 A 
HETATM    3  C9  UNL     1      87.881  99.556 -43.462  1.00  0.00     0.045 A 
HETATM    4 BR1  UNL     1      87.490 101.022 -42.313  1.00  0.00    -0.048 Br
HETATM    5  C10 UNL     1      86.920  99.090 -44.342  1.00  0.00     0.051 A 
HETATM    6 BR2  UNL     1      85.222  99.939 -44.373  1.00  0.00    -0.048 Br
HETATM    7  C11 UNL     1      87.257  98.044 -45.156  1.00  0.00     0.075 A 
HETATM    8 BR3  UNL     1      85.939  97.392 -46.368  1.00  0.00    -0.045 Br
HETATM    9  C12 UNL     1      88.542  97.470 -45.093  1.00  0.00     0.144 A 
ENDROOT
BRANCH   1  10
HETATM   10  C7  UNL     1      90.811  97.482 -44.113  1.00  0.00     0.113 C 
BRANCH  10  11
HETATM   11  C6  UNL     1      91.112  96.334 -43.287  1.00  0.00     0.029 A 
HETATM   12  C2  UNL     1      91.204  95.059 -43.791  1.00  0.00     0.086 A 
HETATM   13  C3  UNL     1      91.393  93.981 -42.956  1.00  0.00     0.112 A 
HETATM   14  C4  UNL     1      91.487  94.233 -41.598  1.00  0.00     0.247 A 
HETATM   15  O2  UNL     1      91.659  93.236 -40.834  1.00  0.00    -0.268 OA
HETATM   16  N1  UNL     1      91.401  95.478 -41.106  1.00  0.00    -0.333 N 
HETATM   17  C5  UNL     1      91.219  96.511 -41.918  1.00  0.00     0.107 A 
ATOM     18  H1  UNL     1      91.477  95.632 -40.101  1.00  0.00     0.168 HD
BRANCH  12  19
HETATM   19  O1  UNL     1      91.118  94.790 -45.172  1.00  0.00    -0.355 OA
HETATM   20  C1  UNL     1      90.961  93.503 -45.713  1.00  0.00     0.210 C 
ENDBRANCH  12  19
ENDBRANCH  10  11
ENDBRANCH   1  10
BRANCH   9  21
HETATM   21  N3  UNL     1      88.756  96.398 -45.983  1.00  0.00    -0.290 N 
HETATM   22  N4  UNL     1      89.366  96.552 -47.071  1.00  0.00    -0.344 N 
ATOM     23  H42 UNL     1      89.709  97.485 -47.302  1.00  0.00     0.176 HD
ATOM     24  H41 UNL     1      89.521  95.777 -47.715  1.00  0.00     0.176 HD
ATOM     25  H3  UNL     1      88.407  95.472 -45.737  1.00  0.00     0.188 HD
ENDBRANCH   9  21
TORSDOF 4
ENDMDL
MODEL 3
REMARK VINA RESULT: -5.505423741      3.515      4.754
REMARK  4 active torsions:
REMARK  status: ('A' for Active; 'I' for Inactive)
REMARK    1  A    between atoms: O1_2  and  C2_3 
REMARK    2  A    between atoms: C6_10  and  C7_11 
REMARK    3  A    between atoms: C7_11  and  N2_12 
REMARK    4  A    between atoms: C12_20  and  N3_21 
ROOT
HETATM    1  N2  UNL     1      89.649  97.231 -45.012  1.00  0.00    -0.315 N 
HETATM    2  C8  UNL     1      89.063  96.688 -46.122  1.00  0.00     0.118 A 
HETATM    3  C9  UNL     1      87.821  96.965 -46.580  1.00  0.00     0.045 A 
HETATM    4 BR1  UNL     1      87.112  96.121 -48.132  1.00  0.00    -0.048 Br
HETATM    5  C10 UNL     1      87.055  97.879 -45.877  1.00  0.00     0.051 A 
HETATM    6 BR2  UNL     1      85.301  98.264 -46.492  1.00  0.00    -0.048 Br
HETATM    7  C11 UNL     1      87.606  98.446 -44.761  1.00  0.00     0.075 A 
HETATM    8 BR3  UNL     1      86.560  99.709 -43.790  1.00  0.00    -0.045 Br
HETATM    9  C12 UNL     1      88.908  98.103 -44.350  1.00  0.00     0.144 A 
ENDROOT
BRANCH   1  10
HETATM   10  C7  UNL     1      90.941  96.741 -44.702  1.00  0.00     0.113 C 
BRANCH  10  11
HETATM   11  C6  UNL     1      91.087  95.650 -43.764  1.00  0.00     0.029 A 
HETATM   12  C2  UNL     1      91.278  95.848 -42.418  1.00  0.00     0.086 A 
HETATM   13  C3  UNL     1      91.513  94.787 -41.574  1.00  0.00     0.112 A 
HETATM   14  C4  UNL     1      91.547  93.520 -42.133  1.00  0.00     0.247 A 
HETATM   15  O2  UNL     1      91.765  92.547 -41.351  1.00  0.00    -0.268 OA
HETATM   16  N1  UNL     1      91.356  93.327 -43.447  1.00  0.00    -0.333 N 
HETATM   17  C5  UNL     1      91.131  94.355 -44.253  1.00  0.00     0.107 A 
ATOM     18  H1  UNL     1      91.384  92.381 -43.829  1.00  0.00     0.168 HD
BRANCH  12  19
HETATM   19  O1  UNL     1      91.239  97.131 -41.835  1.00  0.00    -0.355 OA
HETATM   20  C1  UNL     1      91.993  97.507 -40.712  1.00  0.00     0.210 C 
ENDBRANCH  12  19
ENDBRANCH  10  11
ENDBRANCH   1  10
BRANCH   9  21
HETATM   21  N3  UNL     1      89.356  98.762 -43.188  1.00  0.00    -0.290 N 
HETATM   22  N4  UNL     1      90.198  99.694 -43.238  1.00  0.00    -0.344 N 
ATOM     23  H42 UNL     1      90.558  99.968 -44.152  1.00  0.00     0.176 HD
ATOM     24  H41 UNL     1      90.522 100.171 -42.396  1.00  0.00     0.176 HD
ATOM     25  H3  UNL     1      88.986  98.475 -42.282  1.00  0.00     0.188 HD
ENDBRANCH   9  21
TORSDOF 4
ENDMDL
MODEL 4
REMARK VINA RESULT: -5.448274077      2.702      3.539
REMARK  4 active torsions:
REMARK  status: ('A' for Active; 'I' for Inactive)
REMARK    1  A    between atoms: O1_2  and  C2_3 
REMARK    2  A    between atoms: C6_10  and  C7_11 
REMARK    3  A    between atoms: C7_11  and  N2_12 
REMARK    4  A    between atoms: C12_20  and  N3_21 
ROOT
HETATM    1  N2  UNL     1      90.179  98.794 -43.446  1.00  0.00    -0.315 N 
HETATM    2  C8  UNL     1      88.903  98.517 -43.855  1.00  0.00     0.118 A 
HETATM    3  C9  UNL     1      87.806  99.264 -43.597  1.00  0.00     0.045 A 
HETATM    4 BR1  UNL     1      86.077  98.753 -44.208  1.00  0.00    -0.048 Br
HETATM    5  C10 UNL     1      87.964 100.420 -42.853  1.00  0.00     0.051 A 
HETATM    6 BR2  UNL     1      86.432 101.470 -42.462  1.00  0.00    -0.048 Br
HETATM    7  C11 UNL     1      89.224 100.734 -42.425  1.00  0.00     0.075 A 
HETATM    8 BR3  UNL     1      89.453 102.326 -41.404  1.00  0.00    -0.045 Br
HETATM    9  C12 UNL     1      90.316  99.901 -42.738  1.00  0.00     0.144 A 
ENDROOT
BRANCH   1  10
HETATM   10  C7  UNL     1      91.155  97.829 -43.793  1.00  0.00     0.113 C 
BRANCH  10  11
HETATM   11  C6  UNL     1      91.279  96.622 -43.008  1.00  0.00     0.029 A 
HETATM   12  C2  UNL     1      91.264  95.366 -43.567  1.00  0.00     0.086 A 
HETATM   13  C3  UNL     1      91.283  94.241 -42.775  1.00  0.00     0.112 A 
HETATM   14  C4  UNL     1      91.319  94.423 -41.403  1.00  0.00     0.247 A 
HETATM   15  O2  UNL     1      91.334  93.383 -40.680  1.00  0.00    -0.268 OA
HETATM   16  N1  UNL     1      91.336  95.649 -40.858  1.00  0.00    -0.333 N 
HETATM   17  C5  UNL     1      91.317  96.728 -41.628  1.00  0.00     0.107 A 
ATOM     18  H1  UNL     1      91.365  95.751 -39.843  1.00  0.00     0.168 HD
BRANCH  12  19
HETATM   19  O1  UNL     1      91.236  95.166 -44.961  1.00  0.00    -0.355 OA
HETATM   20  C1  UNL     1      90.852  93.962 -45.575  1.00  0.00     0.210 C 
ENDBRANCH  12  19
ENDBRANCH  10  11
ENDBRANCH   1  10
BRANCH   9  21
HETATM   21  N3  UNL     1      91.559 100.342 -42.240  1.00  0.00    -0.290 N 
HETATM   22  N4  UNL     1      91.979  99.997 -41.105  1.00  0.00    -0.344 N 
ATOM     23  H42 UNL     1      91.391  99.382 -40.543  1.00  0.00     0.176 HD
ATOM     24  H41 UNL     1      92.878 100.317 -40.746  1.00  0.00     0.176 HD
ATOM     25  H3  UNL     1      92.134 100.957 -42.816  1.00  0.00     0.188 HD
ENDBRANCH   9  21
TORSDOF 4
ENDMDL
MODEL 5
REMARK VINA RESULT: -5.341437179      2.256      4.199
REMARK  4 active torsions:
REMARK  status: ('A' for Active; 'I' for Inactive)
REMARK    1  A    between atoms: O1_2  and  C2_3 
REMARK    2  A    between atoms: C6_10  and  C7_11 
REMARK    3  A    between atoms: C7_11  and  N2_12 
REMARK    4  A    between atoms: C12_20  and  N3_21 
ROOT
HETATM    1  N2  UNL     1      90.873 100.488 -43.128  1.00  0.00    -0.315 N 
HETATM    2  C8  UNL     1      91.053 101.163 -44.304  1.00  0.00     0.118 A 
HETATM    3  C9  UNL     1      91.894 102.204 -44.503  1.00  0.00     0.045 A 
HETATM    4 BR1  UNL     1      92.035 103.073 -46.190  1.00  0.00    -0.048 Br
HETATM    5  C10 UNL     1      92.653 102.642 -43.432  1.00  0.00     0.051 A 
HETATM    6 BR2  UNL     1      93.823 104.115 -43.685  1.00  0.00    -0.048 Br
HETATM    7  C11 UNL     1      92.503 101.993 -42.237  1.00  0.00     0.075 A 
HETATM    8 BR3  UNL     1      93.547 102.587 -40.758  1.00  0.00    -0.045 Br
HETATM    9  C12 UNL     1      91.604 100.916 -42.114  1.00  0.00     0.144 A 
ENDROOT
BRANCH   1  10
HETATM   10  C7  UNL     1      89.892  99.467 -43.154  1.00  0.00     0.113 C 
BRANCH  10  11
HETATM   11  C6  UNL     1      90.193  98.202 -43.786  1.00  0.00     0.029 A 
HETATM   12  C2  UNL     1      90.800  97.164 -43.122  1.00  0.00     0.086 A 
HETATM   13  C3  UNL     1      91.160  96.014 -43.786  1.00  0.00     0.112 A 
HETATM   14  C4  UNL     1      90.885  95.945 -45.142  1.00  0.00     0.247 A 
HETATM   15  O2  UNL     1      91.220  94.885 -45.749  1.00  0.00    -0.268 OA
HETATM   16  N1  UNL     1      90.289  96.957 -45.790  1.00  0.00    -0.333 N 
HETATM   17  C5  UNL     1      89.946  98.062 -45.142  1.00  0.00     0.107 A 
ATOM     18  H1  UNL     1      90.097  96.876 -46.789  1.00  0.00     0.168 HD
BRANCH  12  19
HETATM   19  O1  UNL     1      91.078  97.218 -41.741  1.00  0.00    -0.355 OA
HETATM   20  C1  UNL     1      91.411  96.097 -40.963  1.00  0.00     0.210 C 
ENDBRANCH  12  19
ENDBRANCH  10  11
ENDBRANCH   1  10
BRANCH   9  21
HETATM   21  N3  UNL     1      91.550 100.334 -40.832  1.00  0.00    -0.290 N 
HETATM   22  N4  UNL     1      92.321  99.399 -40.495  1.00  0.00    -0.344 N 
ATOM     23  H42 UNL     1      92.998  99.065 -41.181  1.00  0.00     0.176 HD
ATOM     24  H41 UNL     1      92.282  98.977 -39.567  1.00  0.00     0.176 HD
ATOM     25  H3  UNL     1      90.867 100.680 -40.158  1.00  0.00     0.188 HD
ENDBRANCH   9  21
TORSDOF 4
ENDMDL
