MODEL 1
REMARK VINA RESULT: -5.668299993      0.000      0.000
REMARK  6 active torsions:
REMARK  status: ('A' for Active; 'I' for Inactive)
REMARK       I    between atoms: N3_4  and  C2_6 
REMARK    1  A    between atoms: C2_6  and  C3_8 
REMARK    2  A    between atoms: C7_12  and  C8_14 
REMARK    3  A    between atoms: C8_14  and  C9_15 
REMARK    4  A    between atoms: N4_17  and  C10_18 
REMARK    5  A    between atoms: C11_20  and  N5_21 
REMARK       I    between atoms: N5_21  and  C12_23 
REMARK       I    between atoms: C12_23  and  N6_25 
REMARK    6  A    between atoms: N6_25  and  C13_27 
ROOT
HETATM    1  C3  UNL     1      88.356  99.999 -44.162  1.00  0.00     0.188 C 
HETATM    2  C4  UNL     1      88.170  98.536 -44.208  1.00  0.00     0.047 A 
HETATM    3  C5  UNL     1      87.138  98.011 -45.109  1.00  0.00     0.022 A 
HETATM    4  C6  UNL     1      86.219  99.075 -45.661  1.00  0.00     0.074 C 
HETATM    5  C7  UNL     1      85.924 100.045 -44.533  1.00  0.00     0.181 C 
HETATM    6  F1  UNL     1      85.781  99.250 -43.362  1.00  0.00    -0.219 F 
HETATM    7  N4  UNL     1      87.133 100.799 -44.328  1.00  0.00    -0.309 N 
HETATM    8  C11 UNL     1      88.544  97.875 -45.503  1.00  0.00     0.098 A 
ENDROOT
BRANCH   8   9
HETATM    9  N5  UNL     1      89.249  96.622 -45.370  1.00  0.00    -0.337 N 
HETATM   10  C12 UNL     1      90.655  96.514 -45.271  1.00  0.00     0.322 C 
HETATM   11  O3  UNL     1      91.407  97.515 -45.294  1.00  0.00    -0.247 OA
HETATM   12  N6  UNL     1      91.229  95.224 -45.143  1.00  0.00    -0.295 N 
ATOM     13  H6  UNL     1      91.319  94.619 -45.960  1.00  0.00     0.172 HD
ATOM     14  H5  UNL     1      88.699  95.763 -45.345  1.00  0.00     0.164 HD
BRANCH  12  15
HETATM   15  C13 UNL     1      91.635  94.823 -43.989  1.00  0.00     0.108 A 
HETATM   16  C14 UNL     1      92.435  93.700 -43.881  1.00  0.00     0.049 A 
HETATM   17  C15 UNL     1      92.866  93.278 -42.644  1.00  0.00     0.005 A 
HETATM   18  C16 UNL     1      92.480  94.000 -41.539  1.00  0.00     0.017 A 
HETATM   19  C17 UNL     1      91.678  95.129 -41.641  1.00  0.00     0.089 A 
HETATM   20  N7  UNL     1      91.286  95.497 -42.871  1.00  0.00    -0.352 N 
ATOM     21  H7  UNL     1      90.698  96.324 -42.966  1.00  0.00     0.166 HD
ENDBRANCH  12  15
ENDBRANCH   8   9
BRANCH   1  22
HETATM   22  C2  UNL     1      89.331 100.510 -45.149  1.00  0.00     0.247 C 
HETATM   23  N3  UNL     1      90.706 100.366 -44.876  1.00  0.00    -0.302 N 
HETATM   24  C1  UNL     1      91.365 101.231 -44.186  1.00  0.00     0.203 C 
ATOM     25  H3  UNL     1      91.196  99.547 -45.237  1.00  0.00     0.171 HD
HETATM   26  N1  UNL     1      90.747 102.380 -43.662  1.00  0.00    -0.066 NA
HETATM   27  N2  UNL     1      92.740 100.996 -43.968  1.00  0.00    -0.066 NA
HETATM   28  O1  UNL     1      88.982 101.057 -46.201  1.00  0.00    -0.271 OA
ENDBRANCH   1  22
BRANCH   7  29
HETATM   29  C10 UNL     1      87.231 102.212 -44.263  1.00  0.00     0.354 C 
HETATM   30  O2  UNL     1      87.310 102.885 -43.224  1.00  0.00    -0.283 OA
ENDBRANCH   7  29
BRANCH   5  31
HETATM   31  C8  UNL     1      84.713 100.869 -44.699  1.00  0.00     0.077 C 
BRANCH  31  32
HETATM   32  C9  UNL     1      83.678 100.518 -43.661  1.00  0.00     0.090 C 
HETATM   33 BR1  UNL     1      83.884 101.764 -42.177  1.00  0.00    -0.096 Br
ENDBRANCH  31  32
ENDBRANCH   5  31
TORSDOF 6
ENDMDL
MODEL 2
REMARK VINA RESULT: -5.513536404      3.456      6.141
REMARK  6 active torsions:
REMARK  status: ('A' for Active; 'I' for Inactive)
REMARK       I    between atoms: N3_4  and  C2_6 
REMARK    1  A    between atoms: C2_6  and  C3_8 
REMARK    2  A    between atoms: C7_12  and  C8_14 
REMARK    3  A    between atoms: C8_14  and  C9_15 
REMARK    4  A    between atoms: N4_17  and  C10_18 
REMARK    5  A    between atoms: C11_20  and  N5_21 
REMARK       I    between atoms: N5_21  and  C12_23 
REMARK       I    between atoms: C12_23  and  N6_25 
REMARK    6  A    between atoms: N6_25  and  C13_27 
ROOT
HETATM    1  C3  UNL     1      89.895  97.321 -44.344  1.00  0.00     0.188 C 
HETATM    2  C4  UNL     1      88.736  97.825 -45.105  1.00  0.00     0.047 A 
HETATM    3  C5  UNL     1      88.707  99.255 -45.431  1.00  0.00     0.022 A 
HETATM    4  C6  UNL     1      89.749 100.064 -44.695  1.00  0.00     0.074 C 
HETATM    5  C7  UNL     1      89.808  99.536 -43.275  1.00  0.00     0.181 C 
HETATM    6  F1  UNL     1      88.465  99.250 -42.908  1.00  0.00    -0.219 F 
HETATM    7  N4  UNL     1      90.456  98.252 -43.353  1.00  0.00    -0.309 N 
HETATM    8  C11 UNL     1      89.032  98.301 -46.498  1.00  0.00     0.098 A 
ENDROOT
BRANCH   8   9
HETATM    9  N5  UNL     1      88.058  97.921 -47.494  1.00  0.00    -0.337 N 
HETATM   10  C12 UNL     1      88.156  96.757 -48.290  1.00  0.00     0.322 C 
HETATM   11  O3  UNL     1      89.114  95.955 -48.190  1.00  0.00    -0.247 OA
HETATM   12  N6  UNL     1      87.134  96.493 -49.235  1.00  0.00    -0.295 N 
ATOM     13  H6  UNL     1      87.109  97.001 -50.120  1.00  0.00     0.172 HD
ATOM     14  H5  UNL     1      87.250  98.529 -47.631  1.00  0.00     0.164 HD
BRANCH  12  15
HETATM   15  C13 UNL     1      86.237  95.608 -48.969  1.00  0.00     0.108 A 
HETATM   16  C14 UNL     1      86.139  94.459 -49.731  1.00  0.00     0.049 A 
HETATM   17  C15 UNL     1      85.178  93.518 -49.439  1.00  0.00     0.005 A 
HETATM   18  C16 UNL     1      84.334  93.757 -48.380  1.00  0.00     0.017 A 
HETATM   19  C17 UNL     1      84.428  94.909 -47.610  1.00  0.00     0.089 A 
HETATM   20  N7  UNL     1      85.382  95.793 -47.938  1.00  0.00    -0.352 N 
ATOM     21  H7  UNL     1      85.468  96.644 -47.383  1.00  0.00     0.166 HD
ENDBRANCH  12  15
ENDBRANCH   8   9
BRANCH   1  22
HETATM   22  C2  UNL     1      91.023  96.880 -45.192  1.00  0.00     0.247 C 
HETATM   23  N3  UNL     1      90.937  95.627 -45.830  1.00  0.00    -0.302 N 
HETATM   24  C1  UNL     1      91.303  94.534 -45.253  1.00  0.00     0.203 C 
ATOM     25  H3  UNL     1      90.572  95.583 -46.782  1.00  0.00     0.171 HD
HETATM   26  N1  UNL     1      91.813  94.529 -43.943  1.00  0.00    -0.066 NA
HETATM   27  N2  UNL     1      91.178  93.329 -45.978  1.00  0.00    -0.066 NA
HETATM   28  O1  UNL     1      92.034  97.572 -45.360  1.00  0.00    -0.271 OA
ENDBRANCH   1  22
BRANCH   7  29
HETATM   29  C10 UNL     1      91.552  97.824 -42.562  1.00  0.00     0.354 C 
HETATM   30  O2  UNL     1      91.492  97.031 -41.610  1.00  0.00    -0.283 OA
ENDBRANCH   7  29
BRANCH   5  31
HETATM   31  C8  UNL     1      90.390 100.452 -42.277  1.00  0.00     0.077 C 
BRANCH  31  32
HETATM   32  C9  UNL     1      89.315 101.272 -41.610  1.00  0.00     0.090 C 
HETATM   33 BR1  UNL     1      90.196 102.642 -40.542  1.00  0.00    -0.096 Br
ENDBRANCH  31  32
ENDBRANCH   5  31
TORSDOF 6
ENDMDL
MODEL 3
REMARK VINA RESULT: -5.419642809      3.648      6.303
REMARK  6 active torsions:
REMARK  status: ('A' for Active; 'I' for Inactive)
REMARK       I    between atoms: N3_4  and  C2_6 
REMARK    1  A    between atoms: C2_6  and  C3_8 
REMARK    2  A    between atoms: C7_12  and  C8_14 
REMARK    3  A    between atoms: C8_14  and  C9_15 
REMARK    4  A    between atoms: N4_17  and  C10_18 
REMARK    5  A    between atoms: C11_20  and  N5_21 
REMARK       I    between atoms: N5_21  and  C12_23 
REMARK       I    between atoms: C12_23  and  N6_25 
REMARK    6  A    between atoms: N6_25  and  C13_27 
ROOT
HETATM    1  C3  UNL     1      89.708  97.308 -44.495  1.00  0.00     0.188 C 
HETATM    2  C4  UNL     1      88.556  97.754 -45.303  1.00  0.00     0.047 A 
HETATM    3  C5  UNL     1      88.481  99.177 -45.650  1.00  0.00     0.022 A 
HETATM    4  C6  UNL     1      89.464 100.037 -44.890  1.00  0.00     0.074 C 
HETATM    5  C7  UNL     1      89.495  99.531 -43.462  1.00  0.00     0.181 C 
HETATM    6  F1  UNL     1      88.151  99.195 -43.136  1.00  0.00    -0.219 F 
HETATM    7  N4  UNL     1      90.196  98.273 -43.499  1.00  0.00    -0.309 N 
HETATM    8  C11 UNL     1      88.881  98.224 -46.691  1.00  0.00     0.098 A 
ENDROOT
BRANCH   8   9
HETATM    9  N5  UNL     1      87.958  97.792 -47.715  1.00  0.00    -0.337 N 
HETATM   10  C12 UNL     1      88.137  96.629 -48.498  1.00  0.00     0.322 C 
HETATM   11  O3  UNL     1      89.127  95.874 -48.361  1.00  0.00    -0.247 OA
HETATM   12  N6  UNL     1      87.159  96.311 -49.473  1.00  0.00    -0.295 N 
ATOM     13  H6  UNL     1      87.138  96.811 -50.362  1.00  0.00     0.172 HD
ATOM     14  H5  UNL     1      87.128  98.361 -47.882  1.00  0.00     0.164 HD
BRANCH  12  15
HETATM   15  C13 UNL     1      86.296  95.387 -49.228  1.00  0.00     0.108 A 
HETATM   16  C14 UNL     1      85.347  95.560 -48.237  1.00  0.00     0.049 A 
HETATM   17  C15 UNL     1      84.429  94.567 -47.983  1.00  0.00     0.005 A 
HETATM   18  C16 UNL     1      84.486  93.418 -48.736  1.00  0.00     0.017 A 
HETATM   19  C17 UNL     1      85.436  93.239 -49.733  1.00  0.00     0.089 A 
HETATM   20  N7  UNL     1      86.307  94.238 -49.940  1.00  0.00    -0.352 N 
ATOM     21  H7  UNL     1      87.011  94.125 -50.669  1.00  0.00     0.166 HD
ENDBRANCH  12  15
ENDBRANCH   8   9
BRANCH   1  22
HETATM   22  C2  UNL     1      90.882  96.902 -45.299  1.00  0.00     0.247 C 
HETATM   23  N3  UNL     1      90.856  95.651 -45.946  1.00  0.00    -0.302 N 
HETATM   24  C1  UNL     1      91.226  94.565 -45.360  1.00  0.00     0.203 C 
ATOM     25  H3  UNL     1      90.532  95.604 -46.912  1.00  0.00     0.171 HD
HETATM   26  N1  UNL     1      91.682  94.565 -44.030  1.00  0.00    -0.066 NA
HETATM   27  N2  UNL     1      91.164  93.361 -46.096  1.00  0.00    -0.066 NA
HETATM   28  O1  UNL     1      91.880  97.621 -45.420  1.00  0.00    -0.271 OA
ENDBRANCH   1  22
BRANCH   7  29
HETATM   29  C10 UNL     1      91.280  97.900 -42.665  1.00  0.00     0.354 C 
HETATM   30  O2  UNL     1      91.235  97.064 -41.750  1.00  0.00    -0.283 OA
ENDBRANCH   7  29
BRANCH   5  31
HETATM   31  C8  UNL     1      90.004 100.482 -42.457  1.00  0.00     0.077 C 
BRANCH  31  32
HETATM   32  C9  UNL     1      90.505 101.742 -43.117  1.00  0.00     0.090 C 
HETATM   33 BR1  UNL     1      92.451 101.651 -43.159  1.00  0.00    -0.096 Br
ENDBRANCH  31  32
ENDBRANCH   5  31
TORSDOF 6
ENDMDL
MODEL 4
REMARK VINA RESULT: -5.406918182      3.576      5.092
REMARK  6 active torsions:
REMARK  status: ('A' for Active; 'I' for Inactive)
REMARK       I    between atoms: N3_4  and  C2_6 
REMARK    1  A    between atoms: C2_6  and  C3_8 
REMARK    2  A    between atoms: C7_12  and  C8_14 
REMARK    3  A    between atoms: C8_14  and  C9_15 
REMARK    4  A    between atoms: N4_17  and  C10_18 
REMARK    5  A    between atoms: C11_20  and  N5_21 
REMARK       I    between atoms: N5_21  and  C12_23 
REMARK       I    between atoms: C12_23  and  N6_25 
REMARK    6  A    between atoms: N6_25  and  C13_27 
ROOT
HETATM    1  C3  UNL     1      88.519  99.860 -45.512  1.00  0.00     0.188 C 
HETATM    2  C4  UNL     1      88.506 100.044 -44.048  1.00  0.00     0.047 A 
HETATM    3  C5  UNL     1      87.619  99.180 -43.263  1.00  0.00     0.022 A 
HETATM    4  C6  UNL     1      86.634  98.402 -44.103  1.00  0.00     0.074 C 
HETATM    5  C7  UNL     1      86.137  99.332 -45.192  1.00  0.00     0.181 C 
HETATM    6  F1  UNL     1      85.989 100.607 -44.580  1.00  0.00    -0.219 F 
HETATM    7  N4  UNL     1      87.231  99.486 -46.116  1.00  0.00    -0.309 N 
HETATM    8  C11 UNL     1      89.059  98.903 -43.245  1.00  0.00     0.098 A 
ENDROOT
BRANCH   8   9
HETATM    9  N5  UNL     1      89.889  99.287 -42.127  1.00  0.00    -0.337 N 
HETATM   10  C12 UNL     1      91.267  99.583 -42.233  1.00  0.00     0.322 C 
HETATM   11  O3  UNL     1      91.882  99.532 -43.323  1.00  0.00    -0.247 OA
HETATM   12  N6  UNL     1      91.974  99.948 -41.060  1.00  0.00    -0.295 N 
ATOM     13  H6  UNL     1      92.259  99.235 -40.388  1.00  0.00     0.172 HD
ATOM     14  H5  UNL     1      89.453  99.348 -41.207  1.00  0.00     0.164 HD
BRANCH  12  15
HETATM   15  C13 UNL     1      92.253 101.188 -40.848  1.00  0.00     0.108 A 
HETATM   16  C14 UNL     1      91.566 101.905 -39.886  1.00  0.00     0.049 A 
HETATM   17  C15 UNL     1      91.872 103.229 -39.665  1.00  0.00     0.005 A 
HETATM   18  C16 UNL     1      92.867 103.803 -40.422  1.00  0.00     0.017 A 
HETATM   19  C17 UNL     1      93.560 103.087 -41.389  1.00  0.00     0.089 A 
HETATM   20  N7  UNL     1      93.223 101.800 -41.563  1.00  0.00    -0.352 N 
ATOM     21  H7  UNL     1      93.722 101.257 -42.267  1.00  0.00     0.166 HD
ENDBRANCH  12  15
ENDBRANCH   8   9
BRANCH   1  22
HETATM   22  C2  UNL     1      89.508  98.865 -45.981  1.00  0.00     0.247 C 
HETATM   23  N3  UNL     1      90.860  99.251 -46.072  1.00  0.00    -0.302 N 
HETATM   24  C1  UNL     1      91.345  99.821 -47.122  1.00  0.00     0.203 C 
ATOM     25  H3  UNL     1      91.478  99.073 -45.280  1.00  0.00     0.171 HD
HETATM   26  N1  UNL     1      90.546 100.092 -48.246  1.00  0.00    -0.066 NA
HETATM   27  N2  UNL     1      92.714 100.167 -47.115  1.00  0.00    -0.066 NA
HETATM   28  O1  UNL     1      89.190  97.713 -46.294  1.00  0.00    -0.271 OA
ENDBRANCH   1  22
BRANCH   7  29
HETATM   29  C10 UNL     1      87.162  99.322 -47.523  1.00  0.00     0.354 C 
HETATM   30  O2  UNL     1      87.072 100.238 -48.354  1.00  0.00    -0.283 OA
ENDBRANCH   7  29
BRANCH   5  31
HETATM   31  C8  UNL     1      84.859  98.955 -45.822  1.00  0.00     0.077 C 
BRANCH  31  32
HETATM   32  C9  UNL     1      84.413  97.592 -45.356  1.00  0.00     0.090 C 
HETATM   33 BR1  UNL     1      84.829  96.320 -46.772  1.00  0.00    -0.096 Br
ENDBRANCH  31  32
ENDBRANCH   5  31
TORSDOF 6
ENDMDL
MODEL 5
REMARK VINA RESULT: -5.360208820      4.132      7.002
REMARK  6 active torsions:
REMARK  status: ('A' for Active; 'I' for Inactive)
REMARK       I    between atoms: N3_4  and  C2_6 
REMARK    1  A    between atoms: C2_6  and  C3_8 
REMARK    2  A    between atoms: C7_12  and  C8_14 
REMARK    3  A    between atoms: C8_14  and  C9_15 
REMARK    4  A    between atoms: N4_17  and  C10_18 
REMARK    5  A    between atoms: C11_20  and  N5_21 
REMARK       I    between atoms: N5_21  and  C12_23 
REMARK       I    between atoms: C12_23  and  N6_25 
REMARK    6  A    between atoms: N6_25  and  C13_27 
ROOT
HETATM    1  C3  UNL     1      89.450  99.541 -43.361  1.00  0.00     0.188 C 
HETATM    2  C4  UNL     1      90.724  99.609 -42.619  1.00  0.00     0.047 A 
HETATM    3  C5  UNL     1      91.934  99.143 -43.303  1.00  0.00     0.022 A 
HETATM    4  C6  UNL     1      91.654  98.397 -44.586  1.00  0.00     0.074 C 
HETATM    5  C7  UNL     1      90.446  97.514 -44.339  1.00  0.00     0.181 C 
HETATM    6  F1  UNL     1      90.593  97.010 -43.018  1.00  0.00    -0.219 F 
HETATM    7  N4  UNL     1      89.311  98.399 -44.278  1.00  0.00    -0.309 N 
HETATM    8  C11 UNL     1      91.732 100.588 -43.149  1.00  0.00     0.098 A 
ENDROOT
BRANCH   8   9
HETATM    9  N5  UNL     1      92.436 101.346 -42.142  1.00  0.00    -0.337 N 
HETATM   10  C12 UNL     1      92.164 102.700 -41.841  1.00  0.00     0.322 C 
HETATM   11  O3  UNL     1      91.277 103.355 -42.437  1.00  0.00    -0.247 OA
HETATM   12  N6  UNL     1      92.926 103.337 -40.830  1.00  0.00    -0.295 N 
ATOM     13  H6  UNL     1      93.876 103.653 -41.025  1.00  0.00     0.172 HD
ATOM     14  H5  UNL     1      93.174 100.877 -41.617  1.00  0.00     0.164 HD
BRANCH  12  15
HETATM   15  C13 UNL     1      92.410 103.512 -39.663  1.00  0.00     0.108 A 
HETATM   16  C14 UNL     1      93.219 103.594 -38.545  1.00  0.00     0.049 A 
HETATM   17  C15 UNL     1      92.659 103.782 -37.302  1.00  0.00     0.005 A 
HETATM   18  C16 UNL     1      91.291 103.886 -37.212  1.00  0.00     0.017 A 
HETATM   19  C17 UNL     1      90.473 103.806 -38.332  1.00  0.00     0.089 A 
HETATM   20  N7  UNL     1      91.071 103.622 -39.519  1.00  0.00    -0.352 N 
ATOM     21  H7  UNL     1      90.486 103.563 -40.353  1.00  0.00     0.166 HD
ENDBRANCH  12  15
ENDBRANCH   8   9
BRANCH   1  22
HETATM   22  C2  UNL     1      89.152 100.754 -44.153  1.00  0.00     0.247 C 
HETATM   23  N3  UNL     1      88.690 101.902 -43.479  1.00  0.00    -0.302 N 
HETATM   24  C1  UNL     1      87.441 102.095 -43.224  1.00  0.00     0.203 C 
ATOM     25  H3  UNL     1      89.366 102.604 -43.181  1.00  0.00     0.171 HD
HETATM   26  N1  UNL     1      86.460 101.164 -43.608  1.00  0.00    -0.066 NA
HETATM   27  N2  UNL     1      87.079 103.278 -42.544  1.00  0.00    -0.066 NA
HETATM   28  O1  UNL     1      89.295 100.795 -45.380  1.00  0.00    -0.271 OA
ENDBRANCH   1  22
BRANCH   7  29
HETATM   29  C10 UNL     1      88.101  98.251 -45.001  1.00  0.00     0.354 C 
HETATM   30  O2  UNL     1      87.006  97.924 -44.520  1.00  0.00    -0.283 OA
ENDBRANCH   7  29
BRANCH   5  31
HETATM   31  C8  UNL     1      90.283  96.380 -45.266  1.00  0.00     0.077 C 
BRANCH  31  32
HETATM   32  C9  UNL     1      91.588  95.647 -45.452  1.00  0.00     0.090 C 
HETATM   33 BR1  UNL     1      91.526  94.042 -44.349  1.00  0.00    -0.096 Br
ENDBRANCH  31  32
ENDBRANCH   5  31
TORSDOF 6
ENDMDL
