MODEL 1
REMARK VINA RESULT: -8.045002508      0.000      0.000
REMARK  10 active torsions:
REMARK  status: ('A' for Active; 'I' for Inactive)
REMARK    1  A    between atoms: C3_5  and  C4_6 
REMARK    2  A    between atoms: C4_6  and  C5_7 
REMARK    3  A    between atoms: C10_15  and  N3_16 
REMARK    4  A    between atoms: N3_16  and  C11_17 
REMARK    5  A    between atoms: C11_17  and  C12_18 
REMARK    6  A    between atoms: C12_18  and  C13_19 
REMARK    7  A    between atoms: C16_22  and  S1_23 
REMARK    8  A    between atoms: C23_33  and  C24_34 
REMARK    9  A    between atoms: C24_34  and  C25_35 
REMARK   10  A    between atoms: C30_40  and  C31_41 
ROOT
HETATM    1  C5  UNL     1      91.076  96.417 -43.730  1.00  0.00     0.034 A 
HETATM    2  C6  UNL     1      91.116  96.858 -42.408  1.00  0.00     0.129 A 
HETATM    3  F1  UNL     1      90.924  98.150 -42.117  1.00  0.00    -0.205 F 
HETATM    4  C7  UNL     1      91.356  95.947 -41.409  1.00  0.00     0.045 A 
HETATM    5  C8  UNL     1      91.561  94.609 -41.643  1.00  0.00     0.035 A 
HETATM    6  C9  UNL     1      91.520  94.180 -42.955  1.00  0.00     0.063 A 
HETATM    7  N2  UNL     1      91.679  92.974 -43.467  1.00  0.00    -0.314 N 
ATOM      8  H2  UNL     1      91.868  92.128 -42.929  1.00  0.00     0.170 HD
HETATM    9  C10 UNL     1      91.550  93.030 -44.844  1.00  0.00     0.259 A 
HETATM   10  N4  UNL     1      91.305  94.355 -45.105  1.00  0.00    -0.313 N 
ATOM     11  H4  UNL     1      91.158  94.744 -46.036  1.00  0.00     0.170 HD
HETATM   12  C20 UNL     1      91.284  95.064 -43.980  1.00  0.00     0.076 A 
ENDROOT
BRANCH   1  13
HETATM   13  C4  UNL     1      90.808  97.387 -44.772  1.00  0.00     0.047 C 
BRANCH  13  14
HETATM   14  C3  UNL     1      89.733  97.402 -45.538  1.00  0.00     0.044 A 
HETATM   15  N1  UNL     1      89.647  96.844 -46.742  1.00  0.00    -0.355 N 
HETATM   16  C2  UNL     1      88.386  97.073 -47.240  1.00  0.00     0.034 A 
ATOM     17  H1  UNL     1      90.391  96.333 -47.216  1.00  0.00     0.166 HD
HETATM   18  C1  UNL     1      88.048  96.628 -48.429  1.00  0.00     0.044 C 
HETATM   19  C23 UNL     1      87.672  97.793 -46.314  1.00  0.00     0.002 A 
HETATM   20  C21 UNL     1      88.535  98.002 -45.227  1.00  0.00    -0.006 A 
HETATM   21  C22 UNL     1      88.235  98.653 -44.133  1.00  0.00     0.026 C 
BRANCH  19  22
HETATM   22  C24 UNL     1      86.431  98.212 -46.386  1.00  0.00     0.027 C 
BRANCH  22  23
HETATM   23  C25 UNL     1      85.187  97.604 -46.032  1.00  0.00    -0.020 A 
HETATM   24  C26 UNL     1      84.953  96.301 -46.511  1.00  0.00     0.012 A 
HETATM   25  C27 UNL     1      83.792  95.647 -46.177  1.00  0.00     0.001 A 
HETATM   26  C28 UNL     1      82.850  96.233 -45.385  1.00  0.00     0.001 A 
HETATM   27  C29 UNL     1      83.087  97.495 -44.925  1.00  0.00     0.017 A 
HETATM   28  C30 UNL     1      84.250  98.213 -45.230  1.00  0.00     0.039 A 
BRANCH  28  29
HETATM   29  C31 UNL     1      84.454  99.539 -44.694  1.00  0.00     0.265 C 
HETATM   30  N5  UNL     1      84.161 100.725 -45.374  1.00  0.00    -0.057 NA
HETATM   31  O2  UNL     1      84.933  99.643 -43.529  1.00  0.00    -0.271 OA
ENDBRANCH  28  29
ENDBRANCH  22  23
ENDBRANCH  19  22
ENDBRANCH  13  14
ENDBRANCH   1  13
BRANCH   9  32
HETATM   32  N3  UNL     1      91.614  92.160 -45.644  1.00  0.00    -0.388 NA
BRANCH  32  33
HETATM   33  C11 UNL     1      91.569  91.403 -46.754  1.00  0.00     0.163 C 
BRANCH  33  34
HETATM   34  C12 UNL     1      91.171  92.118 -48.047  1.00  0.00     0.098 C 
BRANCH  34  35
HETATM   35  C13 UNL     1      90.462  91.162 -48.958  1.00  0.00    -0.052 A 
HETATM   36  C14 UNL     1      90.413  89.807 -48.688  1.00  0.00     0.009 A 
HETATM   37  C15 UNL     1      89.743  88.944 -49.547  1.00  0.00     0.021 A 
HETATM   38  C16 UNL     1      89.108  89.382 -50.684  1.00  0.00     0.031 A 
HETATM   39  C18 UNL     1      89.157  90.736 -50.955  1.00  0.00     0.021 A 
HETATM   40  C19 UNL     1      89.824  91.592 -50.098  1.00  0.00     0.009 A 
BRANCH  38  41
HETATM   41  S1  UNL     1      88.263  88.268 -51.756  1.00  0.00     0.045 S 
HETATM   42  C17 UNL     1      86.526  88.254 -51.317  1.00  0.00     0.133 C 
HETATM   43  O1  UNL     1      88.871  86.704 -51.520  1.00  0.00    -0.253 OA
ENDBRANCH  38  41
ENDBRANCH  34  35
ENDBRANCH  33  34
ENDBRANCH  32  33
ENDBRANCH   9  32
TORSDOF 10
ENDMDL
MODEL 2
REMARK VINA RESULT: -7.998997640      0.978      1.220
REMARK  10 active torsions:
REMARK  status: ('A' for Active; 'I' for Inactive)
REMARK    1  A    between atoms: C3_5  and  C4_6 
REMARK    2  A    between atoms: C4_6  and  C5_7 
REMARK    3  A    between atoms: C10_15  and  N3_16 
REMARK    4  A    between atoms: N3_16  and  C11_17 
REMARK    5  A    between atoms: C11_17  and  C12_18 
REMARK    6  A    between atoms: C12_18  and  C13_19 
REMARK    7  A    between atoms: C16_22  and  S1_23 
REMARK    8  A    between atoms: C23_33  and  C24_34 
REMARK    9  A    between atoms: C24_34  and  C25_35 
REMARK   10  A    between atoms: C30_40  and  C31_41 
ROOT
HETATM    1  C5  UNL     1      91.128  96.317 -43.779  1.00  0.00     0.034 A 
HETATM    2  C6  UNL     1      91.195  96.675 -42.432  1.00  0.00     0.129 A 
HETATM    3  F1  UNL     1      91.038  97.951 -42.060  1.00  0.00    -0.205 F 
HETATM    4  C7  UNL     1      91.424  95.699 -41.494  1.00  0.00     0.045 A 
HETATM    5  C8  UNL     1      91.593  94.373 -41.813  1.00  0.00     0.035 A 
HETATM    6  C9  UNL     1      91.525  94.027 -43.148  1.00  0.00     0.063 A 
HETATM    7  N2  UNL     1      91.647  92.850 -43.736  1.00  0.00    -0.314 N 
ATOM      8  H2  UNL     1      91.822  91.969 -43.253  1.00  0.00     0.170 HD
HETATM    9  C10 UNL     1      91.504  92.995 -45.104  1.00  0.00     0.259 A 
HETATM   10  N4  UNL     1      91.288  94.339 -45.280  1.00  0.00    -0.313 N 
ATOM     11  H4  UNL     1      91.140  94.787 -46.184  1.00  0.00     0.170 HD
HETATM   12  C20 UNL     1      91.298  94.977 -44.113  1.00  0.00     0.076 A 
ENDROOT
BRANCH   1  13
HETATM   13  C4  UNL     1      90.871  97.356 -44.755  1.00  0.00     0.047 C 
BRANCH  13  14
HETATM   14  C3  UNL     1      89.779  97.454 -45.491  1.00  0.00     0.044 A 
HETATM   15  N1  UNL     1      89.629  96.934 -46.705  1.00  0.00    -0.355 N 
HETATM   16  C2  UNL     1      88.370  97.250 -47.162  1.00  0.00     0.034 A 
ATOM     17  H1  UNL     1      90.328  96.393 -47.213  1.00  0.00     0.166 HD
HETATM   18  C1  UNL     1      87.975  96.857 -48.352  1.00  0.00     0.044 C 
HETATM   19  C23 UNL     1      87.725  97.986 -46.200  1.00  0.00     0.002 A 
HETATM   20  C21 UNL     1      88.628  98.116 -45.132  1.00  0.00    -0.006 A 
HETATM   21  C22 UNL     1      88.395  98.754 -44.015  1.00  0.00     0.026 C 
BRANCH  19  22
HETATM   22  C24 UNL     1      86.510  98.480 -46.227  1.00  0.00     0.027 C 
BRANCH  22  23
HETATM   23  C25 UNL     1      85.240  97.932 -45.869  1.00  0.00    -0.020 A 
HETATM   24  C26 UNL     1      84.967  96.619 -46.297  1.00  0.00     0.012 A 
HETATM   25  C27 UNL     1      83.778  96.021 -45.955  1.00  0.00     0.001 A 
HETATM   26  C28 UNL     1      82.846  96.673 -45.204  1.00  0.00     0.001 A 
HETATM   27  C29 UNL     1      83.120  97.944 -44.793  1.00  0.00     0.017 A 
HETATM   28  C30 UNL     1      84.314  98.607 -45.109  1.00  0.00     0.039 A 
BRANCH  28  29
HETATM   29  C31 UNL     1      84.557  99.947 -44.625  1.00  0.00     0.265 C 
HETATM   30  N5  UNL     1      85.147 100.253 -43.395  1.00  0.00    -0.057 NA
HETATM   31  O2  UNL     1      84.214 100.916 -45.360  1.00  0.00    -0.271 OA
ENDBRANCH  28  29
ENDBRANCH  22  23
ENDBRANCH  19  22
ENDBRANCH  13  14
ENDBRANCH   1  13
BRANCH   9  32
HETATM   32  N3  UNL     1      91.536  92.174 -45.957  1.00  0.00    -0.388 NA
BRANCH  32  33
HETATM   33  C11 UNL     1      91.773  91.459 -47.070  1.00  0.00     0.163 C 
BRANCH  33  34
HETATM   34  C12 UNL     1      90.877  91.760 -48.274  1.00  0.00     0.098 C 
BRANCH  34  35
HETATM   35  C13 UNL     1      90.420  90.477 -48.899  1.00  0.00    -0.052 A 
HETATM   36  C14 UNL     1      89.259  90.413 -49.649  1.00  0.00     0.009 A 
HETATM   37  C15 UNL     1      88.862  89.210 -50.224  1.00  0.00     0.021 A 
HETATM   38  C16 UNL     1      89.584  88.051 -50.080  1.00  0.00     0.031 A 
HETATM   39  C18 UNL     1      90.743  88.115 -49.330  1.00  0.00     0.021 A 
HETATM   40  C19 UNL     1      91.136  89.312 -48.760  1.00  0.00     0.009 A 
BRANCH  38  41
HETATM   41  S1  UNL     1      89.060  86.540 -50.820  1.00  0.00     0.045 S 
HETATM   42  C17 UNL     1      87.814  85.790 -49.774  1.00  0.00     0.133 C 
HETATM   43  O1  UNL     1      90.379  85.477 -50.899  1.00  0.00    -0.253 OA
ENDBRANCH  38  41
ENDBRANCH  34  35
ENDBRANCH  33  34
ENDBRANCH  32  33
ENDBRANCH   9  32
TORSDOF 10
ENDMDL
MODEL 3
REMARK VINA RESULT: -7.910094049      1.337      2.007
REMARK  10 active torsions:
REMARK  status: ('A' for Active; 'I' for Inactive)
REMARK    1  A    between atoms: C3_5  and  C4_6 
REMARK    2  A    between atoms: C4_6  and  C5_7 
REMARK    3  A    between atoms: C10_15  and  N3_16 
REMARK    4  A    between atoms: N3_16  and  C11_17 
REMARK    5  A    between atoms: C11_17  and  C12_18 
REMARK    6  A    between atoms: C12_18  and  C13_19 
REMARK    7  A    between atoms: C16_22  and  S1_23 
REMARK    8  A    between atoms: C23_33  and  C24_34 
REMARK    9  A    between atoms: C24_34  and  C25_35 
REMARK   10  A    between atoms: C30_40  and  C31_41 
ROOT
HETATM    1  C5  UNL     1      91.106  96.022 -43.790  1.00  0.00     0.034 A 
HETATM    2  C6  UNL     1      91.272  96.153 -42.411  1.00  0.00     0.129 A 
HETATM    3  F1  UNL     1      91.142  97.347 -41.821  1.00  0.00    -0.205 F 
HETATM    4  C7  UNL     1      91.573  95.038 -41.668  1.00  0.00     0.045 A 
HETATM    5  C8  UNL     1      91.720  93.786 -42.215  1.00  0.00     0.035 A 
HETATM    6  C9  UNL     1      91.554  93.665 -43.580  1.00  0.00     0.063 A 
HETATM    7  N2  UNL     1      91.634  92.605 -44.363  1.00  0.00    -0.314 N 
ATOM      8  H2  UNL     1      91.845  91.658 -44.048  1.00  0.00     0.170 HD
HETATM    9  C10 UNL     1      91.388  92.972 -45.674  1.00  0.00     0.259 A 
HETATM   10  N4  UNL     1      91.158  94.323 -45.607  1.00  0.00    -0.313 N 
ATOM     11  H4  UNL     1      90.942  94.914 -46.410  1.00  0.00     0.170 HD
HETATM   12  C20 UNL     1      91.254  94.759 -44.354  1.00  0.00     0.076 A 
ENDROOT
BRANCH   1  13
HETATM   13  C4  UNL     1      90.775  97.205 -44.558  1.00  0.00     0.047 C 
BRANCH  13  14
HETATM   14  C3  UNL     1      89.569  97.729 -44.664  1.00  0.00     0.044 A 
HETATM   15  N1  UNL     1      89.033  98.592 -43.807  1.00  0.00    -0.355 N 
HETATM   16  C2  UNL     1      87.764  98.904 -44.236  1.00  0.00     0.034 A 
ATOM     17  H1  UNL     1      89.487  98.962 -42.972  1.00  0.00     0.166 HD
HETATM   18  C1  UNL     1      87.014  99.737 -43.551  1.00  0.00     0.044 C 
HETATM   19  C23 UNL     1      87.509  98.211 -45.393  1.00  0.00     0.002 A 
HETATM   20  C21 UNL     1      88.664  97.460 -45.665  1.00  0.00    -0.006 A 
HETATM   21  C22 UNL     1      88.826  96.659 -46.686  1.00  0.00     0.026 C 
BRANCH  19  22
HETATM   22  C24 UNL     1      86.425  98.226 -46.132  1.00  0.00     0.027 C 
BRANCH  22  23
HETATM   23  C25 UNL     1      85.422  97.243 -46.390  1.00  0.00    -0.020 A 
HETATM   24  C26 UNL     1      85.591  96.440 -47.534  1.00  0.00     0.012 A 
HETATM   25  C27 UNL     1      84.681  95.452 -47.820  1.00  0.00     0.001 A 
HETATM   26  C28 UNL     1      83.604  95.225 -47.014  1.00  0.00     0.001 A 
HETATM   27  C29 UNL     1      83.449  96.007 -45.907  1.00  0.00     0.017 A 
HETATM   28  C30 UNL     1      84.343  97.029 -45.563  1.00  0.00     0.039 A 
BRANCH  28  29
HETATM   29  C31 UNL     1      84.138  97.810 -44.364  1.00  0.00     0.265 C 
HETATM   30  N5  UNL     1      83.426  99.012 -44.311  1.00  0.00    -0.057 NA
HETATM   31  O2  UNL     1      84.635  97.383 -43.284  1.00  0.00    -0.271 OA
ENDBRANCH  28  29
ENDBRANCH  22  23
ENDBRANCH  19  22
ENDBRANCH  13  14
ENDBRANCH   1  13
BRANCH   9  32
HETATM   32  N3  UNL     1      91.359  92.305 -46.651  1.00  0.00    -0.388 NA
BRANCH  32  33
HETATM   33  C11 UNL     1      91.397  91.306 -47.550  1.00  0.00     0.163 C 
BRANCH  33  34
HETATM   34  C12 UNL     1      90.541  91.490 -48.806  1.00  0.00     0.098 C 
BRANCH  34  35
HETATM   35  C13 UNL     1      89.921  90.182 -49.193  1.00  0.00    -0.052 A 
HETATM   36  C14 UNL     1      88.633  90.113 -49.692  1.00  0.00     0.009 A 
HETATM   37  C15 UNL     1      88.085  88.886 -50.051  1.00  0.00     0.021 A 
HETATM   38  C16 UNL     1      88.777  87.706 -49.930  1.00  0.00     0.031 A 
HETATM   39  C18 UNL     1      90.064  87.775 -49.430  1.00  0.00     0.021 A 
HETATM   40  C19 UNL     1      90.607  88.996 -49.075  1.00  0.00     0.009 A 
BRANCH  38  41
HETATM   41  S1  UNL     1      88.061  86.164 -50.392  1.00  0.00     0.045 S 
HETATM   42  C17 UNL     1      86.446  86.471 -51.105  1.00  0.00     0.133 C 
HETATM   43  O1  UNL     1      87.843  85.217 -49.003  1.00  0.00    -0.253 OA
ENDBRANCH  38  41
ENDBRANCH  34  35
ENDBRANCH  33  34
ENDBRANCH  32  33
ENDBRANCH   9  32
TORSDOF 10
ENDMDL
MODEL 4
REMARK VINA RESULT: -7.887154506      1.744      2.357
REMARK  10 active torsions:
REMARK  status: ('A' for Active; 'I' for Inactive)
REMARK    1  A    between atoms: C3_5  and  C4_6 
REMARK    2  A    between atoms: C4_6  and  C5_7 
REMARK    3  A    between atoms: C10_15  and  N3_16 
REMARK    4  A    between atoms: N3_16  and  C11_17 
REMARK    5  A    between atoms: C11_17  and  C12_18 
REMARK    6  A    between atoms: C12_18  and  C13_19 
REMARK    7  A    between atoms: C16_22  and  S1_23 
REMARK    8  A    between atoms: C23_33  and  C24_34 
REMARK    9  A    between atoms: C24_34  and  C25_35 
REMARK   10  A    between atoms: C30_40  and  C31_41 
ROOT
HETATM    1  C5  UNL     1      91.227  96.015 -43.466  1.00  0.00     0.034 A 
HETATM    2  C6  UNL     1      91.398  96.090 -42.084  1.00  0.00     0.129 A 
HETATM    3  F1  UNL     1      91.311  97.266 -41.452  1.00  0.00    -0.205 F 
HETATM    4  C7  UNL     1      91.658  94.939 -41.382  1.00  0.00     0.045 A 
HETATM    5  C8  UNL     1      91.760  93.703 -41.973  1.00  0.00     0.035 A 
HETATM    6  C9  UNL     1      91.589  93.637 -43.342  1.00  0.00     0.063 A 
HETATM    7  N2  UNL     1      91.631  92.603 -44.162  1.00  0.00    -0.314 N 
ATOM      8  H2  UNL     1      91.808  91.638 -43.881  1.00  0.00     0.170 HD
HETATM    9  C10 UNL     1      91.399  93.025 -45.458  1.00  0.00     0.259 A 
HETATM   10  N4  UNL     1      91.218  94.381 -45.343  1.00  0.00    -0.313 N 
ATOM     11  H4  UNL     1      91.023  95.007 -46.124  1.00  0.00     0.170 HD
HETATM   12  C20 UNL     1      91.329  94.768 -44.076  1.00  0.00     0.076 A 
ENDROOT
BRANCH   1  13
HETATM   13  C4  UNL     1      90.940  97.236 -44.191  1.00  0.00     0.047 C 
BRANCH  13  14
HETATM   14  C3  UNL     1      89.753  97.806 -44.276  1.00  0.00     0.044 A 
HETATM   15  N1  UNL     1      89.254  98.667 -43.394  1.00  0.00    -0.355 N 
HETATM   16  C2  UNL     1      87.995  99.036 -43.807  1.00  0.00     0.034 A 
ATOM     17  H1  UNL     1      89.726  98.997 -42.552  1.00  0.00     0.166 HD
HETATM   18  C1  UNL     1      87.281  99.879 -43.096  1.00  0.00     0.044 C 
HETATM   19  C23 UNL     1      87.709  98.384 -44.980  1.00  0.00     0.002 A 
HETATM   20  C21 UNL     1      88.834  97.598 -45.279  1.00  0.00    -0.006 A 
HETATM   21  C22 UNL     1      88.960  96.818 -46.321  1.00  0.00     0.026 C 
BRANCH  19  22
HETATM   22  C24 UNL     1      86.622  98.458 -45.712  1.00  0.00     0.027 C 
BRANCH  22  23
HETATM   23  C25 UNL     1      85.372  97.771 -45.652  1.00  0.00    -0.020 A 
HETATM   24  C26 UNL     1      84.645  97.869 -44.450  1.00  0.00     0.012 A 
HETATM   25  C27 UNL     1      83.418  97.261 -44.340  1.00  0.00     0.001 A 
HETATM   26  C28 UNL     1      82.880  96.555 -45.375  1.00  0.00     0.001 A 
HETATM   27  C29 UNL     1      83.592  96.467 -46.535  1.00  0.00     0.017 A 
HETATM   28  C30 UNL     1      84.846  97.065 -46.709  1.00  0.00     0.039 A 
BRANCH  28  29
HETATM   29  C31 UNL     1      85.542  96.955 -47.971  1.00  0.00     0.265 C 
HETATM   30  N5  UNL     1      85.481  97.902 -48.998  1.00  0.00    -0.057 NA
HETATM   31  O2  UNL     1      86.258  95.932 -48.168  1.00  0.00    -0.271 OA
ENDBRANCH  28  29
ENDBRANCH  22  23
ENDBRANCH  19  22
ENDBRANCH  13  14
ENDBRANCH   1  13
BRANCH   9  32
HETATM   32  N3  UNL     1      91.346  92.395 -46.459  1.00  0.00    -0.388 NA
BRANCH  32  33
HETATM   33  C11 UNL     1      91.450  91.458 -47.417  1.00  0.00     0.163 C 
BRANCH  33  34
HETATM   34  C12 UNL     1      90.613  91.683 -48.679  1.00  0.00     0.098 C 
BRANCH  34  35
HETATM   35  C13 UNL     1      90.199  90.363 -49.255  1.00  0.00    -0.052 A 
HETATM   36  C14 UNL     1      90.823  89.185 -48.887  1.00  0.00     0.009 A 
HETATM   37  C15 UNL     1      90.413  87.974 -49.432  1.00  0.00     0.021 A 
HETATM   38  C16 UNL     1      89.390  87.885 -50.345  1.00  0.00     0.031 A 
HETATM   39  C18 UNL     1      88.767  89.062 -50.714  1.00  0.00     0.021 A 
HETATM   40  C19 UNL     1      89.176  90.265 -50.169  1.00  0.00     0.009 A 
BRANCH  38  41
HETATM   41  S1  UNL     1      88.888  86.337 -51.021  1.00  0.00     0.045 S 
HETATM   42  C17 UNL     1      87.890  85.477 -49.807  1.00  0.00     0.133 C 
HETATM   43  O1  UNL     1      90.263  85.393 -51.323  1.00  0.00    -0.253 OA
ENDBRANCH  38  41
ENDBRANCH  34  35
ENDBRANCH  33  34
ENDBRANCH  32  33
ENDBRANCH   9  32
TORSDOF 10
ENDMDL
MODEL 5
REMARK VINA RESULT: -7.780005676      1.776      2.515
REMARK  10 active torsions:
REMARK  status: ('A' for Active; 'I' for Inactive)
REMARK    1  A    between atoms: C3_5  and  C4_6 
REMARK    2  A    between atoms: C4_6  and  C5_7 
REMARK    3  A    between atoms: C10_15  and  N3_16 
REMARK    4  A    between atoms: N3_16  and  C11_17 
REMARK    5  A    between atoms: C11_17  and  C12_18 
REMARK    6  A    between atoms: C12_18  and  C13_19 
REMARK    7  A    between atoms: C16_22  and  S1_23 
REMARK    8  A    between atoms: C23_33  and  C24_34 
REMARK    9  A    between atoms: C24_34  and  C25_35 
REMARK   10  A    between atoms: C30_40  and  C31_41 
ROOT
HETATM    1  C5  UNL     1      91.138  96.001 -43.750  1.00  0.00     0.034 A 
HETATM    2  C6  UNL     1      91.330  96.113 -42.373  1.00  0.00     0.129 A 
HETATM    3  F1  UNL     1      91.218  97.300 -41.766  1.00  0.00    -0.205 F 
HETATM    4  C7  UNL     1      91.637  94.987 -41.650  1.00  0.00     0.045 A 
HETATM    5  C8  UNL     1      91.766  93.741 -42.215  1.00  0.00     0.035 A 
HETATM    6  C9  UNL     1      91.574  93.639 -43.579  1.00  0.00     0.063 A 
HETATM    7  N2  UNL     1      91.634  92.588 -44.376  1.00  0.00    -0.314 N 
ATOM      8  H2  UNL     1      91.845  91.636 -44.077  1.00  0.00     0.170 HD
HETATM    9  C10 UNL     1      91.367  92.973 -45.678  1.00  0.00     0.259 A 
HETATM   10  N4  UNL     1      91.146  94.325 -45.590  1.00  0.00    -0.313 N 
ATOM     11  H4  UNL     1      90.919  94.927 -46.381  1.00  0.00     0.170 HD
HETATM   12  C20 UNL     1      91.267  94.744 -44.333  1.00  0.00     0.076 A 
ENDROOT
BRANCH   1  13
HETATM   13  C4  UNL     1      90.801  97.196 -44.497  1.00  0.00     0.047 C 
BRANCH  13  14
HETATM   14  C3  UNL     1      89.594  97.723 -44.581  1.00  0.00     0.044 A 
HETATM   15  N1  UNL     1      89.060  98.553 -43.690  1.00  0.00    -0.355 N 
HETATM   16  C2  UNL     1      87.790  98.881 -44.104  1.00  0.00     0.034 A 
ATOM     17  H1  UNL     1      89.515  98.889 -42.841  1.00  0.00     0.166 HD
HETATM   18  C1  UNL     1      87.042  99.687 -43.386  1.00  0.00     0.044 C 
HETATM   19  C23 UNL     1      87.533  98.235 -45.288  1.00  0.00     0.002 A 
HETATM   20  C21 UNL     1      88.688  97.494 -45.591  1.00  0.00    -0.006 A 
HETATM   21  C22 UNL     1      88.848  96.734 -46.642  1.00  0.00     0.026 C 
BRANCH  19  22
HETATM   22  C24 UNL     1      86.449  98.279 -46.024  1.00  0.00     0.027 C 
BRANCH  22  23
HETATM   23  C25 UNL     1      85.209  97.573 -45.956  1.00  0.00    -0.020 A 
HETATM   24  C26 UNL     1      84.494  97.650 -44.745  1.00  0.00     0.012 A 
HETATM   25  C27 UNL     1      83.278  97.023 -44.626  1.00  0.00     0.001 A 
HETATM   26  C28 UNL     1      82.738  96.319 -45.662  1.00  0.00     0.001 A 
HETATM   27  C29 UNL     1      83.437  96.251 -46.830  1.00  0.00     0.017 A 
HETATM   28  C30 UNL     1      84.681  96.869 -47.013  1.00  0.00     0.039 A 
BRANCH  28  29
HETATM   29  C31 UNL     1      85.364  96.779 -48.284  1.00  0.00     0.265 C 
HETATM   30  N5  UNL     1      86.233  95.746 -48.648  1.00  0.00    -0.057 NA
HETATM   31  O2  UNL     1      85.169  97.697 -49.130  1.00  0.00    -0.271 OA
ENDBRANCH  28  29
ENDBRANCH  22  23
ENDBRANCH  19  22
ENDBRANCH  13  14
ENDBRANCH   1  13
BRANCH   9  32
HETATM   32  N3  UNL     1      91.316  92.319 -46.663  1.00  0.00    -0.388 NA
BRANCH  32  33
HETATM   33  C11 UNL     1      91.433  91.365 -47.602  1.00  0.00     0.163 C 
BRANCH  33  34
HETATM   34  C12 UNL     1      90.568  91.534 -48.854  1.00  0.00     0.098 C 
BRANCH  34  35
HETATM   35  C13 UNL     1      89.936  90.224 -49.215  1.00  0.00    -0.052 A 
HETATM   36  C14 UNL     1      88.644  90.156 -49.703  1.00  0.00     0.009 A 
HETATM   37  C15 UNL     1      88.084  88.927 -50.037  1.00  0.00     0.021 A 
HETATM   38  C16 UNL     1      88.769  87.744 -49.901  1.00  0.00     0.031 A 
HETATM   39  C18 UNL     1      90.060  87.812 -49.412  1.00  0.00     0.021 A 
HETATM   40  C19 UNL     1      90.614  89.036 -49.082  1.00  0.00     0.009 A 
BRANCH  38  41
HETATM   41  S1  UNL     1      88.039  86.200 -50.332  1.00  0.00     0.045 S 
HETATM   42  C17 UNL     1      86.375  86.497 -50.924  1.00  0.00     0.133 C 
HETATM   43  O1  UNL     1      87.932  85.233 -48.945  1.00  0.00    -0.253 OA
ENDBRANCH  38  41
ENDBRANCH  34  35
ENDBRANCH  33  34
ENDBRANCH  32  33
ENDBRANCH   9  32
TORSDOF 10
ENDMDL
