MODEL 1
REMARK VINA RESULT: -6.661977172      0.000      0.000
REMARK  8 active torsions:
REMARK  status: ('A' for Active; 'I' for Inactive)
REMARK    1  A    between atoms: C2_2  and  C3_3 
REMARK    2  A    between atoms: C2_2  and  N6_37 
REMARK    3  A    between atoms: C3_3  and  C4_4 
REMARK       I    between atoms: C4_4  and  N1_6 
REMARK    4  A    between atoms: N1_6  and  C5_8 
REMARK    5  A    between atoms: C13_17  and  C14_18 
REMARK    6  A    between atoms: C14_18  and  C15_19 
REMARK    7  A    between atoms: C15_19  and  C16_20 
REMARK    8  A    between atoms: C16_20  and  N3_21 
REMARK       I    between atoms: N3_21  and  C17_23 
ROOT
HETATM    1  C3  UNL     1      89.136 100.191 -44.145  1.00  0.00     0.102 C 
HETATM    2  C11 UNL     1      88.981  98.759 -43.523  1.00  0.00     0.068 C 
HETATM    3  C12 UNL     1      90.223  98.583 -42.785  1.00  0.00    -0.022 A 
HETATM    4  C13 UNL     1      91.180  97.695 -42.348  1.00  0.00    -0.034 A 
HETATM    5  C18 UNL     1      92.123  98.398 -41.665  1.00  0.00     0.096 A 
HETATM    6  N5  UNL     1      91.748  99.690 -41.685  1.00  0.00    -0.364 N 
ATOM      7  H5  UNL     1      92.273 100.447 -41.246  1.00  0.00     0.165 HD
HETATM    8  C19 UNL     1      90.591  99.864 -42.357  1.00  0.00     0.046 A 
HETATM    9  C20 UNL     1      89.562 100.827 -42.838  1.00  0.00    -0.008 C 
HETATM   10  C21 UNL     1      89.250 101.898 -42.209  1.00  0.00    -0.070 C 
HETATM   11  C22 UNL     1      89.873 102.247 -40.886  1.00  0.00     0.035 C 
HETATM   12  C23 UNL     1      90.783 103.419 -40.988  1.00  0.00     0.004 C 
HETATM   13  C24 UNL     1      90.301 104.414 -41.987  1.00  0.00     0.001 C 
HETATM   14  C25 UNL     1      88.809 104.334 -42.088  1.00  0.00     0.004 C 
HETATM   15  C26 UNL     1      88.313 102.978 -42.617  1.00  0.00     0.035 C 
ENDROOT
BRANCH   1  16
HETATM   16  C2  UNL     1      90.202 100.029 -45.137  1.00  0.00     0.207 C 
HETATM   17  C1  UNL     1      89.873  98.949 -46.189  1.00  0.00     0.042 C 
BRANCH  16  18
HETATM   18  N6  UNL     1      90.853 101.054 -45.819  1.00  0.00    -0.073 N 
HETATM   19  C27 UNL     1      90.811 102.379 -45.285  1.00  0.00     0.272 C 
HETATM   20  C28 UNL     1      90.573 101.211 -47.239  1.00  0.00     0.272 C 
HETATM   21  C29 UNL     1      92.305 100.719 -45.807  1.00  0.00     0.272 C 
ENDBRANCH  16  18
ENDBRANCH   1  16
BRANCH   1  22
HETATM   22  C4  UNL     1      87.788 100.462 -44.569  1.00  0.00     0.235 C 
HETATM   23  O1  UNL     1      87.521 101.295 -45.484  1.00  0.00    -0.272 OA
HETATM   24  N1  UNL     1      86.637  99.845 -44.025  1.00  0.00    -0.332 N 
ATOM     25  H1  UNL     1      86.779  99.163 -43.281  1.00  0.00     0.164 HD
BRANCH  24  26
HETATM   26  C5  UNL     1      85.280 100.103 -44.439  1.00  0.00     0.290 C 
HETATM   27  C6  UNL     1      84.434 100.717 -43.345  1.00  0.00     0.057 C 
HETATM   28  C7  UNL     1      83.015 100.312 -43.598  1.00  0.00     0.032 C 
HETATM   29  C8  UNL     1      83.149  99.321 -44.725  1.00  0.00     0.239 C 
HETATM   30  N2  UNL     1      84.540  98.902 -44.748  1.00  0.00    -0.054 N 
HETATM   31  C9  UNL     1      84.803  98.383 -46.057  1.00  0.00     0.274 C 
HETATM   32  C10 UNL     1      84.725  97.892 -43.710  1.00  0.00     0.274 C 
ENDBRANCH  24  26
ENDBRANCH   1  22
BRANCH   4  33
HETATM   33  C14 UNL     1      91.167  96.227 -42.590  1.00  0.00     0.042 C 
BRANCH  33  34
HETATM   34  C15 UNL     1      91.521  95.577 -41.243  1.00  0.00     0.024 C 
BRANCH  34  35
HETATM   35  C16 UNL     1      91.667  94.100 -41.374  1.00  0.00     0.124 C 
BRANCH  35  36
HETATM   36  N3  UNL     1      91.212  93.682 -42.675  1.00  0.00    -0.345 N 
HETATM   37  C17 UNL     1      92.089  93.360 -43.725  1.00  0.00     0.328 C 
HETATM   38  N4  UNL     1      91.566  92.946 -45.003  1.00  0.00    -0.040 NA
HETATM   39  O2  UNL     1      93.339  93.401 -43.658  1.00  0.00    -0.251 OA
ATOM     40  H3  UNL     1      90.208  93.617 -42.842  1.00  0.00     0.163 HD
ENDBRANCH  35  36
ENDBRANCH  34  35
ENDBRANCH  33  34
ENDBRANCH   4  33
TORSDOF 8
ENDMDL
MODEL 2
REMARK VINA RESULT: -6.376013773      2.415      3.579
REMARK  8 active torsions:
REMARK  status: ('A' for Active; 'I' for Inactive)
REMARK    1  A    between atoms: C2_2  and  C3_3 
REMARK    2  A    between atoms: C2_2  and  N6_37 
REMARK    3  A    between atoms: C3_3  and  C4_4 
REMARK       I    between atoms: C4_4  and  N1_6 
REMARK    4  A    between atoms: N1_6  and  C5_8 
REMARK    5  A    between atoms: C13_17  and  C14_18 
REMARK    6  A    between atoms: C14_18  and  C15_19 
REMARK    7  A    between atoms: C15_19  and  C16_20 
REMARK    8  A    between atoms: C16_20  and  N3_21 
REMARK       I    between atoms: N3_21  and  C17_23 
ROOT
HETATM    1  C3  UNL     1      87.627  98.391 -46.169  1.00  0.00     0.102 C 
HETATM    2  C11 UNL     1      88.002  96.873 -46.043  1.00  0.00     0.068 C 
HETATM    3  C12 UNL     1      89.311  96.907 -45.406  1.00  0.00    -0.022 A 
HETATM    4  C13 UNL     1      90.541  96.303 -45.284  1.00  0.00    -0.034 A 
HETATM    5  C18 UNL     1      91.285  97.038 -44.415  1.00  0.00     0.096 A 
HETATM    6  N5  UNL     1      90.522  98.072 -44.014  1.00  0.00    -0.364 N 
ATOM      7  H5  UNL     1      90.828  98.789 -43.357  1.00  0.00     0.165 HD
HETATM    8  C19 UNL     1      89.302  98.043 -44.589  1.00  0.00     0.046 A 
HETATM    9  C20 UNL     1      87.975  98.705 -44.728  1.00  0.00    -0.008 C 
HETATM   10  C21 UNL     1      87.414  99.365 -43.785  1.00  0.00    -0.070 C 
HETATM   11  C22 UNL     1      88.039  99.484 -42.423  1.00  0.00     0.035 C 
HETATM   12  C23 UNL     1      88.516 100.865 -42.145  1.00  0.00     0.004 C 
HETATM   13  C24 UNL     1      87.636 101.894 -42.766  1.00  0.00     0.001 C 
HETATM   14  C25 UNL     1      86.245 101.355 -42.881  1.00  0.00     0.004 C 
HETATM   15  C26 UNL     1      86.145 100.139 -43.818  1.00  0.00     0.035 C 
ENDROOT
BRANCH   1  16
HETATM   16  C2  UNL     1      88.572  98.904 -47.164  1.00  0.00     0.207 C 
HETATM   17  C1  UNL     1      88.528  98.110 -48.487  1.00  0.00     0.042 C 
BRANCH  16  18
HETATM   18  N6  UNL     1      88.751 100.240 -47.516  1.00  0.00    -0.073 N 
HETATM   19  C27 UNL     1      88.536 101.252 -46.530  1.00  0.00     0.272 C 
HETATM   20  C28 UNL     1      88.072 100.726 -48.709  1.00  0.00     0.272 C 
HETATM   21  C29 UNL     1      90.190 100.398 -47.871  1.00  0.00     0.272 C 
ENDBRANCH  16  18
ENDBRANCH   1  16
BRANCH   1  22
HETATM   22  C4  UNL     1      86.225  98.311 -46.476  1.00  0.00     0.235 C 
HETATM   23  O1  UNL     1      85.534  99.334 -46.759  1.00  0.00    -0.272 OA
HETATM   24  N1  UNL     1      85.475  97.112 -46.495  1.00  0.00    -0.332 N 
ATOM     25  H1  UNL     1      85.968  96.247 -46.274  1.00  0.00     0.164 HD
BRANCH  24  26
HETATM   26  C5  UNL     1      84.069  97.012 -46.803  1.00  0.00     0.290 C 
HETATM   27  C6  UNL     1      83.311  96.131 -45.835  1.00  0.00     0.057 C 
HETATM   28  C7  UNL     1      82.143  95.556 -46.573  1.00  0.00     0.032 C 
HETATM   29  C8  UNL     1      82.403  95.991 -47.993  1.00  0.00     0.239 C 
HETATM   30  N2  UNL     1      83.806  96.361 -48.065  1.00  0.00    -0.054 N 
HETATM   31  C9  UNL     1      83.958  97.222 -49.201  1.00  0.00     0.274 C 
HETATM   32  C10 UNL     1      84.591  95.137 -48.195  1.00  0.00     0.274 C 
ENDBRANCH  24  26
ENDBRANCH   1  22
BRANCH   4  33
HETATM   33  C14 UNL     1      90.965  95.062 -45.988  1.00  0.00     0.042 C 
BRANCH  33  34
HETATM   34  C15 UNL     1      92.131  94.491 -45.166  1.00  0.00     0.024 C 
BRANCH  34  35
HETATM   35  C16 UNL     1      91.706  93.308 -44.366  1.00  0.00     0.124 C 
BRANCH  35  36
HETATM   36  N3  UNL     1      91.079  93.749 -43.147  1.00  0.00    -0.345 N 
HETATM   37  C17 UNL     1      91.794  93.979 -41.959  1.00  0.00     0.328 C 
HETATM   38  N4  UNL     1      91.105  94.423 -40.773  1.00  0.00    -0.040 NA
HETATM   39  O2  UNL     1      93.030  93.830 -41.822  1.00  0.00    -0.251 OA
ATOM     40  H3  UNL     1      90.070  93.900 -43.145  1.00  0.00     0.163 HD
ENDBRANCH  35  36
ENDBRANCH  34  35
ENDBRANCH  33  34
ENDBRANCH   4  33
TORSDOF 8
ENDMDL
MODEL 3
REMARK VINA RESULT: -6.360503929      3.117      5.708
REMARK  8 active torsions:
REMARK  status: ('A' for Active; 'I' for Inactive)
REMARK    1  A    between atoms: C2_2  and  C3_3 
REMARK    2  A    between atoms: C2_2  and  N6_37 
REMARK    3  A    between atoms: C3_3  and  C4_4 
REMARK       I    between atoms: C4_4  and  N1_6 
REMARK    4  A    between atoms: N1_6  and  C5_8 
REMARK    5  A    between atoms: C13_17  and  C14_18 
REMARK    6  A    between atoms: C14_18  and  C15_19 
REMARK    7  A    between atoms: C15_19  and  C16_20 
REMARK    8  A    between atoms: C16_20  and  N3_21 
REMARK       I    between atoms: N3_21  and  C17_23 
ROOT
HETATM    1  C3  UNL     1      87.934  98.328 -45.853  1.00  0.00     0.102 C 
HETATM    2  C11 UNL     1      89.113  98.138 -44.835  1.00  0.00     0.068 C 
HETATM    3  C12 UNL     1      88.763  99.044 -43.751  1.00  0.00    -0.022 A 
HETATM    4  C13 UNL     1      89.229  99.882 -42.763  1.00  0.00    -0.034 A 
HETATM    5  C18 UNL     1      88.153 100.424 -42.131  1.00  0.00     0.096 A 
HETATM    6  N5  UNL     1      87.052  99.925 -42.723  1.00  0.00    -0.364 N 
ATOM      7  H5  UNL     1      86.098 100.161 -42.450  1.00  0.00     0.165 HD
HETATM    8  C19 UNL     1      87.364  99.073 -43.722  1.00  0.00     0.046 A 
HETATM    9  C20 UNL     1      86.858  98.175 -44.797  1.00  0.00    -0.008 C 
HETATM   10  C21 UNL     1      85.756  97.530 -44.716  1.00  0.00    -0.070 C 
HETATM   11  C22 UNL     1      84.894  97.588 -43.485  1.00  0.00     0.035 C 
HETATM   12  C23 UNL     1      83.624  98.323 -43.726  1.00  0.00     0.004 C 
HETATM   13  C24 UNL     1      83.112  98.113 -45.109  1.00  0.00     0.001 C 
HETATM   14  C25 UNL     1      83.570  96.779 -45.612  1.00  0.00     0.004 C 
HETATM   15  C26 UNL     1      85.099  96.677 -45.741  1.00  0.00     0.035 C 
ENDROOT
BRANCH   1  16
HETATM   16  C2  UNL     1      88.124  99.690 -46.358  1.00  0.00     0.207 C 
HETATM   17  C1  UNL     1      89.513  99.897 -46.998  1.00  0.00     0.042 C 
BRANCH  16  18
HETATM   18  N6  UNL     1      87.223 100.411 -47.139  1.00  0.00    -0.073 N 
HETATM   19  C27 UNL     1      85.838 100.057 -47.105  1.00  0.00     0.272 C 
HETATM   20  C28 UNL     1      87.533 100.585 -48.550  1.00  0.00     0.272 C 
HETATM   21  C29 UNL     1      87.238 101.810 -46.625  1.00  0.00     0.272 C 
ENDBRANCH  16  18
ENDBRANCH   1  16
BRANCH   1  22
HETATM   22  C4  UNL     1      88.128  97.200 -46.723  1.00  0.00     0.235 C 
HETATM   23  O1  UNL     1      88.898  96.239 -46.425  1.00  0.00    -0.272 OA
HETATM   24  N1  UNL     1      87.499  97.038 -47.979  1.00  0.00    -0.332 N 
ATOM     25  H1  UNL     1      86.866  97.777 -48.284  1.00  0.00     0.164 HD
BRANCH  24  26
HETATM   26  C5  UNL     1      87.680  95.913 -48.864  1.00  0.00     0.290 C 
HETATM   27  C6  UNL     1      88.740  96.151 -49.916  1.00  0.00     0.057 C 
HETATM   28  C7  UNL     1      88.382  95.318 -51.107  1.00  0.00     0.032 C 
HETATM   29  C8  UNL     1      87.020  94.787 -50.743  1.00  0.00     0.239 C 
HETATM   30  N2  UNL     1      86.517  95.631 -49.672  1.00  0.00    -0.054 N 
HETATM   31  C9  UNL     1      85.505  94.884 -48.986  1.00  0.00     0.274 C 
HETATM   32  C10 UNL     1      85.987  96.853 -50.270  1.00  0.00     0.274 C 
ENDBRANCH  24  26
ENDBRANCH   1  22
BRANCH   4  33
HETATM   33  C14 UNL     1      90.662 100.137 -42.456  1.00  0.00     0.042 C 
BRANCH  33  34
HETATM   34  C15 UNL     1      91.409  98.850 -42.838  1.00  0.00     0.024 C 
BRANCH  34  35
HETATM   35  C16 UNL     1      91.884  98.117 -41.631  1.00  0.00     0.124 C 
BRANCH  35  36
HETATM   36  N3  UNL     1      91.117  96.910 -41.464  1.00  0.00    -0.345 N 
HETATM   37  C17 UNL     1      91.701  95.668 -41.164  1.00  0.00     0.328 C 
HETATM   38  N4  UNL     1      90.874  94.497 -41.007  1.00  0.00    -0.040 NA
HETATM   39  O2  UNL     1      92.928  95.466 -41.012  1.00  0.00    -0.251 OA
ATOM     40  H3  UNL     1      90.103  96.959 -41.569  1.00  0.00     0.163 HD
ENDBRANCH  35  36
ENDBRANCH  34  35
ENDBRANCH  33  34
ENDBRANCH   4  33
TORSDOF 8
ENDMDL
MODEL 4
REMARK VINA RESULT: -6.255620617      1.594      2.172
REMARK  8 active torsions:
REMARK  status: ('A' for Active; 'I' for Inactive)
REMARK    1  A    between atoms: C2_2  and  C3_3 
REMARK    2  A    between atoms: C2_2  and  N6_37 
REMARK    3  A    between atoms: C3_3  and  C4_4 
REMARK       I    between atoms: C4_4  and  N1_6 
REMARK    4  A    between atoms: N1_6  and  C5_8 
REMARK    5  A    between atoms: C13_17  and  C14_18 
REMARK    6  A    between atoms: C14_18  and  C15_19 
REMARK    7  A    between atoms: C15_19  and  C16_20 
REMARK    8  A    between atoms: C16_20  and  N3_21 
REMARK       I    between atoms: N3_21  and  C17_23 
ROOT
HETATM    1  C3  UNL     1      88.182  99.594 -45.719  1.00  0.00     0.102 C 
HETATM    2  C11 UNL     1      88.102  98.035 -45.568  1.00  0.00     0.068 C 
HETATM    3  C12 UNL     1      89.425  97.682 -45.074  1.00  0.00    -0.022 A 
HETATM    4  C13 UNL     1      90.426  96.738 -45.055  1.00  0.00    -0.034 A 
HETATM    5  C18 UNL     1      91.448  97.226 -44.300  1.00  0.00     0.096 A 
HETATM    6  N5  UNL     1      91.075  98.445 -43.867  1.00  0.00    -0.364 N 
ATOM      7  H5  UNL     1      91.652  99.044 -43.277  1.00  0.00     0.165 HD
HETATM    8  C19 UNL     1      89.844  98.777 -44.309  1.00  0.00     0.046 A 
HETATM    9  C20 UNL     1      88.766  99.804 -44.337  1.00  0.00    -0.008 C 
HETATM   10  C21 UNL     1      88.536 100.611 -43.371  1.00  0.00    -0.070 C 
HETATM   11  C22 UNL     1      89.317 100.550 -42.087  1.00  0.00     0.035 C 
HETATM   12  C23 UNL     1      90.210 101.729 -41.920  1.00  0.00     0.004 C 
HETATM   13  C24 UNL     1      89.611 102.967 -42.490  1.00  0.00     0.001 C 
HETATM   14  C25 UNL     1      88.118 102.869 -42.436  1.00  0.00     0.004 C 
HETATM   15  C26 UNL     1      87.558 101.729 -43.304  1.00  0.00     0.035 C 
ENDROOT
BRANCH   1  16
HETATM   16  C2  UNL     1      89.118  99.791 -46.829  1.00  0.00     0.207 C 
HETATM   17  C1  UNL     1      88.636  99.126 -48.136  1.00  0.00     0.042 C 
BRANCH  16  18
HETATM   18  N6  UNL     1      89.712 100.995 -47.200  1.00  0.00    -0.073 N 
HETATM   19  C27 UNL     1      89.564 102.133 -46.348  1.00  0.00     0.272 C 
HETATM   20  C28 UNL     1      89.457 101.494 -48.543  1.00  0.00     0.272 C 
HETATM   21  C29 UNL     1      91.184 100.758 -47.213  1.00  0.00     0.272 C 
ENDBRANCH  16  18
ENDBRANCH   1  16
BRANCH   1  22
HETATM   22  C4  UNL     1      86.793  99.934 -45.875  1.00  0.00     0.235 C 
HETATM   23  O1  UNL     1      86.410 100.903 -46.595  1.00  0.00    -0.272 OA
HETATM   24  N1  UNL     1      85.724  99.245 -45.257  1.00  0.00    -0.332 N 
ATOM     25  H1  UNL     1      85.961  98.453 -44.659  1.00  0.00     0.164 HD
BRANCH  24  26
HETATM   26  C5  UNL     1      84.326  99.571 -45.403  1.00  0.00     0.290 C 
HETATM   27  C6  UNL     1      83.804 100.454 -44.291  1.00  0.00     0.057 C 
HETATM   28  C7  UNL     1      82.343 100.166 -44.140  1.00  0.00     0.032 C 
HETATM   29  C8  UNL     1      82.143  98.984 -45.054  1.00  0.00     0.239 C 
HETATM   30  N2  UNL     1      83.459  98.420 -45.300  1.00  0.00    -0.054 N 
HETATM   31  C9  UNL     1      83.371  97.655 -46.508  1.00  0.00     0.274 C 
HETATM   32  C10 UNL     1      83.821  97.594 -44.152  1.00  0.00     0.274 C 
ENDBRANCH  24  26
ENDBRANCH   1  22
BRANCH   4  33
HETATM   33  C14 UNL     1      90.381  95.421 -45.745  1.00  0.00     0.042 C 
BRANCH  33  34
HETATM   34  C15 UNL     1      91.732  94.748 -45.452  1.00  0.00     0.024 C 
BRANCH  34  35
HETATM   35  C16 UNL     1      91.552  93.462 -44.722  1.00  0.00     0.124 C 
BRANCH  35  36
HETATM   36  N3  UNL     1      91.110  93.726 -43.377  1.00  0.00    -0.345 N 
HETATM   37  C17 UNL     1      91.973  93.688 -42.268  1.00  0.00     0.328 C 
HETATM   38  N4  UNL     1      91.465  93.966 -40.947  1.00  0.00    -0.040 NA
HETATM   39  O2  UNL     1      93.196  93.424 -42.315  1.00  0.00    -0.251 OA
ATOM     40  H3  UNL     1      90.127  93.951 -43.222  1.00  0.00     0.163 HD
ENDBRANCH  35  36
ENDBRANCH  34  35
ENDBRANCH  33  34
ENDBRANCH   4  33
TORSDOF 8
ENDMDL
MODEL 5
REMARK VINA RESULT: -6.180850533      2.561      3.648
REMARK  8 active torsions:
REMARK  status: ('A' for Active; 'I' for Inactive)
REMARK    1  A    between atoms: C2_2  and  C3_3 
REMARK    2  A    between atoms: C2_2  and  N6_37 
REMARK    3  A    between atoms: C3_3  and  C4_4 
REMARK       I    between atoms: C4_4  and  N1_6 
REMARK    4  A    between atoms: N1_6  and  C5_8 
REMARK    5  A    between atoms: C13_17  and  C14_18 
REMARK    6  A    between atoms: C14_18  and  C15_19 
REMARK    7  A    between atoms: C15_19  and  C16_20 
REMARK    8  A    between atoms: C16_20  and  N3_21 
REMARK       I    between atoms: N3_21  and  C17_23 
ROOT
HETATM    1  C3  UNL     1      87.848  98.405 -46.190  1.00  0.00     0.102 C 
HETATM    2  C11 UNL     1      88.152  96.874 -46.030  1.00  0.00     0.068 C 
HETATM    3  C12 UNL     1      89.431  96.862 -45.336  1.00  0.00    -0.022 A 
HETATM    4  C13 UNL     1      90.628  96.209 -45.152  1.00  0.00    -0.034 A 
HETATM    5  C18 UNL     1      91.364  96.924 -44.259  1.00  0.00     0.096 A 
HETATM    6  N5  UNL     1      90.628  97.994 -43.905  1.00  0.00    -0.364 N 
ATOM      7  H5  UNL     1      90.935  98.706 -43.242  1.00  0.00     0.165 HD
HETATM    8  C19 UNL     1      89.434  98.009 -44.533  1.00  0.00     0.046 A 
HETATM    9  C20 UNL     1      88.144  98.723 -44.738  1.00  0.00    -0.008 C 
HETATM   10  C21 UNL     1      87.570  99.419 -43.830  1.00  0.00    -0.070 C 
HETATM   11  C22 UNL     1      88.139  99.529 -42.442  1.00  0.00     0.035 C 
HETATM   12  C23 UNL     1      88.661 100.893 -42.159  1.00  0.00     0.004 C 
HETATM   13  C24 UNL     1      87.854 101.950 -42.831  1.00  0.00     0.001 C 
HETATM   14  C25 UNL     1      86.447 101.468 -43.002  1.00  0.00     0.004 C 
HETATM   15  C26 UNL     1      86.338 100.245 -43.928  1.00  0.00     0.035 C 
ENDROOT
BRANCH   1  16
HETATM   16  C2  UNL     1      88.856  98.864 -47.148  1.00  0.00     0.207 C 
HETATM   17  C1  UNL     1      88.568  98.387 -48.587  1.00  0.00     0.042 C 
BRANCH  16  18
HETATM   18  N6  UNL     1      89.355 100.160 -47.259  1.00  0.00    -0.073 N 
HETATM   19  C27 UNL     1      90.628 100.465 -46.685  1.00  0.00     0.272 C 
HETATM   20  C28 UNL     1      88.489 101.260 -46.858  1.00  0.00     0.272 C 
HETATM   21  C29 UNL     1      89.557 100.416 -48.713  1.00  0.00     0.272 C 
ENDBRANCH  16  18
ENDBRANCH   1  16
BRANCH   1  22
HETATM   22  C4  UNL     1      86.457  98.379 -46.559  1.00  0.00     0.235 C 
HETATM   23  O1  UNL     1      85.855  99.402 -47.000  1.00  0.00    -0.272 OA
HETATM   24  N1  UNL     1      85.625  97.239 -46.472  1.00  0.00    -0.332 N 
ATOM     25  H1  UNL     1      86.045  96.379 -46.121  1.00  0.00     0.164 HD
BRANCH  24  26
HETATM   26  C5  UNL     1      84.231  97.195 -46.839  1.00  0.00     0.290 C 
HETATM   27  C6  UNL     1      83.371  96.487 -45.815  1.00  0.00     0.057 C 
HETATM   28  C7  UNL     1      82.199  95.905 -46.542  1.00  0.00     0.032 C 
HETATM   29  C8  UNL     1      82.551  96.148 -47.987  1.00  0.00     0.239 C 
HETATM   30  N2  UNL     1      83.979  96.415 -48.028  1.00  0.00    -0.054 N 
HETATM   31  C9  UNL     1      84.241  97.121 -49.247  1.00  0.00     0.274 C 
HETATM   32  C10 UNL     1      84.680  95.136 -47.973  1.00  0.00     0.274 C 
ENDBRANCH  24  26
ENDBRANCH   1  22
BRANCH   4  33
HETATM   33  C14 UNL     1      91.029  94.942 -45.821  1.00  0.00     0.042 C 
BRANCH  33  34
HETATM   34  C15 UNL     1      91.659  94.069 -44.724  1.00  0.00     0.024 C 
BRANCH  34  35
HETATM   35  C16 UNL     1      91.894  92.678 -45.204  1.00  0.00     0.124 C 
BRANCH  35  36
HETATM   36  N3  UNL     1      91.294  92.506 -46.502  1.00  0.00    -0.345 N 
HETATM   37  C17 UNL     1      91.772  91.585 -47.450  1.00  0.00     0.328 C 
HETATM   38  N4  UNL     1      91.122  91.461 -48.731  1.00  0.00    -0.040 NA
HETATM   39  O2  UNL     1      92.754  90.825 -47.285  1.00  0.00    -0.251 OA
ATOM     40  H3  UNL     1      90.485  93.079 -46.745  1.00  0.00     0.163 HD
ENDBRANCH  35  36
ENDBRANCH  34  35
ENDBRANCH  33  34
ENDBRANCH   4  33
TORSDOF 8
ENDMDL
