MODEL 1
REMARK VINA RESULT: -5.967854347      0.000      0.000
REMARK  3 active torsions:
REMARK  status: ('A' for Active; 'I' for Inactive)
REMARK    1  A    between atoms: S1_2  and  O3_4 
REMARK    2  A    between atoms: O3_4  and  N1_5 
REMARK    3  A    between atoms: N1_5  and  C1_6 
ROOT
HETATM    1  C1  UNL     1      17.011 -22.996  13.687  1.00  0.00     0.108 C 
HETATM    2  C2  UNL     1      17.701 -21.724  13.369  1.00  0.00     0.024 C 
HETATM    3  C3  UNL     1      18.026 -21.512  11.931  1.00  0.00     0.002 C 
HETATM    4  C4  UNL     1      16.753 -21.097  11.217  1.00  0.00     0.000 C 
HETATM    5  C5  UNL     1      15.743 -22.237  11.277  1.00  0.00     0.000 C 
HETATM    6  C6  UNL     1      16.406 -23.563  11.303  1.00  0.00     0.002 C 
HETATM    7  C7  UNL     1      16.979 -23.996  12.581  1.00  0.00     0.024 C 
ENDROOT
BRANCH   1   8
HETATM    8  N1  UNL     1      17.787 -23.633  14.767  1.00  0.00    -0.076 NA
BRANCH   8   9
HETATM    9  O3  UNL     1      18.744 -24.434  14.259  1.00  0.00    -0.146 OA
BRANCH   9  10
HETATM   10  S1  UNL     1      19.026 -25.670  15.350  1.00  0.00     0.419 S 
HETATM   11  O1  UNL     1      20.081 -25.205  16.303  1.00  0.00    -0.178 OA
HETATM   12  O2  UNL     1      17.774 -25.959  16.157  1.00  0.00    -0.178 OA
ENDBRANCH   9  10
ENDBRANCH   8   9
ENDBRANCH   1   8
TORSDOF 3
ENDMDL
MODEL 2
REMARK VINA RESULT: -5.711533228      3.332      4.541
REMARK  3 active torsions:
REMARK  status: ('A' for Active; 'I' for Inactive)
REMARK    1  A    between atoms: S1_2  and  O3_4 
REMARK    2  A    between atoms: O3_4  and  N1_5 
REMARK    3  A    between atoms: N1_5  and  C1_6 
ROOT
HETATM    1  C1  UNL     1      17.555 -24.378  13.565  1.00  0.00     0.108 C 
HETATM    2  C2  UNL     1      16.370 -24.544  12.691  1.00  0.00     0.024 C 
HETATM    3  C3  UNL     1      16.596 -25.334  11.448  1.00  0.00     0.002 C 
HETATM    4  C4  UNL     1      16.631 -26.803  11.825  1.00  0.00     0.000 C 
HETATM    5  C5  UNL     1      17.823 -27.067  12.736  1.00  0.00     0.000 C 
HETATM    6  C6  UNL     1      18.955 -26.154  12.445  1.00  0.00     0.002 C 
HETATM    7  C7  UNL     1      18.855 -24.785  12.959  1.00  0.00     0.024 C 
ENDROOT
BRANCH   1   8
HETATM    8  N1  UNL     1      17.682 -22.931  13.824  1.00  0.00    -0.076 NA
BRANCH   8   9
HETATM    9  O3  UNL     1      18.456 -22.344  12.890  1.00  0.00    -0.146 OA
BRANCH   9  10
HETATM   10  S1  UNL     1      17.665 -20.976  12.342  1.00  0.00     0.419 S 
HETATM   11  O1  UNL     1      18.700 -20.031  11.817  1.00  0.00    -0.178 OA
HETATM   12  O2  UNL     1      16.738 -21.324  11.193  1.00  0.00    -0.178 OA
ENDBRANCH   9  10
ENDBRANCH   8   9
ENDBRANCH   1   8
TORSDOF 3
ENDMDL
MODEL 3
REMARK VINA RESULT: -5.704085614      3.654      4.665
REMARK  3 active torsions:
REMARK  status: ('A' for Active; 'I' for Inactive)
REMARK    1  A    between atoms: S1_2  and  O3_4 
REMARK    2  A    between atoms: O3_4  and  N1_5 
REMARK    3  A    between atoms: N1_5  and  C1_6 
ROOT
HETATM    1  C1  UNL     1      17.278 -24.121  12.079  1.00  0.00     0.108 C 
HETATM    2  C2  UNL     1      17.983 -24.402  13.351  1.00  0.00     0.024 C 
HETATM    3  C3  UNL     1      17.708 -25.735  13.955  1.00  0.00     0.002 C 
HETATM    4  C4  UNL     1      18.503 -26.774  13.186  1.00  0.00     0.000 C 
HETATM    5  C5  UNL     1      18.006 -26.832  11.747  1.00  0.00     0.000 C 
HETATM    6  C6  UNL     1      16.563 -26.502  11.646  1.00  0.00     0.002 C 
HETATM    7  C7  UNL     1      16.197 -25.085  11.723  1.00  0.00     0.024 C 
ENDROOT
BRANCH   1   8
HETATM    8  N1  UNL     1      16.599 -22.823  12.256  1.00  0.00    -0.076 NA
BRANCH   8   9
HETATM    9  O3  UNL     1      17.055 -21.920  11.366  1.00  0.00    -0.146 OA
BRANCH   9  10
HETATM   10  S1  UNL     1      17.519 -20.549  12.205  1.00  0.00     0.419 S 
HETATM   11  O1  UNL     1      17.638 -20.917  13.650  1.00  0.00    -0.178 OA
HETATM   12  O2  UNL     1      18.883 -20.078  11.737  1.00  0.00    -0.178 OA
ENDBRANCH   9  10
ENDBRANCH   8   9
ENDBRANCH   1   8
TORSDOF 3
ENDMDL
MODEL 4
REMARK VINA RESULT: -5.640334990      3.326      4.498
REMARK  3 active torsions:
REMARK  status: ('A' for Active; 'I' for Inactive)
REMARK    1  A    between atoms: S1_2  and  O3_4 
REMARK    2  A    between atoms: O3_4  and  N1_5 
REMARK    3  A    between atoms: N1_5  and  C1_6 
ROOT
HETATM    1  C1  UNL     1      17.992 -23.835  12.181  1.00  0.00     0.108 C 
HETATM    2  C2  UNL     1      18.602 -24.954  12.937  1.00  0.00     0.024 C 
HETATM    3  C3  UNL     1      17.653 -25.996  13.418  1.00  0.00     0.002 C 
HETATM    4  C4  UNL     1      17.289 -26.880  12.239  1.00  0.00     0.000 C 
HETATM    5  C5  UNL     1      16.546 -26.055  11.196  1.00  0.00     0.000 C 
HETATM    6  C6  UNL     1      15.762 -24.958  11.814  1.00  0.00     0.002 C 
HETATM    7  C7  UNL     1      16.503 -23.766  12.237  1.00  0.00     0.024 C 
ENDROOT
BRANCH   1   8
HETATM    8  N1  UNL     1      18.463 -22.592  12.821  1.00  0.00    -0.076 NA
BRANCH   8   9
HETATM    9  O3  UNL     1      17.436 -21.922  13.378  1.00  0.00    -0.146 OA
BRANCH   9  10
HETATM   10  S1  UNL     1      17.393 -20.387  12.714  1.00  0.00     0.419 S 
HETATM   11  O1  UNL     1      18.687 -20.164  11.998  1.00  0.00    -0.178 OA
HETATM   12  O2  UNL     1      16.278 -20.283  11.691  1.00  0.00    -0.178 OA
ENDBRANCH   9  10
ENDBRANCH   8   9
ENDBRANCH   1   8
TORSDOF 3
ENDMDL
MODEL 5
REMARK VINA RESULT: -5.640045728      1.438      2.066
REMARK  3 active torsions:
REMARK  status: ('A' for Active; 'I' for Inactive)
REMARK    1  A    between atoms: S1_2  and  O3_4 
REMARK    2  A    between atoms: O3_4  and  N1_5 
REMARK    3  A    between atoms: N1_5  and  C1_6 
ROOT
HETATM    1  C1  UNL     1      17.333 -24.454  14.174  1.00  0.00     0.108 C 
HETATM    2  C2  UNL     1      17.377 -23.078  13.626  1.00  0.00     0.024 C 
HETATM    3  C3  UNL     1      17.580 -22.980  12.154  1.00  0.00     0.002 C 
HETATM    4  C4  UNL     1      16.261 -23.299  11.475  1.00  0.00     0.000 C 
HETATM    5  C5  UNL     1      15.873 -24.742  11.771  1.00  0.00     0.000 C 
HETATM    6  C6  UNL     1      17.062 -25.610  11.948  1.00  0.00     0.002 C 
HETATM    7  C7  UNL     1      17.762 -25.528  13.233  1.00  0.00     0.024 C 
ENDROOT
BRANCH   1   8
HETATM    8  N1  UNL     1      18.307 -24.494  15.281  1.00  0.00    -0.076 NA
BRANCH   8   9
HETATM    9  O3  UNL     1      19.400 -25.200  14.930  1.00  0.00    -0.146 OA
BRANCH   9  10
HETATM   10  S1  UNL     1      20.190 -25.667  16.329  1.00  0.00     0.419 S 
HETATM   11  O1  UNL     1      20.370 -27.151  16.277  1.00  0.00    -0.178 OA
HETATM   12  O2  UNL     1      21.570 -25.039  16.392  1.00  0.00    -0.178 OA
ENDBRANCH   9  10
ENDBRANCH   8   9
ENDBRANCH   1   8
TORSDOF 3
ENDMDL
