MODEL 1
REMARK VINA RESULT: -4.506755263      0.000      0.000
REMARK  1 active torsions:
REMARK  status: ('A' for Active; 'I' for Inactive)
REMARK    1  A    between atoms: N1_1  and  C1_5 
ROOT
HETATM    1  C1  UNL     1     -17.518  11.751   1.133  1.00  0.00     0.191 C 
HETATM    2  C2  UNL     1     -17.883  10.780   2.214  1.00  0.00     0.017 C 
HETATM    3  C3  UNL     1     -19.314  10.854   2.645  1.00  0.00     0.011 C 
HETATM    4  C4  UNL     1     -19.613  12.233   3.162  1.00  0.00    -0.013 C 
HETATM    5  C5  UNL     1     -18.690  12.647   4.289  1.00  0.00     0.009 C 
HETATM    6  C6  UNL     1     -17.251  12.547   3.819  1.00  0.00    -0.013 C 
HETATM    7  C7  UNL     1     -17.003  11.122   3.425  1.00  0.00     0.011 C 
HETATM    8  C8  UNL     1     -17.067  13.529   2.707  1.00  0.00     0.011 C 
HETATM    9  C9  UNL     1     -17.967  13.136   1.525  1.00  0.00     0.017 C 
HETATM   10  C10 UNL     1     -19.384  13.198   1.994  1.00  0.00     0.011 C 
ENDROOT
BRANCH   1  11
HETATM   11  N1  UNL     1     -17.931  11.360  -0.179  1.00  0.00    -0.074 N 
ATOM     12  H13 UNL     1     -18.459  10.487  -0.140  1.00  0.00     0.274 HD
ATOM     13  H12 UNL     1     -18.657  11.988  -0.525  1.00  0.00     0.274 HD
ATOM     14  H11 UNL     1     -17.173  11.285  -0.856  1.00  0.00     0.274 HD
ENDBRANCH   1  11
TORSDOF 1
ENDMDL
MODEL 2
REMARK VINA RESULT: -4.387550587      0.518      2.614
REMARK  1 active torsions:
REMARK  status: ('A' for Active; 'I' for Inactive)
REMARK    1  A    between atoms: N1_1  and  C1_5 
ROOT
HETATM    1  C1  UNL     1     -17.757  11.422   1.267  1.00  0.00     0.191 C 
HETATM    2  C2  UNL     1     -17.919  12.890   1.522  1.00  0.00     0.017 C 
HETATM    3  C3  UNL     1     -17.023  13.427   2.593  1.00  0.00     0.011 C 
HETATM    4  C4  UNL     1     -17.303  12.715   3.886  1.00  0.00    -0.013 C 
HETATM    5  C5  UNL     1     -18.756  12.810   4.303  1.00  0.00     0.009 C 
HETATM    6  C6  UNL     1     -19.632  12.268   3.189  1.00  0.00    -0.013 C 
HETATM    7  C7  UNL     1     -19.374  13.099   1.967  1.00  0.00     0.011 C 
HETATM    8  C8  UNL     1     -19.308  10.818   3.020  1.00  0.00     0.011 C 
HETATM    9  C9  UNL     1     -17.846  10.671   2.572  1.00  0.00     0.017 C 
HETATM   10  C10 UNL     1     -16.982  11.236   3.650  1.00  0.00     0.011 C 
ENDROOT
BRANCH   1  11
HETATM   11  N1  UNL     1     -16.614  11.080   0.480  1.00  0.00    -0.074 N 
ATOM     12  H13 UNL     1     -16.549  10.068   0.368  1.00  0.00     0.274 HD
ATOM     13  H12 UNL     1     -16.756  11.355  -0.492  1.00  0.00     0.274 HD
ATOM     14  H11 UNL     1     -15.733  11.456   0.830  1.00  0.00     0.274 HD
ENDBRANCH   1  11
TORSDOF 1
ENDMDL
MODEL 3
REMARK VINA RESULT: -4.371226456      1.358      2.528
REMARK  1 active torsions:
REMARK  status: ('A' for Active; 'I' for Inactive)
REMARK    1  A    between atoms: N1_1  and  C1_5 
ROOT
HETATM    1  C1  UNL     1     -17.377  10.982   2.483  1.00  0.00     0.191 C 
HETATM    2  C2  UNL     1     -17.503  12.285   3.211  1.00  0.00     0.017 C 
HETATM    3  C3  UNL     1     -18.819  12.474   3.899  1.00  0.00     0.011 C 
HETATM    4  C4  UNL     1     -19.928  12.417   2.886  1.00  0.00    -0.013 C 
HETATM    5  C5  UNL     1     -19.754  13.427   1.771  1.00  0.00     0.009 C 
HETATM    6  C6  UNL     1     -18.406  13.211   1.107  1.00  0.00    -0.013 C 
HETATM    7  C7  UNL     1     -17.352  13.392   2.158  1.00  0.00     0.011 C 
HETATM    8  C8  UNL     1     -18.420  11.852   0.483  1.00  0.00     0.011 C 
HETATM    9  C9  UNL     1     -18.570  10.788   1.581  1.00  0.00     0.017 C 
HETATM   10  C10 UNL     1     -19.879  11.020   2.262  1.00  0.00     0.011 C 
ENDROOT
BRANCH   1  11
HETATM   11  N1  UNL     1     -17.098   9.858   3.322  1.00  0.00    -0.074 N 
ATOM     12  H13 UNL     1     -16.150   9.518   3.158  1.00  0.00     0.274 HD
ATOM     13  H12 UNL     1     -17.011  10.154   4.294  1.00  0.00     0.274 HD
ATOM     14  H11 UNL     1     -17.768   9.094   3.241  1.00  0.00     0.274 HD
ENDBRANCH   1  11
TORSDOF 1
ENDMDL
MODEL 4
REMARK VINA RESULT: -4.306726189      1.471      2.869
REMARK  1 active torsions:
REMARK  status: ('A' for Active; 'I' for Inactive)
REMARK    1  A    between atoms: N1_1  and  C1_5 
ROOT
HETATM    1  C1  UNL     1     -18.161  10.780   2.843  1.00  0.00     0.191 C 
HETATM    2  C2  UNL     1     -18.076  11.054   1.373  1.00  0.00     0.017 C 
HETATM    3  C3  UNL     1     -17.053  12.081   1.001  1.00  0.00     0.011 C 
HETATM    4  C4  UNL     1     -17.376  13.381   1.681  1.00  0.00    -0.013 C 
HETATM    5  C5  UNL     1     -18.772  13.875   1.365  1.00  0.00     0.009 C 
HETATM    6  C6  UNL     1     -19.779  12.804   1.744  1.00  0.00    -0.013 C 
HETATM    7  C7  UNL     1     -19.455  11.577   0.944  1.00  0.00     0.011 C 
HETATM    8  C8  UNL     1     -19.697  12.607   3.224  1.00  0.00     0.011 C 
HETATM    9  C9  UNL     1     -18.301  12.081   3.592  1.00  0.00     0.017 C 
HETATM   10  C10 UNL     1     -17.305  13.117   3.188  1.00  0.00     0.011 C 
ENDROOT
BRANCH   1  11
HETATM   11  N1  UNL     1     -17.128   9.930   3.348  1.00  0.00    -0.074 N 
ATOM     12  H13 UNL     1     -16.485  10.463   3.935  1.00  0.00     0.274 HD
ATOM     13  H12 UNL     1     -17.505   9.286   4.042  1.00  0.00     0.274 HD
ATOM     14  H11 UNL     1     -16.613   9.420   2.631  1.00  0.00     0.274 HD
ENDBRANCH   1  11
TORSDOF 1
ENDMDL
MODEL 5
REMARK VINA RESULT: -4.302033661      0.918      2.403
REMARK  1 active torsions:
REMARK  status: ('A' for Active; 'I' for Inactive)
REMARK    1  A    between atoms: N1_1  and  C1_5 
ROOT
HETATM    1  C1  UNL     1     -19.219  13.136   1.851  1.00  0.00     0.191 C 
HETATM    2  C2  UNL     1     -17.768  13.060   1.486  1.00  0.00     0.017 C 
HETATM    3  C3  UNL     1     -17.280  11.673   1.208  1.00  0.00     0.011 C 
HETATM    4  C4  UNL     1     -17.481  10.816   2.426  1.00  0.00    -0.013 C 
HETATM    5  C5  UNL     1     -16.809  11.386   3.658  1.00  0.00     0.009 C 
HETATM    6  C6  UNL     1     -17.319  12.795   3.899  1.00  0.00    -0.013 C 
HETATM    7  C7  UNL     1     -16.985  13.610   2.686  1.00  0.00     0.011 C 
HETATM    8  C8  UNL     1     -18.784  12.704   4.189  1.00  0.00     0.011 C 
HETATM    9  C9  UNL     1     -19.514  12.153   2.955  1.00  0.00     0.017 C 
HETATM   10  C10 UNL     1     -18.988  10.780   2.692  1.00  0.00     0.011 C 
ENDROOT
BRANCH   1  11
HETATM   11  N1  UNL     1     -20.115  13.045   0.740  1.00  0.00    -0.074 N 
ATOM     12  H13 UNL     1     -20.887  13.703   0.852  1.00  0.00     0.274 HD
ATOM     13  H12 UNL     1     -19.680  13.426  -0.100  1.00  0.00     0.274 HD
ATOM     14  H11 UNL     1     -20.472  12.107   0.562  1.00  0.00     0.274 HD
ENDBRANCH   1  11
TORSDOF 1
ENDMDL
