MODEL 1
REMARK VINA RESULT: -4.270440198      0.000      0.000
REMARK  2 active torsions:
REMARK  status: ('A' for Active; 'I' for Inactive)
REMARK    1  A    between atoms: C8_8  and  C9_9 
REMARK    2  A    between atoms: C9_9  and  N1_10 
ROOT
HETATM    1  C1  UNL     1     -19.938  10.709   2.301  1.00  0.00     0.016 C 
HETATM    2  C2  UNL     1     -18.998  11.842   2.035  1.00  0.00    -0.035 C 
HETATM    3  C3  UNL     1     -19.704  13.170   2.214  1.00  0.00     0.016 C 
HETATM    4  C4  UNL     1     -18.283  11.805   0.708  1.00  0.00    -0.005 C 
HETATM    5  C5  UNL     1     -17.852  10.402   0.334  1.00  0.00     0.005 C 
HETATM    6  C6  UNL     1     -16.937   9.817   1.373  1.00  0.00     0.001 C 
HETATM    7  C7  UNL     1     -17.161  10.359   2.750  1.00  0.00     0.012 C 
HETATM    8  C8  UNL     1     -17.654  11.763   2.694  1.00  0.00    -0.009 C 
HETATM    9  C10 UNL     1     -17.081  12.428   1.434  1.00  0.00     0.017 C 
ENDROOT
BRANCH   8  10
HETATM   10  C9  UNL     1     -17.430  12.632   3.878  1.00  0.00     0.239 C 
BRANCH  10  11
HETATM   11  N1  UNL     1     -16.522  12.056   4.852  1.00  0.00    -0.079 N 
ATOM     12  H13 UNL     1     -16.987  11.936   5.753  1.00  0.00     0.274 HD
ATOM     13  H12 UNL     1     -16.327  11.079   4.631  1.00  0.00     0.274 HD
ATOM     14  H11 UNL     1     -15.655  12.582   4.960  1.00  0.00     0.274 HD
ENDBRANCH  10  11
ENDBRANCH   8  10
TORSDOF 2
ENDMDL
MODEL 2
REMARK VINA RESULT: -4.146559776      1.126      2.103
REMARK  2 active torsions:
REMARK  status: ('A' for Active; 'I' for Inactive)
REMARK    1  A    between atoms: C8_8  and  C9_9 
REMARK    2  A    between atoms: C9_9  and  N1_10 
ROOT
HETATM    1  C1  UNL     1     -19.180  13.769   1.458  1.00  0.00     0.016 C 
HETATM    2  C2  UNL     1     -17.975  12.959   1.820  1.00  0.00    -0.035 C 
HETATM    3  C3  UNL     1     -16.714  13.785   1.663  1.00  0.00     0.016 C 
HETATM    4  C4  UNL     1     -17.830  11.641   1.101  1.00  0.00    -0.005 C 
HETATM    5  C5  UNL     1     -19.159  10.933   0.940  1.00  0.00     0.005 C 
HETATM    6  C6  UNL     1     -19.802  10.669   2.273  1.00  0.00     0.001 C 
HETATM    7  C7  UNL     1     -19.423  11.657   3.333  1.00  0.00     0.012 C 
HETATM    8  C8  UNL     1     -18.051  12.184   3.101  1.00  0.00    -0.009 C 
HETATM    9  C10 UNL     1     -17.224  11.095   2.403  1.00  0.00     0.017 C 
ENDROOT
BRANCH   8  10
HETATM   10  C9  UNL     1     -17.303  12.727   4.264  1.00  0.00     0.239 C 
BRANCH  10  11
HETATM   11  N1  UNL     1     -18.018  12.597   5.520  1.00  0.00    -0.079 N 
ATOM     12  H13 UNL     1     -17.439  12.133   6.220  1.00  0.00     0.274 HD
ATOM     13  H12 UNL     1     -18.130  13.507   5.968  1.00  0.00     0.274 HD
ATOM     14  H11 UNL     1     -18.919  12.128   5.427  1.00  0.00     0.274 HD
ENDBRANCH  10  11
ENDBRANCH   8  10
TORSDOF 2
ENDMDL
MODEL 3
REMARK VINA RESULT: -4.117919805      1.219      2.546
REMARK  2 active torsions:
REMARK  status: ('A' for Active; 'I' for Inactive)
REMARK    1  A    between atoms: C8_8  and  C9_9 
REMARK    2  A    between atoms: C9_9  and  N1_10 
ROOT
HETATM    1  C1  UNL     1     -16.990  11.122   1.119  1.00  0.00     0.016 C 
HETATM    2  C2  UNL     1     -18.255  11.614   1.748  1.00  0.00    -0.035 C 
HETATM    3  C3  UNL     1     -19.081  10.452   2.259  1.00  0.00     0.016 C 
HETATM    4  C4  UNL     1     -19.103  12.523   0.893  1.00  0.00    -0.005 C 
HETATM    5  C5  UNL     1     -18.264  13.496   0.093  1.00  0.00     0.005 C 
HETATM    6  C6  UNL     1     -17.420  14.356   0.991  1.00  0.00     0.001 C 
HETATM    7  C7  UNL     1     -17.059  13.702   2.290  1.00  0.00     0.012 C 
HETATM    8  C8  UNL     1     -18.121  12.750   2.717  1.00  0.00    -0.009 C 
HETATM    9  C10 UNL     1     -19.470  13.260   2.190  1.00  0.00     0.017 C 
ENDROOT
BRANCH   8  10
HETATM   10  C9  UNL     1     -18.227  12.422   4.162  1.00  0.00     0.239 C 
BRANCH  10  11
HETATM   11  N1  UNL     1     -16.940  12.293   4.820  1.00  0.00    -0.079 N 
ATOM     12  H13 UNL     1     -16.734  11.315   5.024  1.00  0.00     0.274 HD
ATOM     13  H12 UNL     1     -16.180  12.494   4.170  1.00  0.00     0.274 HD
ATOM     14  H11 UNL     1     -16.856  12.864   5.661  1.00  0.00     0.274 HD
ENDBRANCH  10  11
ENDBRANCH   8  10
TORSDOF 2
ENDMDL
MODEL 4
REMARK VINA RESULT: -4.107545057      1.653      3.051
REMARK  2 active torsions:
REMARK  status: ('A' for Active; 'I' for Inactive)
REMARK    1  A    between atoms: C8_8  and  C9_9 
REMARK    2  A    between atoms: C9_9  and  N1_10 
ROOT
HETATM    1  C1  UNL     1     -17.297  12.944   3.777  1.00  0.00     0.016 C 
HETATM    2  C2  UNL     1     -17.691  12.870   2.335  1.00  0.00    -0.035 C 
HETATM    3  C3  UNL     1     -16.735  13.678   1.482  1.00  0.00     0.016 C 
HETATM    4  C4  UNL     1     -19.117  13.246   2.023  1.00  0.00    -0.005 C 
HETATM    5  C5  UNL     1     -20.083  12.725   3.066  1.00  0.00     0.005 C 
HETATM    6  C6  UNL     1     -20.010  11.228   3.179  1.00  0.00     0.001 C 
HETATM    7  C7  UNL     1     -18.674  10.659   2.817  1.00  0.00     0.012 C 
HETATM    8  C8  UNL     1     -17.996  11.504   1.796  1.00  0.00    -0.009 C 
HETATM    9  C10 UNL     1     -19.072  12.171   0.926  1.00  0.00     0.017 C 
ENDROOT
BRANCH   8  10
HETATM   10  C9  UNL     1     -16.964  10.871   0.936  1.00  0.00     0.239 C 
BRANCH  10  11
HETATM   11  N1  UNL     1     -16.661   9.503   1.311  1.00  0.00    -0.079 N 
ATOM     12  H13 UNL     1     -15.837   9.164   0.813  1.00  0.00     0.274 HD
ATOM     13  H12 UNL     1     -16.309   9.459   2.268  1.00  0.00     0.274 HD
ATOM     14  H11 UNL     1     -17.446   8.864   1.186  1.00  0.00     0.274 HD
ENDBRANCH  10  11
ENDBRANCH   8  10
TORSDOF 2
ENDMDL
MODEL 5
REMARK VINA RESULT: -4.029296793      1.925      3.048
REMARK  2 active torsions:
REMARK  status: ('A' for Active; 'I' for Inactive)
REMARK    1  A    between atoms: C8_8  and  C9_9 
REMARK    2  A    between atoms: C9_9  and  N1_10 
ROOT
HETATM    1  C1  UNL     1     -16.993  13.695   2.356  1.00  0.00     0.016 C 
HETATM    2  C2  UNL     1     -17.736  12.589   3.036  1.00  0.00    -0.035 C 
HETATM    3  C3  UNL     1     -17.657  12.744   4.541  1.00  0.00     0.016 C 
HETATM    4  C4  UNL     1     -17.347  11.190   2.632  1.00  0.00    -0.005 C 
HETATM    5  C5  UNL     1     -17.084  11.080   1.145  1.00  0.00     0.005 C 
HETATM    6  C6  UNL     1     -18.295  11.475   0.347  1.00  0.00     0.001 C 
HETATM    7  C7  UNL     1     -19.180  12.463   1.041  1.00  0.00     0.012 C 
HETATM    8  C8  UNL     1     -19.111  12.292   2.518  1.00  0.00    -0.009 C 
HETATM    9  C10 UNL     1     -18.824  10.814   2.822  1.00  0.00     0.017 C 
ENDROOT
BRANCH   8  10
HETATM   10  C9  UNL     1     -20.258  12.768   3.333  1.00  0.00     0.239 C 
BRANCH  10  11
HETATM   11  N1  UNL     1     -21.242  13.508   2.565  1.00  0.00    -0.079 N 
ATOM     12  H13 UNL     1     -20.859  13.792   1.663  1.00  0.00     0.274 HD
ATOM     13  H12 UNL     1     -21.990  12.892   2.246  1.00  0.00     0.274 HD
ATOM     14  H11 UNL     1     -21.625  14.311   3.064  1.00  0.00     0.274 HD
ENDBRANCH  10  11
ENDBRANCH   8  10
TORSDOF 2
ENDMDL
