MODEL 1
REMARK VINA RESULT: -4.401880861      0.000      0.000
REMARK  1 active torsions:
REMARK  status: ('A' for Active; 'I' for Inactive)
REMARK    1  A    between atoms: N1_2  and  C2_5 
ROOT
HETATM    1  C2  UNL     1     -17.789  11.624   1.776  1.00  0.00     0.133 C 
HETATM    2  C3  UNL     1     -18.512  10.601   2.606  1.00  0.00     0.044 C 
HETATM    3  C4  UNL     1     -19.544  11.521   3.291  1.00  0.00    -0.011 C 
HETATM    4  C5  UNL     1     -20.945  11.167   2.849  1.00  0.00     0.010 C 
HETATM    5  C6  UNL     1     -19.111  12.828   2.705  1.00  0.00     0.002 C 
HETATM    6  C7  UNL     1     -18.969  12.435   1.225  1.00  0.00     0.045 C 
HETATM    7  C8  UNL     1     -17.599  12.760   2.726  1.00  0.00    -0.010 C 
HETATM    8  C9  UNL     1     -16.959  14.007   2.156  1.00  0.00     0.018 C 
HETATM    9  C10 UNL     1     -16.977  12.426   4.050  1.00  0.00     0.018 C 
ENDROOT
BRANCH   1  10
HETATM   10  N1  UNL     1     -16.791  11.235   0.901  1.00  0.00    -0.069 N 
HETATM   11  C1  UNL     1     -16.624   9.796   0.925  1.00  0.00     0.267 C 
ATOM     12  H12 UNL     1     -15.913  11.721   1.087  1.00  0.00     0.277 HD
ATOM     13  H11 UNL     1     -16.960  11.581  -0.043  1.00  0.00     0.277 HD
ENDBRANCH   1  10
TORSDOF 1
ENDMDL
MODEL 2
REMARK VINA RESULT: -4.230718482      1.648      3.516
REMARK  1 active torsions:
REMARK  status: ('A' for Active; 'I' for Inactive)
REMARK    1  A    between atoms: N1_2  and  C2_5 
ROOT
HETATM    1  C2  UNL     1     -18.326  12.397   3.080  1.00  0.00     0.133 C 
HETATM    2  C3  UNL     1     -17.066  13.188   2.864  1.00  0.00     0.044 C 
HETATM    3  C4  UNL     1     -17.131  13.347   1.331  1.00  0.00    -0.011 C 
HETATM    4  C5  UNL     1     -17.307  14.799   0.956  1.00  0.00     0.010 C 
HETATM    5  C6  UNL     1     -18.384  12.571   1.073  1.00  0.00     0.002 C 
HETATM    6  C7  UNL     1     -19.299  13.151   2.164  1.00  0.00     0.045 C 
HETATM    7  C8  UNL     1     -18.274  11.374   1.993  1.00  0.00    -0.010 C 
HETATM    8  C9  UNL     1     -19.471  10.454   1.887  1.00  0.00     0.018 C 
HETATM    9  C10 UNL     1     -17.007  10.578   1.886  1.00  0.00     0.018 C 
ENDROOT
BRANCH   1  10
HETATM   10  N1  UNL     1     -18.740  12.077   4.360  1.00  0.00    -0.069 N 
HETATM   11  C1  UNL     1     -17.951  12.791   5.344  1.00  0.00     0.267 C 
ATOM     12  H12 UNL     1     -18.726  11.070   4.522  1.00  0.00     0.277 HD
ATOM     13  H11 UNL     1     -19.738  12.238   4.486  1.00  0.00     0.277 HD
ENDBRANCH   1  10
TORSDOF 1
ENDMDL
MODEL 3
REMARK VINA RESULT: -4.146684173      1.447      3.109
REMARK  1 active torsions:
REMARK  status: ('A' for Active; 'I' for Inactive)
REMARK    1  A    between atoms: N1_2  and  C2_5 
ROOT
HETATM    1  C2  UNL     1     -18.947  12.161   2.267  1.00  0.00     0.133 C 
HETATM    2  C3  UNL     1     -18.331  11.965   0.911  1.00  0.00     0.044 C 
HETATM    3  C4  UNL     1     -17.080  11.160   1.320  1.00  0.00    -0.011 C 
HETATM    4  C5  UNL     1     -17.141   9.762   0.751  1.00  0.00     0.010 C 
HETATM    5  C6  UNL     1     -17.291  11.146   2.801  1.00  0.00     0.002 C 
HETATM    6  C7  UNL     1     -18.777  10.759   2.866  1.00  0.00     0.045 C 
HETATM    7  C8  UNL     1     -17.781  12.542   3.118  1.00  0.00    -0.010 C 
HETATM    8  C9  UNL     1     -18.065  12.731   4.593  1.00  0.00     0.018 C 
HETATM    9  C10 UNL     1     -16.926  13.667   2.614  1.00  0.00     0.018 C 
ENDROOT
BRANCH   1  10
HETATM   10  N1  UNL     1     -20.174  12.787   2.393  1.00  0.00    -0.069 N 
HETATM   11  C1  UNL     1     -21.206  11.825   2.721  1.00  0.00     0.267 C 
ATOM     12  H12 UNL     1     -20.411  13.327   1.561  1.00  0.00     0.277 HD
ATOM     13  H11 UNL     1     -20.141  13.551   3.067  1.00  0.00     0.277 HD
ENDBRANCH   1  10
TORSDOF 1
ENDMDL
MODEL 4
REMARK VINA RESULT: -4.142611728      1.065      2.838
REMARK  1 active torsions:
REMARK  status: ('A' for Active; 'I' for Inactive)
REMARK    1  A    between atoms: N1_2  and  C2_5 
ROOT
HETATM    1  C2  UNL     1     -17.706  11.393   1.478  1.00  0.00     0.133 C 
HETATM    2  C3  UNL     1     -17.309  12.732   2.034  1.00  0.00     0.044 C 
HETATM    3  C4  UNL     1     -18.042  12.666   3.389  1.00  0.00    -0.011 C 
HETATM    4  C5  UNL     1     -17.050  12.652   4.528  1.00  0.00     0.010 C 
HETATM    5  C6  UNL     1     -18.696  11.330   3.231  1.00  0.00     0.002 C 
HETATM    6  C7  UNL     1     -17.511  10.500   2.710  1.00  0.00     0.045 C 
HETATM    7  C8  UNL     1     -19.164  11.314   1.792  1.00  0.00    -0.010 C 
HETATM    8  C9  UNL     1     -19.856  10.019   1.425  1.00  0.00     0.018 C 
HETATM    9  C10 UNL     1     -20.003  12.481   1.363  1.00  0.00     0.018 C 
ENDROOT
BRANCH   1  10
HETATM   10  N1  UNL     1     -17.200  10.962   0.265  1.00  0.00    -0.069 N 
HETATM   11  C1  UNL     1     -16.299   9.844   0.457  1.00  0.00     0.267 C 
ATOM     12  H12 UNL     1     -16.755  11.721  -0.252  1.00  0.00     0.277 HD
ATOM     13  H11 UNL     1     -17.942  10.741  -0.398  1.00  0.00     0.277 HD
ENDBRANCH   1  10
TORSDOF 1
ENDMDL
MODEL 5
REMARK VINA RESULT: -4.111275223      1.017      3.035
REMARK  1 active torsions:
REMARK  status: ('A' for Active; 'I' for Inactive)
REMARK    1  A    between atoms: N1_2  and  C2_5 
ROOT
HETATM    1  C2  UNL     1     -17.588  11.379   2.307  1.00  0.00     0.133 C 
HETATM    2  C3  UNL     1     -16.933  12.178   1.216  1.00  0.00     0.044 C 
HETATM    3  C4  UNL     1     -17.576  13.553   1.493  1.00  0.00    -0.011 C 
HETATM    4  C5  UNL     1     -16.528  14.550   1.928  1.00  0.00     0.010 C 
HETATM    5  C6  UNL     1     -18.457  13.167   2.639  1.00  0.00     0.002 C 
HETATM    6  C7  UNL     1     -17.468  12.352   3.488  1.00  0.00     0.045 C 
HETATM    7  C8  UNL     1     -19.014  11.818   2.239  1.00  0.00    -0.010 C 
HETATM    8  C9  UNL     1     -19.940  11.242   3.289  1.00  0.00     0.018 C 
HETATM    9  C10 UNL     1     -19.669  11.751   0.890  1.00  0.00     0.018 C 
ENDROOT
BRANCH   1  10
HETATM   10  N1  UNL     1     -17.244  10.055   2.507  1.00  0.00    -0.069 N 
HETATM   11  C1  UNL     1     -16.696   9.481   1.295  1.00  0.00     0.267 C 
ATOM     12  H12 UNL     1     -18.029   9.509   2.863  1.00  0.00     0.277 HD
ATOM     13  H11 UNL     1     -16.610   9.944   3.298  1.00  0.00     0.277 HD
ENDBRANCH   1  10
TORSDOF 1
ENDMDL
