MODEL 1
REMARK VINA RESULT: -4.721232844      0.000      0.000
REMARK  1 active torsions:
REMARK  status: ('A' for Active; 'I' for Inactive)
REMARK    1  A    between atoms: N1_1  and  C1_5 
ROOT
HETATM    1  C1  UNL     1     -17.440  12.240   3.777  1.00  0.00     0.124 C 
HETATM    2  C2  UNL     1     -18.806  12.525   4.253  1.00  0.00     0.039 C 
HETATM    3  C3  UNL     1     -19.930  12.070   3.420  1.00  0.00     0.007 C 
HETATM    4  C4  UNL     1     -19.731  12.153   1.945  1.00  0.00    -0.014 C 
HETATM    5  C5  UNL     1     -19.053  13.421   1.587  1.00  0.00     0.009 C 
HETATM    6  C6  UNL     1     -17.573  13.388   1.568  1.00  0.00    -0.012 C 
HETATM    7  C7  UNL     1     -17.016  12.146   0.882  1.00  0.00     0.009 C 
HETATM    8  C8  UNL     1     -17.581  10.957   1.619  1.00  0.00    -0.012 C 
HETATM    9  C9  UNL     1     -19.070  10.912   1.432  1.00  0.00     0.009 C 
HETATM   10  C10 UNL     1     -17.249  10.946   3.065  1.00  0.00     0.043 C 
HETATM   11  C11 UNL     1     -16.949  13.402   2.951  1.00  0.00     0.043 C 
ENDROOT
BRANCH   1  12
HETATM   12  N1  UNL     1     -16.573  12.195   4.969  1.00  0.00    -0.070 N 
ATOM     13  H13 UNL     1     -15.841  12.904   4.961  1.00  0.00     0.275 HD
ATOM     14  H12 UNL     1     -17.043  12.506   5.820  1.00  0.00     0.275 HD
ATOM     15  H11 UNL     1     -16.212  11.244   5.035  1.00  0.00     0.275 HD
ENDBRANCH   1  12
TORSDOF 1
ENDMDL
MODEL 2
REMARK VINA RESULT: -4.717524134      0.635      2.427
REMARK  1 active torsions:
REMARK  status: ('A' for Active; 'I' for Inactive)
REMARK    1  A    between atoms: N1_1  and  C1_5 
ROOT
HETATM    1  C1  UNL     1     -17.547  12.353   3.719  1.00  0.00     0.124 C 
HETATM    2  C2  UNL     1     -16.808  13.371   2.949  1.00  0.00     0.039 C 
HETATM    3  C3  UNL     1     -17.511  14.035   1.841  1.00  0.00     0.007 C 
HETATM    4  C4  UNL     1     -18.448  13.185   1.052  1.00  0.00    -0.014 C 
HETATM    5  C5  UNL     1     -17.853  11.849   0.812  1.00  0.00     0.009 C 
HETATM    6  C6  UNL     1     -18.126  10.819   1.840  1.00  0.00    -0.012 C 
HETATM    7  C7  UNL     1     -19.581  10.801   2.294  1.00  0.00     0.009 C 
HETATM    8  C8  UNL     1     -19.886  12.186   2.811  1.00  0.00    -0.012 C 
HETATM    9  C9  UNL     1     -19.805  13.172   1.682  1.00  0.00     0.009 C 
HETATM   10  C10 UNL     1     -19.000  12.611   3.922  1.00  0.00     0.043 C 
HETATM   11  C11 UNL     1     -17.308  10.995   3.107  1.00  0.00     0.043 C 
ENDROOT
BRANCH   1  12
HETATM   12  N1  UNL     1     -16.937  12.307   5.060  1.00  0.00    -0.070 N 
ATOM     13  H13 UNL     1     -17.282  13.035   5.684  1.00  0.00     0.275 HD
ATOM     14  H12 UNL     1     -17.244  11.507   5.614  1.00  0.00     0.275 HD
ATOM     15  H11 UNL     1     -15.926  12.338   4.925  1.00  0.00     0.275 HD
ENDBRANCH   1  12
TORSDOF 1
ENDMDL
MODEL 3
REMARK VINA RESULT: -4.703372644      1.747      3.099
REMARK  1 active torsions:
REMARK  status: ('A' for Active; 'I' for Inactive)
REMARK    1  A    between atoms: N1_1  and  C1_5 
ROOT
HETATM    1  C1  UNL     1     -18.121  13.043   1.033  1.00  0.00     0.124 C 
HETATM    2  C2  UNL     1     -17.390  13.967   1.921  1.00  0.00     0.039 C 
HETATM    3  C3  UNL     1     -16.785  13.410   3.140  1.00  0.00     0.007 C 
HETATM    4  C4  UNL     1     -17.557  12.333   3.824  1.00  0.00    -0.014 C 
HETATM    5  C5  UNL     1     -19.001  12.664   3.840  1.00  0.00     0.009 C 
HETATM    6  C6  UNL     1     -19.791  12.195   2.679  1.00  0.00    -0.012 C 
HETATM    7  C7  UNL     1     -19.465  10.761   2.279  1.00  0.00     0.009 C 
HETATM    8  C8  UNL     1     -17.985  10.720   1.987  1.00  0.00    -0.012 C 
HETATM    9  C9  UNL     1     -17.218  10.994   3.248  1.00  0.00     0.009 C 
HETATM   10  C10 UNL     1     -17.568  11.665   0.922  1.00  0.00     0.043 C 
HETATM   11  C11 UNL     1     -19.577  13.024   1.425  1.00  0.00     0.043 C 
ENDROOT
BRANCH   1  12
HETATM   12  N1  UNL     1     -18.073  13.625  -0.320  1.00  0.00    -0.070 N 
ATOM     13  H13 UNL     1     -17.435  14.417  -0.395  1.00  0.00     0.275 HD
ATOM     14  H12 UNL     1     -17.610  13.023  -1.001  1.00  0.00     0.275 HD
ATOM     15  H11 UNL     1     -19.032  13.857  -0.576  1.00  0.00     0.275 HD
ENDBRANCH   1  12
TORSDOF 1
ENDMDL
MODEL 4
REMARK VINA RESULT: -4.696237842      1.724      2.950
REMARK  1 active torsions:
REMARK  status: ('A' for Active; 'I' for Inactive)
REMARK    1  A    between atoms: N1_1  and  C1_5 
ROOT
HETATM    1  C1  UNL     1     -18.207  13.019   1.111  1.00  0.00     0.124 C 
HETATM    2  C2  UNL     1     -19.648  13.332   1.159  1.00  0.00     0.039 C 
HETATM    3  C3  UNL     1     -20.339  13.177   2.448  1.00  0.00     0.007 C 
HETATM    4  C4  UNL     1     -19.899  12.035   3.298  1.00  0.00    -0.014 C 
HETATM    5  C5  UNL     1     -19.677  10.829   2.466  1.00  0.00     0.009 C 
HETATM    6  C6  UNL     1     -18.316  10.660   1.910  1.00  0.00    -0.012 C 
HETATM    7  C7  UNL     1     -17.218  10.947   2.928  1.00  0.00     0.009 C 
HETATM    8  C8  UNL     1     -17.440  12.359   3.413  1.00  0.00    -0.012 C 
HETATM    9  C9  UNL     1     -18.741  12.433   4.159  1.00  0.00     0.009 C 
HETATM   10  C10 UNL     1     -17.419  13.368   2.326  1.00  0.00     0.043 C 
HETATM   11  C11 UNL     1     -18.025  11.571   0.732  1.00  0.00     0.043 C 
ENDROOT
BRANCH   1  12
HETATM   12  N1  UNL     1     -17.637  13.805   0.002  1.00  0.00    -0.070 N 
ATOM     13  H13 UNL     1     -18.345  14.193  -0.621  1.00  0.00     0.275 HD
ATOM     14  H12 UNL     1     -17.231  14.691   0.303  1.00  0.00     0.275 HD
ATOM     15  H11 UNL     1     -16.970  13.199  -0.476  1.00  0.00     0.275 HD
ENDBRANCH   1  12
TORSDOF 1
ENDMDL
MODEL 5
REMARK VINA RESULT: -4.602601181      0.812      2.552
REMARK  1 active torsions:
REMARK  status: ('A' for Active; 'I' for Inactive)
REMARK    1  A    between atoms: N1_1  and  C1_5 
ROOT
HETATM    1  C1  UNL     1     -17.629  11.861   3.404  1.00  0.00     0.124 C 
HETATM    2  C2  UNL     1     -17.163  10.563   2.879  1.00  0.00     0.039 C 
HETATM    3  C3  UNL     1     -17.310  10.316   1.437  1.00  0.00     0.007 C 
HETATM    4  C4  UNL     1     -18.538  10.868   0.796  1.00  0.00    -0.014 C 
HETATM    5  C5  UNL     1     -19.714  10.658   1.672  1.00  0.00     0.009 C 
HETATM    6  C6  UNL     1     -20.002  11.733   2.648  1.00  0.00    -0.012 C 
HETATM    7  C7  UNL     1     -19.891  13.129   2.045  1.00  0.00     0.009 C 
HETATM    8  C8  UNL     1     -18.492  13.250   1.493  1.00  0.00    -0.012 C 
HETATM    9  C9  UNL     1     -18.315  12.282   0.359  1.00  0.00     0.009 C 
HETATM   10  C10 UNL     1     -17.435  13.038   2.513  1.00  0.00     0.043 C 
HETATM   11  C11 UNL     1     -19.066  11.733   3.843  1.00  0.00     0.043 C 
ENDROOT
BRANCH   1  12
HETATM   12  N1  UNL     1     -16.853  12.129   4.628  1.00  0.00    -0.070 N 
ATOM     13  H13 UNL     1     -17.390  11.988   5.484  1.00  0.00     0.275 HD
ATOM     14  H12 UNL     1     -16.135  11.427   4.811  1.00  0.00     0.275 HD
ATOM     15  H11 UNL     1     -16.478  13.073   4.539  1.00  0.00     0.275 HD
ENDBRANCH   1  12
TORSDOF 1
ENDMDL
