MODEL 1
REMARK VINA RESULT: -4.631057773      0.000      0.000
REMARK  4 active torsions:
REMARK  status: ('A' for Active; 'I' for Inactive)
REMARK    1  A    between atoms: O1_2  and  C2_3 
REMARK    2  A    between atoms: C2_3  and  O3_5 
REMARK    3  A    between atoms: O3_5  and  N1_6 
REMARK    4  A    between atoms: N1_6  and  C3_7 
ROOT
HETATM    1  O3  UNL     1      28.639 -21.686  -0.496  1.00  0.00    -0.182 OA
ENDROOT
BRANCH   1   2
HETATM    2  C2  UNL     1      29.926 -21.265  -0.848  1.00  0.00     0.424 C 
HETATM    3  O2  UNL     1      30.688 -22.042  -1.496  1.00  0.00    -0.228 OA
BRANCH   2   4
HETATM    4  O1  UNL     1      30.413 -20.020  -0.516  1.00  0.00    -0.302 OA
HETATM    5  C1  UNL     1      31.531 -19.915   0.347  1.00  0.00     0.215 C 
ENDBRANCH   2   4
ENDBRANCH   1   2
BRANCH   1   6
HETATM    6  N1  UNL     1      27.778 -20.725  -0.051  1.00  0.00    -0.080 NA
BRANCH   6   7
HETATM    7  C3  UNL     1      27.428 -20.847   1.326  1.00  0.00     0.047 C 
HETATM    8  C4  UNL     1      25.953 -20.566   1.588  1.00  0.00     0.035 C 
HETATM    9  C5  UNL     1      27.647 -22.307   1.722  1.00  0.00     0.035 C 
HETATM   10  C6  UNL     1      28.258 -19.994   2.238  1.00  0.00     0.035 C 
ENDBRANCH   6   7
ENDBRANCH   1   6
TORSDOF 4
ENDMDL
MODEL 2
REMARK VINA RESULT: -4.623194455      0.076      1.346
REMARK  4 active torsions:
REMARK  status: ('A' for Active; 'I' for Inactive)
REMARK    1  A    between atoms: O1_2  and  C2_3 
REMARK    2  A    between atoms: C2_3  and  O3_5 
REMARK    3  A    between atoms: O3_5  and  N1_6 
REMARK    4  A    between atoms: N1_6  and  C3_7 
ROOT
HETATM    1  O3  UNL     1      28.574 -21.570  -0.587  1.00  0.00    -0.182 OA
ENDROOT
BRANCH   1   2
HETATM    2  C2  UNL     1      29.897 -21.214  -0.871  1.00  0.00     0.424 C 
HETATM    3  O2  UNL     1      30.658 -22.037  -1.461  1.00  0.00    -0.228 OA
BRANCH   2   4
HETATM    4  O1  UNL     1      30.420 -19.985  -0.533  1.00  0.00    -0.302 OA
HETATM    5  C1  UNL     1      31.569 -19.920   0.292  1.00  0.00     0.215 C 
ENDBRANCH   2   4
ENDBRANCH   1   2
BRANCH   1   6
HETATM    6  N1  UNL     1      27.783 -20.606  -0.032  1.00  0.00    -0.080 NA
BRANCH   6   7
HETATM    7  C3  UNL     1      27.385 -20.879   1.310  1.00  0.00     0.047 C 
HETATM    8  C4  UNL     1      27.673 -22.316   1.731  1.00  0.00     0.035 C 
HETATM    9  C5  UNL     1      28.240 -20.002   2.224  1.00  0.00     0.035 C 
HETATM   10  C6  UNL     1      25.945 -20.567   1.589  1.00  0.00     0.035 C 
ENDBRANCH   6   7
ENDBRANCH   1   6
TORSDOF 4
ENDMDL
MODEL 3
REMARK VINA RESULT: -4.612413947      0.069      1.343
REMARK  4 active torsions:
REMARK  status: ('A' for Active; 'I' for Inactive)
REMARK    1  A    between atoms: O1_2  and  C2_3 
REMARK    2  A    between atoms: C2_3  and  O3_5 
REMARK    3  A    between atoms: O3_5  and  N1_6 
REMARK    4  A    between atoms: N1_6  and  C3_7 
ROOT
HETATM    1  O3  UNL     1      28.643 -21.648  -0.588  1.00  0.00    -0.182 OA
ENDROOT
BRANCH   1   2
HETATM    2  C2  UNL     1      29.951 -21.239  -0.874  1.00  0.00     0.424 C 
HETATM    3  O2  UNL     1      30.736 -22.022  -1.487  1.00  0.00    -0.228 OA
BRANCH   2   4
HETATM    4  O1  UNL     1      30.433 -20.001  -0.513  1.00  0.00    -0.302 OA
HETATM    5  C1  UNL     1      31.528 -19.912   0.381  1.00  0.00     0.215 C 
ENDBRANCH   2   4
ENDBRANCH   1   2
BRANCH   1   6
HETATM    6  N1  UNL     1      27.811 -20.711  -0.048  1.00  0.00    -0.080 NA
BRANCH   6   7
HETATM    7  C3  UNL     1      27.501 -20.929   1.327  1.00  0.00     0.047 C 
HETATM    8  C4  UNL     1      28.284 -20.014   2.261  1.00  0.00     0.035 C 
HETATM    9  C5  UNL     1      26.030 -20.561   1.524  1.00  0.00     0.035 C 
HETATM   10  C6  UNL     1      27.682 -22.351   1.770  1.00  0.00     0.035 C 
ENDBRANCH   6   7
ENDBRANCH   1   6
TORSDOF 4
ENDMDL
MODEL 4
REMARK VINA RESULT: -4.583647395      0.859      1.817
REMARK  4 active torsions:
REMARK  status: ('A' for Active; 'I' for Inactive)
REMARK    1  A    between atoms: O1_2  and  C2_3 
REMARK    2  A    between atoms: C2_3  and  O3_5 
REMARK    3  A    between atoms: O3_5  and  N1_6 
REMARK    4  A    between atoms: N1_6  and  C3_7 
ROOT
HETATM    1  O3  UNL     1      28.626 -21.480  -0.620  1.00  0.00    -0.182 OA
ENDROOT
BRANCH   1   2
HETATM    2  C2  UNL     1      29.972 -21.111  -0.511  1.00  0.00     0.424 C 
HETATM    3  O2  UNL     1      30.320 -19.917  -0.751  1.00  0.00    -0.228 OA
BRANCH   2   4
HETATM    4  O1  UNL     1      30.956 -22.005  -0.149  1.00  0.00    -0.302 OA
HETATM    5  C1  UNL     1      31.416 -22.031   1.190  1.00  0.00     0.215 C 
ENDBRANCH   2   4
ENDBRANCH   1   2
BRANCH   1   6
HETATM    6  N1  UNL     1      27.712 -20.638  -0.057  1.00  0.00    -0.080 NA
BRANCH   6   7
HETATM    7  C3  UNL     1      27.447 -20.900   1.320  1.00  0.00     0.047 C 
HETATM    8  C4  UNL     1      28.250 -20.004   2.257  1.00  0.00     0.035 C 
HETATM    9  C5  UNL     1      25.980 -20.553   1.574  1.00  0.00     0.035 C 
HETATM   10  C6  UNL     1      27.655 -22.332   1.714  1.00  0.00     0.035 C 
ENDBRANCH   6   7
ENDBRANCH   1   6
TORSDOF 4
ENDMDL
MODEL 5
REMARK VINA RESULT: -4.581886592      0.783      1.493
REMARK  4 active torsions:
REMARK  status: ('A' for Active; 'I' for Inactive)
REMARK    1  A    between atoms: O1_2  and  C2_3 
REMARK    2  A    between atoms: C2_3  and  O3_5 
REMARK    3  A    between atoms: O3_5  and  N1_6 
REMARK    4  A    between atoms: N1_6  and  C3_7 
ROOT
HETATM    1  O3  UNL     1      28.722 -21.632  -0.529  1.00  0.00    -0.182 OA
ENDROOT
BRANCH   1   2
HETATM    2  C2  UNL     1      30.028 -21.184  -0.756  1.00  0.00     0.424 C 
HETATM    3  O2  UNL     1      30.295 -19.949  -0.665  1.00  0.00    -0.228 OA
BRANCH   2   4
HETATM    4  O1  UNL     1      31.057 -22.040  -1.082  1.00  0.00    -0.302 OA
HETATM    5  C1  UNL     1      31.553 -22.062  -2.408  1.00  0.00     0.215 C 
ENDBRANCH   2   4
ENDBRANCH   1   2
BRANCH   1   6
HETATM    6  N1  UNL     1      27.825 -20.708  -0.076  1.00  0.00    -0.080 NA
BRANCH   6   7
HETATM    7  C3  UNL     1      27.480 -20.857   1.300  1.00  0.00     0.047 C 
HETATM    8  C4  UNL     1      25.998 -20.619   1.566  1.00  0.00     0.035 C 
HETATM    9  C5  UNL     1      27.738 -22.316   1.677  1.00  0.00     0.035 C 
HETATM   10  C6  UNL     1      28.288 -19.995   2.223  1.00  0.00     0.035 C 
ENDBRANCH   6   7
ENDBRANCH   1   6
TORSDOF 4
ENDMDL
