MODEL 1
REMARK VINA RESULT: -5.836063354      0.000      0.000
REMARK  12 active torsions:
REMARK  status: ('A' for Active; 'I' for Inactive)
REMARK    1  A    between atoms: C2_2  and  O1_4 
REMARK    2  A    between atoms: C2_2  and  C4_6 
REMARK    3  A    between atoms: C9_11  and  C11_13 
REMARK    4  A    between atoms: C11_13  and  O2_14 
REMARK    5  A    between atoms: O2_14  and  C12_15 
REMARK    6  A    between atoms: C12_15  and  O4_17 
REMARK    7  A    between atoms: O4_17  and  C13_18 
REMARK    8  A    between atoms: C13_18  and  C14_19 
REMARK    9  A    between atoms: C14_19  and  C15_20 
REMARK   10  A    between atoms: C15_20  and  C16_21 
REMARK   11  A    between atoms: C16_21  and  C17_22 
REMARK   12  A    between atoms: C17_22  and  O5_23 
ROOT
HETATM    1  C4  UNL     1      16.063  -6.547   0.544  1.00  0.00     0.029 C 
HETATM    2  C5  UNL     1      16.100  -5.627  -0.669  1.00  0.00     0.008 C 
HETATM    3  C6  UNL     1      15.235  -4.446  -0.359  1.00  0.00     0.001 C 
HETATM    4  C7  UNL     1      14.617  -4.470   1.006  1.00  0.00     0.001 C 
HETATM    5  C8  UNL     1      13.911  -5.762   1.327  1.00  0.00     0.012 C 
HETATM    6  C9  UNL     1      14.655  -6.967   0.729  1.00  0.00    -0.015 C 
HETATM    7  C10 UNL     1      13.930  -7.291  -0.552  1.00  0.00     0.018 C 
ENDROOT
BRANCH   6   8
HETATM    8  C11 UNL     1      14.430  -8.113   1.674  1.00  0.00     0.190 C 
BRANCH   8   9
HETATM    9  O2  UNL     1      13.381  -7.688   2.563  1.00  0.00    -0.297 OA
BRANCH   9  10
HETATM   10  C12 UNL     1      12.472  -8.593   3.092  1.00  0.00     0.406 C 
HETATM   11  O3  UNL     1      11.801  -9.264   2.310  1.00  0.00    -0.230 OA
BRANCH  10  12
HETATM   12  O4  UNL     1      12.329  -8.732   4.451  1.00  0.00    -0.298 OA
BRANCH  12  13
HETATM   13  C13 UNL     1      12.837  -9.780   5.196  1.00  0.00     0.181 C 
BRANCH  13  14
HETATM   14  C14 UNL     1      14.326  -9.643   5.381  1.00  0.00     0.027 C 
BRANCH  14  15
HETATM   15  C15 UNL     1      14.946 -10.827   4.621  1.00  0.00     0.004 C 
BRANCH  15  16
HETATM   16  C16 UNL     1      15.213 -11.946   5.577  1.00  0.00     0.026 C 
BRANCH  16  17
HETATM   17  C17 UNL     1      16.094 -12.958   4.881  1.00  0.00     0.164 C 
BRANCH  17  18
HETATM   18  O5  UNL     1      17.145 -12.327   4.235  1.00  0.00    -0.401 OA
ATOM     19  H5  UNL     1      17.741 -12.966   3.861  1.00  0.00     0.209 HD
ENDBRANCH  17  18
ENDBRANCH  16  17
ENDBRANCH  15  16
ENDBRANCH  14  15
ENDBRANCH  13  14
ENDBRANCH  12  13
ENDBRANCH  10  12
ENDBRANCH   9  10
ENDBRANCH   8   9
ENDBRANCH   6   8
BRANCH   1  20
HETATM   20  C2  UNL     1      17.091  -7.607   0.487  1.00  0.00     0.055 C 
HETATM   21  C1  UNL     1      18.455  -6.900   0.598  1.00  0.00     0.045 C 
HETATM   22  C3  UNL     1      17.139  -8.405  -0.764  1.00  0.00     0.045 C 
BRANCH  20  23
HETATM   23  O1  UNL     1      17.017  -8.400   1.630  1.00  0.00    -0.390 OA
ATOM     24  H1  UNL     1      16.893  -7.781   2.340  1.00  0.00     0.210 HD
ENDBRANCH  20  23
ENDBRANCH   1  20
TORSDOF 12
ENDMDL
MODEL 2
REMARK VINA RESULT: -5.713458713      2.135      3.614
REMARK  12 active torsions:
REMARK  status: ('A' for Active; 'I' for Inactive)
REMARK    1  A    between atoms: C2_2  and  O1_4 
REMARK    2  A    between atoms: C2_2  and  C4_6 
REMARK    3  A    between atoms: C9_11  and  C11_13 
REMARK    4  A    between atoms: C11_13  and  O2_14 
REMARK    5  A    between atoms: O2_14  and  C12_15 
REMARK    6  A    between atoms: C12_15  and  O4_17 
REMARK    7  A    between atoms: O4_17  and  C13_18 
REMARK    8  A    between atoms: C13_18  and  C14_19 
REMARK    9  A    between atoms: C14_19  and  C15_20 
REMARK   10  A    between atoms: C15_20  and  C16_21 
REMARK   11  A    between atoms: C16_21  and  C17_22 
REMARK   12  A    between atoms: C17_22  and  O5_23 
ROOT
HETATM    1  C4  UNL     1      17.381  -8.553  -1.146  1.00  0.00     0.029 C 
HETATM    2  C5  UNL     1      18.189  -8.431  -2.431  1.00  0.00     0.008 C 
HETATM    3  C6  UNL     1      19.619  -8.229  -2.041  1.00  0.00     0.001 C 
HETATM    4  C7  UNL     1      19.866  -8.231  -0.563  1.00  0.00     0.001 C 
HETATM    5  C8  UNL     1      18.958  -7.305   0.203  1.00  0.00     0.012 C 
HETATM    6  C9  UNL     1      17.545  -7.281  -0.406  1.00  0.00    -0.015 C 
HETATM    7  C10 UNL     1      17.501  -6.049  -1.272  1.00  0.00     0.018 C 
ENDROOT
BRANCH   6   8
HETATM    8  C11 UNL     1      16.597  -7.060   0.739  1.00  0.00     0.190 C 
BRANCH   8   9
HETATM    9  O2  UNL     1      17.021  -7.960   1.778  1.00  0.00    -0.297 OA
BRANCH   9  10
HETATM   10  C12 UNL     1      16.403  -7.970   3.020  1.00  0.00     0.406 C 
HETATM   11  O3  UNL     1      16.299  -6.903   3.623  1.00  0.00    -0.230 OA
BRANCH  10  12
HETATM   12  O4  UNL     1      15.924  -9.140   3.558  1.00  0.00    -0.298 OA
BRANCH  12  13
HETATM   13  C13 UNL     1      14.623  -9.339   3.981  1.00  0.00     0.181 C 
BRANCH  13  14
HETATM   14  C14 UNL     1      14.582  -9.777   5.422  1.00  0.00     0.027 C 
BRANCH  14  15
HETATM   15  C15 UNL     1      14.234 -11.274   5.389  1.00  0.00     0.004 C 
BRANCH  15  16
HETATM   16  C16 UNL     1      15.339 -12.056   6.022  1.00  0.00     0.026 C 
BRANCH  16  17
HETATM   17  C17 UNL     1      15.993 -12.899   4.952  1.00  0.00     0.164 C 
BRANCH  17  18
HETATM   18  O5  UNL     1      16.819 -12.121   4.155  1.00  0.00    -0.401 OA
ATOM     19  H5  UNL     1      16.328 -11.414   3.753  1.00  0.00     0.209 HD
ENDBRANCH  17  18
ENDBRANCH  16  17
ENDBRANCH  15  16
ENDBRANCH  14  15
ENDBRANCH  13  14
ENDBRANCH  12  13
ENDBRANCH  10  12
ENDBRANCH   9  10
ENDBRANCH   8   9
ENDBRANCH   6   8
BRANCH   1  20
HETATM   20  C2  UNL     1      16.004  -9.035  -1.382  1.00  0.00     0.055 C 
HETATM   21  C1  UNL     1      16.128 -10.329  -2.209  1.00  0.00     0.045 C 
HETATM   22  C3  UNL     1      15.119  -8.131  -2.158  1.00  0.00     0.045 C 
BRANCH  20  23
HETATM   23  O1  UNL     1      15.435  -9.447  -0.179  1.00  0.00    -0.390 OA
ATOM     24  H1  UNL     1      15.983  -9.053   0.489  1.00  0.00     0.210 HD
ENDBRANCH  20  23
ENDBRANCH   1  20
TORSDOF 12
ENDMDL
MODEL 3
REMARK VINA RESULT: -5.712326677      2.121      3.223
REMARK  12 active torsions:
REMARK  status: ('A' for Active; 'I' for Inactive)
REMARK    1  A    between atoms: C2_2  and  O1_4 
REMARK    2  A    between atoms: C2_2  and  C4_6 
REMARK    3  A    between atoms: C9_11  and  C11_13 
REMARK    4  A    between atoms: C11_13  and  O2_14 
REMARK    5  A    between atoms: O2_14  and  C12_15 
REMARK    6  A    between atoms: C12_15  and  O4_17 
REMARK    7  A    between atoms: O4_17  and  C13_18 
REMARK    8  A    between atoms: C13_18  and  C14_19 
REMARK    9  A    between atoms: C14_19  and  C15_20 
REMARK   10  A    between atoms: C15_20  and  C16_21 
REMARK   11  A    between atoms: C16_21  and  C17_22 
REMARK   12  A    between atoms: C17_22  and  O5_23 
ROOT
HETATM    1  C4  UNL     1      18.693  -6.686  -1.269  1.00  0.00     0.029 C 
HETATM    2  C5  UNL     1      18.260  -7.120  -2.662  1.00  0.00     0.008 C 
HETATM    3  C6  UNL     1      16.993  -6.392  -2.982  1.00  0.00     0.001 C 
HETATM    4  C7  UNL     1      16.528  -5.454  -1.910  1.00  0.00     0.001 C 
HETATM    5  C8  UNL     1      16.463  -6.084  -0.543  1.00  0.00     0.012 C 
HETATM    6  C9  UNL     1      17.614  -7.082  -0.335  1.00  0.00    -0.015 C 
HETATM    7  C10 UNL     1      17.023  -8.441  -0.608  1.00  0.00     0.018 C 
ENDROOT
BRANCH   6   8
HETATM    8  C11 UNL     1      17.959  -7.029   1.128  1.00  0.00     0.190 C 
BRANCH   8   9
HETATM    9  O2  UNL     1      17.154  -8.042   1.757  1.00  0.00    -0.297 OA
BRANCH   9  10
HETATM   10  C12 UNL     1      16.465  -7.788   2.934  1.00  0.00     0.406 C 
HETATM   11  O3  UNL     1      16.321  -6.616   3.279  1.00  0.00    -0.230 OA
BRANCH  10  12
HETATM   12  O4  UNL     1      15.961  -8.819   3.689  1.00  0.00    -0.298 OA
BRANCH  12  13
HETATM   13  C13 UNL     1      14.718  -8.819   4.295  1.00  0.00     0.181 C 
BRANCH  13  14
HETATM   14  C14 UNL     1      14.691  -9.754   5.476  1.00  0.00     0.027 C 
BRANCH  14  15
HETATM   15  C15 UNL     1      14.631 -11.169   4.881  1.00  0.00     0.004 C 
BRANCH  15  16
HETATM   16  C16 UNL     1      15.366 -12.117   5.775  1.00  0.00     0.026 C 
BRANCH  16  17
HETATM   17  C17 UNL     1      16.176 -13.051   4.906  1.00  0.00     0.164 C 
BRANCH  17  18
HETATM   18  O5  UNL     1      17.176 -12.356   4.242  1.00  0.00    -0.401 OA
ATOM     19  H5  UNL     1      17.085 -12.456   3.302  1.00  0.00     0.209 HD
ENDBRANCH  17  18
ENDBRANCH  16  17
ENDBRANCH  15  16
ENDBRANCH  14  15
ENDBRANCH  13  14
ENDBRANCH  12  13
ENDBRANCH  10  12
ENDBRANCH   9  10
ENDBRANCH   8   9
ENDBRANCH   6   8
BRANCH   1  20
HETATM   20  C2  UNL     1      20.071  -7.110  -0.942  1.00  0.00     0.055 C 
HETATM   21  C1  UNL     1      20.880  -7.015  -2.250  1.00  0.00     0.045 C 
HETATM   22  C3  UNL     1      20.228  -8.504  -0.458  1.00  0.00     0.045 C 
BRANCH  20  23
HETATM   23  O1  UNL     1      20.665  -6.175  -0.098  1.00  0.00    -0.390 OA
ATOM     24  H1  UNL     1      20.048  -5.454  -0.071  1.00  0.00     0.210 HD
ENDBRANCH  20  23
ENDBRANCH   1  20
TORSDOF 12
ENDMDL
MODEL 4
REMARK VINA RESULT: -5.695339270      1.679      2.021
REMARK  12 active torsions:
REMARK  status: ('A' for Active; 'I' for Inactive)
REMARK    1  A    between atoms: C2_2  and  O1_4 
REMARK    2  A    between atoms: C2_2  and  C4_6 
REMARK    3  A    between atoms: C9_11  and  C11_13 
REMARK    4  A    between atoms: C11_13  and  O2_14 
REMARK    5  A    between atoms: O2_14  and  C12_15 
REMARK    6  A    between atoms: C12_15  and  O4_17 
REMARK    7  A    between atoms: O4_17  and  C13_18 
REMARK    8  A    between atoms: C13_18  and  C14_19 
REMARK    9  A    between atoms: C14_19  and  C15_20 
REMARK   10  A    between atoms: C15_20  and  C16_21 
REMARK   11  A    between atoms: C16_21  and  C17_22 
REMARK   12  A    between atoms: C17_22  and  O5_23 
ROOT
HETATM    1  C4  UNL     1      16.406  -6.382   0.267  1.00  0.00     0.029 C 
HETATM    2  C5  UNL     1      16.140  -5.577  -0.997  1.00  0.00     0.008 C 
HETATM    3  C6  UNL     1      15.239  -4.442  -0.622  1.00  0.00     0.001 C 
HETATM    4  C7  UNL     1      14.881  -4.389   0.832  1.00  0.00     0.001 C 
HETATM    5  C8  UNL     1      14.367  -5.696   1.376  1.00  0.00     0.012 C 
HETATM    6  C9  UNL     1      15.099  -6.890   0.743  1.00  0.00    -0.015 C 
HETATM    7  C10 UNL     1      14.189  -7.385  -0.352  1.00  0.00     0.018 C 
ENDROOT
BRANCH   6   8
HETATM    8  C11 UNL     1      15.154  -7.959   1.798  1.00  0.00     0.190 C 
BRANCH   8   9
HETATM    9  O2  UNL     1      15.573  -7.297   3.005  1.00  0.00    -0.297 OA
BRANCH   9  10
HETATM   10  C12 UNL     1      15.674  -7.983   4.206  1.00  0.00     0.406 C 
HETATM   11  O3  UNL     1      16.347  -7.480   5.105  1.00  0.00    -0.230 OA
BRANCH  10  12
HETATM   12  O4  UNL     1      15.039  -9.189   4.383  1.00  0.00    -0.298 OA
BRANCH  12  13
HETATM   13  C13 UNL     1      14.077  -9.442   5.343  1.00  0.00     0.181 C 
BRANCH  13  14
HETATM   14  C14 UNL     1      13.800 -10.918   5.457  1.00  0.00     0.027 C 
BRANCH  14  15
HETATM   15  C15 UNL     1      15.169 -11.577   5.695  1.00  0.00     0.004 C 
BRANCH  15  16
HETATM   16  C16 UNL     1      14.969 -12.957   6.236  1.00  0.00     0.026 C 
BRANCH  16  17
HETATM   17  C17 UNL     1      16.073 -13.236   7.230  1.00  0.00     0.164 C 
BRANCH  17  18
HETATM   18  O5  UNL     1      16.154 -14.593   7.501  1.00  0.00    -0.401 OA
ATOM     19  H5  UNL     1      16.019 -14.759   8.426  1.00  0.00     0.209 HD
ENDBRANCH  17  18
ENDBRANCH  16  17
ENDBRANCH  15  16
ENDBRANCH  14  15
ENDBRANCH  13  14
ENDBRANCH  12  13
ENDBRANCH  10  12
ENDBRANCH   9  10
ENDBRANCH   8   9
ENDBRANCH   6   8
BRANCH   1  20
HETATM   20  C2  UNL     1      17.501  -7.361   0.099  1.00  0.00     0.055 C 
HETATM   21  C1  UNL     1      18.718  -6.572  -0.421  1.00  0.00     0.045 C 
HETATM   22  C3  UNL     1      17.261  -8.448  -0.882  1.00  0.00     0.045 C 
BRANCH  20  23
HETATM   23  O1  UNL     1      17.904  -7.837   1.345  1.00  0.00    -0.390 OA
ATOM     24  H1  UNL     1      18.847  -7.721   1.349  1.00  0.00     0.210 HD
ENDBRANCH  20  23
ENDBRANCH   1  20
TORSDOF 12
ENDMDL
MODEL 5
REMARK VINA RESULT: -5.686561649      1.970      3.363
REMARK  12 active torsions:
REMARK  status: ('A' for Active; 'I' for Inactive)
REMARK    1  A    between atoms: C2_2  and  O1_4 
REMARK    2  A    between atoms: C2_2  and  C4_6 
REMARK    3  A    between atoms: C9_11  and  C11_13 
REMARK    4  A    between atoms: C11_13  and  O2_14 
REMARK    5  A    between atoms: O2_14  and  C12_15 
REMARK    6  A    between atoms: C12_15  and  O4_17 
REMARK    7  A    between atoms: O4_17  and  C13_18 
REMARK    8  A    between atoms: C13_18  and  C14_19 
REMARK    9  A    between atoms: C14_19  and  C15_20 
REMARK   10  A    between atoms: C15_20  and  C16_21 
REMARK   11  A    between atoms: C16_21  and  C17_22 
REMARK   12  A    between atoms: C17_22  and  O5_23 
ROOT
HETATM    1  C4  UNL     1      14.926  -5.454  -0.024  1.00  0.00     0.029 C 
HETATM    2  C5  UNL     1      15.871  -5.071  -1.154  1.00  0.00     0.008 C 
HETATM    3  C6  UNL     1      15.942  -6.236  -2.090  1.00  0.00     0.001 C 
HETATM    4  C7  UNL     1      15.084  -7.400  -1.699  1.00  0.00     0.001 C 
HETATM    5  C8  UNL     1      15.274  -7.838  -0.270  1.00  0.00     0.012 C 
HETATM    6  C9  UNL     1      15.514  -6.632   0.654  1.00  0.00    -0.015 C 
HETATM    7  C10 UNL     1      17.008  -6.560   0.841  1.00  0.00     0.018 C 
ENDROOT
BRANCH   6   8
HETATM    8  C11 UNL     1      14.913  -6.993   1.984  1.00  0.00     0.190 C 
BRANCH   8   9
HETATM    9  O2  UNL     1      16.016  -7.076   2.903  1.00  0.00    -0.297 OA
BRANCH   9  10
HETATM   10  C12 UNL     1      16.000  -7.961   3.971  1.00  0.00     0.406 C 
HETATM   11  O3  UNL     1      16.271  -7.525   5.089  1.00  0.00    -0.230 OA
BRANCH  10  12
HETATM   12  O4  UNL     1      15.691  -9.287   3.781  1.00  0.00    -0.298 OA
BRANCH  12  13
HETATM   13  C13 UNL     1      14.458  -9.856   4.044  1.00  0.00     0.181 C 
BRANCH  13  14
HETATM   14  C14 UNL     1      14.460 -10.561   5.375  1.00  0.00     0.027 C 
BRANCH  14  15
HETATM   15  C15 UNL     1      15.298 -11.833   5.166  1.00  0.00     0.004 C 
BRANCH  15  16
HETATM   16  C16 UNL     1      15.518 -12.505   6.484  1.00  0.00     0.026 C 
BRANCH  16  17
HETATM   17  C17 UNL     1      15.761 -13.974   6.227  1.00  0.00     0.164 C 
BRANCH  17  18
HETATM   18  O5  UNL     1      16.196 -14.606   7.382  1.00  0.00    -0.401 OA
ATOM     19  H5  UNL     1      15.537 -15.213   7.700  1.00  0.00     0.209 HD
ENDBRANCH  17  18
ENDBRANCH  16  17
ENDBRANCH  15  16
ENDBRANCH  14  15
ENDBRANCH  13  14
ENDBRANCH  12  13
ENDBRANCH  10  12
ENDBRANCH   9  10
ENDBRANCH   8   9
ENDBRANCH   6   8
BRANCH   1  20
HETATM   20  C2  UNL     1      14.546  -4.300   0.817  1.00  0.00     0.055 C 
HETATM   21  C1  UNL     1      13.008  -4.310   0.905  1.00  0.00     0.045 C 
HETATM   22  C3  UNL     1      14.923  -2.961   0.298  1.00  0.00     0.045 C 
BRANCH  20  23
HETATM   23  O1  UNL     1      14.969  -4.509   2.127  1.00  0.00    -0.390 OA
ATOM     24  H1  UNL     1      15.590  -5.226   2.064  1.00  0.00     0.210 HD
ENDBRANCH  20  23
ENDBRANCH   1  20
TORSDOF 12
ENDMDL
