MODEL 1
REMARK VINA RESULT: -6.384325687      0.000      0.000
REMARK  7 active torsions:
REMARK  status: ('A' for Active; 'I' for Inactive)
REMARK    1  A    between atoms: N1_2  and  C2_3 
REMARK    2  A    between atoms: N1_2  and  C10_13 
REMARK    3  A    between atoms: C5_6  and  C6_7 
REMARK    4  A    between atoms: C6_7  and  C7_8 
REMARK    5  A    between atoms: C7_8  and  O1_9 
REMARK    6  A    between atoms: C13_17  and  C14_18 
REMARK    7  A    between atoms: C16_22  and  O3_23 
ROOT
HETATM    1  C10 UNL     1      16.174  -6.975   0.643  1.00  0.00     0.257 C 
HETATM    2  C11 UNL     1      14.943  -6.110   0.304  1.00  0.00     0.204 C 
HETATM    3  O2  UNL     1      14.032  -7.009  -0.216  1.00  0.00    -0.388 OA
HETATM    4  C12 UNL     1      13.968  -7.922   0.864  1.00  0.00     0.179 C 
HETATM    5  C13 UNL     1      15.457  -8.178   1.185  1.00  0.00     0.079 C 
ENDROOT
BRANCH   1   6
HETATM    6  N1  UNL     1      16.921  -7.216  -0.578  1.00  0.00     0.096 N 
HETATM    7  C1  UNL     1      16.940  -5.889  -1.276  1.00  0.00     0.310 C 
BRANCH   6   8
HETATM    8  C2  UNL     1      18.301  -7.517  -0.425  1.00  0.00     0.223 C 
HETATM    9  C3  UNL     1      18.897  -6.720   0.715  1.00  0.00     0.036 C 
HETATM   10  C4  UNL     1      19.982  -5.752   0.247  1.00  0.00     0.007 C 
HETATM   11  C5  UNL     1      21.107  -6.419  -0.456  1.00  0.00    -0.012 C 
HETATM   12  C8  UNL     1      20.625  -7.728  -1.023  1.00  0.00     0.007 C 
HETATM   13  C9  UNL     1      19.209  -7.414  -1.578  1.00  0.00     0.036 C 
BRANCH  11  14
HETATM   14  C6  UNL     1      22.383  -6.500   0.276  1.00  0.00     0.030 C 
BRANCH  14  15
HETATM   15  C7  UNL     1      22.935  -5.289   0.906  1.00  0.00     0.164 C 
BRANCH  15  16
HETATM   16  O1  UNL     1      24.105  -4.846   0.322  1.00  0.00    -0.401 OA
ATOM     17  H1  UNL     1      24.200  -3.901   0.329  1.00  0.00     0.209 HD
ENDBRANCH  15  16
ENDBRANCH  14  15
ENDBRANCH  11  14
ENDBRANCH   6   8
ENDBRANCH   1   6
BRANCH   5  18
HETATM   18  C14 UNL     1      15.490  -8.298   2.666  1.00  0.00    -0.030 A 
HETATM   19  C15 UNL     1      14.863  -9.215   3.457  1.00  0.00     0.098 A 
HETATM   20  N2  UNL     1      15.143  -8.995   4.766  1.00  0.00    -0.346 N 
HETATM   21  C16 UNL     1      15.953  -7.927   4.800  1.00  0.00     0.140 A 
ATOM     22  H2  UNL     1      14.805  -9.534   5.564  1.00  0.00     0.167 HD
HETATM   23  C17 UNL     1      16.198  -7.460   3.537  1.00  0.00     0.065 A 
BRANCH  21  24
HETATM   24  O3  UNL     1      16.514  -7.314   5.930  1.00  0.00    -0.346 OA
ATOM     25  H3  UNL     1      17.433  -7.261   6.165  1.00  0.00     0.219 HD
ENDBRANCH  21  24
ENDBRANCH   5  18
TORSDOF 7
ENDMDL
MODEL 2
REMARK VINA RESULT: -6.349266992      5.459      8.658
REMARK  7 active torsions:
REMARK  status: ('A' for Active; 'I' for Inactive)
REMARK    1  A    between atoms: N1_2  and  C2_3 
REMARK    2  A    between atoms: N1_2  and  C10_13 
REMARK    3  A    between atoms: C5_6  and  C6_7 
REMARK    4  A    between atoms: C6_7  and  C7_8 
REMARK    5  A    between atoms: C7_8  and  O1_9 
REMARK    6  A    between atoms: C13_17  and  C14_18 
REMARK    7  A    between atoms: C16_22  and  O3_23 
ROOT
HETATM    1  C10 UNL     1      14.683 -13.447   6.041  1.00  0.00     0.257 C 
HETATM    2  C11 UNL     1      15.680 -14.623   6.020  1.00  0.00     0.204 C 
HETATM    3  O2  UNL     1      16.365 -14.506   7.213  1.00  0.00    -0.388 OA
HETATM    4  C12 UNL     1      15.270 -14.535   8.110  1.00  0.00     0.179 C 
HETATM    5  C13 UNL     1      14.291 -13.514   7.489  1.00  0.00     0.079 C 
ENDROOT
BRANCH   1   6
HETATM    6  N1  UNL     1      15.387 -12.236   5.661  1.00  0.00     0.096 N 
HETATM    7  C1  UNL     1      16.448 -12.701   4.708  1.00  0.00     0.310 C 
BRANCH   6   8
HETATM    8  C2  UNL     1      14.654 -11.295   4.889  1.00  0.00     0.223 C 
HETATM    9  C3  UNL     1      15.460 -10.846   3.688  1.00  0.00     0.036 C 
HETATM   10  C4  UNL     1      15.786  -9.355   3.728  1.00  0.00     0.007 C 
HETATM   11  C5  UNL     1      14.582  -8.487   3.796  1.00  0.00    -0.012 C 
HETATM   12  C8  UNL     1      13.441  -9.276   4.382  1.00  0.00     0.007 C 
HETATM   13  C9  UNL     1      14.086 -10.099   5.530  1.00  0.00     0.036 C 
BRANCH  11  14
HETATM   14  C6  UNL     1      14.244  -7.736   2.575  1.00  0.00     0.030 C 
BRANCH  14  15
HETATM   15  C7  UNL     1      15.285  -6.940   1.903  1.00  0.00     0.164 C 
BRANCH  15  16
HETATM   16  O1  UNL     1      15.829  -5.954   2.702  1.00  0.00    -0.401 OA
ATOM     17  H1  UNL     1      15.908  -5.113   2.268  1.00  0.00     0.209 HD
ENDBRANCH  15  16
ENDBRANCH  14  15
ENDBRANCH  11  14
ENDBRANCH   6   8
ENDBRANCH   1   6
BRANCH   5  18
HETATM   18  C14 UNL     1      12.950 -14.105   7.737  1.00  0.00    -0.030 A 
HETATM   19  C15 UNL     1      12.536 -14.852   8.800  1.00  0.00     0.098 A 
HETATM   20  N2  UNL     1      11.234 -15.207   8.663  1.00  0.00    -0.346 N 
HETATM   21  C16 UNL     1      10.824 -14.679   7.500  1.00  0.00     0.140 A 
ATOM     22  H2  UNL     1      10.678 -15.764   9.313  1.00  0.00     0.167 HD
HETATM   23  C17 UNL     1      11.840 -13.993   6.891  1.00  0.00     0.065 A 
BRANCH  21  24
HETATM   24  O3  UNL     1       9.551 -14.772   6.920  1.00  0.00    -0.346 OA
ATOM     25  H3  UNL     1       9.237 -15.432   6.312  1.00  0.00     0.219 HD
ENDBRANCH  21  24
ENDBRANCH   5  18
TORSDOF 7
ENDMDL
MODEL 3
REMARK VINA RESULT: -6.095443423      4.749      7.039
REMARK  7 active torsions:
REMARK  status: ('A' for Active; 'I' for Inactive)
REMARK    1  A    between atoms: N1_2  and  C2_3 
REMARK    2  A    between atoms: N1_2  and  C10_13 
REMARK    3  A    between atoms: C5_6  and  C6_7 
REMARK    4  A    between atoms: C6_7  and  C7_8 
REMARK    5  A    between atoms: C7_8  and  O1_9 
REMARK    6  A    between atoms: C13_17  and  C14_18 
REMARK    7  A    between atoms: C16_22  and  O3_23 
ROOT
HETATM    1  C10 UNL     1      15.168  -9.329   4.540  1.00  0.00     0.257 C 
HETATM    2  C11 UNL     1      14.608  -8.767   5.862  1.00  0.00     0.204 C 
HETATM    3  O2  UNL     1      13.269  -9.108   5.834  1.00  0.00    -0.388 OA
HETATM    4  C12 UNL     1      13.392 -10.508   5.666  1.00  0.00     0.179 C 
HETATM    5  C13 UNL     1      14.412 -10.627   4.513  1.00  0.00     0.079 C 
ENDROOT
BRANCH   1   6
HETATM    6  N1  UNL     1      14.829  -8.411   3.467  1.00  0.00     0.096 N 
HETATM    7  C1  UNL     1      16.136  -8.124   2.792  1.00  0.00     0.310 C 
BRANCH   6   8
HETATM    8  C2  UNL     1      14.034  -8.937   2.414  1.00  0.00     0.223 C 
HETATM    9  C3  UNL     1      14.599  -8.537   1.067  1.00  0.00     0.036 C 
HETATM   10  C4  UNL     1      13.643  -7.652   0.271  1.00  0.00     0.007 C 
HETATM   11  C5  UNL     1      12.321  -8.283   0.021  1.00  0.00    -0.012 C 
HETATM   12  C8  UNL     1      12.070  -9.330   1.074  1.00  0.00     0.007 C 
HETATM   13  C9  UNL     1      12.584  -8.689   2.391  1.00  0.00     0.036 C 
BRANCH  11  14
HETATM   14  C6  UNL     1      12.055  -8.725  -1.359  1.00  0.00     0.030 C 
BRANCH  14  15
HETATM   15  C7  UNL     1      12.274 -10.134  -1.723  1.00  0.00     0.164 C 
BRANCH  15  16
HETATM   16  O1  UNL     1      13.603 -10.455  -1.920  1.00  0.00    -0.401 OA
ATOM     17  H1  UNL     1      14.023 -10.820  -1.150  1.00  0.00     0.209 HD
ENDBRANCH  15  16
ENDBRANCH  14  15
ENDBRANCH  11  14
ENDBRANCH   6   8
ENDBRANCH   1   6
BRANCH   5  18
HETATM   18  C14 UNL     1      15.226 -11.818   4.873  1.00  0.00    -0.030 A 
HETATM   19  C15 UNL     1      16.316 -12.326   4.230  1.00  0.00     0.098 A 
HETATM   20  N2  UNL     1      16.785 -13.426   4.871  1.00  0.00    -0.346 N 
HETATM   21  C16 UNL     1      15.982 -13.613   5.928  1.00  0.00     0.140 A 
ATOM     22  H2  UNL     1      17.588 -13.996   4.603  1.00  0.00     0.167 HD
HETATM   23  C17 UNL     1      15.007 -12.653   5.975  1.00  0.00     0.065 A 
BRANCH  21  24
HETATM   24  O3  UNL     1      16.061 -14.625   6.895  1.00  0.00    -0.346 OA
ATOM     25  H3  UNL     1      15.524 -15.406   6.962  1.00  0.00     0.219 HD
ENDBRANCH  21  24
ENDBRANCH   5  18
TORSDOF 7
ENDMDL
MODEL 4
REMARK VINA RESULT: -6.071129266      4.466      6.466
REMARK  7 active torsions:
REMARK  status: ('A' for Active; 'I' for Inactive)
REMARK    1  A    between atoms: N1_2  and  C2_3 
REMARK    2  A    between atoms: N1_2  and  C10_13 
REMARK    3  A    between atoms: C5_6  and  C6_7 
REMARK    4  A    between atoms: C6_7  and  C7_8 
REMARK    5  A    between atoms: C7_8  and  O1_9 
REMARK    6  A    between atoms: C13_17  and  C14_18 
REMARK    7  A    between atoms: C16_22  and  O3_23 
ROOT
HETATM    1  C10 UNL     1      20.644  -7.285  -2.451  1.00  0.00     0.257 C 
HETATM    2  C11 UNL     1      19.116  -7.462  -2.342  1.00  0.00     0.204 C 
HETATM    3  O2  UNL     1      18.963  -8.602  -1.577  1.00  0.00    -0.388 OA
HETATM    4  C12 UNL     1      19.704  -8.215  -0.435  1.00  0.00     0.179 C 
HETATM    5  C13 UNL     1      21.013  -7.668  -1.046  1.00  0.00     0.079 C 
ENDROOT
BRANCH   1   6
HETATM    6  N1  UNL     1      21.143  -8.188  -3.473  1.00  0.00     0.096 N 
HETATM    7  C1  UNL     1      19.976  -8.399  -4.390  1.00  0.00     0.310 C 
BRANCH   6   8
HETATM    8  C2  UNL     1      22.142  -7.670  -4.340  1.00  0.00     0.223 C 
HETATM    9  C3  UNL     1      23.516  -7.825  -3.723  1.00  0.00     0.036 C 
HETATM   10  C4  UNL     1      24.189  -6.482  -3.453  1.00  0.00     0.007 C 
HETATM   11  C5  UNL     1      24.347  -5.642  -4.668  1.00  0.00    -0.012 C 
HETATM   12  C8  UNL     1      23.318  -6.055  -5.686  1.00  0.00     0.007 C 
HETATM   13  C9  UNL     1      22.027  -6.298  -4.860  1.00  0.00     0.036 C 
BRANCH  11  14
HETATM   14  C6  UNL     1      25.715  -5.504  -5.198  1.00  0.00     0.030 C 
BRANCH  14  15
HETATM   15  C7  UNL     1      26.165  -6.395  -6.280  1.00  0.00     0.164 C 
BRANCH  15  16
HETATM   16  O1  UNL     1      26.551  -7.646  -5.842  1.00  0.00    -0.401 OA
ATOM     17  H1  UNL     1      27.469  -7.699  -5.603  1.00  0.00     0.209 HD
ENDBRANCH  15  16
ENDBRANCH  14  15
ENDBRANCH  11  14
ENDBRANCH   6   8
ENDBRANCH   1   6
BRANCH   5  18
HETATM   18  C14 UNL     1      21.366  -6.519  -0.170  1.00  0.00    -0.030 A 
HETATM   19  C15 UNL     1      20.542  -5.765   0.612  1.00  0.00     0.098 A 
HETATM   20  N2  UNL     1      21.243  -4.806   1.268  1.00  0.00    -0.346 N 
HETATM   21  C16 UNL     1      22.521  -4.958   0.894  1.00  0.00     0.140 A 
ATOM     22  H2  UNL     1      20.872  -4.110   1.915  1.00  0.00     0.167 HD
HETATM   23  C17 UNL     1      22.652  -5.996   0.012  1.00  0.00     0.065 A 
BRANCH  21  24
HETATM   24  O3  UNL     1      23.629  -4.201   1.305  1.00  0.00    -0.346 OA
ATOM     25  H3  UNL     1      23.909  -3.357   0.971  1.00  0.00     0.219 HD
ENDBRANCH  21  24
ENDBRANCH   5  18
TORSDOF 7
ENDMDL
MODEL 5
REMARK VINA RESULT: -6.017291444      2.063      2.660
REMARK  7 active torsions:
REMARK  status: ('A' for Active; 'I' for Inactive)
REMARK    1  A    between atoms: N1_2  and  C2_3 
REMARK    2  A    between atoms: N1_2  and  C10_13 
REMARK    3  A    between atoms: C5_6  and  C6_7 
REMARK    4  A    between atoms: C6_7  and  C7_8 
REMARK    5  A    between atoms: C7_8  and  O1_9 
REMARK    6  A    between atoms: C13_17  and  C14_18 
REMARK    7  A    between atoms: C16_22  and  O3_23 
ROOT
HETATM    1  C10 UNL     1      17.680  -7.718  -1.485  1.00  0.00     0.257 C 
HETATM    2  C11 UNL     1      16.808  -7.557  -2.747  1.00  0.00     0.204 C 
HETATM    3  O2  UNL     1      16.189  -8.784  -2.888  1.00  0.00    -0.388 OA
HETATM    4  C12 UNL     1      15.571  -8.877  -1.619  1.00  0.00     0.179 C 
HETATM    5  C13 UNL     1      16.718  -8.514  -0.651  1.00  0.00     0.079 C 
ENDROOT
BRANCH   1   6
HETATM    6  N1  UNL     1      18.894  -8.427  -1.849  1.00  0.00     0.096 N 
HETATM    7  C1  UNL     1      19.202  -7.956  -3.239  1.00  0.00     0.310 C 
BRANCH   6   8
HETATM    8  C2  UNL     1      20.067  -8.082  -1.127  1.00  0.00     0.223 C 
HETATM    9  C3  UNL     1      19.711  -7.359   0.155  1.00  0.00     0.036 C 
HETATM   10  C4  UNL     1      20.239  -5.926   0.183  1.00  0.00     0.007 C 
HETATM   11  C5  UNL     1      21.713  -5.835   0.024  1.00  0.00    -0.012 C 
HETATM   12  C8  UNL     1      22.207  -7.066  -0.687  1.00  0.00     0.007 C 
HETATM   13  C9  UNL     1      21.147  -7.333  -1.789  1.00  0.00     0.036 C 
BRANCH  11  14
HETATM   14  C6  UNL     1      22.482  -5.469   1.226  1.00  0.00     0.030 C 
BRANCH  14  15
HETATM   15  C7  UNL     1      22.877  -4.066   1.434  1.00  0.00     0.164 C 
BRANCH  15  16
HETATM   16  O1  UNL     1      24.009  -3.700   0.733  1.00  0.00    -0.401 OA
ATOM     17  H1  UNL     1      24.573  -4.432   0.514  1.00  0.00     0.209 HD
ENDBRANCH  15  16
ENDBRANCH  14  15
ENDBRANCH  11  14
ENDBRANCH   6   8
ENDBRANCH   1   6
BRANCH   5  18
HETATM   18  C14 UNL     1      16.048  -7.736   0.425  1.00  0.00    -0.030 A 
HETATM   19  C15 UNL     1      15.157  -8.175   1.359  1.00  0.00     0.098 A 
HETATM   20  N2  UNL     1      14.772  -7.160   2.173  1.00  0.00    -0.346 N 
HETATM   21  C16 UNL     1      15.428  -6.071   1.747  1.00  0.00     0.140 A 
ATOM     22  H2  UNL     1      14.117  -7.215   2.953  1.00  0.00     0.167 HD
HETATM   23  C17 UNL     1      16.225  -6.370   0.675  1.00  0.00     0.065 A 
BRANCH  21  24
HETATM   24  O3  UNL     1      15.361  -4.772   2.271  1.00  0.00    -0.346 OA
ATOM     25  H3  UNL     1      15.023  -3.992   1.846  1.00  0.00     0.219 HD
ENDBRANCH  21  24
ENDBRANCH   5  18
TORSDOF 7
ENDMDL
