MODEL 1
REMARK VINA RESULT: -6.980816248      0.000      0.000
REMARK  7 active torsions:
REMARK  status: ('A' for Active; 'I' for Inactive)
REMARK    1  A    between atoms: C2_2  and  C3_3 
REMARK    2  A    between atoms: C3_3  and  O1_4 
REMARK    3  A    between atoms: C3_3  and  N1_6 
REMARK    4  A    between atoms: C7_10  and  N2_11 
REMARK    5  A    between atoms: C7_10  and  C8_15 
REMARK    6  A    between atoms: C9_16  and  C10_17 
REMARK    7  A    between atoms: N3_21  and  O2_22 
ROOT
HETATM    1  N1  UNL     1      -3.516 -35.336 -31.027  1.00  0.00    -0.355 N 
HETATM    2  C4  UNL     1      -3.275 -36.461 -30.090  1.00  0.00     0.152 C 
HETATM    3  C5  UNL     1      -4.537 -36.745 -29.386  1.00  0.00    -0.008 C 
HETATM    4  C6  UNL     1      -5.176 -35.719 -28.833  1.00  0.00     0.024 C 
HETATM    5  C7  UNL     1      -4.549 -34.382 -28.985  1.00  0.00     0.219 C 
HETATM    6  C15 UNL     1      -4.145 -34.175 -30.455  1.00  0.00     0.181 C 
ENDROOT
BRANCH   5   7
HETATM    7  N2  UNL     1      -3.363 -34.241 -28.191  1.00  0.00    -0.054 N 
ATOM      8  H23 UNL     1      -2.669 -34.947 -28.438  1.00  0.00     0.276 HD
ATOM      9  H22 UNL     1      -2.843 -33.403 -28.452  1.00  0.00     0.276 HD
ATOM     10  H21 UNL     1      -3.561 -34.254 -27.191  1.00  0.00     0.276 HD
ENDBRANCH   5   7
BRANCH   5  11
HETATM   11  C8  UNL     1      -5.496 -33.318 -28.600  1.00  0.00    -0.056 C 
HETATM   12  C9  UNL     1      -6.281 -32.466 -28.296  1.00  0.00    -0.062 C 
BRANCH  12  13
HETATM   13  C10 UNL     1      -7.246 -31.455 -27.928  1.00  0.00     0.035 A 
HETATM   14  C11 UNL     1      -6.874 -30.144 -27.697  1.00  0.00     0.023 A 
HETATM   15  C12 UNL     1      -7.815 -29.194 -27.347  1.00  0.00     0.021 A 
HETATM   16  C13 UNL     1      -9.137 -29.555 -27.226  1.00  0.00     0.122 A 
HETATM   17  N3  UNL     1      -9.508 -30.827 -27.448  1.00  0.00    -0.246 N 
HETATM   18  C14 UNL     1      -8.591 -31.751 -27.789  1.00  0.00     0.142 A 
BRANCH  17  19
HETATM   19  O2  UNL     1     -10.845 -31.120 -27.310  1.00  0.00    -0.284 OA
ATOM     20  H2  UNL     1     -11.147 -31.357 -26.440  1.00  0.00     0.245 HD
ENDBRANCH  17  19
ENDBRANCH  12  13
ENDBRANCH   5  11
BRANCH   1  21
HETATM   21  C3  UNL     1      -3.124 -35.488 -32.364  1.00  0.00     0.137 C 
BRANCH  21  22
HETATM   22  C2  UNL     1      -3.074 -36.611 -33.220  1.00  0.00     0.045 C 
HETATM   23  C1  UNL     1      -2.256 -36.842 -34.197  1.00  0.00     0.015 C 
ENDBRANCH  21  22
BRANCH  21  24
HETATM   24  O1  UNL     1      -2.726 -34.368 -32.932  1.00  0.00    -0.346 OA
ATOM     25  H1  UNL     1      -1.788 -34.323 -33.077  1.00  0.00     0.219 HD
ENDBRANCH  21  24
ENDBRANCH   1  21
TORSDOF 7
ENDMDL
MODEL 2
REMARK VINA RESULT: -5.672321670      2.363      7.694
REMARK  7 active torsions:
REMARK  status: ('A' for Active; 'I' for Inactive)
REMARK    1  A    between atoms: C2_2  and  C3_3 
REMARK    2  A    between atoms: C3_3  and  O1_4 
REMARK    3  A    between atoms: C3_3  and  N1_6 
REMARK    4  A    between atoms: C7_10  and  N2_11 
REMARK    5  A    between atoms: C7_10  and  C8_15 
REMARK    6  A    between atoms: C9_16  and  C10_17 
REMARK    7  A    between atoms: N3_21  and  O2_22 
ROOT
HETATM    1  N1  UNL     1      -5.169 -31.778 -27.130  1.00  0.00    -0.355 N 
HETATM    2  C4  UNL     1      -4.782 -32.553 -25.925  1.00  0.00     0.152 C 
HETATM    3  C5  UNL     1      -3.459 -33.149 -26.175  1.00  0.00    -0.008 C 
HETATM    4  C6  UNL     1      -3.289 -33.814 -27.312  1.00  0.00     0.024 C 
HETATM    5  C7  UNL     1      -4.458 -33.887 -28.224  1.00  0.00     0.219 C 
HETATM    6  C15 UNL     1      -5.066 -32.482 -28.381  1.00  0.00     0.181 C 
ENDROOT
BRANCH   5   7
HETATM    7  N2  UNL     1      -5.490 -34.747 -27.722  1.00  0.00    -0.054 N 
ATOM      8  H23 UNL     1      -5.425 -35.678 -28.132  1.00  0.00     0.276 HD
ATOM      9  H22 UNL     1      -5.325 -34.987 -26.744  1.00  0.00     0.276 HD
ATOM     10  H21 UNL     1      -6.422 -34.352 -27.851  1.00  0.00     0.276 HD
ENDBRANCH   5   7
BRANCH   5  11
HETATM   11  C8  UNL     1      -4.049 -34.377 -29.554  1.00  0.00    -0.056 C 
HETATM   12  C9  UNL     1      -3.706 -34.758 -30.637  1.00  0.00    -0.062 C 
BRANCH  12  13
HETATM   13  C10 UNL     1      -3.274 -35.201 -31.942  1.00  0.00     0.035 A 
HETATM   14  C11 UNL     1      -3.383 -36.522 -32.336  1.00  0.00     0.023 A 
HETATM   15  C12 UNL     1      -2.962 -36.922 -33.591  1.00  0.00     0.021 A 
HETATM   16  C13 UNL     1      -2.429 -35.998 -34.459  1.00  0.00     0.122 A 
HETATM   17  N3  UNL     1      -2.319 -34.712 -34.086  1.00  0.00    -0.246 N 
HETATM   18  C14 UNL     1      -2.729 -34.323 -32.864  1.00  0.00     0.142 A 
BRANCH  17  19
HETATM   19  O2  UNL     1      -1.777 -33.840 -35.001  1.00  0.00    -0.284 OA
ATOM     20  H2  UNL     1      -2.379 -33.261 -35.454  1.00  0.00     0.245 HD
ENDBRANCH  17  19
ENDBRANCH  12  13
ENDBRANCH   5  11
BRANCH   1  21
HETATM   21  C3  UNL     1      -5.593 -30.453 -26.963  1.00  0.00     0.137 C 
BRANCH  21  22
HETATM   22  C2  UNL     1      -6.869 -29.847 -27.016  1.00  0.00     0.045 C 
HETATM   23  C1  UNL     1      -7.737 -29.886 -27.975  1.00  0.00     0.015 C 
ENDBRANCH  21  22
BRANCH  21  24
HETATM   24  O1  UNL     1      -4.614 -29.609 -26.707  1.00  0.00    -0.346 OA
ATOM     25  H1  UNL     1      -4.224 -29.723 -25.847  1.00  0.00     0.219 HD
ENDBRANCH  21  24
ENDBRANCH   1  21
TORSDOF 7
ENDMDL
MODEL 3
REMARK VINA RESULT: -5.475269687      2.064      7.747
REMARK  7 active torsions:
REMARK  status: ('A' for Active; 'I' for Inactive)
REMARK    1  A    between atoms: C2_2  and  C3_3 
REMARK    2  A    between atoms: C3_3  and  O1_4 
REMARK    3  A    between atoms: C3_3  and  N1_6 
REMARK    4  A    between atoms: C7_10  and  N2_11 
REMARK    5  A    between atoms: C7_10  and  C8_15 
REMARK    6  A    between atoms: C9_16  and  C10_17 
REMARK    7  A    between atoms: N3_21  and  O2_22 
ROOT
HETATM    1  N1  UNL     1      -5.600 -32.741 -27.198  1.00  0.00    -0.355 N 
HETATM    2  C4  UNL     1      -4.777 -33.192 -26.049  1.00  0.00     0.152 C 
HETATM    3  C5  UNL     1      -3.364 -33.166 -26.463  1.00  0.00    -0.008 C 
HETATM    4  C6  UNL     1      -3.049 -33.760 -27.609  1.00  0.00     0.024 C 
HETATM    5  C7  UNL     1      -4.161 -34.393 -28.361  1.00  0.00     0.219 C 
HETATM    6  C15 UNL     1      -5.339 -33.407 -28.448  1.00  0.00     0.181 C 
ENDROOT
BRANCH   5   7
HETATM    7  N2  UNL     1      -4.644 -35.583 -27.725  1.00  0.00    -0.054 N 
ATOM      8  H23 UNL     1      -4.275 -35.670 -26.777  1.00  0.00     0.276 HD
ATOM      9  H22 UNL     1      -5.638 -35.505 -27.506  1.00  0.00     0.276 HD
ATOM     10  H21 UNL     1      -4.453 -36.422 -28.272  1.00  0.00     0.276 HD
ENDBRANCH   5   7
BRANCH   5  11
HETATM   11  C8  UNL     1      -3.731 -34.738 -29.730  1.00  0.00    -0.056 C 
HETATM   12  C9  UNL     1      -3.394 -35.003 -30.849  1.00  0.00    -0.062 C 
BRANCH  12  13
HETATM   13  C10 UNL     1      -2.995 -35.300 -32.205  1.00  0.00     0.035 A 
HETATM   14  C11 UNL     1      -2.948 -36.597 -32.682  1.00  0.00     0.023 A 
HETATM   15  C12 UNL     1      -2.563 -36.856 -33.985  1.00  0.00     0.021 A 
HETATM   16  C13 UNL     1      -2.222 -35.815 -34.816  1.00  0.00     0.122 A 
HETATM   17  N3  UNL     1      -2.265 -34.551 -34.361  1.00  0.00    -0.246 N 
HETATM   18  C14 UNL     1      -2.640 -34.299 -33.093  1.00  0.00     0.142 A 
BRANCH  17  19
HETATM   19  O2  UNL     1      -1.911 -33.557 -35.244  1.00  0.00    -0.284 OA
ATOM     20  H2  UNL     1      -1.326 -32.882 -34.921  1.00  0.00     0.245 HD
ENDBRANCH  17  19
ENDBRANCH  12  13
ENDBRANCH   5  11
BRANCH   1  21
HETATM   21  C3  UNL     1      -6.542 -31.725 -26.986  1.00  0.00     0.137 C 
BRANCH  21  22
HETATM   22  C2  UNL     1      -6.439 -30.316 -26.990  1.00  0.00     0.045 C 
HETATM   23  C1  UNL     1      -5.453 -29.581 -26.584  1.00  0.00     0.015 C 
ENDBRANCH  21  22
BRANCH  21  24
HETATM   24  O1  UNL     1      -7.756 -32.170 -26.735  1.00  0.00    -0.346 OA
ATOM     25  H1  UNL     1      -8.131 -31.828 -25.931  1.00  0.00     0.219 HD
ENDBRANCH  21  24
ENDBRANCH   1  21
TORSDOF 7
ENDMDL
MODEL 4
REMARK VINA RESULT: -5.372468503      2.120      7.816
REMARK  7 active torsions:
REMARK  status: ('A' for Active; 'I' for Inactive)
REMARK    1  A    between atoms: C2_2  and  C3_3 
REMARK    2  A    between atoms: C3_3  and  O1_4 
REMARK    3  A    between atoms: C3_3  and  N1_6 
REMARK    4  A    between atoms: C7_10  and  N2_11 
REMARK    5  A    between atoms: C7_10  and  C8_15 
REMARK    6  A    between atoms: C9_16  and  C10_17 
REMARK    7  A    between atoms: N3_21  and  O2_22 
ROOT
HETATM    1  N1  UNL     1      -5.841 -33.058 -27.544  1.00  0.00    -0.355 N 
HETATM    2  C4  UNL     1      -5.088 -33.566 -26.371  1.00  0.00     0.152 C 
HETATM    3  C5  UNL     1      -3.651 -33.476 -26.679  1.00  0.00    -0.008 C 
HETATM    4  C6  UNL     1      -3.238 -33.981 -27.837  1.00  0.00     0.024 C 
HETATM    5  C7  UNL     1      -4.276 -34.588 -28.708  1.00  0.00     0.219 C 
HETATM    6  C15 UNL     1      -5.474 -33.628 -28.813  1.00  0.00     0.181 C 
ENDROOT
BRANCH   5   7
HETATM    7  N2  UNL     1      -4.767 -35.831 -28.189  1.00  0.00    -0.054 N 
ATOM      8  H23 UNL     1      -4.803 -36.545 -28.917  1.00  0.00     0.276 HD
ATOM      9  H22 UNL     1      -4.084 -36.266 -27.568  1.00  0.00     0.276 HD
ATOM     10  H21 UNL     1      -5.671 -35.730 -27.728  1.00  0.00     0.276 HD
ENDBRANCH   5   7
BRANCH   5  11
HETATM   11  C8  UNL     1      -3.741 -34.826 -30.062  1.00  0.00    -0.056 C 
HETATM   12  C9  UNL     1      -3.326 -35.024 -31.169  1.00  0.00    -0.062 C 
BRANCH  12  13
HETATM   13  C10 UNL     1      -2.848 -35.258 -32.512  1.00  0.00     0.035 A 
HETATM   14  C11 UNL     1      -2.681 -34.226 -33.415  1.00  0.00     0.023 A 
HETATM   15  C12 UNL     1      -2.222 -34.475 -34.696  1.00  0.00     0.021 A 
HETATM   16  C13 UNL     1      -1.926 -35.763 -35.077  1.00  0.00     0.122 A 
HETATM   17  N3  UNL     1      -2.084 -36.773 -34.205  1.00  0.00    -0.246 N 
HETATM   18  C14 UNL     1      -2.532 -36.530 -32.959  1.00  0.00     0.142 A 
BRANCH  17  19
HETATM   19  O2  UNL     1      -1.771 -38.037 -34.650  1.00  0.00    -0.284 OA
ATOM     20  H2  UNL     1      -1.732 -38.726 -33.997  1.00  0.00     0.245 HD
ENDBRANCH  17  19
ENDBRANCH  12  13
ENDBRANCH   5  11
BRANCH   1  21
HETATM   21  C3  UNL     1      -6.826 -32.083 -27.332  1.00  0.00     0.137 C 
BRANCH  21  22
HETATM   22  C2  UNL     1      -6.753 -30.693 -27.088  1.00  0.00     0.045 C 
HETATM   23  C1  UNL     1      -5.707 -29.978 -26.820  1.00  0.00     0.015 C 
ENDBRANCH  21  22
BRANCH  21  24
HETATM   24  O1  UNL     1      -8.056 -32.552 -27.368  1.00  0.00    -0.346 OA
ATOM     25  H1  UNL     1      -8.217 -33.154 -28.085  1.00  0.00     0.219 HD
ENDBRANCH  21  24
ENDBRANCH   1  21
TORSDOF 7
ENDMDL
MODEL 5
REMARK VINA RESULT: -5.346340812      1.763      7.852
REMARK  7 active torsions:
REMARK  status: ('A' for Active; 'I' for Inactive)
REMARK    1  A    between atoms: C2_2  and  C3_3 
REMARK    2  A    between atoms: C3_3  and  O1_4 
REMARK    3  A    between atoms: C3_3  and  N1_6 
REMARK    4  A    between atoms: C7_10  and  N2_11 
REMARK    5  A    between atoms: C7_10  and  C8_15 
REMARK    6  A    between atoms: C9_16  and  C10_17 
REMARK    7  A    between atoms: N3_21  and  O2_22 
ROOT
HETATM    1  N1  UNL     1      -7.046 -30.289 -27.107  1.00  0.00    -0.355 N 
HETATM    2  C4  UNL     1      -6.019 -29.640 -26.255  1.00  0.00     0.152 C 
HETATM    3  C5  UNL     1      -4.785 -29.511 -27.049  1.00  0.00    -0.008 C 
HETATM    4  C6  UNL     1      -4.346 -30.595 -27.681  1.00  0.00     0.024 C 
HETATM    5  C7  UNL     1      -5.150 -31.832 -27.524  1.00  0.00     0.219 C 
HETATM    6  C15 UNL     1      -6.635 -31.504 -27.759  1.00  0.00     0.181 C 
ENDROOT
BRANCH   5   7
HETATM    7  N2  UNL     1      -5.038 -32.393 -26.209  1.00  0.00    -0.054 N 
ATOM      8  H23 UNL     1      -4.506 -31.780 -25.591  1.00  0.00     0.276 HD
ATOM      9  H22 UNL     1      -5.936 -32.374 -25.723  1.00  0.00     0.276 HD
ATOM     10  H21 UNL     1      -4.647 -33.334 -26.219  1.00  0.00     0.276 HD
ENDBRANCH   5   7
BRANCH   5  11
HETATM   11  C8  UNL     1      -4.730 -32.852 -28.503  1.00  0.00    -0.056 C 
HETATM   12  C9  UNL     1      -4.398 -33.670 -29.313  1.00  0.00    -0.062 C 
BRANCH  12  13
HETATM   13  C10 UNL     1      -4.001 -34.640 -30.308  1.00  0.00     0.035 A 
HETATM   14  C11 UNL     1      -4.199 -35.995 -30.123  1.00  0.00     0.023 A 
HETATM   15  C12 UNL     1      -3.810 -36.904 -31.090  1.00  0.00     0.021 A 
HETATM   16  C13 UNL     1      -3.220 -36.457 -32.250  1.00  0.00     0.122 A 
HETATM   17  N3  UNL     1      -3.024 -35.141 -32.438  1.00  0.00    -0.246 N 
HETATM   18  C14 UNL     1      -3.402 -34.257 -31.496  1.00  0.00     0.142 A 
BRANCH  17  19
HETATM   19  O2  UNL     1      -2.429 -34.762 -33.619  1.00  0.00    -0.284 OA
ATOM     20  H2  UNL     1      -2.880 -34.106 -34.138  1.00  0.00     0.245 HD
ENDBRANCH  17  19
ENDBRANCH  12  13
ENDBRANCH   5  11
BRANCH   1  21
HETATM   21  C3  UNL     1      -8.305 -29.682 -27.212  1.00  0.00     0.137 C 
BRANCH  21  22
HETATM   22  C2  UNL     1      -9.499 -30.073 -27.858  1.00  0.00     0.045 C 
HETATM   23  C1  UNL     1     -10.346 -30.984 -27.501  1.00  0.00     0.015 C 
ENDBRANCH  21  22
BRANCH  21  24
HETATM   24  O1  UNL     1      -8.392 -28.525 -26.588  1.00  0.00    -0.346 OA
ATOM     25  H1  UNL     1      -7.558 -28.083 -26.481  1.00  0.00     0.219 HD
ENDBRANCH  21  24
ENDBRANCH   1  21
TORSDOF 7
ENDMDL
