MODEL 1
REMARK VINA RESULT: -6.676019577      0.000      0.000
REMARK  5 active torsions:
REMARK  status: ('A' for Active; 'I' for Inactive)
REMARK    1  A    between atoms: C3_3  and  O1_4 
REMARK    2  A    between atoms: C6_9  and  O3_10 
REMARK    3  A    between atoms: O3_10  and  C7_11 
REMARK    4  A    between atoms: C7_11  and  C8_13 
REMARK    5  A    between atoms: C14_21  and  C15_22 
ROOT
HETATM    1  C1  UNL     1      16.914  81.600  -1.540  1.00  0.00     0.020 C 
HETATM    2  C2  UNL     1      18.044  81.114  -1.071  1.00  0.00    -0.029 C 
HETATM    3  C3  UNL     1      19.276  81.403  -1.855  1.00  0.00     0.151 C 
HETATM    4  C4  UNL     1      20.012  82.496  -1.193  1.00  0.00     0.071 C 
HETATM    5  C5  UNL     1      19.914  82.644   0.255  1.00  0.00     0.166 C 
HETATM    6  O2  UNL     1      18.668  83.189   0.654  1.00  0.00    -0.349 OA
HETATM    7  C6  UNL     1      18.735  82.502   1.859  1.00  0.00     0.307 C 
HETATM    8  C12 UNL     1      19.727  81.559   1.163  1.00  0.00     0.134 C 
HETATM    9  C13 UNL     1      20.920  81.369   2.118  1.00  0.00     0.054 C 
HETATM   10  O5  UNL     1      19.227  80.374   0.836  1.00  0.00    -0.359 OA
HETATM   11  C14 UNL     1      18.017  80.320   0.188  1.00  0.00     0.176 C 
ENDROOT
BRANCH   7  12
HETATM   12  O3  UNL     1      19.268  83.214   2.940  1.00  0.00    -0.282 OA
BRANCH  12  13
HETATM   13  C7  UNL     1      19.007  82.974   4.255  1.00  0.00     0.302 C 
HETATM   14  O4  UNL     1      18.369  81.940   4.566  1.00  0.00    -0.259 OA
BRANCH  13  15
HETATM   15  C8  UNL     1      19.461  83.902   5.311  1.00  0.00     0.080 A 
HETATM   16  C9  UNL     1      20.266  84.997   5.171  1.00  0.00     0.025 A 
HETATM   17  C10 UNL     1      20.551  85.700   6.271  1.00  0.00     0.009 A 
HETATM   18  C11 UNL     1      20.012  85.266   7.455  1.00  0.00     0.050 A 
HETATM   19  S1  UNL     1      19.124  83.887   6.981  1.00  0.00    -0.096 SA
ENDBRANCH  13  15
ENDBRANCH  12  13
ENDBRANCH   7  12
BRANCH  11  20
HETATM   20  C15 UNL     1      17.784  78.901  -0.208  1.00  0.00     0.011 C 
HETATM   21  C16 UNL     1      16.936  78.113   0.429  1.00  0.00    -0.089 C 
HETATM   22  C17 UNL     1      16.754  76.709  -0.024  1.00  0.00     0.042 C 
HETATM   23  C18 UNL     1      16.154  78.585   1.584  1.00  0.00     0.042 C 
ENDBRANCH  11  20
BRANCH   3  24
HETATM   24  O1  UNL     1      20.114  80.263  -1.861  1.00  0.00    -0.391 OA
ATOM     25  H1  UNL     1      20.211  79.944  -2.751  1.00  0.00     0.210 HD
ENDBRANCH   3  24
TORSDOF 5
ENDMDL
MODEL 2
REMARK VINA RESULT: -6.652047452      2.349      4.764
REMARK  5 active torsions:
REMARK  status: ('A' for Active; 'I' for Inactive)
REMARK    1  A    between atoms: C3_3  and  O1_4 
REMARK    2  A    between atoms: C6_9  and  O3_10 
REMARK    3  A    between atoms: O3_10  and  C7_11 
REMARK    4  A    between atoms: C7_11  and  C8_13 
REMARK    5  A    between atoms: C14_21  and  C15_22 
ROOT
HETATM    1  C1  UNL     1      19.881  81.414  -4.072  1.00  0.00     0.020 C 
HETATM    2  C2  UNL     1      18.915  81.953  -3.356  1.00  0.00    -0.029 C 
HETATM    3  C3  UNL     1      17.559  81.355  -3.500  1.00  0.00     0.151 C 
HETATM    4  C4  UNL     1      17.302  80.483  -2.339  1.00  0.00     0.071 C 
HETATM    5  C5  UNL     1      17.919  80.804  -1.057  1.00  0.00     0.166 C 
HETATM    6  O2  UNL     1      19.301  80.491  -1.034  1.00  0.00    -0.349 OA
HETATM    7  C6  UNL     1      19.535  81.518  -0.129  1.00  0.00     0.307 C 
HETATM    8  C12 UNL     1      18.214  82.130  -0.617  1.00  0.00     0.134 C 
HETATM    9  C13 UNL     1      17.411  82.536   0.633  1.00  0.00     0.054 C 
HETATM   10  O5  UNL     1      18.354  83.180  -1.416  1.00  0.00    -0.359 OA
HETATM   11  C14 UNL     1      19.236  83.103  -2.467  1.00  0.00     0.176 C 
ENDROOT
BRANCH   7  12
HETATM   12  O3  UNL     1      19.543  81.150   1.223  1.00  0.00    -0.282 OA
BRANCH  12  13
HETATM   13  C7  UNL     1      20.410  81.611   2.166  1.00  0.00     0.302 C 
HETATM   14  O4  UNL     1      21.625  81.310   2.069  1.00  0.00    -0.259 OA
BRANCH  13  15
HETATM   15  C8  UNL     1      19.949  82.453   3.289  1.00  0.00     0.080 A 
HETATM   16  C9  UNL     1      19.013  82.144   4.235  1.00  0.00     0.025 A 
HETATM   17  C10 UNL     1      18.749  83.063   5.168  1.00  0.00     0.009 A 
HETATM   18  C11 UNL     1      19.441  84.246   5.102  1.00  0.00     0.050 A 
HETATM   19  S1  UNL     1      20.436  84.024   3.733  1.00  0.00    -0.096 SA
ENDBRANCH  13  15
ENDBRANCH  12  13
ENDBRANCH   7  12
BRANCH  11  20
HETATM   20  C15 UNL     1      19.065  84.336  -3.287  1.00  0.00     0.011 C 
HETATM   21  C16 UNL     1      20.083  85.092  -3.658  1.00  0.00    -0.089 C 
HETATM   22  C17 UNL     1      19.836  86.308  -4.478  1.00  0.00     0.042 C 
HETATM   23  C18 UNL     1      21.470  84.767  -3.285  1.00  0.00     0.042 C 
ENDBRANCH  11  20
BRANCH   3  24
HETATM   24  O1  UNL     1      16.585  82.381  -3.491  1.00  0.00    -0.391 OA
ATOM     25  H1  UNL     1      15.897  82.172  -4.112  1.00  0.00     0.210 HD
ENDBRANCH   3  24
TORSDOF 5
ENDMDL
MODEL 3
REMARK VINA RESULT: -6.506534991      1.836      2.415
REMARK  5 active torsions:
REMARK  status: ('A' for Active; 'I' for Inactive)
REMARK    1  A    between atoms: C3_3  and  O1_4 
REMARK    2  A    between atoms: C6_9  and  O3_10 
REMARK    3  A    between atoms: O3_10  and  C7_11 
REMARK    4  A    between atoms: C7_11  and  C8_13 
REMARK    5  A    between atoms: C14_21  and  C15_22 
ROOT
HETATM    1  C1  UNL     1      15.737  81.518  -2.958  1.00  0.00     0.020 C 
HETATM    2  C2  UNL     1      17.029  81.270  -2.887  1.00  0.00    -0.029 C 
HETATM    3  C3  UNL     1      17.921  82.110  -3.731  1.00  0.00     0.151 C 
HETATM    4  C4  UNL     1      18.545  83.140  -2.879  1.00  0.00     0.071 C 
HETATM    5  C5  UNL     1      18.794  82.845  -1.472  1.00  0.00     0.166 C 
HETATM    6  O2  UNL     1      17.606  82.872  -0.701  1.00  0.00    -0.349 OA
HETATM    7  C6  UNL     1      18.131  81.927   0.170  1.00  0.00     0.307 C 
HETATM    8  C12 UNL     1      19.092  81.544  -0.965  1.00  0.00     0.134 C 
HETATM    9  C13 UNL     1      20.502  81.452  -0.355  1.00  0.00     0.054 C 
HETATM   10  O5  UNL     1      18.796  80.405  -1.579  1.00  0.00    -0.359 OA
HETATM   11  C14 UNL     1      17.503  80.185  -1.984  1.00  0.00     0.176 C 
ENDROOT
BRANCH   7  12
HETATM   12  O3  UNL     1      18.755  82.433   1.317  1.00  0.00    -0.282 OA
BRANCH  12  13
HETATM   13  C7  UNL     1      18.647  81.918   2.573  1.00  0.00     0.302 C 
HETATM   14  O4  UNL     1      18.297  80.720   2.707  1.00  0.00    -0.259 OA
BRANCH  13  15
HETATM   15  C8  UNL     1      18.935  82.737   3.768  1.00  0.00     0.080 A 
HETATM   16  C9  UNL     1      18.594  82.472   5.065  1.00  0.00     0.025 A 
HETATM   17  C10 UNL     1      18.960  83.358   5.994  1.00  0.00     0.009 A 
HETATM   18  C11 UNL     1      19.651  84.466   5.573  1.00  0.00     0.050 A 
HETATM   19  S1  UNL     1      19.761  84.222   3.887  1.00  0.00    -0.096 SA
ENDBRANCH  13  15
ENDBRANCH  12  13
ENDBRANCH   7  12
BRANCH  11  20
HETATM   20  C15 UNL     1      17.493  78.928  -2.787  1.00  0.00     0.011 C 
HETATM   21  C16 UNL     1      17.193  77.752  -2.265  1.00  0.00    -0.089 C 
HETATM   22  C17 UNL     1      17.202  76.541  -3.128  1.00  0.00     0.042 C 
HETATM   23  C18 UNL     1      16.843  77.598  -0.843  1.00  0.00     0.042 C 
ENDBRANCH  11  20
BRANCH   3  24
HETATM   24  O1  UNL     1      18.959  81.311  -4.267  1.00  0.00    -0.391 OA
ATOM     25  H1  UNL     1      19.440  81.808  -4.917  1.00  0.00     0.210 HD
ENDBRANCH   3  24
TORSDOF 5
ENDMDL
MODEL 4
REMARK VINA RESULT: -6.467139943      1.287      1.851
REMARK  5 active torsions:
REMARK  status: ('A' for Active; 'I' for Inactive)
REMARK    1  A    between atoms: C3_3  and  O1_4 
REMARK    2  A    between atoms: C6_9  and  O3_10 
REMARK    3  A    between atoms: O3_10  and  C7_11 
REMARK    4  A    between atoms: C7_11  and  C8_13 
REMARK    5  A    between atoms: C14_21  and  C15_22 
ROOT
HETATM    1  C1  UNL     1      17.009  81.935  -1.341  1.00  0.00     0.020 C 
HETATM    2  C2  UNL     1      18.143  81.357  -1.006  1.00  0.00    -0.029 C 
HETATM    3  C3  UNL     1      19.310  81.599  -1.898  1.00  0.00     0.151 C 
HETATM    4  C4  UNL     1      20.179  82.614  -1.274  1.00  0.00     0.071 C 
HETATM    5  C5  UNL     1      20.233  82.707   0.181  1.00  0.00     0.166 C 
HETATM    6  O2  UNL     1      19.073  83.314   0.721  1.00  0.00    -0.349 OA
HETATM    7  C6  UNL     1      19.209  82.573   1.888  1.00  0.00     0.307 C 
HETATM    8  C12 UNL     1      20.063  81.598   1.063  1.00  0.00     0.134 C 
HETATM    9  C13 UNL     1      21.327  81.293   1.887  1.00  0.00     0.054 C 
HETATM   10  O5  UNL     1      19.453  80.463   0.746  1.00  0.00    -0.359 OA
HETATM   11  C14 UNL     1      18.185  80.514   0.221  1.00  0.00     0.176 C 
ENDROOT
BRANCH   7  12
HETATM   12  O3  UNL     1      19.892  83.204   2.936  1.00  0.00    -0.282 OA
BRANCH  12  13
HETATM   13  C7  UNL     1      19.328  83.671   4.084  1.00  0.00     0.302 C 
HETATM   14  O4  UNL     1      19.289  84.910   4.277  1.00  0.00    -0.259 OA
BRANCH  13  15
HETATM   15  C8  UNL     1      18.767  82.752   5.094  1.00  0.00     0.080 A 
HETATM   16  C9  UNL     1      18.236  81.509   4.890  1.00  0.00     0.025 A 
HETATM   17  C10 UNL     1      17.782  80.847   5.958  1.00  0.00     0.009 A 
HETATM   18  C11 UNL     1      17.886  81.468   7.177  1.00  0.00     0.050 A 
HETATM   19  S1  UNL     1      18.616  82.959   6.779  1.00  0.00    -0.096 SA
ENDBRANCH  13  15
ENDBRANCH  12  13
ENDBRANCH   7  12
BRANCH  11  20
HETATM   20  C15 UNL     1      17.818  79.131  -0.200  1.00  0.00     0.011 C 
HETATM   21  C16 UNL     1      17.022  78.356   0.515  1.00  0.00    -0.089 C 
HETATM   22  C17 UNL     1      16.699  76.988   0.031  1.00  0.00     0.042 C 
HETATM   23  C18 UNL     1      16.435  78.808   1.788  1.00  0.00     0.042 C 
ENDBRANCH  11  20
BRANCH   3  24
HETATM   24  O1  UNL     1      20.064  80.409  -2.028  1.00  0.00    -0.391 OA
ATOM     25  H1  UNL     1      20.856  80.586  -2.521  1.00  0.00     0.210 HD
ENDBRANCH   3  24
TORSDOF 5
ENDMDL
MODEL 5
REMARK VINA RESULT: -6.415709350      3.270      5.869
REMARK  5 active torsions:
REMARK  status: ('A' for Active; 'I' for Inactive)
REMARK    1  A    between atoms: C3_3  and  O1_4 
REMARK    2  A    between atoms: C6_9  and  O3_10 
REMARK    3  A    between atoms: O3_10  and  C7_11 
REMARK    4  A    between atoms: C7_11  and  C8_13 
REMARK    5  A    between atoms: C14_21  and  C15_22 
ROOT
HETATM    1  C1  UNL     1      23.906  79.914  -0.355  1.00  0.00     0.020 C 
HETATM    2  C2  UNL     1      23.627  80.976  -1.082  1.00  0.00    -0.029 C 
HETATM    3  C3  UNL     1      23.789  80.843  -2.556  1.00  0.00     0.151 C 
HETATM    4  C4  UNL     1      22.458  80.653  -3.162  1.00  0.00     0.071 C 
HETATM    5  C5  UNL     1      21.293  81.251  -2.521  1.00  0.00     0.166 C 
HETATM    6  O2  UNL     1      20.904  80.548  -1.354  1.00  0.00    -0.349 OA
HETATM    7  C6  UNL     1      20.410  81.719  -0.794  1.00  0.00     0.307 C 
HETATM    8  C12 UNL     1      21.322  82.468  -1.776  1.00  0.00     0.134 C 
HETATM    9  C13 UNL     1      20.477  83.582  -2.421  1.00  0.00     0.054 C 
HETATM   10  O5  UNL     1      22.409  82.996  -1.227  1.00  0.00    -0.359 OA
HETATM   11  C14 UNL     1      23.177  82.218  -0.395  1.00  0.00     0.176 C 
ENDROOT
BRANCH   7  12
HETATM   12  O3  UNL     1      19.040  81.952  -0.975  1.00  0.00    -0.282 OA
BRANCH  12  13
HETATM   13  C7  UNL     1      18.170  82.361  -0.011  1.00  0.00     0.302 C 
HETATM   14  O4  UNL     1      17.164  83.031  -0.349  1.00  0.00    -0.259 OA
BRANCH  13  15
HETATM   15  C8  UNL     1      18.387  82.030   1.412  1.00  0.00     0.080 A 
HETATM   16  C9  UNL     1      18.774  82.873   2.416  1.00  0.00     0.025 A 
HETATM   17  C10 UNL     1      18.910  82.356   3.640  1.00  0.00     0.009 A 
HETATM   18  C11 UNL     1      18.649  81.018   3.792  1.00  0.00     0.050 A 
HETATM   19  S1  UNL     1      18.224  80.535   2.211  1.00  0.00    -0.096 SA
ENDBRANCH  13  15
ENDBRANCH  12  13
ENDBRANCH   7  12
BRANCH  11  20
HETATM   20  C15 UNL     1      24.408  82.993  -0.067  1.00  0.00     0.011 C 
HETATM   21  C16 UNL     1      24.615  83.534   1.120  1.00  0.00    -0.089 C 
HETATM   22  C17 UNL     1      25.868  84.293   1.375  1.00  0.00     0.042 C 
HETATM   23  C18 UNL     1      23.635  83.408   2.213  1.00  0.00     0.042 C 
ENDBRANCH  11  20
BRANCH   3  24
HETATM   24  O1  UNL     1      24.335  82.037  -3.083  1.00  0.00    -0.391 OA
ATOM     25  H1  UNL     1      25.024  81.826  -3.702  1.00  0.00     0.210 HD
ENDBRANCH   3  24
TORSDOF 5
ENDMDL
