MODEL 1
REMARK VINA RESULT: -7.276134656      0.000      0.000
REMARK  5 active torsions:
REMARK  status: ('A' for Active; 'I' for Inactive)
REMARK    1  A    between atoms: C2_2  and  O1_3 
REMARK    2  A    between atoms: O1_3  and  C3_4 
REMARK    3  A    between atoms: C3_4  and  C4_6 
REMARK    4  A    between atoms: C4_6  and  S1_7 
REMARK    5  A    between atoms: S1_7  and  C5_8 
ROOT
HETATM    1  C5  UNL     1      18.944  82.595   3.177  1.00  0.00     0.115 A 
HETATM    2  N1  UNL     1      18.755  82.529   1.883  1.00  0.00    -0.344 N 
ATOM      3  H1  UNL     1      18.983  83.336   1.303  1.00  0.00     0.167 HD
HETATM    4  C6  UNL     1      18.277  81.447   1.321  1.00  0.00     0.080 A 
HETATM    5  C7  UNL     1      17.986  80.397   2.137  1.00  0.00     0.138 A 
HETATM    6  S2  UNL     1      18.428  81.031   3.679  1.00  0.00    -0.038 SA
HETATM    7  O3  UNL     1      17.463  79.108   1.906  1.00  0.00    -0.333 OA
HETATM    8  C8  UNL     1      17.615  78.315   0.747  1.00  0.00     0.279 C 
HETATM    9  C9  UNL     1      17.072  79.077  -0.403  1.00  0.00     0.242 C 
HETATM   10  O4  UNL     1      16.449  78.369  -1.232  1.00  0.00    -0.271 OA
HETATM   11  N2  UNL     1      17.182  80.471  -0.644  1.00  0.00    -0.344 N 
ATOM     12  H2  UNL     1      16.461  80.834  -1.267  1.00  0.00     0.163 HD
HETATM   13  C10 UNL     1      18.100  81.470  -0.189  1.00  0.00     0.079 C 
HETATM   14  C11 UNL     1      17.562  82.821  -0.642  1.00  0.00     0.038 C 
HETATM   15  C12 UNL     1      17.932  83.169  -2.054  1.00  0.00     0.003 C 
HETATM   16  C13 UNL     1      19.390  83.009  -2.367  1.00  0.00     0.000 C 
HETATM   17  C14 UNL     1      20.138  82.508  -1.135  1.00  0.00     0.003 C 
HETATM   18  C15 UNL     1      19.479  81.204  -0.761  1.00  0.00     0.038 C 
ENDROOT
BRANCH   1  19
HETATM   19  S1  UNL     1      19.482  84.015   4.128  1.00  0.00    -0.095 SA
BRANCH  19  20
HETATM   20  C4  UNL     1      19.155  83.746   5.857  1.00  0.00     0.192 C 
BRANCH  20  21
HETATM   21  C3  UNL     1      19.519  84.916   6.713  1.00  0.00     0.268 C 
HETATM   22  O2  UNL     1      18.679  85.225   7.601  1.00  0.00    -0.264 OA
BRANCH  21  23
HETATM   23  O1  UNL     1      20.653  85.665   6.610  1.00  0.00    -0.321 OA
BRANCH  23  24
HETATM   24  C2  UNL     1      21.946  85.264   7.034  1.00  0.00     0.174 C 
HETATM   25  C1  UNL     1      22.049  85.356   8.560  1.00  0.00     0.034 C 
ENDBRANCH  23  24
ENDBRANCH  21  23
ENDBRANCH  20  21
ENDBRANCH  19  20
ENDBRANCH   1  19
TORSDOF 5
ENDMDL
MODEL 2
REMARK VINA RESULT: -7.060013126      1.598      1.925
REMARK  5 active torsions:
REMARK  status: ('A' for Active; 'I' for Inactive)
REMARK    1  A    between atoms: C2_2  and  O1_3 
REMARK    2  A    between atoms: O1_3  and  C3_4 
REMARK    3  A    between atoms: C3_4  and  C4_6 
REMARK    4  A    between atoms: C4_6  and  S1_7 
REMARK    5  A    between atoms: S1_7  and  C5_8 
ROOT
HETATM    1  C5  UNL     1      18.939  82.529   3.302  1.00  0.00     0.115 A 
HETATM    2  N1  UNL     1      18.753  82.496   2.007  1.00  0.00    -0.344 N 
ATOM      3  H1  UNL     1      18.978  83.319   1.448  1.00  0.00     0.167 HD
HETATM    4  C6  UNL     1      18.284  81.426   1.415  1.00  0.00     0.080 A 
HETATM    5  C7  UNL     1      17.998  80.353   2.203  1.00  0.00     0.138 A 
HETATM    6  S2  UNL     1      18.431  80.949   3.762  1.00  0.00    -0.038 SA
HETATM    7  O3  UNL     1      17.484  79.067   1.936  1.00  0.00    -0.333 OA
HETATM    8  C8  UNL     1      17.645  78.306   0.757  1.00  0.00     0.279 C 
HETATM    9  C9  UNL     1      17.099  79.094  -0.374  1.00  0.00     0.242 C 
HETATM   10  O4  UNL     1      16.484  78.404  -1.223  1.00  0.00    -0.271 OA
HETATM   11  N2  UNL     1      17.201  80.495  -0.578  1.00  0.00    -0.344 N 
ATOM     12  H2  UNL     1      16.480  80.869  -1.193  1.00  0.00     0.163 HD
HETATM   13  C10 UNL     1      18.111  81.488  -0.095  1.00  0.00     0.079 C 
HETATM   14  C11 UNL     1      17.566  82.846  -0.513  1.00  0.00     0.038 C 
HETATM   15  C12 UNL     1      17.937  83.234  -1.915  1.00  0.00     0.003 C 
HETATM   16  C13 UNL     1      19.398  83.091  -2.227  1.00  0.00     0.000 C 
HETATM   17  C14 UNL     1      20.145  82.563  -1.006  1.00  0.00     0.003 C 
HETATM   18  C15 UNL     1      19.494  81.246  -0.669  1.00  0.00     0.038 C 
ENDROOT
BRANCH   1  19
HETATM   19  S1  UNL     1      19.464  83.926   4.292  1.00  0.00    -0.095 SA
BRANCH  19  20
HETATM   20  C4  UNL     1      21.037  84.525   3.713  1.00  0.00     0.192 C 
BRANCH  20  21
HETATM   21  C3  UNL     1      21.815  85.248   4.763  1.00  0.00     0.268 C 
HETATM   22  O2  UNL     1      21.225  85.408   5.866  1.00  0.00    -0.264 OA
BRANCH  21  23
HETATM   23  O1  UNL     1      23.078  85.744   4.630  1.00  0.00    -0.321 OA
BRANCH  23  24
HETATM   24  C2  UNL     1      24.270  84.975   4.632  1.00  0.00     0.174 C 
HETATM   25  C1  UNL     1      24.765  84.774   3.196  1.00  0.00     0.034 C 
ENDBRANCH  23  24
ENDBRANCH  21  23
ENDBRANCH  20  21
ENDBRANCH  19  20
ENDBRANCH   1  19
TORSDOF 5
ENDMDL
MODEL 3
REMARK VINA RESULT: -7.027105781      0.978      1.428
REMARK  5 active torsions:
REMARK  status: ('A' for Active; 'I' for Inactive)
REMARK    1  A    between atoms: C2_2  and  O1_3 
REMARK    2  A    between atoms: O1_3  and  C3_4 
REMARK    3  A    between atoms: C3_4  and  C4_6 
REMARK    4  A    between atoms: C4_6  and  S1_7 
REMARK    5  A    between atoms: S1_7  and  C5_8 
ROOT
HETATM    1  C5  UNL     1      19.017  82.661   2.673  1.00  0.00     0.115 A 
HETATM    2  N1  UNL     1      18.767  82.605   1.390  1.00  0.00    -0.344 N 
ATOM      3  H1  UNL     1      18.953  83.421   0.808  1.00  0.00     0.167 HD
HETATM    4  C6  UNL     1      18.284  81.519   0.840  1.00  0.00     0.080 A 
HETATM    5  C7  UNL     1      18.052  80.455   1.658  1.00  0.00     0.138 A 
HETATM    6  S2  UNL     1      18.555  81.083   3.184  1.00  0.00    -0.038 SA
HETATM    7  O3  UNL     1      17.543  79.159   1.438  1.00  0.00    -0.333 OA
HETATM    8  C8  UNL     1      17.656  78.380   0.265  1.00  0.00     0.279 C 
HETATM    9  C9  UNL     1      17.043  79.142  -0.849  1.00  0.00     0.242 C 
HETATM   10  O4  UNL     1      16.396  78.430  -1.656  1.00  0.00    -0.271 OA
HETATM   11  N2  UNL     1      17.115  80.540  -1.081  1.00  0.00    -0.344 N 
ATOM     12  H2  UNL     1      16.359  80.895  -1.665  1.00  0.00     0.163 HD
HETATM   13  C10 UNL     1      18.035  81.553  -0.660  1.00  0.00     0.079 C 
HETATM   14  C11 UNL     1      17.450  82.897  -1.072  1.00  0.00     0.038 C 
HETATM   15  C12 UNL     1      17.746  83.266  -2.497  1.00  0.00     0.003 C 
HETATM   16  C13 UNL     1      19.190  83.137  -2.880  1.00  0.00     0.000 C 
HETATM   17  C14 UNL     1      20.005  82.639  -1.690  1.00  0.00     0.003 C 
HETATM   18  C15 UNL     1      19.390  81.319  -1.300  1.00  0.00     0.038 C 
ENDROOT
BRANCH   1  19
HETATM   19  S1  UNL     1      19.572  84.082   3.613  1.00  0.00    -0.095 SA
BRANCH  19  20
HETATM   20  C4  UNL     1      19.441  83.747   5.356  1.00  0.00     0.192 C 
BRANCH  20  21
HETATM   21  C3  UNL     1      19.652  84.957   6.206  1.00  0.00     0.268 C 
HETATM   22  O2  UNL     1      20.670  85.648   5.929  1.00  0.00    -0.264 OA
BRANCH  21  23
HETATM   23  O1  UNL     1      18.860  85.364   7.238  1.00  0.00    -0.321 OA
BRANCH  23  24
HETATM   24  C2  UNL     1      18.860  84.809   8.544  1.00  0.00     0.174 C 
HETATM   25  C1  UNL     1      18.045  83.511   8.561  1.00  0.00     0.034 C 
ENDBRANCH  23  24
ENDBRANCH  21  23
ENDBRANCH  20  21
ENDBRANCH  19  20
ENDBRANCH   1  19
TORSDOF 5
ENDMDL
MODEL 4
REMARK VINA RESULT: -7.023392991      1.073      1.801
REMARK  5 active torsions:
REMARK  status: ('A' for Active; 'I' for Inactive)
REMARK    1  A    between atoms: C2_2  and  O1_3 
REMARK    2  A    between atoms: O1_3  and  C3_4 
REMARK    3  A    between atoms: C3_4  and  C4_6 
REMARK    4  A    between atoms: C4_6  and  S1_7 
REMARK    5  A    between atoms: S1_7  and  C5_8 
ROOT
HETATM    1  C5  UNL     1      19.310  82.827   3.032  1.00  0.00     0.115 A 
HETATM    2  N1  UNL     1      19.109  82.665   1.749  1.00  0.00    -0.344 N 
ATOM      3  H1  UNL     1      19.410  83.391   1.099  1.00  0.00     0.167 HD
HETATM    4  C6  UNL     1      18.527  81.588   1.284  1.00  0.00     0.080 A 
HETATM    5  C7  UNL     1      18.142  80.647   2.189  1.00  0.00     0.138 A 
HETATM    6  S2  UNL     1      18.650  81.371   3.670  1.00  0.00    -0.038 SA
HETATM    7  O3  UNL     1      17.498  79.398   2.072  1.00  0.00    -0.333 OA
HETATM    8  C8  UNL     1      17.568  78.494   0.989  1.00  0.00     0.279 C 
HETATM    9  C9  UNL     1      17.093  79.199  -0.226  1.00  0.00     0.242 C 
HETATM   10  O4  UNL     1      16.402  78.482  -0.991  1.00  0.00    -0.271 OA
HETATM   11  N2  UNL     1      17.334  80.549  -0.589  1.00  0.00    -0.344 N 
ATOM     12  H2  UNL     1      16.648  80.922  -1.245  1.00  0.00     0.163 HD
HETATM   13  C10 UNL     1      18.345  81.493  -0.223  1.00  0.00     0.079 C 
HETATM   14  C11 UNL     1      17.936  82.843  -0.796  1.00  0.00     0.038 C 
HETATM   15  C12 UNL     1      18.329  83.028  -2.233  1.00  0.00     0.003 C 
HETATM   16  C13 UNL     1      19.764  82.702  -2.525  1.00  0.00     0.000 C 
HETATM   17  C14 UNL     1      20.467  82.244  -1.251  1.00  0.00     0.003 C 
HETATM   18  C15 UNL     1      19.690  81.047  -0.765  1.00  0.00     0.038 C 
ENDROOT
BRANCH   1  19
HETATM   19  S1  UNL     1      19.985  84.269   3.855  1.00  0.00    -0.095 SA
BRANCH  19  20
HETATM   20  C4  UNL     1      19.178  84.506   5.423  1.00  0.00     0.192 C 
BRANCH  20  21
HETATM   21  C3  UNL     1      19.991  84.027   6.582  1.00  0.00     0.268 C 
HETATM   22  O2  UNL     1      21.159  84.495   6.659  1.00  0.00    -0.264 OA
BRANCH  21  23
HETATM   23  O1  UNL     1      19.587  83.141   7.535  1.00  0.00    -0.321 OA
BRANCH  23  24
HETATM   24  C2  UNL     1      18.240  82.844   7.866  1.00  0.00     0.174 C 
HETATM   25  C1  UNL     1      17.866  81.453   7.345  1.00  0.00     0.034 C 
ENDBRANCH  23  24
ENDBRANCH  21  23
ENDBRANCH  20  21
ENDBRANCH  19  20
ENDBRANCH   1  19
TORSDOF 5
ENDMDL
MODEL 5
REMARK VINA RESULT: -7.018925937      0.836      1.004
REMARK  5 active torsions:
REMARK  status: ('A' for Active; 'I' for Inactive)
REMARK    1  A    between atoms: C2_2  and  O1_3 
REMARK    2  A    between atoms: O1_3  and  C3_4 
REMARK    3  A    between atoms: C3_4  and  C4_6 
REMARK    4  A    between atoms: C4_6  and  S1_7 
REMARK    5  A    between atoms: S1_7  and  C5_8 
ROOT
HETATM    1  C5  UNL     1      18.866  82.269   3.177  1.00  0.00     0.115 A 
HETATM    2  N1  UNL     1      18.702  82.308   1.879  1.00  0.00    -0.344 N 
ATOM      3  H1  UNL     1      18.948  83.155   1.369  1.00  0.00     0.167 HD
HETATM    4  C6  UNL     1      18.229  81.277   1.224  1.00  0.00     0.080 A 
HETATM    5  C7  UNL     1      17.914  80.168   1.950  1.00  0.00     0.138 A 
HETATM    6  S2  UNL     1      18.328  80.675   3.545  1.00  0.00    -0.038 SA
HETATM    7  O3  UNL     1      17.387  78.906   1.607  1.00  0.00    -0.333 OA
HETATM    8  C8  UNL     1      17.558  78.205   0.392  1.00  0.00     0.279 C 
HETATM    9  C9  UNL     1      17.043  79.059  -0.704  1.00  0.00     0.242 C 
HETATM   10  O4  UNL     1      16.433  78.424  -1.599  1.00  0.00    -0.271 OA
HETATM   11  N2  UNL     1      17.168  80.467  -0.832  1.00  0.00    -0.344 N 
ATOM     12  H2  UNL     1      16.462  80.884  -1.439  1.00  0.00     0.163 HD
HETATM   13  C10 UNL     1      18.083  81.420  -0.283  1.00  0.00     0.079 C 
HETATM   14  C11 UNL     1      17.564  82.806  -0.638  1.00  0.00     0.038 C 
HETATM   15  C12 UNL     1      17.964  83.261  -2.011  1.00  0.00     0.003 C 
HETATM   16  C13 UNL     1      19.428  83.114  -2.306  1.00  0.00     0.000 C 
HETATM   17  C14 UNL     1      20.146  82.511  -1.103  1.00  0.00     0.003 C 
HETATM   18  C15 UNL     1      19.472  81.188  -0.846  1.00  0.00     0.038 C 
ENDROOT
BRANCH   1  19
HETATM   19  S1  UNL     1      19.393  83.606   4.248  1.00  0.00    -0.095 SA
BRANCH  19  20
HETATM   20  C4  UNL     1      18.911  83.265   5.927  1.00  0.00     0.192 C 
BRANCH  20  21
HETATM   21  C3  UNL     1      19.873  83.802   6.936  1.00  0.00     0.268 C 
HETATM   22  O2  UNL     1      19.767  83.327   8.099  1.00  0.00    -0.264 OA
BRANCH  21  23
HETATM   23  O1  UNL     1      20.828  84.748   6.712  1.00  0.00    -0.321 OA
BRANCH  23  24
HETATM   24  C2  UNL     1      20.698  86.133   6.992  1.00  0.00     0.174 C 
HETATM   25  C1  UNL     1      19.222  86.540   6.942  1.00  0.00     0.034 C 
ENDBRANCH  23  24
ENDBRANCH  21  23
ENDBRANCH  20  21
ENDBRANCH  19  20
ENDBRANCH   1  19
TORSDOF 5
ENDMDL
