MODEL 1
REMARK VINA RESULT: -5.366439248      0.000      0.000
REMARK  3 active torsions:
REMARK  status: ('A' for Active; 'I' for Inactive)
REMARK    1  A    between atoms: N1_2  and  C3_4 
REMARK    2  A    between atoms: C4_5  and  C5_6 
REMARK    3  A    between atoms: C7_14  and  C8_15 
ROOT
HETATM    1  C5  UNL     1      17.276  12.604  48.326  1.00  0.00     0.019 C 
HETATM    2  C6  UNL     1      17.799  11.443  48.179  1.00  0.00     0.024 C 
HETATM    3  S1  UNL     1      17.467  10.058  49.375  1.00  0.00     0.022 SA
HETATM    4  S2  UNL     1      19.457   9.310  49.153  1.00  0.00     0.289 S 
HETATM    5  O1  UNL     1      19.440   7.941  48.598  1.00  0.00    -0.194 OA
HETATM    6  O2  UNL     1      20.222   9.481  50.403  1.00  0.00    -0.194 OA
HETATM    7  N2  UNL     1      19.932  10.495  47.935  1.00  0.00    -0.296 N 
ATOM      8  H2  UNL     1      20.850  10.902  47.759  1.00  0.00     0.174 HD
HETATM    9  C7  UNL     1      18.703  10.732  47.265  1.00  0.00     0.177 C 
ENDROOT
BRANCH   1  10
HETATM   10  C4  UNL     1      17.486  13.729  47.456  1.00  0.00     0.018 C 
HETATM   11  C3  UNL     1      16.473  14.311  46.788  1.00  0.00     0.084 C 
BRANCH  11  12
HETATM   12  N1  UNL     1      16.674  15.422  45.927  1.00  0.00    -0.398 N 
HETATM   13  C1  UNL     1      16.662  16.766  46.460  1.00  0.00     0.148 C 
HETATM   14  C2  UNL     1      16.887  15.166  44.519  1.00  0.00     0.148 C 
ENDBRANCH  11  12
ENDBRANCH   1  10
BRANCH   9  15
HETATM   15  C8  UNL     1      18.770  11.202  45.871  1.00  0.00     0.049 A 
HETATM   16  S3  UNL     1      20.092  11.941  45.080  1.00  0.00    -0.101 SA
HETATM   17  C9  UNL     1      19.367  12.257  43.564  1.00  0.00     0.053 A 
HETATM   18  C10 UNL     1      18.098  11.768  43.732  1.00  0.00     0.050 A 
HETATM   19  C11 UNL     1      17.796  11.227  44.915  1.00  0.00     0.132 A 
HETATM   20  F1  UNL     1      16.547  10.700  45.200  1.00  0.00    -0.205 F 
ENDBRANCH   9  15
TORSDOF 3
ENDMDL
MODEL 2
REMARK VINA RESULT: -4.959100995      8.013      9.634
REMARK  3 active torsions:
REMARK  status: ('A' for Active; 'I' for Inactive)
REMARK    1  A    between atoms: N1_2  and  C3_4 
REMARK    2  A    between atoms: C4_5  and  C5_6 
REMARK    3  A    between atoms: C7_14  and  C8_15 
ROOT
HETATM    1  C5  UNL     1      27.704  12.988  46.326  1.00  0.00     0.019 C 
HETATM    2  C6  UNL     1      27.346  14.127  46.794  1.00  0.00     0.024 C 
HETATM    3  S1  UNL     1      28.280  15.687  46.401  1.00  0.00     0.022 SA
HETATM    4  S2  UNL     1      27.905  16.471  48.354  1.00  0.00     0.289 S 
HETATM    5  O1  UNL     1      27.116  17.717  48.273  1.00  0.00    -0.194 OA
HETATM    6  O2  UNL     1      29.158  16.561  49.130  1.00  0.00    -0.194 OA
HETATM    7  N2  UNL     1      26.914  15.111  48.881  1.00  0.00    -0.296 N 
ATOM      8  H2  UNL     1      26.804  14.720  49.816  1.00  0.00     0.174 HD
HETATM    9  C7  UNL     1      26.310  14.702  47.662  1.00  0.00     0.177 C 
ENDROOT
BRANCH   1  10
HETATM   10  C4  UNL     1      27.047  11.737  46.585  1.00  0.00     0.018 C 
HETATM   11  C3  UNL     1      26.309  11.113  45.648  1.00  0.00     0.084 C 
BRANCH  11  12
HETATM   12  N1  UNL     1      25.657   9.877  45.899  1.00  0.00    -0.398 N 
HETATM   13  C1  UNL     1      24.216   9.828  46.025  1.00  0.00     0.148 C 
HETATM   14  C2  UNL     1      26.470   8.687  46.024  1.00  0.00     0.148 C 
ENDBRANCH  11  12
ENDBRANCH   1  10
BRANCH   9  15
HETATM   15  C8  UNL     1      25.022  13.994  47.747  1.00  0.00     0.049 A 
HETATM   16  S3  UNL     1      24.503  12.911  48.963  1.00  0.00    -0.101 SA
HETATM   17  C9  UNL     1      22.986  12.468  48.312  1.00  0.00     0.053 A 
HETATM   18  C10 UNL     1      22.938  13.192  47.149  1.00  0.00     0.050 A 
HETATM   19  C11 UNL     1      23.982  13.973  46.863  1.00  0.00     0.132 A 
HETATM   20  F1  UNL     1      24.045  14.750  45.718  1.00  0.00    -0.205 F 
ENDBRANCH   9  15
TORSDOF 3
ENDMDL
MODEL 3
REMARK VINA RESULT: -4.927882813      8.199      9.365
REMARK  3 active torsions:
REMARK  status: ('A' for Active; 'I' for Inactive)
REMARK    1  A    between atoms: N1_2  and  C3_4 
REMARK    2  A    between atoms: C4_5  and  C5_6 
REMARK    3  A    between atoms: C7_14  and  C8_15 
ROOT
HETATM    1  C5  UNL     1      26.587  12.579  46.311  1.00  0.00     0.019 C 
HETATM    2  C6  UNL     1      25.363  12.680  46.679  1.00  0.00     0.024 C 
HETATM    3  S1  UNL     1      24.184  11.245  46.574  1.00  0.00     0.022 SA
HETATM    4  S2  UNL     1      22.557  12.543  46.084  1.00  0.00     0.289 S 
HETATM    5  O1  UNL     1      21.503  12.470  47.116  1.00  0.00    -0.194 OA
HETATM    6  O2  UNL     1      22.107  12.314  44.697  1.00  0.00    -0.194 OA
HETATM    7  N2  UNL     1      23.497  14.029  46.222  1.00  0.00    -0.296 N 
ATOM      8  H2  UNL     1      23.390  14.907  45.714  1.00  0.00     0.174 HD
HETATM    9  C7  UNL     1      24.441  13.684  47.226  1.00  0.00     0.177 C 
ENDROOT
BRANCH   1  10
HETATM   10  C4  UNL     1      27.559  13.636  46.350  1.00  0.00     0.018 C 
HETATM   11  C3  UNL     1      28.451  13.747  47.352  1.00  0.00     0.084 C 
BRANCH  11  12
HETATM   12  N1  UNL     1      29.413  14.790  47.397  1.00  0.00    -0.398 N 
HETATM   13  C1  UNL     1      30.469  14.761  48.386  1.00  0.00     0.148 C 
HETATM   14  C2  UNL     1      29.302  15.865  46.436  1.00  0.00     0.148 C 
ENDBRANCH  11  12
ENDBRANCH   1  10
BRANCH   9  15
HETATM   15  C8  UNL     1      25.020  14.781  48.019  1.00  0.00     0.049 A 
HETATM   16  S3  UNL     1      25.256  14.837  49.710  1.00  0.00    -0.101 SA
HETATM   17  C9  UNL     1      25.871  16.426  49.853  1.00  0.00     0.053 A 
HETATM   18  C10 UNL     1      25.870  16.864  48.555  1.00  0.00     0.050 A 
HETATM   19  C11 UNL     1      25.434  16.019  47.618  1.00  0.00     0.132 A 
HETATM   20  F1  UNL     1      25.387  16.350  46.273  1.00  0.00    -0.205 F 
ENDBRANCH   9  15
TORSDOF 3
ENDMDL
MODEL 4
REMARK VINA RESULT: -4.890773946      3.291      4.509
REMARK  3 active torsions:
REMARK  status: ('A' for Active; 'I' for Inactive)
REMARK    1  A    between atoms: N1_2  and  C3_4 
REMARK    2  A    between atoms: C4_5  and  C5_6 
REMARK    3  A    between atoms: C7_14  and  C8_15 
ROOT
HETATM    1  C5  UNL     1      19.696  12.458  48.048  1.00  0.00     0.019 C 
HETATM    2  C6  UNL     1      18.444  12.737  48.062  1.00  0.00     0.024 C 
HETATM    3  S1  UNL     1      17.623  13.488  49.552  1.00  0.00     0.022 SA
HETATM    4  S2  UNL     1      15.823  12.396  49.182  1.00  0.00     0.289 S 
HETATM    5  O1  UNL     1      14.697  13.317  48.927  1.00  0.00    -0.194 OA
HETATM    6  O2  UNL     1      15.596  11.390  50.238  1.00  0.00    -0.194 OA
HETATM    7  N2  UNL     1      16.398  11.650  47.690  1.00  0.00    -0.296 N 
ATOM      8  H2  UNL     1      16.164  10.739  47.295  1.00  0.00     0.174 HD
HETATM    9  C7  UNL     1      17.271  12.649  47.183  1.00  0.00     0.177 C 
ENDROOT
BRANCH   1  10
HETATM   10  C4  UNL     1      20.406  11.870  46.946  1.00  0.00     0.018 C 
HETATM   11  C3  UNL     1      21.646  12.269  46.604  1.00  0.00     0.084 C 
BRANCH  11  12
HETATM   12  N1  UNL     1      22.352  11.693  45.515  1.00  0.00    -0.398 N 
HETATM   13  C1  UNL     1      23.607  11.010  45.743  1.00  0.00     0.148 C 
HETATM   14  C2  UNL     1      21.783  11.812  44.190  1.00  0.00     0.148 C 
ENDBRANCH  11  12
ENDBRANCH   1  10
BRANCH   9  15
HETATM   15  C8  UNL     1      17.504  12.672  45.730  1.00  0.00     0.049 A 
HETATM   16  S3  UNL     1      17.737  11.338  44.688  1.00  0.00    -0.101 SA
HETATM   17  C9  UNL     1      18.023  12.175  43.224  1.00  0.00     0.053 A 
HETATM   18  C10 UNL     1      17.925  13.488  43.607  1.00  0.00     0.050 A 
HETATM   19  C11 UNL     1      17.659  13.738  44.891  1.00  0.00     0.132 A 
HETATM   20  F1  UNL     1      17.536  15.024  45.394  1.00  0.00    -0.205 F 
ENDBRANCH   9  15
TORSDOF 3
ENDMDL
MODEL 5
REMARK VINA RESULT: -4.792056733      8.123      8.942
REMARK  3 active torsions:
REMARK  status: ('A' for Active; 'I' for Inactive)
REMARK    1  A    between atoms: N1_2  and  C3_4 
REMARK    2  A    between atoms: C4_5  and  C5_6 
REMARK    3  A    between atoms: C7_14  and  C8_15 
ROOT
HETATM    1  C5  UNL     1      25.764  12.177  49.138  1.00  0.00     0.019 C 
HETATM    2  C6  UNL     1      25.788  11.987  47.870  1.00  0.00     0.024 C 
HETATM    3  S1  UNL     1      25.123  10.430  47.099  1.00  0.00     0.022 SA
HETATM    4  S2  UNL     1      26.639  10.461  45.591  1.00  0.00     0.289 S 
HETATM    5  O1  UNL     1      26.036  10.588  44.248  1.00  0.00    -0.194 OA
HETATM    6  O2  UNL     1      27.571   9.330  45.765  1.00  0.00    -0.194 OA
HETATM    7  N2  UNL     1      27.357  11.981  46.124  1.00  0.00    -0.296 N 
ATOM      8  H2  UNL     1      28.328  12.286  46.071  1.00  0.00     0.174 HD
HETATM    9  C7  UNL     1      26.229  12.669  46.646  1.00  0.00     0.177 C 
ENDROOT
BRANCH   1  10
HETATM   10  C4  UNL     1      26.263  13.343  49.815  1.00  0.00     0.018 C 
HETATM   11  C3  UNL     1      25.454  14.357  50.175  1.00  0.00     0.084 C 
BRANCH  11  12
HETATM   12  N1  UNL     1      25.941  15.511  50.843  1.00  0.00    -0.398 N 
HETATM   13  C1  UNL     1      26.917  15.380  51.903  1.00  0.00     0.148 C 
HETATM   14  C2  UNL     1      25.434  16.803  50.435  1.00  0.00     0.148 C 
ENDBRANCH  11  12
ENDBRANCH   1  10
BRANCH   9  15
HETATM   15  C8  UNL     1      26.281  14.140  46.667  1.00  0.00     0.049 A 
HETATM   16  S3  UNL     1      27.659  15.134  46.847  1.00  0.00    -0.101 SA
HETATM   17  C9  UNL     1      26.898  16.665  46.857  1.00  0.00     0.053 A 
HETATM   18  C10 UNL     1      25.573  16.341  46.719  1.00  0.00     0.050 A 
HETATM   19  C11 UNL     1      25.261  15.046  46.621  1.00  0.00     0.132 A 
HETATM   20  F1  UNL     1      23.958  14.599  46.476  1.00  0.00    -0.205 F 
ENDBRANCH   9  15
TORSDOF 3
ENDMDL
