MODEL 1
REMARK VINA RESULT: -6.349061144      0.000      0.000
REMARK  7 active torsions:
REMARK  status: ('A' for Active; 'I' for Inactive)
REMARK    1  A    between atoms: C2_2  and  O2_4 
REMARK    2  A    between atoms: O2_4  and  C3_5 
REMARK       I    between atoms: N1_9  and  C6_10 
REMARK    3  A    between atoms: C6_10  and  O4_12 
REMARK    4  A    between atoms: O4_12  and  C7_13 
REMARK    5  A    between atoms: C11_17  and  C12_18 
REMARK    6  A    between atoms: C12_18  and  O5_19 
REMARK    7  A    between atoms: C12_18  and  C13_21 
ROOT
HETATM    1  C3  UNL     1      18.062  12.989  42.468  1.00  0.00     0.144 A 
HETATM    2  C4  UNL     1      17.581  12.857  41.201  1.00  0.00     0.168 A 
HETATM    3  F1  UNL     1      16.885  13.765  40.462  1.00  0.00    -0.202 F 
HETATM    4  C5  UNL     1      17.930  11.622  40.788  1.00  0.00     0.147 A 
HETATM    5  N1  UNL     1      18.634  10.973  41.785  1.00  0.00    -0.264 N 
HETATM    6  C6  UNL     1      19.150   9.673  41.606  1.00  0.00     0.372 C 
HETATM    7  O3  UNL     1      19.874   8.997  42.364  1.00  0.00    -0.238 OA
HETATM    8  C11 UNL     1      18.733  11.765  42.831  1.00  0.00     0.087 A 
ENDROOT
BRANCH   6   9
HETATM    9  O4  UNL     1      18.846   8.959  40.431  1.00  0.00    -0.293 OA
BRANCH   9  10
HETATM   10  C7  UNL     1      19.699   8.629  39.408  1.00  0.00     0.061 C 
HETATM   11  C8  UNL     1      19.045   7.407  38.693  1.00  0.00     0.046 C 
HETATM   12  C9  UNL     1      19.665   9.725  38.332  1.00  0.00     0.046 C 
HETATM   13  C10 UNL     1      21.102   8.263  39.747  1.00  0.00     0.046 C 
ENDBRANCH   9  10
ENDBRANCH   6   9
BRANCH   8  14
HETATM   14  C12 UNL     1      19.306  11.685  44.154  1.00  0.00     0.175 C 
BRANCH  14  15
HETATM   15  O5  UNL     1      20.684  11.255  44.062  1.00  0.00    -0.389 OA
ATOM     16  H5  UNL     1      21.020  11.070  44.931  1.00  0.00     0.210 HD
ENDBRANCH  14  15
BRANCH  14  17
HETATM   17  C13 UNL     1      18.729  10.897  45.262  1.00  0.00     0.020 A 
HETATM   18  C14 UNL     1      18.281  11.740  46.504  1.00  0.00     0.008 A 
HETATM   19  C15 UNL     1      17.251  11.149  45.562  1.00  0.00     0.008 A 
ENDBRANCH  14  17
ENDBRANCH   8  14
BRANCH   1  20
HETATM   20  O2  UNL     1      17.908  14.098  43.234  1.00  0.00    -0.274 OA
BRANCH  20  21
HETATM   21  C2  UNL     1      16.835  14.504  43.978  1.00  0.00     0.260 C 
HETATM   22  C1  UNL     1      16.970  14.842  45.449  1.00  0.00     0.126 C 
HETATM   23  O1  UNL     1      15.722  14.589  43.401  1.00  0.00    -0.265 OA
ENDBRANCH  20  21
ENDBRANCH   1  20
TORSDOF 7
ENDMDL
MODEL 2
REMARK VINA RESULT: -6.291314722      2.307      3.386
REMARK  7 active torsions:
REMARK  status: ('A' for Active; 'I' for Inactive)
REMARK    1  A    between atoms: C2_2  and  O2_4 
REMARK    2  A    between atoms: O2_4  and  C3_5 
REMARK       I    between atoms: N1_9  and  C6_10 
REMARK    3  A    between atoms: C6_10  and  O4_12 
REMARK    4  A    between atoms: O4_12  and  C7_13 
REMARK    5  A    between atoms: C11_17  and  C12_18 
REMARK    6  A    between atoms: C12_18  and  O5_19 
REMARK    7  A    between atoms: C12_18  and  C13_21 
ROOT
HETATM    1  C3  UNL     1      17.072  14.154  45.491  1.00  0.00     0.144 A 
HETATM    2  C4  UNL     1      16.789  14.288  44.165  1.00  0.00     0.168 A 
HETATM    3  F1  UNL     1      15.824  15.051  43.579  1.00  0.00    -0.202 F 
HETATM    4  C5  UNL     1      17.666  13.504  43.508  1.00  0.00     0.147 A 
HETATM    5  N1  UNL     1      18.506  12.878  44.409  1.00  0.00    -0.264 N 
HETATM    6  C6  UNL     1      19.545  12.022  43.989  1.00  0.00     0.372 C 
HETATM    7  O3  UNL     1      20.433  11.463  44.663  1.00  0.00    -0.238 OA
HETATM    8  C11 UNL     1      18.177  13.239  45.631  1.00  0.00     0.087 A 
ENDROOT
BRANCH   6   9
HETATM    9  O4  UNL     1      19.666  11.694  42.625  1.00  0.00    -0.293 OA
BRANCH   9  10
HETATM   10  C7  UNL     1      19.240  10.549  41.998  1.00  0.00     0.061 C 
HETATM   11  C8  UNL     1      18.218   9.891  42.975  1.00  0.00     0.046 C 
HETATM   12  C9  UNL     1      18.379  10.915  40.781  1.00  0.00     0.046 C 
HETATM   13  C10 UNL     1      20.256   9.520  41.639  1.00  0.00     0.046 C 
ENDBRANCH   9  10
ENDBRANCH   6   9
BRANCH   8  14
HETATM   14  C12 UNL     1      18.630  12.940  46.970  1.00  0.00     0.175 C 
BRANCH  14  15
HETATM   15  O5  UNL     1      20.041  13.237  47.083  1.00  0.00    -0.389 OA
ATOM     16  H5  UNL     1      20.405  12.779  47.832  1.00  0.00     0.210 HD
ENDBRANCH  14  15
BRANCH  14  17
HETATM   17  C13 UNL     1      18.457  11.630  47.631  1.00  0.00     0.020 A 
HETATM   18  C14 UNL     1      17.215  11.533  48.580  1.00  0.00     0.008 A 
HETATM   19  C15 UNL     1      17.211  10.840  47.232  1.00  0.00     0.008 A 
ENDBRANCH  14  17
ENDBRANCH   8  14
BRANCH   1  20
HETATM   20  O2  UNL     1      16.398  14.785  46.486  1.00  0.00    -0.274 OA
BRANCH  20  21
HETATM   21  C2  UNL     1      16.674  15.968  47.114  1.00  0.00     0.260 C 
HETATM   22  C1  UNL     1      16.564  17.296  46.393  1.00  0.00     0.126 C 
HETATM   23  O1  UNL     1      17.026  15.921  48.320  1.00  0.00    -0.265 OA
ENDBRANCH  20  21
ENDBRANCH   1  20
TORSDOF 7
ENDMDL
MODEL 3
REMARK VINA RESULT: -6.278688684      1.352      1.746
REMARK  7 active torsions:
REMARK  status: ('A' for Active; 'I' for Inactive)
REMARK    1  A    between atoms: C2_2  and  O2_4 
REMARK    2  A    between atoms: O2_4  and  C3_5 
REMARK       I    between atoms: N1_9  and  C6_10 
REMARK    3  A    between atoms: C6_10  and  O4_12 
REMARK    4  A    between atoms: O4_12  and  C7_13 
REMARK    5  A    between atoms: C11_17  and  C12_18 
REMARK    6  A    between atoms: C12_18  and  O5_19 
REMARK    7  A    between atoms: C12_18  and  C13_21 
ROOT
HETATM    1  C3  UNL     1      18.273  12.677  42.496  1.00  0.00     0.144 A 
HETATM    2  C4  UNL     1      17.694  12.619  41.265  1.00  0.00     0.168 A 
HETATM    3  F1  UNL     1      16.941  13.567  40.639  1.00  0.00    -0.202 F 
HETATM    4  C5  UNL     1      18.013  11.415  40.751  1.00  0.00     0.147 A 
HETATM    5  N1  UNL     1      18.793  10.711  41.647  1.00  0.00    -0.264 N 
HETATM    6  C6  UNL     1      19.296   9.427  41.350  1.00  0.00     0.372 C 
HETATM    7  O3  UNL     1      20.078   8.711  42.005  1.00  0.00    -0.238 OA
HETATM    8  C11 UNL     1      18.972  11.437  42.729  1.00  0.00     0.087 A 
ENDROOT
BRANCH   6   9
HETATM    9  O4  UNL     1      18.903   8.785  40.160  1.00  0.00    -0.293 OA
BRANCH   9  10
HETATM   10  C7  UNL     1      19.561   8.778  38.955  1.00  0.00     0.061 C 
HETATM   11  C8  UNL     1      19.923   7.286  38.683  1.00  0.00     0.046 C 
HETATM   12  C9  UNL     1      18.575   9.112  37.826  1.00  0.00     0.046 C 
HETATM   13  C10 UNL     1      20.807   9.582  38.827  1.00  0.00     0.046 C 
ENDBRANCH   9  10
ENDBRANCH   6   9
BRANCH   8  14
HETATM   14  C12 UNL     1      19.647  11.281  43.997  1.00  0.00     0.175 C 
BRANCH  14  15
HETATM   15  O5  UNL     1      18.669  11.187  45.059  1.00  0.00    -0.389 OA
ATOM     16  H5  UNL     1      18.986  11.649  45.826  1.00  0.00     0.210 HD
ENDBRANCH  14  15
BRANCH  14  17
HETATM   17  C13 UNL     1      20.682  12.204  44.506  1.00  0.00     0.020 A 
HETATM   18  C14 UNL     1      21.522  11.651  45.707  1.00  0.00     0.008 A 
HETATM   19  C15 UNL     1      22.130  11.750  44.321  1.00  0.00     0.008 A 
ENDBRANCH  14  17
ENDBRANCH   8  14
BRANCH   1  20
HETATM   20  O2  UNL     1      18.177  13.736  43.339  1.00  0.00    -0.274 OA
BRANCH  20  21
HETATM   21  C2  UNL     1      17.223  14.024  44.276  1.00  0.00     0.260 C 
HETATM   22  C1  UNL     1      15.962  14.785  43.918  1.00  0.00     0.126 C 
HETATM   23  O1  UNL     1      17.425  13.637  45.454  1.00  0.00    -0.265 OA
ENDBRANCH  20  21
ENDBRANCH   1  20
TORSDOF 7
ENDMDL
MODEL 4
REMARK VINA RESULT: -6.111845652      1.581      5.887
REMARK  7 active torsions:
REMARK  status: ('A' for Active; 'I' for Inactive)
REMARK    1  A    between atoms: C2_2  and  O2_4 
REMARK    2  A    between atoms: O2_4  and  C3_5 
REMARK       I    between atoms: N1_9  and  C6_10 
REMARK    3  A    between atoms: C6_10  and  O4_12 
REMARK    4  A    between atoms: O4_12  and  C7_13 
REMARK    5  A    between atoms: C11_17  and  C12_18 
REMARK    6  A    between atoms: C12_18  and  O5_19 
REMARK    7  A    between atoms: C12_18  and  C13_21 
ROOT
HETATM    1  C3  UNL     1      18.314  10.895  40.079  1.00  0.00     0.144 A 
HETATM    2  C4  UNL     1      17.713  12.102  40.264  1.00  0.00     0.168 A 
HETATM    3  F1  UNL     1      16.952  12.812  39.385  1.00  0.00    -0.202 F 
HETATM    4  C5  UNL     1      18.012  12.486  41.521  1.00  0.00     0.147 A 
HETATM    5  N1  UNL     1      18.795  11.527  42.134  1.00  0.00    -0.264 N 
HETATM    6  C6  UNL     1      19.227  11.660  43.470  1.00  0.00     0.372 C 
HETATM    7  O3  UNL     1      19.852  10.852  44.185  1.00  0.00    -0.238 OA
HETATM    8  C11 UNL     1      19.012  10.541  41.290  1.00  0.00     0.087 A 
ENDROOT
BRANCH   6   9
HETATM    9  O4  UNL     1      18.960  12.851  44.172  1.00  0.00    -0.293 OA
BRANCH   9  10
HETATM   10  C7  UNL     1      18.086  13.030  45.216  1.00  0.00     0.061 C 
HETATM   11  C8  UNL     1      17.229  14.276  44.837  1.00  0.00     0.046 C 
HETATM   12  C9  UNL     1      17.059  11.888  45.232  1.00  0.00     0.046 C 
HETATM   13  C10 UNL     1      18.648  13.257  46.576  1.00  0.00     0.046 C 
ENDBRANCH   9  10
ENDBRANCH   6   9
BRANCH   8  14
HETATM   14  C12 UNL     1      19.740   9.294  41.301  1.00  0.00     0.175 C 
BRANCH  14  15
HETATM   15  O5  UNL     1      19.378   8.531  42.477  1.00  0.00    -0.389 OA
ATOM     16  H5  UNL     1      20.158   8.335  42.982  1.00  0.00     0.210 HD
ENDBRANCH  14  15
BRANCH  14  17
HETATM   17  C13 UNL     1      21.211   9.190  41.212  1.00  0.00     0.020 A 
HETATM   18  C14 UNL     1      21.756   7.733  41.027  1.00  0.00     0.008 A 
HETATM   19  C15 UNL     1      21.765   8.713  39.870  1.00  0.00     0.008 A 
ENDBRANCH  14  17
ENDBRANCH   8  14
BRANCH   1  20
HETATM   20  O2  UNL     1      18.254  10.177  38.928  1.00  0.00    -0.274 OA
BRANCH  20  21
HETATM   21  C2  UNL     1      18.705  10.493  37.676  1.00  0.00     0.260 C 
HETATM   22  C1  UNL     1      20.173  10.399  37.314  1.00  0.00     0.126 C 
HETATM   23  O1  UNL     1      17.859  10.870  36.828  1.00  0.00    -0.265 OA
ENDBRANCH  20  21
ENDBRANCH   1  20
TORSDOF 7
ENDMDL
MODEL 5
REMARK VINA RESULT: -5.914336671      2.714      6.988
REMARK  7 active torsions:
REMARK  status: ('A' for Active; 'I' for Inactive)
REMARK    1  A    between atoms: C2_2  and  O2_4 
REMARK    2  A    between atoms: O2_4  and  C3_5 
REMARK       I    between atoms: N1_9  and  C6_10 
REMARK    3  A    between atoms: C6_10  and  O4_12 
REMARK    4  A    between atoms: O4_12  and  C7_13 
REMARK    5  A    between atoms: C11_17  and  C12_18 
REMARK    6  A    between atoms: C12_18  and  O5_19 
REMARK    7  A    between atoms: C12_18  and  C13_21 
ROOT
HETATM    1  C3  UNL     1      20.988   8.778  40.344  1.00  0.00     0.144 A 
HETATM    2  C4  UNL     1      21.723   8.810  41.489  1.00  0.00     0.168 A 
HETATM    3  F1  UNL     1      22.954   8.273  41.720  1.00  0.00    -0.202 F 
HETATM    4  C5  UNL     1      20.993   9.496  42.391  1.00  0.00     0.147 A 
HETATM    5  N1  UNL     1      19.802   9.903  41.822  1.00  0.00    -0.264 N 
HETATM    6  C6  UNL     1      18.858  10.671  42.536  1.00  0.00     0.372 C 
HETATM    7  O3  UNL     1      17.794  11.186  42.141  1.00  0.00    -0.238 OA
HETATM    8  C11 UNL     1      19.751   9.482  40.577  1.00  0.00     0.087 A 
ENDROOT
BRANCH   6   9
HETATM    9  O4  UNL     1      19.070  10.936  43.903  1.00  0.00    -0.293 OA
BRANCH   9  10
HETATM   10  C7  UNL     1      18.507  11.934  44.659  1.00  0.00     0.061 C 
HETATM   11  C8  UNL     1      17.261  11.292  45.342  1.00  0.00     0.046 C 
HETATM   12  C9  UNL     1      19.425  12.267  45.843  1.00  0.00     0.046 C 
HETATM   13  C10 UNL     1      18.060  13.176  43.969  1.00  0.00     0.046 C 
ENDBRANCH   9  10
ENDBRANCH   6   9
BRANCH   8  14
HETATM   14  C12 UNL     1      18.807   9.552  39.485  1.00  0.00     0.175 C 
BRANCH  14  15
HETATM   15  O5  UNL     1      18.648   8.239  38.896  1.00  0.00    -0.389 OA
ATOM     16  H5  UNL     1      17.730   7.996  38.903  1.00  0.00     0.210 HD
ENDBRANCH  14  15
BRANCH  14  17
HETATM   17  C13 UNL     1      18.931  10.476  38.339  1.00  0.00     0.020 A 
HETATM   18  C14 UNL     1      17.671  10.541  37.410  1.00  0.00     0.008 A 
HETATM   19  C15 UNL     1      17.995  11.684  38.352  1.00  0.00     0.008 A 
ENDBRANCH  14  17
ENDBRANCH   8  14
BRANCH   1  20
HETATM   20  O2  UNL     1      21.381   8.167  39.197  1.00  0.00    -0.274 OA
BRANCH  20  21
HETATM   21  C2  UNL     1      22.334   8.541  38.291  1.00  0.00     0.260 C 
HETATM   22  C1  UNL     1      21.982   8.849  36.849  1.00  0.00     0.126 C 
HETATM   23  O1  UNL     1      23.522   8.621  38.691  1.00  0.00    -0.265 OA
ENDBRANCH  20  21
ENDBRANCH   1  20
TORSDOF 7
ENDMDL
