MODEL 1
REMARK VINA RESULT: -7.635454824      0.000      0.000
REMARK  8 active torsions:
REMARK  status: ('A' for Active; 'I' for Inactive)
REMARK    1  A    between atoms: C2_2  and  C3_3 
REMARK    2  A    between atoms: C3_3  and  C4_4 
REMARK    3  A    between atoms: C5_5  and  C6_6 
REMARK    4  A    between atoms: N1_16  and  C16_17 
REMARK    5  A    between atoms: C16_17  and  C17_18 
REMARK    6  A    between atoms: C17_18  and  C18_19 
REMARK    7  A    between atoms: C25_35  and  C26_36 
REMARK    8  A    between atoms: C26_36  and  C28_38 
ROOT
HETATM    1  C6  UNL     1      44.373  20.206  17.468  1.00  0.00     0.085 C 
HETATM    2  C7  UNL     1      43.486  20.096  16.492  1.00  0.00     0.026 C 
HETATM    3  C8  UNL     1      43.228  18.904  15.696  1.00  0.00    -0.002 C 
HETATM    4  C9  UNL     1      44.033  18.356  14.819  1.00  0.00    -0.027 C 
HETATM    5  C10 UNL     1      45.366  18.784  14.411  1.00  0.00     0.027 C 
HETATM    6  C11 UNL     1      45.623  18.393  12.980  1.00  0.00     0.007 C 
HETATM    7  C12 UNL     1      44.386  18.502  12.134  1.00  0.00     0.027 C 
HETATM    8  C13 UNL     1      44.438  17.573  10.965  1.00  0.00    -0.029 C 
HETATM    9  C14 UNL     1      43.685  16.526  10.752  1.00  0.00    -0.010 C 
HETATM   10  C15 UNL     1      42.595  16.000  11.612  1.00  0.00     0.163 C 
HETATM   11  N1  UNL     1      42.858  14.624  11.884  1.00  0.00    -0.290 N 
HETATM   12  S1  UNL     1      43.363  14.237  13.455  1.00  0.00     0.323 S 
HETATM   13  O1  UNL     1      43.518  12.715  13.494  1.00  0.00    -0.182 OA
HETATM   14  O2  UNL     1      44.713  14.864  13.672  1.00  0.00    -0.182 OA
HETATM   15  N2  UNL     1      42.252  14.625  14.693  1.00  0.00    -0.235 N 
ATOM     16  H2  UNL     1      41.265  14.571  14.437  1.00  0.00     0.183 HD
HETATM   17  C21 UNL     1      42.520  15.004  16.006  1.00  0.00     0.254 C 
HETATM   18  O3  UNL     1      41.620  15.709  16.590  1.00  0.00    -0.270 OA
HETATM   19  C22 UNL     1      43.712  14.699  16.818  1.00  0.00     0.173 C 
HETATM   20  C23 UNL     1      44.153  13.242  16.619  1.00  0.00     0.042 C 
HETATM   21  N3  UNL     1      43.456  14.834  18.227  1.00  0.00    -0.346 N 
ATOM     22  H3  UNL     1      42.842  14.129  18.636  1.00  0.00     0.163 HD
HETATM   23  C24 UNL     1      43.938  15.809  19.112  1.00  0.00     0.241 C 
HETATM   24  O4  UNL     1      44.550  15.448  20.187  1.00  0.00    -0.271 OA
HETATM   25  C25 UNL     1      43.821  17.282  18.952  1.00  0.00     0.180 C 
HETATM   26  N4  UNL     1      44.917  17.798  18.165  1.00  0.00    -0.343 N 
ATOM     27  H4  UNL     1      45.520  17.102  17.729  1.00  0.00     0.163 HD
HETATM   28  C30 UNL     1      45.251  19.132  17.929  1.00  0.00     0.260 C 
HETATM   29  O5  UNL     1      46.475  19.486  18.134  1.00  0.00    -0.267 OA
ENDROOT
BRANCH   1  30
HETATM   30  C5  UNL     1      44.496  21.487  18.158  1.00  0.00    -0.061 C 
HETATM   31  C4  UNL     1      44.619  22.559  18.748  1.00  0.00    -0.097 C 
BRANCH  31  32
HETATM   32  C3  UNL     1      44.774  23.828  19.455  1.00  0.00     0.120 C 
BRANCH  32  33
HETATM   33  C2  UNL     1      45.025  23.529  20.900  1.00  0.00    -0.025 C 
HETATM   34  C1  UNL     1      44.215  23.951  21.853  1.00  0.00     0.008 C 
ENDBRANCH  32  33
ENDBRANCH  31  32
ENDBRANCH   1  30
BRANCH  25  35
HETATM   35  C26 UNL     1      43.744  17.993  20.291  1.00  0.00     0.013 C 
HETATM   36  C27 UNL     1      42.708  19.073  20.344  1.00  0.00     0.012 C 
BRANCH  35  37
HETATM   37  C28 UNL     1      45.058  18.552  20.721  1.00  0.00     0.002 C 
HETATM   38  C29 UNL     1      44.943  19.814  21.534  1.00  0.00     0.005 C 
ENDBRANCH  35  37
ENDBRANCH  25  35
BRANCH  11  39
HETATM   39  C16 UNL     1      42.009  13.682  11.240  1.00  0.00     0.137 C 
BRANCH  39  40
HETATM   40  C17 UNL     1      40.781  14.335  10.700  1.00  0.00     0.024 C 
BRANCH  40  41
HETATM   41  C18 UNL     1      40.512  13.954   9.258  1.00  0.00    -0.021 C 
HETATM   42  C19 UNL     1      41.122  12.618   8.987  1.00  0.00     0.009 C 
HETATM   43  C20 UNL     1      41.120  14.974   8.320  1.00  0.00     0.009 C 
ENDBRANCH  40  41
ENDBRANCH  39  40
ENDBRANCH  11  39
TORSDOF 8
ENDMDL
MODEL 2
REMARK VINA RESULT: -7.437624989      2.454      9.049
REMARK  8 active torsions:
REMARK  status: ('A' for Active; 'I' for Inactive)
REMARK    1  A    between atoms: C2_2  and  C3_3 
REMARK    2  A    between atoms: C3_3  and  C4_4 
REMARK    3  A    between atoms: C5_5  and  C6_6 
REMARK    4  A    between atoms: N1_16  and  C16_17 
REMARK    5  A    between atoms: C16_17  and  C17_18 
REMARK    6  A    between atoms: C17_18  and  C18_19 
REMARK    7  A    between atoms: C25_35  and  C26_36 
REMARK    8  A    between atoms: C26_36  and  C28_38 
ROOT
HETATM    1  C6  UNL     1      43.045  16.119  14.319  1.00  0.00     0.085 C 
HETATM    2  C7  UNL     1      43.977  17.045  14.161  1.00  0.00     0.026 C 
HETATM    3  C8  UNL     1      44.417  18.002  15.166  1.00  0.00    -0.002 C 
HETATM    4  C9  UNL     1      43.724  19.001  15.656  1.00  0.00    -0.027 C 
HETATM    5  C10 UNL     1      42.365  19.417  15.329  1.00  0.00     0.027 C 
HETATM    6  C11 UNL     1      42.218  20.904  15.508  1.00  0.00     0.007 C 
HETATM    7  C12 UNL     1      43.465  21.646  15.116  1.00  0.00     0.027 C 
HETATM    8  C13 UNL     1      43.579  22.948  15.840  1.00  0.00    -0.029 C 
HETATM    9  C14 UNL     1      44.466  23.277  16.740  1.00  0.00    -0.010 C 
HETATM   10  C15 UNL     1      45.579  22.446  17.266  1.00  0.00     0.163 C 
HETATM   11  N1  UNL     1      45.483  22.411  18.689  1.00  0.00    -0.290 N 
HETATM   12  S1  UNL     1      44.969  20.954  19.386  1.00  0.00     0.323 S 
HETATM   13  O1  UNL     1      45.007  21.164  20.901  1.00  0.00    -0.182 OA
HETATM   14  O2  UNL     1      43.542  20.723  18.969  1.00  0.00    -0.182 OA
HETATM   15  N2  UNL     1      45.971  19.606  19.076  1.00  0.00    -0.235 N 
ATOM     16  H2  UNL     1      46.965  19.807  18.969  1.00  0.00     0.183 HD
HETATM   17  C21 UNL     1      45.604  18.268  18.952  1.00  0.00     0.254 C 
HETATM   18  O3  UNL     1      46.381  17.527  18.250  1.00  0.00    -0.270 OA
HETATM   19  C22 UNL     1      44.428  17.587  19.527  1.00  0.00     0.173 C 
HETATM   20  C23 UNL     1      44.185  18.040  20.973  1.00  0.00     0.042 C 
HETATM   21  N3  UNL     1      44.608  16.162  19.594  1.00  0.00    -0.346 N 
ATOM     22  H3  UNL     1      45.290  15.833  20.278  1.00  0.00     0.163 HD
HETATM   23  C24 UNL     1      43.971  15.165  18.842  1.00  0.00     0.241 C 
HETATM   24  O4  UNL     1      43.366  14.199  19.445  1.00  0.00    -0.271 OA
HETATM   25  C25 UNL     1      43.905  15.083  17.359  1.00  0.00     0.180 C 
HETATM   26  N4  UNL     1      42.784  15.844  16.856  1.00  0.00    -0.343 N 
ATOM     27  H4  UNL     1      42.293  16.420  17.539  1.00  0.00     0.163 HD
HETATM   28  C30 UNL     1      42.293  15.887  15.550  1.00  0.00     0.260 C 
HETATM   29  O5  UNL     1      41.027  15.703  15.384  1.00  0.00    -0.267 OA
ENDROOT
BRANCH   1  30
HETATM   30  C5  UNL     1      42.731  15.244  13.192  1.00  0.00    -0.061 C 
HETATM   31  C4  UNL     1      42.470  14.526  12.229  1.00  0.00    -0.097 C 
BRANCH  31  32
HETATM   32  C3  UNL     1      42.157  13.681  11.079  1.00  0.00     0.120 C 
BRANCH  32  33
HETATM   33  C2  UNL     1      40.770  14.011  10.622  1.00  0.00    -0.025 C 
HETATM   34  C1  UNL     1      40.344  13.717   9.408  1.00  0.00     0.008 C 
ENDBRANCH  32  33
ENDBRANCH  31  32
ENDBRANCH   1  30
BRANCH  25  35
HETATM   35  C26 UNL     1      43.836  13.647  16.874  1.00  0.00     0.013 C 
HETATM   36  C27 UNL     1      44.741  13.357  15.716  1.00  0.00     0.012 C 
BRANCH  35  37
HETATM   37  C28 UNL     1      42.448  13.223  16.530  1.00  0.00     0.002 C 
HETATM   38  C29 UNL     1      42.388  12.125  15.501  1.00  0.00     0.005 C 
ENDBRANCH  35  37
ENDBRANCH  25  35
BRANCH  11  39
HETATM   39  C16 UNL     1      46.471  23.142  19.405  1.00  0.00     0.137 C 
BRANCH  39  40
HETATM   40  C17 UNL     1      45.944  24.458  19.871  1.00  0.00     0.024 C 
BRANCH  40  41
HETATM   41  C18 UNL     1      44.466  24.404  20.203  1.00  0.00    -0.021 C 
HETATM   42  C19 UNL     1      43.789  25.585  19.590  1.00  0.00     0.009 C 
HETATM   43  C20 UNL     1      44.259  24.437  21.701  1.00  0.00     0.009 C 
ENDBRANCH  40  41
ENDBRANCH  39  40
ENDBRANCH  11  39
TORSDOF 8
ENDMDL
MODEL 3
REMARK VINA RESULT: -7.431792625      3.645      7.667
REMARK  8 active torsions:
REMARK  status: ('A' for Active; 'I' for Inactive)
REMARK    1  A    between atoms: C2_2  and  C3_3 
REMARK    2  A    between atoms: C3_3  and  C4_4 
REMARK    3  A    between atoms: C5_5  and  C6_6 
REMARK    4  A    between atoms: N1_16  and  C16_17 
REMARK    5  A    between atoms: C16_17  and  C17_18 
REMARK    6  A    between atoms: C17_18  and  C18_19 
REMARK    7  A    between atoms: C25_35  and  C26_36 
REMARK    8  A    between atoms: C26_36  and  C28_38 
ROOT
HETATM    1  C6  UNL     1      44.920  22.169  14.701  1.00  0.00     0.085 C 
HETATM    2  C7  UNL     1      45.802  21.442  15.368  1.00  0.00     0.026 C 
HETATM    3  C8  UNL     1      45.570  20.123  15.940  1.00  0.00    -0.002 C 
HETATM    4  C9  UNL     1      44.793  19.832  16.954  1.00  0.00    -0.027 C 
HETATM    5  C10 UNL     1      43.977  20.728  17.765  1.00  0.00     0.027 C 
HETATM    6  C11 UNL     1      43.849  20.192  19.166  1.00  0.00     0.007 C 
HETATM    7  C12 UNL     1      45.109  19.517  19.629  1.00  0.00     0.027 C 
HETATM    8  C13 UNL     1      44.827  18.484  20.671  1.00  0.00    -0.029 C 
HETATM    9  C14 UNL     1      44.967  17.190  20.560  1.00  0.00    -0.010 C 
HETATM   10  C15 UNL     1      45.439  16.425  19.378  1.00  0.00     0.163 C 
HETATM   11  N1  UNL     1      44.464  15.432  19.064  1.00  0.00    -0.290 N 
HETATM   12  S1  UNL     1      43.530  15.689  17.672  1.00  0.00     0.323 S 
HETATM   13  O1  UNL     1      42.617  14.469  17.535  1.00  0.00    -0.182 OA
HETATM   14  O2  UNL     1      42.675  16.905  17.911  1.00  0.00    -0.182 OA
HETATM   15  N2  UNL     1      44.410  15.781  16.212  1.00  0.00    -0.235 N 
ATOM     16  H2  UNL     1      45.260  15.218  16.169  1.00  0.00     0.183 HD
HETATM   17  C21 UNL     1      44.116  16.526  15.072  1.00  0.00     0.254 C 
HETATM   18  O3  UNL     1      45.110  16.841  14.325  1.00  0.00    -0.270 OA
HETATM   19  C22 UNL     1      42.799  17.003  14.609  1.00  0.00     0.173 C 
HETATM   20  C23 UNL     1      41.729  15.919  14.787  1.00  0.00     0.042 C 
HETATM   21  N3  UNL     1      42.801  17.317  13.205  1.00  0.00    -0.346 N 
ATOM     22  H3  UNL     1      42.874  16.519  12.573  1.00  0.00     0.163 HD
HETATM   23  C24 UNL     1      42.717  18.575  12.591  1.00  0.00     0.241 C 
HETATM   24  O4  UNL     1      41.805  18.793  11.707  1.00  0.00    -0.271 OA
HETATM   25  C25 UNL     1      43.597  19.744  12.850  1.00  0.00     0.180 C 
HETATM   26  N4  UNL     1      43.099  20.520  13.963  1.00  0.00    -0.343 N 
ATOM     27  H4  UNL     1      42.327  20.108  14.485  1.00  0.00     0.163 HD
HETATM   28  C30 UNL     1      43.546  21.764  14.411  1.00  0.00     0.260 C 
HETATM   29  O5  UNL     1      42.661  22.683  14.598  1.00  0.00    -0.267 OA
ENDROOT
BRANCH   1  30
HETATM   30  C5  UNL     1      45.331  23.478  14.200  1.00  0.00    -0.061 C 
HETATM   31  C4  UNL     1      45.658  24.581  13.765  1.00  0.00    -0.097 C 
BRANCH  31  32
HETATM   32  C3  UNL     1      46.039  25.890  13.242  1.00  0.00     0.120 C 
BRANCH  32  33
HETATM   33  C2  UNL     1      45.073  26.257  12.158  1.00  0.00    -0.025 C 
HETATM   34  C1  UNL     1      44.581  27.476  12.042  1.00  0.00     0.008 C 
ENDBRANCH  32  33
ENDBRANCH  31  32
ENDBRANCH   1  30
BRANCH  25  35
HETATM   35  C26 UNL     1      43.754  20.617  11.619  1.00  0.00     0.013 C 
HETATM   36  C27 UNL     1      45.174  20.992  11.322  1.00  0.00     0.012 C 
BRANCH  35  37
HETATM   37  C28 UNL     1      42.923  21.854  11.681  1.00  0.00     0.002 C 
HETATM   38  C29 UNL     1      43.475  22.997  10.870  1.00  0.00     0.005 C 
ENDBRANCH  35  37
ENDBRANCH  25  35
BRANCH  11  39
HETATM   39  C16 UNL     1      44.824  14.085  19.345  1.00  0.00     0.137 C 
BRANCH  39  40
HETATM   40  C17 UNL     1      46.269  13.969  19.698  1.00  0.00     0.024 C 
BRANCH  40  41
HETATM   41  C18 UNL     1      46.481  13.382  21.079  1.00  0.00    -0.021 C 
HETATM   42  C19 UNL     1      45.163  13.292  21.774  1.00  0.00     0.009 C 
HETATM   43  C20 UNL     1      47.409  14.259  21.890  1.00  0.00     0.009 C 
ENDBRANCH  40  41
ENDBRANCH  39  40
ENDBRANCH  11  39
TORSDOF 8
ENDMDL
MODEL 4
REMARK VINA RESULT: -7.337717327      0.895      1.083
REMARK  8 active torsions:
REMARK  status: ('A' for Active; 'I' for Inactive)
REMARK    1  A    between atoms: C2_2  and  C3_3 
REMARK    2  A    between atoms: C3_3  and  C4_4 
REMARK    3  A    between atoms: C5_5  and  C6_6 
REMARK    4  A    between atoms: N1_16  and  C16_17 
REMARK    5  A    between atoms: C16_17  and  C17_18 
REMARK    6  A    between atoms: C17_18  and  C18_19 
REMARK    7  A    between atoms: C25_35  and  C26_36 
REMARK    8  A    between atoms: C26_36  and  C28_38 
ROOT
HETATM    1  C6  UNL     1      44.253  20.268  17.380  1.00  0.00     0.085 C 
HETATM    2  C7  UNL     1      43.267  20.260  16.498  1.00  0.00     0.026 C 
HETATM    3  C8  UNL     1      42.930  19.168  15.596  1.00  0.00    -0.002 C 
HETATM    4  C9  UNL     1      43.638  18.742  14.579  1.00  0.00    -0.027 C 
HETATM    5  C10 UNL     1      44.918  19.239  14.086  1.00  0.00     0.027 C 
HETATM    6  C11 UNL     1      45.020  19.025  12.599  1.00  0.00     0.007 C 
HETATM    7  C12 UNL     1      43.699  19.212  11.909  1.00  0.00     0.027 C 
HETATM    8  C13 UNL     1      43.629  18.430  10.638  1.00  0.00    -0.029 C 
HETATM    9  C14 UNL     1      42.863  17.403  10.382  1.00  0.00    -0.010 C 
HETATM   10  C15 UNL     1      41.874  16.760  11.284  1.00  0.00     0.163 C 
HETATM   11  N1  UNL     1      42.171  15.366  11.358  1.00  0.00    -0.290 N 
HETATM   12  S1  UNL     1      42.844  14.803  12.809  1.00  0.00     0.323 S 
HETATM   13  O1  UNL     1      43.010  13.291  12.648  1.00  0.00    -0.182 OA
HETATM   14  O2  UNL     1      44.207  15.424  12.955  1.00  0.00    -0.182 OA
HETATM   15  N2  UNL     1      41.871  15.021  14.195  1.00  0.00    -0.235 N 
ATOM     16  H2  UNL     1      40.863  14.982  14.042  1.00  0.00     0.183 HD
HETATM   17  C21 UNL     1      42.277  15.247  15.509  1.00  0.00     0.254 C 
HETATM   18  O3  UNL     1      41.443  15.861  16.266  1.00  0.00    -0.270 OA
HETATM   19  C22 UNL     1      43.551  14.867  16.147  1.00  0.00     0.173 C 
HETATM   20  C23 UNL     1      43.975  13.453  15.728  1.00  0.00     0.042 C 
HETATM   21  N3  UNL     1      43.447  14.830  17.581  1.00  0.00    -0.346 N 
ATOM     22  H3  UNL     1      42.885  14.070  17.965  1.00  0.00     0.163 HD
HETATM   23  C24 UNL     1      44.017  15.701  18.521  1.00  0.00     0.241 C 
HETATM   24  O4  UNL     1      44.744  15.225  19.473  1.00  0.00    -0.271 OA
HETATM   25  C25 UNL     1      43.877  17.180  18.553  1.00  0.00     0.180 C 
HETATM   26  N4  UNL     1      44.880  17.805  17.721  1.00  0.00    -0.343 N 
ATOM     27  H4  UNL     1      45.436  17.176  17.143  1.00  0.00     0.163 HD
HETATM   28  C30 UNL     1      45.181  19.164  17.612  1.00  0.00     0.260 C 
HETATM   29  O5  UNL     1      46.418  19.511  17.727  1.00  0.00    -0.267 OA
ENDROOT
BRANCH   1  30
HETATM   30  C5  UNL     1      44.444  21.461  18.202  1.00  0.00    -0.061 C 
HETATM   31  C4  UNL     1      44.590  22.455  18.910  1.00  0.00    -0.097 C 
BRANCH  31  32
HETATM   32  C3  UNL     1      44.756  23.634  19.757  1.00  0.00     0.120 C 
BRANCH  32  33
HETATM   33  C2  UNL     1      45.854  24.473  19.179  1.00  0.00    -0.025 C 
HETATM   34  C1  UNL     1      47.118  24.296  19.512  1.00  0.00     0.008 C 
ENDBRANCH  32  33
ENDBRANCH  31  32
ENDBRANCH   1  30
BRANCH  25  35
HETATM   35  C26 UNL     1      43.942  17.725  19.967  1.00  0.00     0.013 C 
HETATM   36  C27 UNL     1      42.916  18.776  20.258  1.00  0.00     0.012 C 
BRANCH  35  37
HETATM   37  C28 UNL     1      45.294  18.247  20.320  1.00  0.00     0.002 C 
HETATM   38  C29 UNL     1      45.262  19.426  21.258  1.00  0.00     0.005 C 
ENDBRANCH  35  37
ENDBRANCH  25  35
BRANCH  11  39
HETATM   39  C16 UNL     1      41.262  14.492  10.701  1.00  0.00     0.137 C 
BRANCH  39  40
HETATM   40  C17 UNL     1      41.742  14.133   9.335  1.00  0.00     0.024 C 
BRANCH  40  41
HETATM   41  C18 UNL     1      40.771  14.559   8.251  1.00  0.00    -0.021 C 
HETATM   42  C19 UNL     1      40.425  13.369   7.417  1.00  0.00     0.009 C 
HETATM   43  C20 UNL     1      41.395  15.617   7.368  1.00  0.00     0.009 C 
ENDBRANCH  40  41
ENDBRANCH  39  40
ENDBRANCH  11  39
TORSDOF 8
ENDMDL
MODEL 5
REMARK VINA RESULT: -7.275457238      2.902      5.964
REMARK  8 active torsions:
REMARK  status: ('A' for Active; 'I' for Inactive)
REMARK    1  A    between atoms: C2_2  and  C3_3 
REMARK    2  A    between atoms: C3_3  and  C4_4 
REMARK    3  A    between atoms: C5_5  and  C6_6 
REMARK    4  A    between atoms: N1_16  and  C16_17 
REMARK    5  A    between atoms: C16_17  and  C17_18 
REMARK    6  A    between atoms: C17_18  and  C18_19 
REMARK    7  A    between atoms: C25_35  and  C26_36 
REMARK    8  A    between atoms: C26_36  and  C28_38 
ROOT
HETATM    1  C6  UNL     1      45.208  21.518  17.885  1.00  0.00     0.085 C 
HETATM    2  C7  UNL     1      45.860  20.392  18.131  1.00  0.00     0.026 C 
HETATM    3  C8  UNL     1      45.451  19.056  17.719  1.00  0.00    -0.002 C 
HETATM    4  C9  UNL     1      44.422  18.378  18.162  1.00  0.00    -0.027 C 
HETATM    5  C10 UNL     1      43.437  18.765  19.166  1.00  0.00     0.027 C 
HETATM    6  C11 UNL     1      42.922  17.548  19.887  1.00  0.00     0.007 C 
HETATM    7  C12 UNL     1      43.994  16.514  20.084  1.00  0.00     0.027 C 
HETATM    8  C13 UNL     1      43.416  15.140  20.196  1.00  0.00    -0.029 C 
HETATM    9  C14 UNL     1      43.551  14.154  19.350  1.00  0.00    -0.010 C 
HETATM   10  C15 UNL     1      44.308  14.150  18.072  1.00  0.00     0.163 C 
HETATM   11  N1  UNL     1      43.432  13.724  17.030  1.00  0.00    -0.290 N 
HETATM   12  S1  UNL     1      42.916  14.909  15.932  1.00  0.00     0.323 S 
HETATM   13  O1  UNL     1      42.046  14.189  14.899  1.00  0.00    -0.182 OA
HETATM   14  O2  UNL     1      42.057  15.889  16.684  1.00  0.00    -0.182 OA
HETATM   15  N2  UNL     1      44.160  15.671  15.045  1.00  0.00    -0.235 N 
ATOM     16  H2  UNL     1      44.977  15.094  14.840  1.00  0.00     0.183 HD
HETATM   17  C21 UNL     1      44.204  16.978  14.567  1.00  0.00     0.254 C 
HETATM   18  O3  UNL     1      45.370  17.481  14.386  1.00  0.00    -0.270 OA
HETATM   19  C22 UNL     1      43.073  17.867  14.238  1.00  0.00     0.173 C 
HETATM   20  C23 UNL     1      41.969  17.100  13.498  1.00  0.00     0.042 C 
HETATM   21  N3  UNL     1      43.463  18.932  13.354  1.00  0.00    -0.346 N 
ATOM     22  H3  UNL     1      43.685  18.655  12.397  1.00  0.00     0.163 HD
HETATM   23  C24 UNL     1      43.577  20.302  13.633  1.00  0.00     0.241 C 
HETATM   24  O4  UNL     1      42.944  21.156  12.905  1.00  0.00    -0.271 OA
HETATM   25  C25 UNL     1      44.381  20.917  14.722  1.00  0.00     0.180 C 
HETATM   26  N4  UNL     1      43.618  20.974  15.948  1.00  0.00    -0.343 N 
ATOM     27  H4  UNL     1      42.724  20.485  15.941  1.00  0.00     0.163 HD
HETATM   28  C30 UNL     1      43.956  21.617  17.139  1.00  0.00     0.260 C 
HETATM   29  O5  UNL     1      43.074  22.398  17.666  1.00  0.00    -0.267 OA
ENDROOT
BRANCH   1  30
HETATM   30  C5  UNL     1      45.770  22.771  18.382  1.00  0.00    -0.061 C 
HETATM   31  C4  UNL     1      46.235  23.822  18.820  1.00  0.00    -0.097 C 
BRANCH  31  32
HETATM   32  C3  UNL     1      46.781  25.069  19.350  1.00  0.00     0.120 C 
BRANCH  32  33
HETATM   33  C2  UNL     1      47.596  24.742  20.563  1.00  0.00    -0.025 C 
HETATM   34  C1  UNL     1      47.047  24.284  21.673  1.00  0.00     0.008 C 
ENDBRANCH  32  33
ENDBRANCH  31  32
ENDBRANCH   1  30
BRANCH  25  35
HETATM   35  C26 UNL     1      44.886  22.296  14.343  1.00  0.00     0.013 C 
HETATM   36  C27 UNL     1      44.746  22.611  12.885  1.00  0.00     0.012 C 
BRANCH  35  37
HETATM   37  C28 UNL     1      46.299  22.526  14.761  1.00  0.00     0.002 C 
HETATM   38  C29 UNL     1      46.619  23.969  15.048  1.00  0.00     0.005 C 
ENDBRANCH  35  37
ENDBRANCH  25  35
BRANCH  11  39
HETATM   39  C16 UNL     1      43.671  12.427  16.496  1.00  0.00     0.137 C 
BRANCH  39  40
HETATM   40  C17 UNL     1      42.492  11.533  16.687  1.00  0.00     0.024 C 
BRANCH  40  41
HETATM   41  C18 UNL     1      41.679  11.903  17.912  1.00  0.00    -0.021 C 
HETATM   42  C19 UNL     1      41.720  10.768  18.881  1.00  0.00     0.009 C 
HETATM   43  C20 UNL     1      40.241  12.176  17.529  1.00  0.00     0.009 C 
ENDBRANCH  40  41
ENDBRANCH  39  40
ENDBRANCH  11  39
TORSDOF 8
ENDMDL
