MODEL 1
REMARK VINA RESULT: -5.742136054      0.000      0.000
REMARK  4 active torsions:
REMARK  status: ('A' for Active; 'I' for Inactive)
REMARK    1  A    between atoms: C2_2  and  C5_5 
REMARK    2  A    between atoms: C5_5  and  N1_6 
REMARK    3  A    between atoms: N1_6  and  C6_8 
REMARK    4  A    between atoms: C9_14  and  N3_15 
ROOT
HETATM    1  C6  UNL     1      17.050  42.638  -0.194  1.00  0.00     0.310 C 
HETATM    2  N2  UNL     1      18.501  42.401  -0.080  1.00  0.00    -0.052 N 
ATOM      3  H21 UNL     1      19.082  43.172  -0.411  1.00  0.00     0.279 HD
ATOM      4  H22 UNL     1      18.868  41.704  -0.729  1.00  0.00     0.279 HD
HETATM    5  C7  UNL     1      18.683  42.067   1.341  1.00  0.00     0.237 C 
HETATM    6  C8  UNL     1      17.888  43.190   1.971  1.00  0.00     0.064 C 
HETATM    7  C9  UNL     1      16.783  43.526   0.964  1.00  0.00     0.234 C 
ENDROOT
BRANCH   1   8
HETATM    8  N1  UNL     1      16.827  43.191  -1.490  1.00  0.00    -0.393 N 
ATOM      9  H1  UNL     1      16.087  43.872  -1.663  1.00  0.00     0.155 HD
BRANCH   8  10
HETATM   10  C5  UNL     1      17.694  42.743  -2.528  1.00  0.00     0.124 C 
BRANCH  10  11
HETATM   11  C2  UNL     1      18.096  43.922  -3.391  1.00  0.00    -0.036 C 
HETATM   12  C1  UNL     1      18.836  43.463  -4.636  1.00  0.00     0.016 C 
HETATM   13  C3  UNL     1      16.865  44.664  -3.899  1.00  0.00     0.016 C 
HETATM   14  C4  UNL     1      18.939  44.932  -2.641  1.00  0.00     0.016 C 
ENDBRANCH  10  11
ENDBRANCH   8  10
ENDBRANCH   1   8
BRANCH   7  15
HETATM   15  N3  UNL     1      15.541  43.344   1.640  1.00  0.00    -0.071 N 
ATOM     16  H33 UNL     1      14.771  43.509   0.992  1.00  0.00     0.274 HD
ATOM     17  H32 UNL     1      15.405  42.353   1.844  1.00  0.00     0.274 HD
ATOM     18  H31 UNL     1      15.397  43.890   2.490  1.00  0.00     0.274 HD
ENDBRANCH   7  15
TORSDOF 4
ENDMDL
MODEL 2
REMARK VINA RESULT: -5.739680111      0.032      1.226
REMARK  4 active torsions:
REMARK  status: ('A' for Active; 'I' for Inactive)
REMARK    1  A    between atoms: C2_2  and  C5_5 
REMARK    2  A    between atoms: C5_5  and  N1_6 
REMARK    3  A    between atoms: N1_6  and  C6_8 
REMARK    4  A    between atoms: C9_14  and  N3_15 
ROOT
HETATM    1  C6  UNL     1      17.064  42.651  -0.202  1.00  0.00     0.310 C 
HETATM    2  N2  UNL     1      18.514  42.407  -0.088  1.00  0.00    -0.052 N 
ATOM      3  H21 UNL     1      19.099  43.175  -0.418  1.00  0.00     0.279 HD
ATOM      4  H22 UNL     1      18.877  41.709  -0.738  1.00  0.00     0.279 HD
HETATM    5  C7  UNL     1      18.695  42.070   1.332  1.00  0.00     0.237 C 
HETATM    6  C8  UNL     1      17.905  43.196   1.964  1.00  0.00     0.064 C 
HETATM    7  C9  UNL     1      16.802  43.540   0.958  1.00  0.00     0.234 C 
ENDROOT
BRANCH   1   8
HETATM    8  N1  UNL     1      16.844  43.207  -1.497  1.00  0.00    -0.393 N 
ATOM      9  H1  UNL     1      16.117  43.903  -1.666  1.00  0.00     0.155 HD
BRANCH   8  10
HETATM   10  C5  UNL     1      17.694  42.740  -2.540  1.00  0.00     0.124 C 
BRANCH  10  11
HETATM   11  C2  UNL     1      18.068  43.900  -3.441  1.00  0.00    -0.036 C 
HETATM   12  C1  UNL     1      16.835  44.668  -3.885  1.00  0.00     0.016 C 
HETATM   13  C3  UNL     1      18.929  44.910  -2.690  1.00  0.00     0.016 C 
HETATM   14  C4  UNL     1      18.861  43.463  -4.655  1.00  0.00     0.016 C 
ENDBRANCH  10  11
ENDBRANCH   8  10
ENDBRANCH   1   8
BRANCH   7  15
HETATM   15  N3  UNL     1      15.560  43.363   1.634  1.00  0.00    -0.071 N 
ATOM     16  H33 UNL     1      15.332  42.369   1.676  1.00  0.00     0.274 HD
ATOM     17  H32 UNL     1      15.677  43.571   2.626  1.00  0.00     0.274 HD
ATOM     18  H31 UNL     1      14.761  43.882   1.269  1.00  0.00     0.274 HD
ENDBRANCH   7  15
TORSDOF 4
ENDMDL
MODEL 3
REMARK VINA RESULT: -5.691937540      0.037      1.221
REMARK  4 active torsions:
REMARK  status: ('A' for Active; 'I' for Inactive)
REMARK    1  A    between atoms: C2_2  and  C5_5 
REMARK    2  A    between atoms: C5_5  and  N1_6 
REMARK    3  A    between atoms: N1_6  and  C6_8 
REMARK    4  A    between atoms: C9_14  and  N3_15 
ROOT
HETATM    1  C6  UNL     1      17.049  42.654  -0.179  1.00  0.00     0.310 C 
HETATM    2  N2  UNL     1      18.501  42.425  -0.061  1.00  0.00    -0.052 N 
ATOM      3  H21 UNL     1      19.079  43.204  -0.380  1.00  0.00     0.279 HD
ATOM      4  H22 UNL     1      18.876  41.739  -0.717  1.00  0.00     0.279 HD
HETATM    5  C7  UNL     1      18.679  42.074   1.356  1.00  0.00     0.237 C 
HETATM    6  C8  UNL     1      17.874  43.184   1.997  1.00  0.00     0.064 C 
HETATM    7  C9  UNL     1      16.772  43.527   0.989  1.00  0.00     0.234 C 
ENDROOT
BRANCH   1   8
HETATM    8  N1  UNL     1      16.829  43.223  -1.469  1.00  0.00    -0.393 N 
ATOM      9  H1  UNL     1      16.095  43.913  -1.634  1.00  0.00     0.155 HD
BRANCH   8  10
HETATM   10  C5  UNL     1      17.689  42.777  -2.513  1.00  0.00     0.124 C 
BRANCH  10  11
HETATM   11  C2  UNL     1      18.047  43.950  -3.404  1.00  0.00    -0.036 C 
HETATM   12  C1  UNL     1      18.966  44.923  -2.686  1.00  0.00     0.016 C 
HETATM   13  C3  UNL     1      18.826  43.481  -4.627  1.00  0.00     0.016 C 
HETATM   14  C4  UNL     1      16.827  44.686  -3.917  1.00  0.00     0.016 C 
ENDBRANCH  10  11
ENDBRANCH   8  10
ENDBRANCH   1   8
BRANCH   7  15
HETATM   15  N3  UNL     1      15.528  43.328   1.658  1.00  0.00    -0.071 N 
ATOM     16  H33 UNL     1      15.348  44.112   2.285  1.00  0.00     0.274 HD
ATOM     17  H32 UNL     1      14.762  43.439   0.994  1.00  0.00     0.274 HD
ATOM     18  H31 UNL     1      15.416  42.451   2.166  1.00  0.00     0.274 HD
ENDBRANCH   7  15
TORSDOF 4
ENDMDL
MODEL 4
REMARK VINA RESULT: -5.546240347      0.891      2.162
REMARK  4 active torsions:
REMARK  status: ('A' for Active; 'I' for Inactive)
REMARK    1  A    between atoms: C2_2  and  C5_5 
REMARK    2  A    between atoms: C5_5  and  N1_6 
REMARK    3  A    between atoms: N1_6  and  C6_8 
REMARK    4  A    between atoms: C9_14  and  N3_15 
ROOT
HETATM    1  C6  UNL     1      17.472  43.664  -0.011  1.00  0.00     0.310 C 
HETATM    2  N2  UNL     1      16.430  43.024   0.814  1.00  0.00    -0.052 N 
ATOM      3  H21 UNL     1      16.046  42.165   0.418  1.00  0.00     0.279 HD
ATOM      4  H22 UNL     1      15.545  43.531   0.845  1.00  0.00     0.279 HD
HETATM    5  C7  UNL     1      17.083  42.855   2.121  1.00  0.00     0.237 C 
HETATM    6  C8  UNL     1      18.396  42.248   1.673  1.00  0.00     0.064 C 
HETATM    7  C9  UNL     1      18.663  42.827   0.281  1.00  0.00     0.234 C 
ENDROOT
BRANCH   1   8
HETATM    8  N1  UNL     1      16.994  43.650  -1.355  1.00  0.00    -0.393 N 
ATOM      9  H1  UNL     1      16.111  44.088  -1.616  1.00  0.00     0.155 HD
BRANCH   8  10
HETATM   10  C5  UNL     1      17.818  42.991  -2.314  1.00  0.00     0.124 C 
BRANCH  10  11
HETATM   11  C2  UNL     1      18.154  43.955  -3.434  1.00  0.00    -0.036 C 
HETATM   12  C1  UNL     1      16.918  44.708  -3.898  1.00  0.00     0.016 C 
HETATM   13  C3  UNL     1      19.125  45.026  -2.951  1.00  0.00     0.016 C 
HETATM   14  C4  UNL     1      18.807  43.271  -4.616  1.00  0.00     0.016 C 
ENDBRANCH  10  11
ENDBRANCH   8  10
ENDBRANCH   1   8
BRANCH   7  15
HETATM   15  N3  UNL     1      19.918  43.499   0.349  1.00  0.00    -0.071 N 
ATOM     16  H33 UNL     1      19.794  44.412   0.789  1.00  0.00     0.274 HD
ATOM     17  H32 UNL     1      20.515  43.039   1.037  1.00  0.00     0.274 HD
ATOM     18  H31 UNL     1      20.428  43.609  -0.528  1.00  0.00     0.274 HD
ENDBRANCH   7  15
TORSDOF 4
ENDMDL
MODEL 5
REMARK VINA RESULT: -5.500435666      0.896      2.133
REMARK  4 active torsions:
REMARK  status: ('A' for Active; 'I' for Inactive)
REMARK    1  A    between atoms: C2_2  and  C5_5 
REMARK    2  A    between atoms: C5_5  and  N1_6 
REMARK    3  A    between atoms: N1_6  and  C6_8 
REMARK    4  A    between atoms: C9_14  and  N3_15 
ROOT
HETATM    1  C6  UNL     1      17.449  43.653  -0.041  1.00  0.00     0.310 C 
HETATM    2  N2  UNL     1      16.432  42.982   0.791  1.00  0.00    -0.052 N 
ATOM      3  H21 UNL     1      16.072  42.112   0.398  1.00  0.00     0.279 HD
ATOM      4  H22 UNL     1      15.533  43.462   0.828  1.00  0.00     0.279 HD
HETATM    5  C7  UNL     1      17.099  42.833   2.093  1.00  0.00     0.237 C 
HETATM    6  C8  UNL     1      18.426  42.267   1.638  1.00  0.00     0.064 C 
HETATM    7  C9  UNL     1      18.666  42.853   0.243  1.00  0.00     0.234 C 
ENDROOT
BRANCH   1   8
HETATM    8  N1  UNL     1      16.964  43.624  -1.382  1.00  0.00    -0.393 N 
ATOM      9  H1  UNL     1      16.060  44.026  -1.635  1.00  0.00     0.155 HD
BRANCH   8  10
HETATM   10  C5  UNL     1      17.808  43.006  -2.349  1.00  0.00     0.124 C 
BRANCH  10  11
HETATM   11  C2  UNL     1      18.143  44.006  -3.437  1.00  0.00    -0.036 C 
HETATM   12  C1  UNL     1      19.157  45.026  -2.949  1.00  0.00     0.016 C 
HETATM   13  C3  UNL     1      18.801  43.312  -4.624  1.00  0.00     0.016 C 
HETATM   14  C4  UNL     1      16.918  44.720  -3.969  1.00  0.00     0.016 C 
ENDBRANCH  10  11
ENDBRANCH   8  10
ENDBRANCH   1   8
BRANCH   7  15
HETATM   15  N3  UNL     1      19.901  43.563   0.303  1.00  0.00    -0.071 N 
ATOM     16  H33 UNL     1      20.178  43.685   1.278  1.00  0.00     0.274 HD
ATOM     17  H32 UNL     1      20.657  42.965  -0.032  1.00  0.00     0.274 HD
ATOM     18  H31 UNL     1      19.937  44.461  -0.178  1.00  0.00     0.274 HD
ENDBRANCH   7  15
TORSDOF 4
ENDMDL
