MODEL 1
REMARK VINA RESULT: -8.486294205      0.000      0.000
REMARK  9 active torsions:
REMARK  status: ('A' for Active; 'I' for Inactive)
REMARK    1  A    between atoms: C2_2  and  C5_5 
REMARK    2  A    between atoms: C5_5  and  C19_32 
REMARK    3  A    between atoms: C6_6  and  C7_7 
REMARK    4  A    between atoms: C7_7  and  C8_8 
REMARK    5  A    between atoms: C8_8  and  C9_9 
REMARK    6  A    between atoms: C8_8  and  C10_13 
REMARK    7  A    between atoms: C10_13  and  O1_15 
REMARK    8  A    between atoms: C10_13  and  C12_17 
REMARK    9  A    between atoms: C17_25  and  N2_26 
ROOT
HETATM    1  C8  UNL     1     -30.556  -6.194  -4.429  1.00  0.00     0.134 C 
ENDROOT
BRANCH   1   2
HETATM    2  C7  UNL     1     -30.436  -5.282  -5.612  1.00  0.00     0.044 C 
BRANCH   2   3
HETATM    3  C6  UNL     1     -30.050  -3.917  -5.418  1.00  0.00    -0.018 C 
HETATM    4  C5  UNL     1     -29.396  -3.038  -6.179  1.00  0.00    -0.049 C 
BRANCH   4   5
HETATM    5  C2  UNL     1     -28.929  -3.390  -7.512  1.00  0.00    -0.024 C 
HETATM    6  C1  UNL     1     -30.084  -3.743  -8.494  1.00  0.00     0.019 C 
HETATM    7  C3  UNL     1     -28.082  -2.316  -8.216  1.00  0.00     0.019 C 
HETATM    8  C4  UNL     1     -28.063  -4.621  -7.552  1.00  0.00     0.019 C 
ENDBRANCH   4   5
BRANCH   4   9
HETATM    9  C19 UNL     1     -29.180  -1.722  -5.466  1.00  0.00    -0.040 C 
HETATM   10  C20 UNL     1     -29.872  -0.561  -6.101  1.00  0.00     0.038 C 
HETATM   11  C21 UNL     1     -29.231   0.775  -6.063  1.00  0.00     0.004 C 
HETATM   12  C22 UNL     1     -28.443   0.930  -4.782  1.00  0.00     0.003 C 
HETATM   13  C23 UNL     1     -27.317  -0.089  -4.985  1.00  0.00     0.042 C 
HETATM   14  C24 UNL     1     -27.871  -1.494  -4.847  1.00  0.00     0.199 C 
HETATM   15  F4  UNL     1     -26.832  -2.330  -5.133  1.00  0.00    -0.245 F 
ENDBRANCH   4   9
ENDBRANCH   2   3
ENDBRANCH   1   2
BRANCH   1  16
HETATM   16  C9  UNL     1     -31.428  -5.672  -3.321  1.00  0.00     0.394 C 
HETATM   17  F1  UNL     1     -30.958  -4.370  -3.064  1.00  0.00    -0.171 F 
HETATM   18  F2  UNL     1     -31.601  -6.435  -2.237  1.00  0.00    -0.171 F 
HETATM   19  F3  UNL     1     -32.721  -5.402  -3.794  1.00  0.00    -0.171 F 
ENDBRANCH   1  16
BRANCH   1  20
HETATM   20  C10 UNL     1     -29.299  -6.847  -3.935  1.00  0.00     0.098 C 
HETATM   21  C11 UNL     1     -28.032  -6.336  -4.471  1.00  0.00     0.050 C 
BRANCH  20  22
HETATM   22  O1  UNL     1     -29.267  -6.697  -2.515  1.00  0.00    -0.387 OA
ATOM     23  H1  UNL     1     -29.992  -6.135  -2.270  1.00  0.00     0.210 HD
ENDBRANCH  20  22
BRANCH  20  24
HETATM   24  C12 UNL     1     -29.335  -8.366  -4.159  1.00  0.00     0.206 C 
HETATM   25  O2  UNL     1     -28.802  -9.017  -3.059  1.00  0.00    -0.376 OA
HETATM   26  C13 UNL     1     -28.081 -10.141  -3.288  1.00  0.00     0.173 C 
HETATM   27  C14 UNL     1     -26.822  -9.690  -4.062  1.00  0.00     0.068 C 
HETATM   28  C15 UNL     1     -27.373  -9.322  -5.385  1.00  0.00    -0.014 A 
HETATM   29  C16 UNL     1     -26.750  -9.595  -6.572  1.00  0.00     0.115 A 
HETATM   30  C18 UNL     1     -28.614  -8.689  -5.412  1.00  0.00     0.066 A 
HETATM   31  N1  UNL     1     -27.290  -9.278  -7.770  1.00  0.00    -0.202 N 
HETATM   32  C17 UNL     1     -28.474  -8.676  -7.786  1.00  0.00     0.675 A 
ATOM     33  H1  UNL     1     -26.800  -9.494  -8.638  1.00  0.00     0.183 HD
HETATM   34  N3  UNL     1     -29.122  -8.387  -6.646  1.00  0.00    -0.193 N 
ATOM     35  H3  UNL     1     -30.029  -7.924  -6.702  1.00  0.00     0.184 HD
BRANCH  32  36
HETATM   36  N2  UNL     1     -29.013  -8.361  -8.919  1.00  0.00    -0.234 N 
ATOM     37  H22 UNL     1     -28.749  -8.876  -9.758  1.00  0.00     0.174 HD
ATOM     38  H21 UNL     1     -29.696  -7.604  -8.958  1.00  0.00     0.174 HD
ENDBRANCH  32  36
ENDBRANCH  20  24
ENDBRANCH   1  20
TORSDOF 9
ENDMDL
MODEL 2
REMARK VINA RESULT: -8.333990830      1.577      2.269
REMARK  9 active torsions:
REMARK  status: ('A' for Active; 'I' for Inactive)
REMARK    1  A    between atoms: C2_2  and  C5_5 
REMARK    2  A    between atoms: C5_5  and  C19_32 
REMARK    3  A    between atoms: C6_6  and  C7_7 
REMARK    4  A    between atoms: C7_7  and  C8_8 
REMARK    5  A    between atoms: C8_8  and  C9_9 
REMARK    6  A    between atoms: C8_8  and  C10_13 
REMARK    7  A    between atoms: C10_13  and  O1_15 
REMARK    8  A    between atoms: C10_13  and  C12_17 
REMARK    9  A    between atoms: C17_25  and  N2_26 
ROOT
HETATM    1  C8  UNL     1     -31.218  -5.627  -4.263  1.00  0.00     0.134 C 
ENDROOT
BRANCH   1   2
HETATM    2  C7  UNL     1     -31.306  -4.612  -5.362  1.00  0.00     0.044 C 
BRANCH   2   3
HETATM    3  C6  UNL     1     -30.668  -3.341  -5.206  1.00  0.00    -0.018 C 
HETATM    4  C5  UNL     1     -29.713  -2.708  -5.892  1.00  0.00    -0.049 C 
BRANCH   4   5
HETATM    5  C2  UNL     1     -29.111  -3.304  -7.075  1.00  0.00    -0.024 C 
HETATM    6  C1  UNL     1     -30.144  -4.015  -7.998  1.00  0.00     0.019 C 
HETATM    7  C3  UNL     1     -28.331  -2.330  -7.975  1.00  0.00     0.019 C 
HETATM    8  C4  UNL     1     -28.119  -4.396  -6.774  1.00  0.00     0.019 C 
ENDBRANCH   4   5
BRANCH   4   9
HETATM    9  C19 UNL     1     -29.340  -1.388  -5.256  1.00  0.00    -0.040 C 
HETATM   10  C20 UNL     1     -29.931  -0.195  -5.933  1.00  0.00     0.038 C 
HETATM   11  C21 UNL     1     -29.156   1.067  -5.985  1.00  0.00     0.004 C 
HETATM   12  C22 UNL     1     -28.313   1.204  -4.738  1.00  0.00     0.003 C 
HETATM   13  C23 UNL     1     -27.305   0.065  -4.917  1.00  0.00     0.042 C 
HETATM   14  C24 UNL     1     -27.995  -1.266  -4.689  1.00  0.00     0.199 C 
HETATM   15  F4  UNL     1     -27.057  -2.219  -4.959  1.00  0.00    -0.245 F 
ENDBRANCH   4   9
ENDBRANCH   2   3
ENDBRANCH   1   2
BRANCH   1  16
HETATM   16  C9  UNL     1     -31.909  -5.232  -2.988  1.00  0.00     0.394 C 
HETATM   17  F1  UNL     1     -33.285  -5.258  -3.291  1.00  0.00    -0.171 F 
HETATM   18  F2  UNL     1     -31.492  -4.132  -2.353  1.00  0.00    -0.171 F 
HETATM   19  F3  UNL     1     -31.824  -6.262  -2.040  1.00  0.00    -0.171 F 
ENDBRANCH   1  16
BRANCH   1  20
HETATM   20  C10 UNL     1     -29.887  -6.279  -4.036  1.00  0.00     0.098 C 
HETATM   21  C11 UNL     1     -28.877  -5.495  -3.316  1.00  0.00     0.050 C 
BRANCH  20  22
HETATM   22  O1  UNL     1     -30.117  -7.480  -3.297  1.00  0.00    -0.387 OA
ATOM     23  H1  UNL     1     -29.340  -7.649  -2.777  1.00  0.00     0.210 HD
ENDBRANCH  20  22
BRANCH  20  24
HETATM   24  C12 UNL     1     -29.267  -6.757  -5.358  1.00  0.00     0.206 C 
HETATM   25  O2  UNL     1     -30.267  -7.135  -6.238  1.00  0.00    -0.376 OA
HETATM   26  C13 UNL     1     -30.017  -8.190  -7.051  1.00  0.00     0.173 C 
HETATM   27  C14 UNL     1     -29.891  -9.421  -6.126  1.00  0.00     0.068 C 
HETATM   28  C15 UNL     1     -28.608  -9.171  -5.432  1.00  0.00    -0.014 A 
HETATM   29  C16 UNL     1     -27.693 -10.146  -5.148  1.00  0.00     0.115 A 
HETATM   30  C18 UNL     1     -28.313  -7.855  -5.078  1.00  0.00     0.066 A 
HETATM   31  N1  UNL     1     -26.514  -9.888  -4.541  1.00  0.00    -0.202 N 
HETATM   32  C17 UNL     1     -26.240  -8.631  -4.210  1.00  0.00     0.675 A 
ATOM     33  H1  UNL     1     -25.851 -10.638  -4.343  1.00  0.00     0.183 HD
HETATM   34  N3  UNL     1     -27.109  -7.640  -4.467  1.00  0.00    -0.193 N 
ATOM     35  H3  UNL     1     -26.861  -6.688  -4.196  1.00  0.00     0.184 HD
BRANCH  32  36
HETATM   36  N2  UNL     1     -25.118  -8.354  -3.628  1.00  0.00    -0.234 N 
ATOM     37  H22 UNL     1     -24.768  -7.397  -3.649  1.00  0.00     0.174 HD
ATOM     38  H21 UNL     1     -24.600  -9.095  -3.157  1.00  0.00     0.174 HD
ENDBRANCH  32  36
ENDBRANCH  20  24
ENDBRANCH   1  20
TORSDOF 9
ENDMDL
MODEL 3
REMARK VINA RESULT: -8.259328146     15.180     17.127
REMARK  9 active torsions:
REMARK  status: ('A' for Active; 'I' for Inactive)
REMARK    1  A    between atoms: C2_2  and  C5_5 
REMARK    2  A    between atoms: C5_5  and  C19_32 
REMARK    3  A    between atoms: C6_6  and  C7_7 
REMARK    4  A    between atoms: C7_7  and  C8_8 
REMARK    5  A    between atoms: C8_8  and  C9_9 
REMARK    6  A    between atoms: C8_8  and  C10_13 
REMARK    7  A    between atoms: C10_13  and  O1_15 
REMARK    8  A    between atoms: C10_13  and  C12_17 
REMARK    9  A    between atoms: C17_25  and  N2_26 
ROOT
HETATM    1  C8  UNL     1     -14.650  -3.986 -12.450  1.00  0.00     0.134 C 
ENDROOT
BRANCH   1   2
HETATM    2  C7  UNL     1     -13.695  -2.892 -12.816  1.00  0.00     0.044 C 
BRANCH   2   3
HETATM    3  C6  UNL     1     -14.198  -1.653 -13.325  1.00  0.00    -0.018 C 
HETATM    4  C5  UNL     1     -13.614  -0.592 -13.886  1.00  0.00    -0.049 C 
BRANCH   4   5
HETATM    5  C2  UNL     1     -12.176  -0.547 -14.102  1.00  0.00    -0.024 C 
HETATM    6  C1  UNL     1     -11.354  -1.028 -12.870  1.00  0.00     0.019 C 
HETATM    7  C3  UNL     1     -11.667  -1.365 -15.302  1.00  0.00     0.019 C 
HETATM    8  C4  UNL     1     -11.636   0.837 -14.349  1.00  0.00     0.019 C 
ENDBRANCH   4   5
BRANCH   4   9
HETATM    9  C19 UNL     1     -14.608   0.507 -14.189  1.00  0.00    -0.040 C 
HETATM   10  C20 UNL     1     -15.799   0.519 -13.290  1.00  0.00     0.038 C 
HETATM   11  C21 UNL     1     -17.116   0.930 -13.835  1.00  0.00     0.004 C 
HETATM   12  C22 UNL     1     -16.923   1.979 -14.905  1.00  0.00     0.003 C 
HETATM   13  C23 UNL     1     -16.225   1.177 -16.007  1.00  0.00     0.042 C 
HETATM   14  C24 UNL     1     -14.797   0.880 -15.594  1.00  0.00     0.199 C 
HETATM   15  F4  UNL     1     -14.283   0.090 -16.580  1.00  0.00    -0.245 F 
ENDBRANCH   4   9
ENDBRANCH   2   3
ENDBRANCH   1   2
BRANCH   1  16
HETATM   16  C9  UNL     1     -15.560  -4.424 -13.563  1.00  0.00     0.394 C 
HETATM   17  F1  UNL     1     -14.744  -4.469 -14.710  1.00  0.00    -0.171 F 
HETATM   18  F2  UNL     1     -16.723  -3.784 -13.722  1.00  0.00    -0.171 F 
HETATM   19  F3  UNL     1     -15.898  -5.778 -13.422  1.00  0.00    -0.171 F 
ENDBRANCH   1  16
BRANCH   1  20
HETATM   20  C10 UNL     1     -15.347  -3.875 -11.126  1.00  0.00     0.098 C 
HETATM   21  C11 UNL     1     -15.875  -2.554 -10.763  1.00  0.00     0.050 C 
BRANCH  20  22
HETATM   22  O1  UNL     1     -16.440  -4.795 -11.137  1.00  0.00    -0.387 OA
ATOM     23  H1  UNL     1     -17.242  -4.287 -11.092  1.00  0.00     0.210 HD
ENDBRANCH  20  22
BRANCH  20  24
HETATM   24  C12 UNL     1     -14.449  -4.361  -9.980  1.00  0.00     0.206 C 
HETATM   25  O2  UNL     1     -13.766  -3.289  -9.428  1.00  0.00    -0.376 OA
HETATM   26  C13 UNL     1     -12.498  -3.509  -9.004  1.00  0.00     0.173 C 
HETATM   27  C14 UNL     1     -11.673  -3.825 -10.271  1.00  0.00     0.068 C 
HETATM   28  C15 UNL     1     -12.175  -5.163 -10.656  1.00  0.00    -0.014 A 
HETATM   29  C16 UNL     1     -11.379  -6.167 -11.133  1.00  0.00     0.115 A 
HETATM   30  C18 UNL     1     -13.537  -5.411 -10.490  1.00  0.00     0.066 A 
HETATM   31  N1  UNL     1     -11.857  -7.391 -11.447  1.00  0.00    -0.202 N 
HETATM   32  C17 UNL     1     -13.155  -7.620 -11.284  1.00  0.00     0.675 A 
ATOM     33  H1  UNL     1     -11.238  -8.120 -11.801  1.00  0.00     0.183 HD
HETATM   34  N3  UNL     1     -13.976  -6.663 -10.820  1.00  0.00    -0.193 N 
ATOM     35  H3  UNL     1     -14.967  -6.879 -10.710  1.00  0.00     0.184 HD
BRANCH  32  36
HETATM   36  N2  UNL     1     -13.640  -8.783 -11.577  1.00  0.00    -0.234 N 
ATOM     37  H22 UNL     1     -13.068  -9.614 -11.429  1.00  0.00     0.174 HD
ATOM     38  H21 UNL     1     -14.586  -8.854 -11.951  1.00  0.00     0.174 HD
ENDBRANCH  32  36
ENDBRANCH  20  24
ENDBRANCH   1  20
TORSDOF 9
ENDMDL
MODEL 4
REMARK VINA RESULT: -8.177157807     14.763     16.668
REMARK  9 active torsions:
REMARK  status: ('A' for Active; 'I' for Inactive)
REMARK    1  A    between atoms: C2_2  and  C5_5 
REMARK    2  A    between atoms: C5_5  and  C19_32 
REMARK    3  A    between atoms: C6_6  and  C7_7 
REMARK    4  A    between atoms: C7_7  and  C8_8 
REMARK    5  A    between atoms: C8_8  and  C9_9 
REMARK    6  A    between atoms: C8_8  and  C10_13 
REMARK    7  A    between atoms: C10_13  and  O1_15 
REMARK    8  A    between atoms: C10_13  and  C12_17 
REMARK    9  A    between atoms: C17_25  and  N2_26 
ROOT
HETATM    1  C8  UNL     1     -15.999  -3.290 -12.739  1.00  0.00     0.134 C 
ENDROOT
BRANCH   1   2
HETATM    2  C7  UNL     1     -15.262  -2.506 -13.780  1.00  0.00     0.044 C 
BRANCH   2   3
HETATM    3  C6  UNL     1     -15.643  -1.153 -14.051  1.00  0.00    -0.018 C 
HETATM    4  C5  UNL     1     -14.953  -0.060 -14.383  1.00  0.00    -0.049 C 
BRANCH   4   5
HETATM    5  C2  UNL     1     -13.509  -0.100 -14.557  1.00  0.00    -0.024 C 
HETATM    6  C1  UNL     1     -12.776  -0.881 -13.427  1.00  0.00     0.019 C 
HETATM    7  C3  UNL     1     -13.024  -0.711 -15.883  1.00  0.00     0.019 C 
HETATM    8  C4  UNL     1     -12.848   1.253 -14.515  1.00  0.00     0.019 C 
ENDBRANCH   4   5
BRANCH   4   9
HETATM    9  C19 UNL     1     -15.842   1.160 -14.489  1.00  0.00    -0.040 C 
HETATM   10  C20 UNL     1     -17.037   1.125 -13.595  1.00  0.00     0.038 C 
HETATM   11  C21 UNL     1     -18.305   1.739 -14.055  1.00  0.00     0.004 C 
HETATM   12  C22 UNL     1     -18.009   2.934 -14.931  1.00  0.00     0.003 C 
HETATM   13  C23 UNL     1     -17.374   2.272 -16.157  1.00  0.00     0.042 C 
HETATM   14  C24 UNL     1     -15.982   1.783 -15.808  1.00  0.00     0.199 C 
HETATM   15  F4  UNL     1     -15.531   1.129 -16.917  1.00  0.00    -0.245 F 
ENDBRANCH   4   9
ENDBRANCH   2   3
ENDBRANCH   1   2
BRANCH   1  16
HETATM   16  C9  UNL     1     -15.784  -2.818 -11.329  1.00  0.00     0.394 C 
HETATM   17  F1  UNL     1     -14.392  -2.889 -11.124  1.00  0.00    -0.171 F 
HETATM   18  F2  UNL     1     -16.526  -3.359 -10.357  1.00  0.00    -0.171 F 
HETATM   19  F3  UNL     1     -15.998  -1.435 -11.232  1.00  0.00    -0.171 F 
ENDBRANCH   1  16
BRANCH   1  20
HETATM   20  C10 UNL     1     -15.990  -4.784 -12.870  1.00  0.00     0.098 C 
HETATM   21  C11 UNL     1     -16.145  -5.560 -11.634  1.00  0.00     0.050 C 
BRANCH  20  22
HETATM   22  O1  UNL     1     -17.055  -5.145 -13.750  1.00  0.00    -0.387 OA
ATOM     23  H1  UNL     1     -17.845  -5.217 -13.228  1.00  0.00     0.210 HD
ENDBRANCH  20  22
BRANCH  20  24
HETATM   24  C12 UNL     1     -14.721  -5.273 -13.584  1.00  0.00     0.206 C 
HETATM   25  O2  UNL     1     -15.063  -5.931 -14.755  1.00  0.00    -0.376 OA
HETATM   26  C13 UNL     1     -14.310  -6.999 -15.113  1.00  0.00     0.173 C 
HETATM   27  C14 UNL     1     -14.555  -8.075 -14.031  1.00  0.00     0.068 C 
HETATM   28  C15 UNL     1     -13.863  -7.509 -12.852  1.00  0.00    -0.014 A 
HETATM   29  C16 UNL     1     -13.133  -8.252 -11.967  1.00  0.00     0.115 A 
HETATM   30  C18 UNL     1     -13.943  -6.130 -12.660  1.00  0.00     0.066 A 
HETATM   31  N1  UNL     1     -12.484  -7.706 -10.915  1.00  0.00    -0.202 N 
HETATM   32  C17 UNL     1     -12.563  -6.392 -10.741  1.00  0.00     0.675 A 
ATOM     33  H1  UNL     1     -11.947  -8.288 -10.272  1.00  0.00     0.183 HD
HETATM   34  N3  UNL     1     -13.270  -5.621 -11.584  1.00  0.00    -0.193 N 
ATOM     35  H3  UNL     1     -13.307  -4.616 -11.414  1.00  0.00     0.184 HD
BRANCH  32  36
HETATM   36  N2  UNL     1     -11.952  -5.842  -9.742  1.00  0.00    -0.234 N 
ATOM     37  H22 UNL     1     -10.932  -5.837  -9.723  1.00  0.00     0.174 HD
ATOM     38  H21 UNL     1     -12.495  -5.421  -8.989  1.00  0.00     0.174 HD
ENDBRANCH  32  36
ENDBRANCH  20  24
ENDBRANCH   1  20
TORSDOF 9
ENDMDL
MODEL 5
REMARK VINA RESULT: -8.159550957     14.977     16.796
REMARK  9 active torsions:
REMARK  status: ('A' for Active; 'I' for Inactive)
REMARK    1  A    between atoms: C2_2  and  C5_5 
REMARK    2  A    between atoms: C5_5  and  C19_32 
REMARK    3  A    between atoms: C6_6  and  C7_7 
REMARK    4  A    between atoms: C7_7  and  C8_8 
REMARK    5  A    between atoms: C8_8  and  C9_9 
REMARK    6  A    between atoms: C8_8  and  C10_13 
REMARK    7  A    between atoms: C10_13  and  O1_15 
REMARK    8  A    between atoms: C10_13  and  C12_17 
REMARK    9  A    between atoms: C17_25  and  N2_26 
ROOT
HETATM    1  C8  UNL     1     -14.740  -3.903 -12.504  1.00  0.00     0.134 C 
ENDROOT
BRANCH   1   2
HETATM    2  C7  UNL     1     -14.131  -2.612 -12.959  1.00  0.00     0.044 C 
BRANCH   2   3
HETATM    3  C6  UNL     1     -14.941  -1.645 -13.634  1.00  0.00    -0.018 C 
HETATM    4  C5  UNL     1     -14.693  -0.429 -14.124  1.00  0.00    -0.049 C 
BRANCH   4   5
HETATM    5  C2  UNL     1     -13.367   0.164 -14.040  1.00  0.00    -0.024 C 
HETATM    6  C1  UNL     1     -12.685   0.343 -15.429  1.00  0.00     0.019 C 
HETATM    7  C3  UNL     1     -13.305   1.539 -13.353  1.00  0.00     0.019 C 
HETATM    8  C4  UNL     1     -12.370  -0.669 -13.279  1.00  0.00     0.019 C 
ENDBRANCH   4   5
BRANCH   4   9
HETATM    9  C19 UNL     1     -15.937   0.217 -14.692  1.00  0.00    -0.040 C 
HETATM   10  C20 UNL     1     -15.694   1.046 -15.910  1.00  0.00     0.038 C 
HETATM   11  C21 UNL     1     -16.505   2.267 -16.130  1.00  0.00     0.004 C 
HETATM   12  C22 UNL     1     -17.898   2.064 -15.578  1.00  0.00     0.003 C 
HETATM   13  C23 UNL     1     -17.627   1.986 -14.073  1.00  0.00     0.042 C 
HETATM   14  C24 UNL     1     -16.961   0.664 -13.744  1.00  0.00     0.199 C 
HETATM   15  F4  UNL     1     -16.673   0.718 -12.411  1.00  0.00    -0.245 F 
ENDBRANCH   4   9
ENDBRANCH   2   3
ENDBRANCH   1   2
BRANCH   1  16
HETATM   16  C9  UNL     1     -15.611  -4.580 -13.525  1.00  0.00     0.394 C 
HETATM   17  F1  UNL     1     -14.883  -4.519 -14.729  1.00  0.00    -0.171 F 
HETATM   18  F2  UNL     1     -16.890  -4.204 -13.619  1.00  0.00    -0.171 F 
HETATM   19  F3  UNL     1     -15.647  -5.965 -13.304  1.00  0.00    -0.171 F 
ENDBRANCH   1  16
BRANCH   1  20
HETATM   20  C10 UNL     1     -15.314  -3.941 -11.119  1.00  0.00     0.098 C 
HETATM   21  C11 UNL     1     -15.959  -2.715 -10.634  1.00  0.00     0.050 C 
BRANCH  20  22
HETATM   22  O1  UNL     1     -16.284  -4.989 -11.084  1.00  0.00    -0.387 OA
ATOM     23  H1  UNL     1     -16.903  -4.829 -11.787  1.00  0.00     0.210 HD
ENDBRANCH  20  22
BRANCH  20  24
HETATM   24  C12 UNL     1     -14.257  -4.364 -10.088  1.00  0.00     0.206 C 
HETATM   25  O2  UNL     1     -13.520  -3.261  -9.689  1.00  0.00    -0.376 OA
HETATM   26  C13 UNL     1     -12.202  -3.450  -9.437  1.00  0.00     0.173 C 
HETATM   27  C14 UNL     1     -11.558  -3.822 -10.791  1.00  0.00     0.068 C 
HETATM   28  C15 UNL     1     -12.089  -5.180 -11.038  1.00  0.00    -0.014 A 
HETATM   29  C16 UNL     1     -11.354  -6.201 -11.573  1.00  0.00     0.115 A 
HETATM   30  C18 UNL     1     -13.411  -5.431 -10.671  1.00  0.00     0.066 A 
HETATM   31  N1  UNL     1     -11.854  -7.443 -11.759  1.00  0.00    -0.202 N 
HETATM   32  C17 UNL     1     -13.113  -7.673 -11.404  1.00  0.00     0.675 A 
ATOM     33  H1  UNL     1     -11.279  -8.184 -12.161  1.00  0.00     0.183 HD
HETATM   34  N3  UNL     1     -13.874  -6.701 -10.876  1.00  0.00    -0.193 N 
ATOM     35  H3  UNL     1     -14.836  -6.919 -10.617  1.00  0.00     0.184 HD
BRANCH  32  36
HETATM   36  N2  UNL     1     -13.617  -8.852 -11.571  1.00  0.00    -0.234 N 
ATOM     37  H22 UNL     1     -13.200  -9.647 -11.086  1.00  0.00     0.174 HD
ATOM     38  H21 UNL     1     -14.424  -8.973 -12.182  1.00  0.00     0.174 HD
ENDBRANCH  32  36
ENDBRANCH  20  24
ENDBRANCH   1  20
TORSDOF 9
ENDMDL
