MODEL 1
REMARK VINA RESULT: -9.994927306      0.000      0.000
REMARK  5 active torsions:
REMARK  status: ('A' for Active; 'I' for Inactive)
REMARK    1  A    between atoms: C6_12  and  C7_13 
REMARK    2  A    between atoms: C8_16  and  C9_17 
REMARK    3  A    between atoms: C13_22  and  N4_23 
REMARK    4  A    between atoms: N4_23  and  C14_25 
REMARK    5  A    between atoms: C14_25  and  C15_26 
ROOT
HETATM    1  C7  UNL     1     -28.648  -3.842  -6.753  1.00  0.00     0.069 A 
HETATM    2  N3  UNL     1     -28.098  -3.688  -7.961  1.00  0.00    -0.339 N 
ATOM      3  H3  UNL     1     -27.776  -4.455  -8.551  1.00  0.00     0.167 HD
HETATM    4  C8  UNL     1     -28.023  -2.361  -8.302  1.00  0.00     0.118 A 
HETATM    5  N5  UNL     1     -28.541  -1.700  -7.286  1.00  0.00    -0.334 N 
HETATM    6  C19 UNL     1     -28.930  -2.574  -6.321  1.00  0.00     0.041 A 
HETATM    7  C20 UNL     1     -29.527  -2.231  -5.018  1.00  0.00     0.059 C 
HETATM    8  C21 UNL     1     -28.461  -1.387  -4.301  1.00  0.00     0.006 C 
HETATM    9  C22 UNL     1     -28.492   0.043  -4.742  1.00  0.00     0.002 C 
HETATM   10  C23 UNL     1     -27.838   0.263  -6.108  1.00  0.00     0.020 C 
HETATM   11  C24 UNL     1     -28.740  -0.285  -7.198  1.00  0.00     0.131 C 
ENDROOT
BRANCH   4  12
HETATM   12  C9  UNL     1     -27.474  -1.928  -9.596  1.00  0.00     0.011 A 
HETATM   13  C10 UNL     1     -28.275  -2.070 -10.725  1.00  0.00     0.018 A 
HETATM   14  C11 UNL     1     -27.859  -1.758 -12.000  1.00  0.00     0.045 A 
HETATM   15  C12 UNL     1     -26.562  -1.274 -12.177  1.00  0.00     0.142 A 
HETATM   16  F2  UNL     1     -26.075  -0.944 -13.396  1.00  0.00    -0.204 F 
HETATM   17  C13 UNL     1     -25.740  -1.121 -11.095  1.00  0.00     0.068 A 
HETATM   18  C18 UNL     1     -26.214  -1.454  -9.812  1.00  0.00     0.047 A 
BRANCH  17  19
HETATM   19  N4  UNL     1     -24.432  -0.634 -11.253  1.00  0.00    -0.387 N 
ATOM     20  H4  UNL     1     -24.222   0.301 -10.906  1.00  0.00     0.159 HD
BRANCH  19  21
HETATM   21  C14 UNL     1     -23.364  -1.385 -11.883  1.00  0.00     0.130 C 
BRANCH  21  22
HETATM   22  C15 UNL     1     -22.439  -0.427 -12.577  1.00  0.00     0.081 A 
HETATM   23  C16 UNL     1     -22.901   0.911 -13.025  1.00  0.00     0.091 A 
HETATM   24  C17 UNL     1     -22.550  -0.175 -14.035  1.00  0.00     0.249 A 
HETATM   25  F3  UNL     1     -21.440   0.076 -14.807  1.00  0.00    -0.206 F 
HETATM   26  F4  UNL     1     -23.596  -0.797 -14.687  1.00  0.00    -0.206 F 
ENDBRANCH  21  22
ENDBRANCH  19  21
ENDBRANCH  17  19
ENDBRANCH   4  12
BRANCH   1  27
HETATM   27  C6  UNL     1     -28.899  -5.092  -6.039  1.00  0.00     0.018 A 
HETATM   28  C2  UNL     1     -28.219  -5.431  -4.902  1.00  0.00     0.019 A 
HETATM   29  C1  UNL     1     -27.166  -4.555  -4.316  1.00  0.00     0.069 C 
HETATM   30  N1  UNL     1     -28.507  -6.618  -4.275  1.00  0.00    -0.343 N 
HETATM   31  C3  UNL     1     -29.431  -7.473  -4.720  1.00  0.00     0.138 A 
ATOM     32  H1  UNL     1     -27.991  -6.857  -3.429  1.00  0.00     0.167 HD
HETATM   33  N2  UNL     1     -29.652  -8.575  -4.079  1.00  0.00    -0.383 N 
HETATM   34  C4  UNL     1     -30.131  -7.157  -5.863  1.00  0.00     0.160 A 
ATOM     35  H22 UNL     1     -29.133  -8.809  -3.232  1.00  0.00     0.157 HD
ATOM     36  H21 UNL     1     -30.357  -9.229  -4.418  1.00  0.00     0.157 HD
HETATM   37  F1  UNL     1     -31.063  -8.026  -6.306  1.00  0.00    -0.202 F 
HETATM   38  C5  UNL     1     -29.853  -5.949  -6.520  1.00  0.00     0.062 A 
ENDBRANCH   1  27
TORSDOF 5
ENDMDL
MODEL 2
REMARK VINA RESULT: -9.897398065      8.623     13.577
REMARK  5 active torsions:
REMARK  status: ('A' for Active; 'I' for Inactive)
REMARK    1  A    between atoms: C6_12  and  C7_13 
REMARK    2  A    between atoms: C8_16  and  C9_17 
REMARK    3  A    between atoms: C13_22  and  N4_23 
REMARK    4  A    between atoms: N4_23  and  C14_25 
REMARK    5  A    between atoms: C14_25  and  C15_26 
ROOT
HETATM    1  C7  UNL     1     -15.202  -1.785 -13.771  1.00  0.00     0.069 A 
HETATM    2  N3  UNL     1     -16.353  -1.196 -14.110  1.00  0.00    -0.339 N 
ATOM      3  H3  UNL     1     -17.258  -1.666 -14.134  1.00  0.00     0.167 HD
HETATM    4  C8  UNL     1     -16.156   0.126 -14.422  1.00  0.00     0.118 A 
HETATM    5  N5  UNL     1     -14.865   0.343 -14.264  1.00  0.00    -0.334 N 
HETATM    6  C19 UNL     1     -14.252  -0.804 -13.870  1.00  0.00     0.041 A 
HETATM    7  C20 UNL     1     -12.811  -0.985 -13.617  1.00  0.00     0.059 C 
HETATM    8  C21 UNL     1     -12.129  -0.681 -14.960  1.00  0.00     0.006 C 
HETATM    9  C22 UNL     1     -11.952   0.789 -15.176  1.00  0.00     0.002 C 
HETATM   10  C23 UNL     1     -13.243   1.492 -15.600  1.00  0.00     0.020 C 
HETATM   11  C24 UNL     1     -14.183   1.593 -14.413  1.00  0.00     0.131 C 
ENDROOT
BRANCH   4  12
HETATM   12  C9  UNL     1     -17.272   1.001 -14.809  1.00  0.00     0.011 A 
HETATM   13  C10 UNL     1     -16.978   2.311 -15.176  1.00  0.00     0.018 A 
HETATM   14  C11 UNL     1     -17.936   3.246 -15.501  1.00  0.00     0.045 A 
HETATM   15  C12 UNL     1     -19.278   2.865 -15.462  1.00  0.00     0.142 A 
HETATM   16  F2  UNL     1     -20.280   3.721 -15.767  1.00  0.00    -0.204 F 
HETATM   17  C13 UNL     1     -19.612   1.587 -15.105  1.00  0.00     0.068 A 
HETATM   18  C18 UNL     1     -18.595   0.670 -14.781  1.00  0.00     0.047 A 
BRANCH  17  19
HETATM   19  N4  UNL     1     -20.957   1.186 -15.061  1.00  0.00    -0.387 N 
ATOM     20  H4  UNL     1     -21.449   1.056 -15.945  1.00  0.00     0.159 HD
BRANCH  19  21
HETATM   21  C14 UNL     1     -21.686   0.946 -13.832  1.00  0.00     0.130 C 
BRANCH  21  22
HETATM   22  C15 UNL     1     -22.503  -0.305 -13.986  1.00  0.00     0.081 A 
HETATM   23  C16 UNL     1     -23.934  -0.350 -13.590  1.00  0.00     0.091 A 
HETATM   24  C17 UNL     1     -22.880  -1.124 -12.808  1.00  0.00     0.249 A 
HETATM   25  F3  UNL     1     -22.975  -2.494 -12.888  1.00  0.00    -0.206 F 
HETATM   26  F4  UNL     1     -22.513  -0.629 -11.573  1.00  0.00    -0.206 F 
ENDBRANCH  21  22
ENDBRANCH  19  21
ENDBRANCH  17  19
ENDBRANCH   4  12
BRANCH   1  27
HETATM   27  C6  UNL     1     -14.994  -3.177 -13.376  1.00  0.00     0.018 A 
HETATM   28  C2  UNL     1     -15.232  -3.616 -12.103  1.00  0.00     0.019 A 
HETATM   29  C1  UNL     1     -15.710  -2.705 -11.025  1.00  0.00     0.069 C 
HETATM   30  N1  UNL     1     -15.024  -4.938 -11.799  1.00  0.00    -0.343 N 
HETATM   31  C3  UNL     1     -14.596  -5.834 -12.691  1.00  0.00     0.138 A 
ATOM     32  H1  UNL     1     -15.204  -5.250 -10.845  1.00  0.00     0.167 HD
HETATM   33  N2  UNL     1     -14.420  -7.066 -12.335  1.00  0.00    -0.383 N 
HETATM   34  C4  UNL     1     -14.348  -5.419 -13.981  1.00  0.00     0.160 A 
ATOM     35  H22 UNL     1     -14.603  -7.373 -11.380  1.00  0.00     0.157 HD
ATOM     36  H21 UNL     1     -14.093  -7.751 -13.016  1.00  0.00     0.157 HD
HETATM   37  F1  UNL     1     -13.916  -6.330 -14.877  1.00  0.00    -0.202 F 
HETATM   38  C5  UNL     1     -14.555  -4.072 -14.315  1.00  0.00     0.062 A 
ENDBRANCH   1  27
TORSDOF 5
ENDMDL
MODEL 3
REMARK VINA RESULT: -9.761363162      8.593     13.623
REMARK  5 active torsions:
REMARK  status: ('A' for Active; 'I' for Inactive)
REMARK    1  A    between atoms: C6_12  and  C7_13 
REMARK    2  A    between atoms: C8_16  and  C9_17 
REMARK    3  A    between atoms: C13_22  and  N4_23 
REMARK    4  A    between atoms: N4_23  and  C14_25 
REMARK    5  A    between atoms: C14_25  and  C15_26 
ROOT
HETATM    1  C7  UNL     1     -15.068  -1.485 -13.457  1.00  0.00     0.069 A 
HETATM    2  N3  UNL     1     -16.255  -0.956 -13.772  1.00  0.00    -0.339 N 
ATOM      3  H3  UNL     1     -17.153  -1.406 -13.595  1.00  0.00     0.167 HD
HETATM    4  C8  UNL     1     -16.104   0.272 -14.365  1.00  0.00     0.118 A 
HETATM    5  N5  UNL     1     -14.805   0.494 -14.404  1.00  0.00    -0.334 N 
HETATM    6  C19 UNL     1     -14.142  -0.561 -13.861  1.00  0.00     0.041 A 
HETATM    7  C20 UNL     1     -12.681  -0.711 -13.746  1.00  0.00     0.059 C 
HETATM    8  C21 UNL     1     -12.163  -0.695 -15.192  1.00  0.00     0.006 C 
HETATM    9  C22 UNL     1     -12.022   0.698 -15.720  1.00  0.00     0.002 C 
HETATM   10  C23 UNL     1     -13.359   1.324 -16.124  1.00  0.00     0.020 C 
HETATM   11  C24 UNL     1     -14.153   1.677 -14.881  1.00  0.00     0.131 C 
ENDROOT
BRANCH   4  12
HETATM   12  C9  UNL     1     -17.264   1.071 -14.787  1.00  0.00     0.011 A 
HETATM   13  C10 UNL     1     -17.041   2.386 -15.186  1.00  0.00     0.018 A 
HETATM   14  C11 UNL     1     -18.047   3.255 -15.547  1.00  0.00     0.045 A 
HETATM   15  C12 UNL     1     -19.365   2.797 -15.512  1.00  0.00     0.142 A 
HETATM   16  F2  UNL     1     -20.411   3.587 -15.852  1.00  0.00    -0.204 F 
HETATM   17  C13 UNL     1     -19.629   1.513 -15.126  1.00  0.00     0.068 A 
HETATM   18  C18 UNL     1     -18.566   0.665 -14.766  1.00  0.00     0.047 A 
BRANCH  17  19
HETATM   19  N4  UNL     1     -20.949   1.035 -15.086  1.00  0.00    -0.387 N 
ATOM     20  H4  UNL     1     -21.401   0.799 -15.969  1.00  0.00     0.159 HD
BRANCH  19  21
HETATM   21  C14 UNL     1     -21.707   0.860 -13.863  1.00  0.00     0.130 C 
BRANCH  21  22
HETATM   22  C15 UNL     1     -22.559  -0.370 -13.989  1.00  0.00     0.081 A 
HETATM   23  C16 UNL     1     -23.972  -0.384 -13.533  1.00  0.00     0.091 A 
HETATM   24  C17 UNL     1     -22.905  -1.188 -12.801  1.00  0.00     0.249 A 
HETATM   25  F3  UNL     1     -23.036  -2.555 -12.884  1.00  0.00    -0.206 F 
HETATM   26  F4  UNL     1     -22.475  -0.709 -11.580  1.00  0.00    -0.206 F 
ENDBRANCH  21  22
ENDBRANCH  19  21
ENDBRANCH  17  19
ENDBRANCH   4  12
BRANCH   1  27
HETATM   27  C6  UNL     1     -14.806  -2.772 -12.816  1.00  0.00     0.018 A 
HETATM   28  C2  UNL     1     -14.421  -3.875 -13.528  1.00  0.00     0.019 A 
HETATM   29  C1  UNL     1     -14.251  -3.845 -15.008  1.00  0.00     0.069 C 
HETATM   30  N1  UNL     1     -14.184  -5.053 -12.865  1.00  0.00    -0.343 N 
HETATM   31  C3  UNL     1     -14.308  -5.185 -11.543  1.00  0.00     0.138 A 
ATOM     32  H1  UNL     1     -13.899  -5.867 -13.410  1.00  0.00     0.167 HD
HETATM   33  N2  UNL     1     -14.068  -6.326 -10.982  1.00  0.00    -0.383 N 
HETATM   34  C4  UNL     1     -14.694  -4.090 -10.801  1.00  0.00     0.160 A 
ATOM     35  H22 UNL     1     -13.783  -7.137 -11.532  1.00  0.00     0.157 HD
ATOM     36  H21 UNL     1     -14.164  -6.428  -9.972  1.00  0.00     0.157 HD
HETATM   37  F1  UNL     1     -14.818  -4.231  -9.465  1.00  0.00    -0.202 F 
HETATM   38  C5  UNL     1     -14.942  -2.875 -11.457  1.00  0.00     0.062 A 
ENDBRANCH   1  27
TORSDOF 5
ENDMDL
MODEL 4
REMARK VINA RESULT: -9.642874756      1.071      1.503
REMARK  5 active torsions:
REMARK  status: ('A' for Active; 'I' for Inactive)
REMARK    1  A    between atoms: C6_12  and  C7_13 
REMARK    2  A    between atoms: C8_16  and  C9_17 
REMARK    3  A    between atoms: C13_22  and  N4_23 
REMARK    4  A    between atoms: N4_23  and  C14_25 
REMARK    5  A    between atoms: C14_25  and  C15_26 
ROOT
HETATM    1  C7  UNL     1     -28.636  -4.273  -6.931  1.00  0.00     0.069 A 
HETATM    2  N3  UNL     1     -28.123  -4.015  -8.138  1.00  0.00    -0.339 N 
ATOM      3  H3  UNL     1     -27.868  -4.727  -8.822  1.00  0.00     0.167 HD
HETATM    4  C8  UNL     1     -27.985  -2.664  -8.335  1.00  0.00     0.118 A 
HETATM    5  N5  UNL     1     -28.427  -2.094  -7.231  1.00  0.00    -0.334 N 
HETATM    6  C19 UNL     1     -28.829  -3.048  -6.351  1.00  0.00     0.041 A 
HETATM    7  C20 UNL     1     -29.356  -2.822  -4.994  1.00  0.00     0.059 C 
HETATM    8  C21 UNL     1     -28.218  -2.120  -4.236  1.00  0.00     0.006 C 
HETATM    9  C22 UNL     1     -28.182  -0.651  -4.516  1.00  0.00     0.002 C 
HETATM   10  C23 UNL     1     -27.569  -0.314  -5.877  1.00  0.00     0.020 C 
HETATM   11  C24 UNL     1     -28.540  -0.689  -6.980  1.00  0.00     0.131 C 
ENDROOT
BRANCH   4  12
HETATM   12  C9  UNL     1     -27.460  -2.119  -9.596  1.00  0.00     0.011 A 
HETATM   13  C10 UNL     1     -28.282  -2.164 -10.719  1.00  0.00     0.018 A 
HETATM   14  C11 UNL     1     -27.889  -1.742 -11.969  1.00  0.00     0.045 A 
HETATM   15  C12 UNL     1     -26.596  -1.241 -12.127  1.00  0.00     0.142 A 
HETATM   16  F2  UNL     1     -26.132  -0.806 -13.321  1.00  0.00    -0.204 F 
HETATM   17  C13 UNL     1     -25.755  -1.180 -11.050  1.00  0.00     0.068 A 
HETATM   18  C18 UNL     1     -26.204  -1.625  -9.793  1.00  0.00     0.047 A 
BRANCH  17  19
HETATM   19  N4  UNL     1     -24.451  -0.679 -11.190  1.00  0.00    -0.387 N 
ATOM     20  H4  UNL     1     -24.245   0.242 -10.801  1.00  0.00     0.159 HD
BRANCH  19  21
HETATM   21  C14 UNL     1     -23.379  -1.393 -11.855  1.00  0.00     0.130 C 
BRANCH  21  22
HETATM   22  C15 UNL     1     -22.514  -0.406 -12.585  1.00  0.00     0.081 A 
HETATM   23  C16 UNL     1     -23.042   0.910 -13.025  1.00  0.00     0.091 A 
HETATM   24  C17 UNL     1     -22.682  -0.168 -14.039  1.00  0.00     0.249 A 
HETATM   25  F3  UNL     1     -21.608   0.120 -14.849  1.00  0.00    -0.206 F 
HETATM   26  F4  UNL     1     -23.724  -0.834 -14.654  1.00  0.00    -0.206 F 
ENDBRANCH  21  22
ENDBRANCH  19  21
ENDBRANCH  17  19
ENDBRANCH   4  12
BRANCH   1  27
HETATM   27  C6  UNL     1     -28.933  -5.580  -6.348  1.00  0.00     0.018 A 
HETATM   28  C2  UNL     1     -30.068  -6.276  -6.659  1.00  0.00     0.019 A 
HETATM   29  C1  UNL     1     -31.090  -5.747  -7.606  1.00  0.00     0.069 C 
HETATM   30  N1  UNL     1     -30.284  -7.502  -6.082  1.00  0.00    -0.343 N 
HETATM   31  C3  UNL     1     -29.432  -8.064  -5.221  1.00  0.00     0.138 A 
ATOM     32  H1  UNL     1     -31.136  -8.008  -6.323  1.00  0.00     0.167 HD
HETATM   33  N2  UNL     1     -29.699  -9.225  -4.714  1.00  0.00    -0.383 N 
HETATM   34  C4  UNL     1     -28.280  -7.385  -4.890  1.00  0.00     0.160 A 
ATOM     35  H22 UNL     1     -30.552  -9.727  -4.960  1.00  0.00     0.157 HD
ATOM     36  H21 UNL     1     -29.049  -9.654  -4.056  1.00  0.00     0.157 HD
HETATM   37  F1  UNL     1     -27.424  -7.959  -4.019  1.00  0.00    -0.202 F 
HETATM   38  C5  UNL     1     -28.039  -6.130  -5.468  1.00  0.00     0.062 A 
ENDBRANCH   1  27
TORSDOF 5
ENDMDL
MODEL 5
REMARK VINA RESULT: -9.616237445      7.651     15.466
REMARK  5 active torsions:
REMARK  status: ('A' for Active; 'I' for Inactive)
REMARK    1  A    between atoms: C6_12  and  C7_13 
REMARK    2  A    between atoms: C8_16  and  C9_17 
REMARK    3  A    between atoms: C13_22  and  N4_23 
REMARK    4  A    between atoms: N4_23  and  C14_25 
REMARK    5  A    between atoms: C14_25  and  C15_26 
ROOT
HETATM    1  C7  UNL     1     -15.729   3.217 -15.838  1.00  0.00     0.069 A 
HETATM    2  N3  UNL     1     -17.034   3.426 -15.641  1.00  0.00    -0.339 N 
ATOM      3  H3  UNL     1     -17.508   4.315 -15.804  1.00  0.00     0.167 HD
HETATM    4  C8  UNL     1     -17.653   2.286 -15.191  1.00  0.00     0.118 A 
HETATM    5  N5  UNL     1     -16.707   1.370 -15.120  1.00  0.00    -0.334 N 
HETATM    6  C19 UNL     1     -15.519   1.906 -15.504  1.00  0.00     0.041 A 
HETATM    7  C20 UNL     1     -14.217   1.216 -15.535  1.00  0.00     0.059 C 
HETATM    8  C21 UNL     1     -13.948   0.807 -14.078  1.00  0.00     0.006 C 
HETATM    9  C22 UNL     1     -14.659  -0.458 -13.713  1.00  0.00     0.002 C 
HETATM   10  C23 UNL     1     -16.152  -0.251 -13.446  1.00  0.00     0.020 C 
HETATM   11  C24 UNL     1     -16.874  -0.005 -14.757  1.00  0.00     0.131 C 
ENDROOT
BRANCH   4  12
HETATM   12  C9  UNL     1     -19.097   2.251 -14.918  1.00  0.00     0.011 A 
HETATM   13  C10 UNL     1     -19.772   3.464 -14.816  1.00  0.00     0.018 A 
HETATM   14  C11 UNL     1     -21.110   3.569 -14.506  1.00  0.00     0.045 A 
HETATM   15  C12 UNL     1     -21.834   2.398 -14.280  1.00  0.00     0.142 A 
HETATM   16  F2  UNL     1     -23.152   2.413 -13.972  1.00  0.00    -0.204 F 
HETATM   17  C13 UNL     1     -21.210   1.184 -14.369  1.00  0.00     0.068 A 
HETATM   18  C18 UNL     1     -19.841   1.131 -14.689  1.00  0.00     0.047 A 
BRANCH  17  19
HETATM   19  N4  UNL     1     -21.923  -0.004 -14.146  1.00  0.00    -0.387 N 
ATOM     20  H4  UNL     1     -22.068  -0.633 -14.936  1.00  0.00     0.159 HD
BRANCH  19  21
HETATM   21  C14 UNL     1     -22.466  -0.389 -12.859  1.00  0.00     0.130 C 
BRANCH  21  22
HETATM   22  C15 UNL     1     -23.588  -1.365 -13.074  1.00  0.00     0.081 A 
HETATM   23  C16 UNL     1     -24.641  -1.122 -14.092  1.00  0.00     0.091 A 
HETATM   24  C17 UNL     1     -24.963  -1.068 -12.604  1.00  0.00     0.249 A 
HETATM   25  F3  UNL     1     -25.795  -2.062 -12.145  1.00  0.00    -0.206 F 
HETATM   26  F4  UNL     1     -25.164   0.178 -12.042  1.00  0.00    -0.206 F 
ENDBRANCH  21  22
ENDBRANCH  19  21
ENDBRANCH  17  19
ENDBRANCH   4  12
BRANCH   1  27
HETATM   27  C6  UNL     1     -14.732   4.176 -16.309  1.00  0.00     0.018 A 
HETATM   28  C2  UNL     1     -14.670   4.580 -17.615  1.00  0.00     0.019 A 
HETATM   29  C1  UNL     1     -15.607   4.063 -18.651  1.00  0.00     0.069 C 
HETATM   30  N1  UNL     1     -13.714   5.489 -17.992  1.00  0.00    -0.343 N 
HETATM   31  C3  UNL     1     -12.827   6.012 -17.142  1.00  0.00     0.138 A 
ATOM     32  H1  UNL     1     -13.680   5.780 -18.969  1.00  0.00     0.167 HD
HETATM   33  N2  UNL     1     -11.952   6.866 -17.566  1.00  0.00    -0.383 N 
HETATM   34  C4  UNL     1     -12.867   5.623 -15.821  1.00  0.00     0.160 A 
ATOM     35  H22 UNL     1     -11.923   7.153 -18.544  1.00  0.00     0.157 HD
ATOM     36  H21 UNL     1     -11.274   7.265 -16.917  1.00  0.00     0.157 HD
HETATM   37  F1  UNL     1     -11.967   6.155 -14.967  1.00  0.00    -0.202 F 
HETATM   38  C5  UNL     1     -13.836   4.694 -15.413  1.00  0.00     0.062 A 
ENDBRANCH   1  27
TORSDOF 5
ENDMDL
