MODEL 1
REMARK VINA RESULT: -7.830662776      0.000      0.000
REMARK  7 active torsions:
REMARK  status: ('A' for Active; 'I' for Inactive)
REMARK    1  A    between atoms: C2_2  and  O1_3 
REMARK    2  A    between atoms: O1_3  and  C3_4 
REMARK    3  A    between atoms: C3_4  and  C4_5 
REMARK    4  A    between atoms: C5_6  and  C6_7 
REMARK    5  A    between atoms: C10_11  and  C11_13 
REMARK       I    between atoms: C11_13  and  N1_15 
REMARK    6  A    between atoms: C13_17  and  N2_18 
REMARK    7  A    between atoms: N3_20  and  O3_22 
ROOT
HETATM    1  C3  UNL     1     -13.527  -3.664 -11.703  1.00  0.00     0.113 C 
HETATM    2  C9  UNL     1     -12.855  -3.461 -12.957  1.00  0.00     0.007 C 
HETATM    3  C10 UNL     1     -11.881  -2.701 -13.300  1.00  0.00     0.192 C 
HETATM    4  F1  UNL     1     -11.515  -2.859 -14.675  1.00  0.00    -0.200 F 
HETATM    5  C14 UNL     1     -13.434  -4.069 -14.250  1.00  0.00     0.022 C 
HETATM    6  C15 UNL     1     -14.059  -2.900 -15.018  1.00  0.00     0.010 C 
HETATM    7  C16 UNL     1     -14.841  -2.109 -14.012  1.00  0.00     0.007 C 
HETATM    8  C17 UNL     1     -15.569  -2.978 -13.052  1.00  0.00     0.005 C 
HETATM    9  C18 UNL     1     -15.780  -4.405 -13.476  1.00  0.00    -0.039 C 
HETATM   10  C19 UNL     1     -16.968  -4.405 -14.453  1.00  0.00     0.015 C 
HETATM   11  C20 UNL     1     -16.274  -5.063 -12.210  1.00  0.00     0.010 C 
HETATM   12  C21 UNL     1     -15.928  -4.141 -11.074  1.00  0.00     0.014 C 
HETATM   13  C22 UNL     1     -14.972  -3.113 -11.715  1.00  0.00    -0.001 C 
HETATM   14  C23 UNL     1     -15.097  -1.792 -11.004  1.00  0.00     0.019 C 
HETATM   15  C24 UNL     1     -14.552  -5.027 -14.065  1.00  0.00     0.019 C 
ENDROOT
BRANCH   1  16
HETATM   16  O1  UNL     1     -13.796  -5.080 -11.619  1.00  0.00    -0.371 OA
BRANCH  16  17
HETATM   17  C2  UNL     1     -12.801  -5.890 -11.251  1.00  0.00     0.165 C 
HETATM   18  C1  UNL     1     -13.068  -7.368 -11.653  1.00  0.00     0.033 C 
ENDBRANCH  16  17
ENDBRANCH   1  16
BRANCH   1  19
HETATM   19  C4  UNL     1     -12.993  -3.343 -10.404  1.00  0.00     0.013 C 
HETATM   20  C5  UNL     1     -11.908  -3.682  -9.757  1.00  0.00    -0.024 C 
BRANCH  20  21
HETATM   21  C6  UNL     1     -11.572  -3.217  -8.402  1.00  0.00    -0.000 C 
HETATM   22  C7  UNL     1     -11.438  -4.482  -7.540  1.00  0.00     0.013 C 
HETATM   23  C8  UNL     1     -10.207  -2.547  -8.331  1.00  0.00     0.013 C 
ENDBRANCH  20  21
ENDBRANCH   1  19
BRANCH   3  24
HETATM   24  C11 UNL     1     -11.159  -1.593 -12.753  1.00  0.00     0.306 C 
HETATM   25  O2  UNL     1     -10.256  -1.680 -11.911  1.00  0.00    -0.263 OA
HETATM   26  N1  UNL     1     -11.418  -0.220 -13.140  1.00  0.00    -0.211 N 
HETATM   27  C12 UNL     1     -10.830   0.897 -12.716  1.00  0.00     0.172 A 
HETATM   28  N5  UNL     1     -12.335   0.088 -14.029  1.00  0.00    -0.232 N 
HETATM   29  C13 UNL     1     -11.423   1.944 -13.385  1.00  0.00     0.155 A 
HETATM   30  N4  UNL     1     -12.345   1.399 -14.184  1.00  0.00    -0.268 N 
ATOM     31  H4  UNL     1     -12.959   1.914 -14.815  1.00  0.00     0.190 HD
ATOM     32  H5  UNL     1     -12.938  -0.574 -14.518  1.00  0.00     0.209 HD
BRANCH  29  33
HETATM   33  N2  UNL     1     -11.078   3.319 -13.215  1.00  0.00    -0.264 N 
HETATM   34  N3  UNL     1     -11.430   3.987 -12.200  1.00  0.00    -0.208 N 
ATOM     35  H3  UNL     1     -11.163   4.967 -12.117  1.00  0.00     0.215 HD
ATOM     36  H2  UNL     1     -10.526   3.781 -13.939  1.00  0.00     0.190 HD
BRANCH  34  37
HETATM   37  O3  UNL     1     -12.176   3.389 -11.205  1.00  0.00    -0.274 OA
ATOM     38  H3  UNL     1     -11.782   2.730 -10.645  1.00  0.00     0.246 HD
ENDBRANCH  34  37
ENDBRANCH  29  33
ENDBRANCH   3  24
TORSDOF 7
ENDMDL
MODEL 2
REMARK VINA RESULT: -7.707332839      3.337      5.232
REMARK  7 active torsions:
REMARK  status: ('A' for Active; 'I' for Inactive)
REMARK    1  A    between atoms: C2_2  and  O1_3 
REMARK    2  A    between atoms: O1_3  and  C3_4 
REMARK    3  A    between atoms: C3_4  and  C4_5 
REMARK    4  A    between atoms: C5_6  and  C6_7 
REMARK    5  A    between atoms: C10_11  and  C11_13 
REMARK       I    between atoms: C11_13  and  N1_15 
REMARK    6  A    between atoms: C13_17  and  N2_18 
REMARK    7  A    between atoms: N3_20  and  O3_22 
ROOT
HETATM    1  C3  UNL     1     -13.837  -4.560 -13.382  1.00  0.00     0.113 C 
HETATM    2  C9  UNL     1     -12.765  -3.644 -13.102  1.00  0.00     0.007 C 
HETATM    3  C10 UNL     1     -11.748  -3.719 -12.325  1.00  0.00     0.192 C 
HETATM    4  F1  UNL     1     -10.911  -2.559 -12.396  1.00  0.00    -0.200 F 
HETATM    5  C14 UNL     1     -12.830  -2.196 -13.626  1.00  0.00     0.022 C 
HETATM    6  C15 UNL     1     -13.164  -1.326 -12.409  1.00  0.00     0.010 C 
HETATM    7  C16 UNL     1     -14.269  -2.031 -11.681  1.00  0.00     0.007 C 
HETATM    8  C17 UNL     1     -15.275  -2.613 -12.606  1.00  0.00     0.005 C 
HETATM    9  C18 UNL     1     -15.291  -2.056 -14.004  1.00  0.00    -0.039 C 
HETATM   10  C19 UNL     1     -16.051  -0.721 -13.939  1.00  0.00     0.015 C 
HETATM   11  C20 UNL     1     -16.192  -3.020 -14.739  1.00  0.00     0.010 C 
HETATM   12  C21 UNL     1     -16.294  -4.257 -13.891  1.00  0.00     0.014 C 
HETATM   13  C22 UNL     1     -15.193  -4.064 -12.827  1.00  0.00    -0.001 C 
HETATM   14  C23 UNL     1     -15.590  -4.760 -11.553  1.00  0.00     0.019 C 
HETATM   15  C24 UNL     1     -13.921  -1.911 -14.590  1.00  0.00     0.019 C 
ENDROOT
BRANCH   1  16
HETATM   16  O1  UNL     1     -14.089  -4.457 -14.800  1.00  0.00    -0.371 OA
BRANCH  16  17
HETATM   17  C2  UNL     1     -13.417  -5.266 -15.620  1.00  0.00     0.165 C 
HETATM   18  C1  UNL     1     -12.693  -4.486 -16.753  1.00  0.00     0.033 C 
ENDBRANCH  16  17
ENDBRANCH   1  16
BRANCH   1  19
HETATM   19  C4  UNL     1     -13.809  -5.981 -13.145  1.00  0.00     0.013 C 
HETATM   20  C5  UNL     1     -12.979  -6.940 -13.462  1.00  0.00    -0.024 C 
BRANCH  20  21
HETATM   21  C6  UNL     1     -13.169  -8.355 -13.101  1.00  0.00    -0.000 C 
HETATM   22  C7  UNL     1     -11.992  -9.115 -13.732  1.00  0.00     0.013 C 
HETATM   23  C8  UNL     1     -13.041  -8.603 -11.606  1.00  0.00     0.013 C 
ENDBRANCH  20  21
ENDBRANCH   1  19
BRANCH   3  24
HETATM   24  C11 UNL     1     -11.292  -4.553 -11.255  1.00  0.00     0.306 C 
HETATM   25  O2  UNL     1     -10.735  -5.650 -11.397  1.00  0.00    -0.263 OA
HETATM   26  N1  UNL     1     -11.438  -4.189  -9.859  1.00  0.00    -0.211 N 
HETATM   27  C12 UNL     1     -11.064  -4.863  -8.772  1.00  0.00     0.172 A 
HETATM   28  N5  UNL     1     -11.997  -3.058  -9.492  1.00  0.00    -0.232 N 
HETATM   29  C13 UNL     1     -11.417  -4.098  -7.684  1.00  0.00     0.155 A 
HETATM   30  N4  UNL     1     -11.988  -2.994  -8.174  1.00  0.00    -0.268 N 
ATOM     31  H4  UNL     1     -12.358  -2.223  -7.618  1.00  0.00     0.190 HD
ATOM     32  H5  UNL     1     -12.373  -2.348 -10.121  1.00  0.00     0.209 HD
BRANCH  29  33
HETATM   33  N2  UNL     1     -11.189  -4.465  -6.322  1.00  0.00    -0.264 N 
HETATM   34  N3  UNL     1     -10.549  -3.727  -5.518  1.00  0.00    -0.208 N 
ATOM     35  H3  UNL     1     -10.408  -4.026  -4.554  1.00  0.00     0.215 HD
ATOM     36  H2  UNL     1     -11.556  -5.356  -5.985  1.00  0.00     0.190 HD
BRANCH  34  37
HETATM   37  O3  UNL     1     -10.042  -2.518  -5.945  1.00  0.00    -0.274 OA
ATOM     38  H3  UNL     1      -9.364  -2.494  -6.610  1.00  0.00     0.246 HD
ENDBRANCH  34  37
ENDBRANCH  29  33
ENDBRANCH   3  24
TORSDOF 7
ENDMDL
MODEL 3
REMARK VINA RESULT: -7.477829810      3.861      5.987
REMARK  7 active torsions:
REMARK  status: ('A' for Active; 'I' for Inactive)
REMARK    1  A    between atoms: C2_2  and  O1_3 
REMARK    2  A    between atoms: O1_3  and  C3_4 
REMARK    3  A    between atoms: C3_4  and  C4_5 
REMARK    4  A    between atoms: C5_6  and  C6_7 
REMARK    5  A    between atoms: C10_11  and  C11_13 
REMARK       I    between atoms: C11_13  and  N1_15 
REMARK    6  A    between atoms: C13_17  and  N2_18 
REMARK    7  A    between atoms: N3_20  and  O3_22 
ROOT
HETATM    1  C3  UNL     1     -13.701  -3.916 -12.516  1.00  0.00     0.113 C 
HETATM    2  C9  UNL     1     -13.753  -4.777 -11.366  1.00  0.00     0.007 C 
HETATM    3  C10 UNL     1     -13.604  -4.551 -10.112  1.00  0.00     0.192 C 
HETATM    4  F1  UNL     1     -13.780  -5.726  -9.314  1.00  0.00    -0.200 F 
HETATM    5  C14 UNL     1     -13.805  -6.307 -11.548  1.00  0.00     0.022 C 
HETATM    6  C15 UNL     1     -12.406  -6.818 -11.189  1.00  0.00     0.010 C 
HETATM    7  C16 UNL     1     -11.437  -5.900 -11.872  1.00  0.00     0.007 C 
HETATM    8  C17 UNL     1     -11.877  -5.532 -13.242  1.00  0.00     0.005 C 
HETATM    9  C18 UNL     1     -12.909  -6.427 -13.871  1.00  0.00    -0.039 C 
HETATM   10  C19 UNL     1     -12.160  -7.665 -14.393  1.00  0.00     0.015 C 
HETATM   11  C20 UNL     1     -13.334  -5.646 -15.092  1.00  0.00     0.010 C 
HETATM   12  C21 UNL     1     -12.876  -4.228 -14.884  1.00  0.00     0.014 C 
HETATM   13  C22 UNL     1     -12.461  -4.191 -13.399  1.00  0.00    -0.001 C 
HETATM   14  C23 UNL     1     -11.370  -3.173 -13.202  1.00  0.00     0.019 C 
HETATM   15  C24 UNL     1     -14.024  -6.781 -12.937  1.00  0.00     0.019 C 
ENDROOT
BRANCH   1  16
HETATM   16  O1  UNL     1     -14.748  -4.369 -13.400  1.00  0.00    -0.371 OA
BRANCH  16  17
HETATM   17  C2  UNL     1     -16.013  -4.112 -13.063  1.00  0.00     0.165 C 
HETATM   18  C1  UNL     1     -17.011  -4.479 -14.198  1.00  0.00     0.033 C 
ENDBRANCH  16  17
ENDBRANCH   1  16
BRANCH   1  19
HETATM   19  C4  UNL     1     -13.865  -2.485 -12.500  1.00  0.00     0.013 C 
HETATM   20  C5  UNL     1     -14.883  -1.689 -12.301  1.00  0.00    -0.024 C 
BRANCH  20  21
HETATM   21  C6  UNL     1     -14.805  -0.219 -12.339  1.00  0.00    -0.000 C 
HETATM   22  C7  UNL     1     -13.509   0.118 -13.094  1.00  0.00     0.013 C 
HETATM   23  C8  UNL     1     -15.916   0.409 -13.167  1.00  0.00     0.013 C 
ENDBRANCH  20  21
ENDBRANCH   1  19
BRANCH   3  24
HETATM   24  C11 UNL     1     -13.129  -3.491  -9.276  1.00  0.00     0.306 C 
HETATM   25  O2  UNL     1     -13.468  -2.304  -9.372  1.00  0.00    -0.263 OA
HETATM   26  N1  UNL     1     -12.176  -3.705  -8.204  1.00  0.00    -0.211 N 
HETATM   27  C12 UNL     1     -11.652  -2.819  -7.358  1.00  0.00     0.172 A 
HETATM   28  N5  UNL     1     -11.696  -4.897  -7.931  1.00  0.00    -0.232 N 
HETATM   29  C13 UNL     1     -10.805  -3.514  -6.524  1.00  0.00     0.155 A 
HETATM   30  N4  UNL     1     -10.863  -4.791  -6.913  1.00  0.00    -0.268 N 
ATOM     31  H4  UNL     1     -10.346  -5.561  -6.490  1.00  0.00     0.190 HD
ATOM     32  H5  UNL     1     -11.928  -5.760  -8.423  1.00  0.00     0.209 HD
BRANCH  29  33
HETATM   33  N2  UNL     1     -10.042  -2.928  -5.468  1.00  0.00    -0.264 N 
HETATM   34  N3  UNL     1     -10.391  -3.005  -4.254  1.00  0.00    -0.208 N 
ATOM     35  H3  UNL     1      -9.818  -2.572  -3.531  1.00  0.00     0.215 HD
ATOM     36  H2  UNL     1      -9.183  -2.428  -5.701  1.00  0.00     0.190 HD
BRANCH  34  37
HETATM   37  O3  UNL     1     -11.547  -3.674  -3.910  1.00  0.00    -0.274 OA
ATOM     38  H3  UNL     1     -11.503  -4.568  -3.592  1.00  0.00     0.246 HD
ENDBRANCH  34  37
ENDBRANCH  29  33
ENDBRANCH   3  24
TORSDOF 7
ENDMDL
MODEL 4
REMARK VINA RESULT: -7.452360203      2.942      5.374
REMARK  7 active torsions:
REMARK  status: ('A' for Active; 'I' for Inactive)
REMARK    1  A    between atoms: C2_2  and  O1_3 
REMARK    2  A    between atoms: O1_3  and  C3_4 
REMARK    3  A    between atoms: C3_4  and  C4_5 
REMARK    4  A    between atoms: C5_6  and  C6_7 
REMARK    5  A    between atoms: C10_11  and  C11_13 
REMARK       I    between atoms: C11_13  and  N1_15 
REMARK    6  A    between atoms: C13_17  and  N2_18 
REMARK    7  A    between atoms: N3_20  and  O3_22 
ROOT
HETATM    1  C3  UNL     1     -12.889  -5.249 -12.125  1.00  0.00     0.113 C 
HETATM    2  C9  UNL     1     -14.119  -4.825 -11.512  1.00  0.00     0.007 C 
HETATM    3  C10 UNL     1     -15.214  -4.372 -12.001  1.00  0.00     0.192 C 
HETATM    4  F1  UNL     1     -16.200  -4.109 -10.997  1.00  0.00    -0.200 F 
HETATM    5  C14 UNL     1     -14.202  -4.660  -9.982  1.00  0.00     0.022 C 
HETATM    6  C15 UNL     1     -14.188  -3.150  -9.724  1.00  0.00     0.010 C 
HETATM    7  C16 UNL     1     -13.105  -2.587 -10.595  1.00  0.00     0.007 C 
HETATM    8  C17 UNL     1     -11.897  -3.451 -10.627  1.00  0.00     0.005 C 
HETATM    9  C18 UNL     1     -11.764  -4.446  -9.506  1.00  0.00    -0.039 C 
HETATM   10  C19 UNL     1     -11.237  -3.670  -8.287  1.00  0.00     0.015 C 
HETATM   11  C20 UNL     1     -10.628  -5.325  -9.971  1.00  0.00     0.010 C 
HETATM   12  C21 UNL     1     -10.461  -5.081 -11.446  1.00  0.00     0.014 C 
HETATM   13  C22 UNL     1     -11.721  -4.278 -11.829  1.00  0.00    -0.001 C 
HETATM   14  C23 UNL     1     -11.412  -3.370 -12.989  1.00  0.00     0.019 C 
HETATM   15  C24 UNL     1     -13.039  -5.174  -9.217  1.00  0.00     0.019 C 
ENDROOT
BRANCH   1  16
HETATM   16  O1  UNL     1     -12.452  -6.407 -11.383  1.00  0.00    -0.371 OA
BRANCH  16  17
HETATM   17  C2  UNL     1     -13.017  -7.583 -11.659  1.00  0.00     0.165 C 
HETATM   18  C1  UNL     1     -11.986  -8.747 -11.659  1.00  0.00     0.033 C 
ENDBRANCH  16  17
ENDBRANCH   1  16
BRANCH   1  19
HETATM   19  C4  UNL     1     -12.732  -5.648 -13.500  1.00  0.00     0.013 C 
HETATM   20  C5  UNL     1     -13.397  -6.442 -14.299  1.00  0.00    -0.024 C 
BRANCH  20  21
HETATM   21  C6  UNL     1     -13.033  -6.701 -15.702  1.00  0.00    -0.000 C 
HETATM   22  C7  UNL     1     -13.012  -5.330 -16.395  1.00  0.00     0.013 C 
HETATM   23  C8  UNL     1     -11.618  -7.239 -15.853  1.00  0.00     0.013 C 
ENDBRANCH  20  21
ENDBRANCH   1  19
BRANCH   3  24
HETATM   24  C11 UNL     1     -15.687  -3.873 -13.257  1.00  0.00     0.306 C 
HETATM   25  O2  UNL     1     -16.238  -4.555 -14.131  1.00  0.00    -0.263 OA
HETATM   26  N1  UNL     1     -15.566  -2.480 -13.642  1.00  0.00    -0.211 N 
HETATM   27  C12 UNL     1     -15.957  -1.884 -14.768  1.00  0.00     0.172 A 
HETATM   28  N5  UNL     1     -15.016  -1.587 -12.851  1.00  0.00    -0.232 N 
HETATM   29  C13 UNL     1     -15.625  -0.553 -14.653  1.00  0.00     0.155 A 
HETATM   30  N4  UNL     1     -15.048  -0.414 -13.456  1.00  0.00    -0.268 N 
ATOM     31  H4  UNL     1     -14.689   0.459 -13.071  1.00  0.00     0.190 HD
ATOM     32  H5  UNL     1     -14.630  -1.769 -11.924  1.00  0.00     0.209 HD
BRANCH  29  33
HETATM   33  N2  UNL     1     -15.875   0.437 -15.652  1.00  0.00    -0.264 N 
HETATM   34  N3  UNL     1     -14.956   0.915 -16.379  1.00  0.00    -0.208 N 
ATOM     35  H3  UNL     1     -15.177   1.621 -17.081  1.00  0.00     0.215 HD
ATOM     36  H2  UNL     1     -16.830   0.771 -15.785  1.00  0.00     0.190 HD
BRANCH  34  37
HETATM   37  O3  UNL     1     -13.656   0.482 -16.222  1.00  0.00    -0.274 OA
ATOM     38  H3  UNL     1     -13.119   0.303 -16.984  1.00  0.00     0.246 HD
ENDBRANCH  34  37
ENDBRANCH  29  33
ENDBRANCH   3  24
TORSDOF 7
ENDMDL
MODEL 5
REMARK VINA RESULT: -7.283551631      3.314      4.880
REMARK  7 active torsions:
REMARK  status: ('A' for Active; 'I' for Inactive)
REMARK    1  A    between atoms: C2_2  and  O1_3 
REMARK    2  A    between atoms: O1_3  and  C3_4 
REMARK    3  A    between atoms: C3_4  and  C4_5 
REMARK    4  A    between atoms: C5_6  and  C6_7 
REMARK    5  A    between atoms: C10_11  and  C11_13 
REMARK       I    between atoms: C11_13  and  N1_15 
REMARK    6  A    between atoms: C13_17  and  N2_18 
REMARK    7  A    between atoms: N3_20  and  O3_22 
ROOT
HETATM    1  C3  UNL     1     -13.202  -2.956 -13.634  1.00  0.00     0.113 C 
HETATM    2  C9  UNL     1     -14.605  -2.971 -13.948  1.00  0.00     0.007 C 
HETATM    3  C10 UNL     1     -15.512  -2.067 -13.884  1.00  0.00     0.192 C 
HETATM    4  F1  UNL     1     -16.787  -2.531 -14.340  1.00  0.00    -0.200 F 
HETATM    5  C14 UNL     1     -15.314  -4.305 -14.251  1.00  0.00     0.022 C 
HETATM    6  C15 UNL     1     -16.146  -4.628 -13.004  1.00  0.00     0.010 C 
HETATM    7  C16 UNL     1     -15.252  -4.373 -11.828  1.00  0.00     0.007 C 
HETATM    8  C17 UNL     1     -13.862  -4.840 -12.061  1.00  0.00     0.005 C 
HETATM    9  C18 UNL     1     -13.676  -5.841 -13.169  1.00  0.00    -0.039 C 
HETATM   10  C19 UNL     1     -14.092  -7.209 -12.602  1.00  0.00     0.015 C 
HETATM   11  C20 UNL     1     -12.175  -5.890 -13.329  1.00  0.00     0.010 C 
HETATM   12  C21 UNL     1     -11.623  -4.667 -12.651  1.00  0.00     0.014 C 
HETATM   13  C22 UNL     1     -12.872  -3.802 -12.382  1.00  0.00    -0.001 C 
HETATM   14  C23 UNL     1     -12.652  -2.961 -11.153  1.00  0.00     0.019 C 
HETATM   15  C24 UNL     1     -14.425  -5.482 -14.413  1.00  0.00     0.019 C 
ENDROOT
BRANCH   1  16
HETATM   16  O1  UNL     1     -12.556  -3.748 -14.654  1.00  0.00    -0.371 OA
BRANCH  16  17
HETATM   17  C2  UNL     1     -12.220  -3.150 -15.798  1.00  0.00     0.165 C 
HETATM   18  C1  UNL     1     -12.337  -4.106 -17.018  1.00  0.00     0.033 C 
ENDBRANCH  16  17
ENDBRANCH   1  16
BRANCH   1  19
HETATM   19  C4  UNL     1     -12.375  -1.779 -13.545  1.00  0.00     0.013 C 
HETATM   20  C5  UNL     1     -12.412  -0.597 -14.103  1.00  0.00    -0.024 C 
BRANCH  20  21
HETATM   21  C6  UNL     1     -11.428   0.469 -13.852  1.00  0.00    -0.000 C 
HETATM   22  C7  UNL     1     -12.203   1.608 -13.170  1.00  0.00     0.013 C 
HETATM   23  C8  UNL     1     -10.363   0.062 -12.846  1.00  0.00     0.013 C 
ENDBRANCH  20  21
ENDBRANCH   1  19
BRANCH   3  24
HETATM   24  C11 UNL     1     -15.671  -0.764 -13.313  1.00  0.00     0.306 C 
HETATM   25  O2  UNL     1     -15.322  -0.442 -12.169  1.00  0.00    -0.263 OA
HETATM   26  N1  UNL     1     -16.272   0.341 -14.035  1.00  0.00    -0.211 N 
HETATM   27  C12 UNL     1     -16.481   1.593 -13.631  1.00  0.00     0.172 A 
HETATM   28  N5  UNL     1     -16.702   0.210 -15.270  1.00  0.00    -0.232 N 
HETATM   29  C13 UNL     1     -17.073   2.260 -14.679  1.00  0.00     0.155 A 
HETATM   30  N4  UNL     1     -17.190   1.370 -15.669  1.00  0.00    -0.268 N 
ATOM     31  H4  UNL     1     -17.592   1.557 -16.587  1.00  0.00     0.190 HD
ATOM     32  H5  UNL     1     -16.665  -0.644 -15.826  1.00  0.00     0.209 HD
BRANCH  29  33
HETATM   33  N2  UNL     1     -17.463   3.634 -14.654  1.00  0.00    -0.264 N 
HETATM   34  N3  UNL     1     -18.610   4.021 -15.021  1.00  0.00    -0.208 N 
ATOM     35  H3  UNL     1     -18.848   5.012 -14.988  1.00  0.00     0.215 HD
ATOM     36  H2  UNL     1     -16.791   4.330 -14.327  1.00  0.00     0.190 HD
BRANCH  34  37
HETATM   37  O3  UNL     1     -19.538   3.104 -15.467  1.00  0.00    -0.274 OA
ATOM     38  H3  UNL     1     -20.161   3.346 -16.143  1.00  0.00     0.246 HD
ENDBRANCH  34  37
ENDBRANCH  29  33
ENDBRANCH   3  24
TORSDOF 7
ENDMDL
