MODEL 1
REMARK VINA RESULT: -7.059909777      0.000      0.000
REMARK  5 active torsions:
REMARK  status: ('A' for Active; 'I' for Inactive)
REMARK    1  A    between atoms: C2_2  and  C3_3 
REMARK    2  A    between atoms: C8_8  and  C9_9 
REMARK    3  A    between atoms: C14_15  and  O1_16 
REMARK    4  A    between atoms: C15_18  and  C17_20 
REMARK    5  A    between atoms: C20_25  and  O4_26 
ROOT
HETATM    1  C3  UNL     1       7.110 -24.607 -16.466  1.00  0.00    -0.018 C 
HETATM    2  C4  UNL     1       7.383 -23.234 -15.817  1.00  0.00     0.018 C 
HETATM    3  C5  UNL     1       8.405 -25.104 -16.943  1.00  0.00     0.021 C 
HETATM    4  C6  UNL     1       8.811 -26.508 -16.657  1.00  0.00    -0.033 C 
HETATM    5  C7  UNL     1       8.044 -27.382 -17.612  1.00  0.00     0.016 C 
HETATM    6  C8  UNL     1      10.265 -26.763 -16.817  1.00  0.00     0.030 C 
HETATM    7  C13 UNL     1      10.431 -28.284 -16.571  1.00  0.00     0.040 C 
HETATM    8  C14 UNL     1       9.868 -28.800 -15.335  1.00  0.00     0.137 C 
HETATM    9  C15 UNL     1       8.607 -28.231 -14.806  1.00  0.00     0.075 C 
HETATM   10  C16 UNL     1       7.380 -29.040 -15.145  1.00  0.00     0.030 C 
HETATM   11  C18 UNL     1       8.500 -26.787 -15.202  1.00  0.00     0.018 C 
HETATM   12  C19 UNL     1       7.301 -26.168 -14.626  1.00  0.00     0.039 C 
HETATM   13  C20 UNL     1       6.347 -25.475 -15.539  1.00  0.00     0.126 C 
ENDROOT
BRANCH   6  14
HETATM   14  C9  UNL     1      11.113 -26.436 -17.897  1.00  0.00     0.229 C 
HETATM   15  C10 UNL     1      12.592 -26.182 -17.752  1.00  0.00     0.066 C 
HETATM   16  C11 UNL     1      12.322 -25.801 -19.229  1.00  0.00     0.274 C 
HETATM   17  N1  UNL     1      11.369 -26.946 -19.139  1.00  0.00     0.089 N 
HETATM   18  C12 UNL     1      11.982 -28.034 -19.676  1.00  0.00     0.310 C 
ENDBRANCH   6  14
BRANCH   8  19
HETATM   19  O1  UNL     1       9.642 -30.186 -15.524  1.00  0.00    -0.394 OA
ATOM     20  H1  UNL     1       9.630 -30.589 -14.664  1.00  0.00     0.210 HD
ENDBRANCH   8  19
BRANCH   1  21
HETATM   21  C2  UNL     1       6.143 -24.265 -17.609  1.00  0.00     0.007 C 
HETATM   22  C1  UNL     1       5.910 -22.803 -17.763  1.00  0.00     0.006 C 
ENDBRANCH   1  21
BRANCH   9  23
HETATM   23  C17 UNL     1       8.699 -28.255 -13.314  1.00  0.00     0.184 C 
HETATM   24  O2  UNL     1       7.715 -28.128 -12.581  1.00  0.00    -0.647 OA
HETATM   25  O3  UNL     1       9.963 -28.431 -12.713  1.00  0.00    -0.647 OA
ENDBRANCH   9  23
BRANCH  13  26
HETATM   26  O4  UNL     1       5.537 -24.616 -14.748  1.00  0.00    -0.395 OA
ATOM     27  H4  UNL     1       4.634 -24.856 -14.920  1.00  0.00     0.210 HD
ENDBRANCH  13  26
TORSDOF 5
ENDMDL
MODEL 2
REMARK VINA RESULT: -6.443974915      4.342      7.339
REMARK  5 active torsions:
REMARK  status: ('A' for Active; 'I' for Inactive)
REMARK    1  A    between atoms: C2_2  and  C3_3 
REMARK    2  A    between atoms: C8_8  and  C9_9 
REMARK    3  A    between atoms: C14_15  and  O1_16 
REMARK    4  A    between atoms: C15_18  and  C17_20 
REMARK    5  A    between atoms: C20_25  and  O4_26 
ROOT
HETATM    1  C3  UNL     1      10.702 -29.333 -18.043  1.00  0.00    -0.018 C 
HETATM    2  C4  UNL     1      10.224 -30.383 -17.019  1.00  0.00     0.018 C 
HETATM    3  C5  UNL     1      12.147 -29.535 -18.198  1.00  0.00     0.021 C 
HETATM    4  C6  UNL     1      12.746 -29.584 -19.561  1.00  0.00    -0.033 C 
HETATM    5  C7  UNL     1      12.820 -28.163 -20.050  1.00  0.00     0.016 C 
HETATM    6  C8  UNL     1      14.100 -30.192 -19.607  1.00  0.00     0.030 C 
HETATM    7  C13 UNL     1      14.552 -30.043 -21.081  1.00  0.00     0.040 C 
HETATM    8  C14 UNL     1      13.638 -30.551 -22.089  1.00  0.00     0.137 C 
HETATM    9  C15 UNL     1      12.175 -30.429 -21.885  1.00  0.00     0.075 C 
HETATM   10  C16 UNL     1      11.553 -29.254 -22.596  1.00  0.00     0.030 C 
HETATM   11  C18 UNL     1      11.865 -30.471 -20.416  1.00  0.00     0.018 C 
HETATM   12  C19 UNL     1      10.418 -30.433 -20.180  1.00  0.00     0.039 C 
HETATM   13  C20 UNL     1       9.871 -29.388 -19.267  1.00  0.00     0.126 C 
ENDROOT
BRANCH   6  14
HETATM   14  C9  UNL     1      15.230 -29.908 -18.809  1.00  0.00     0.229 C 
HETATM   15  C10 UNL     1      15.178 -29.760 -17.309  1.00  0.00     0.066 C 
HETATM   16  C11 UNL     1      16.630 -29.340 -17.645  1.00  0.00     0.274 C 
HETATM   17  N1  UNL     1      16.491 -30.417 -18.669  1.00  0.00     0.089 N 
HETATM   18  C12 UNL     1      17.077 -31.538 -18.170  1.00  0.00     0.310 C 
ENDBRANCH   6  14
BRANCH   8  19
HETATM   19  O1  UNL     1      13.936 -29.884 -23.302  1.00  0.00    -0.394 OA
ATOM     20  H1  UNL     1      13.884 -30.528 -23.998  1.00  0.00     0.210 HD
ENDBRANCH   8  19
BRANCH   1  21
HETATM   21  C2  UNL     1      10.355 -28.000 -17.363  1.00  0.00     0.007 C 
HETATM   22  C1  UNL     1      10.215 -26.870 -18.321  1.00  0.00     0.006 C 
ENDBRANCH   1  21
BRANCH   9  23
HETATM   23  C17 UNL     1      11.539 -31.640 -22.486  1.00  0.00     0.184 C 
HETATM   24  O2  UNL     1      11.154 -32.598 -21.811  1.00  0.00    -0.647 OA
HETATM   25  O3  UNL     1      11.369 -31.696 -23.885  1.00  0.00    -0.647 OA
ENDBRANCH   9  23
BRANCH  13  26
HETATM   26  O4  UNL     1       8.573 -29.804 -18.863  1.00  0.00    -0.395 OA
ATOM     27  H4  UNL     1       7.969 -29.125 -19.141  1.00  0.00     0.210 HD
ENDBRANCH  13  26
TORSDOF 5
ENDMDL
MODEL 3
REMARK VINA RESULT: -6.358929224      2.460      4.832
REMARK  5 active torsions:
REMARK  status: ('A' for Active; 'I' for Inactive)
REMARK    1  A    between atoms: C2_2  and  C3_3 
REMARK    2  A    between atoms: C8_8  and  C9_9 
REMARK    3  A    between atoms: C14_15  and  O1_16 
REMARK    4  A    between atoms: C15_18  and  C17_20 
REMARK    5  A    between atoms: C20_25  and  O4_26 
ROOT
HETATM    1  C3  UNL     1       8.359 -27.101 -13.189  1.00  0.00    -0.018 C 
HETATM    2  C4  UNL     1       9.302 -26.177 -12.391  1.00  0.00     0.018 C 
HETATM    3  C5  UNL     1       7.958 -26.351 -14.384  1.00  0.00     0.021 C 
HETATM    4  C6  UNL     1       8.002 -27.008 -15.720  1.00  0.00    -0.033 C 
HETATM    5  C7  UNL     1       6.800 -27.911 -15.796  1.00  0.00     0.016 C 
HETATM    6  C8  UNL     1       7.979 -26.060 -16.863  1.00  0.00     0.030 C 
HETATM    7  C13 UNL     1       7.930 -26.959 -18.123  1.00  0.00     0.040 C 
HETATM    8  C14 UNL     1       8.954 -27.985 -18.222  1.00  0.00     0.137 C 
HETATM    9  C15 UNL     1       9.424 -28.676 -16.999  1.00  0.00     0.075 C 
HETATM   10  C16 UNL     1       8.775 -30.017 -16.764  1.00  0.00     0.030 C 
HETATM   11  C18 UNL     1       9.320 -27.748 -15.823  1.00  0.00     0.018 C 
HETATM   12  C19 UNL     1       9.852 -28.372 -14.607  1.00  0.00     0.039 C 
HETATM   13  C20 UNL     1       8.986 -28.427 -13.394  1.00  0.00     0.126 C 
ENDROOT
BRANCH   6  14
HETATM   14  C9  UNL     1       7.103 -24.980 -17.105  1.00  0.00     0.229 C 
HETATM   15  C10 UNL     1       5.653 -25.148 -17.482  1.00  0.00     0.066 C 
HETATM   16  C11 UNL     1       5.875 -23.624 -17.645  1.00  0.00     0.274 C 
HETATM   17  N1  UNL     1       6.754 -23.829 -16.456  1.00  0.00     0.089 N 
HETATM   18  C12 UNL     1       6.045 -23.468 -15.353  1.00  0.00     0.310 C 
ENDBRANCH   6  14
BRANCH   8  19
HETATM   19  O1  UNL     1       8.461 -28.989 -19.092  1.00  0.00    -0.394 OA
ATOM     20  H1  UNL     1       8.624 -29.827 -18.676  1.00  0.00     0.210 HD
ENDBRANCH   8  19
BRANCH   1  21
HETATM   21  C2  UNL     1       7.196 -27.336 -12.213  1.00  0.00     0.007 C 
HETATM   22  C1  UNL     1       6.431 -26.098 -11.902  1.00  0.00     0.006 C 
ENDBRANCH   1  21
BRANCH   9  23
HETATM   23  C17 UNL     1      10.879 -28.964 -17.181  1.00  0.00     0.184 C 
HETATM   24  O2  UNL     1      11.344 -30.106 -17.148  1.00  0.00    -0.647 OA
HETATM   25  O3  UNL     1      11.764 -27.888 -17.403  1.00  0.00    -0.647 OA
ENDBRANCH   9  23
BRANCH  13  26
HETATM   26  O4  UNL     1       9.827 -28.660 -12.273  1.00  0.00    -0.395 OA
ATOM     27  H4  UNL     1       9.352 -29.244 -11.692  1.00  0.00     0.210 HD
ENDBRANCH  13  26
TORSDOF 5
ENDMDL
MODEL 4
REMARK VINA RESULT: -5.775461143      3.308      5.919
REMARK  5 active torsions:
REMARK  status: ('A' for Active; 'I' for Inactive)
REMARK    1  A    between atoms: C2_2  and  C3_3 
REMARK    2  A    between atoms: C8_8  and  C9_9 
REMARK    3  A    between atoms: C14_15  and  O1_16 
REMARK    4  A    between atoms: C15_18  and  C17_20 
REMARK    5  A    between atoms: C20_25  and  O4_26 
ROOT
HETATM    1  C3  UNL     1       9.529 -29.668 -16.662  1.00  0.00    -0.018 C 
HETATM    2  C4  UNL     1      10.235 -30.466 -15.545  1.00  0.00     0.018 C 
HETATM    3  C5  UNL     1      10.460 -28.607 -17.062  1.00  0.00     0.021 C 
HETATM    4  C6  UNL     1      10.718 -28.356 -18.507  1.00  0.00    -0.033 C 
HETATM    5  C7  UNL     1       9.525 -27.606 -19.035  1.00  0.00     0.016 C 
HETATM    6  C8  UNL     1      11.950 -27.571 -18.776  1.00  0.00     0.030 C 
HETATM    7  C13 UNL     1      11.956 -27.352 -20.309  1.00  0.00     0.040 C 
HETATM    8  C14 UNL     1      11.819 -28.543 -21.129  1.00  0.00     0.137 C 
HETATM    9  C15 UNL     1      10.950 -29.654 -20.676  1.00  0.00     0.075 C 
HETATM   10  C16 UNL     1       9.574 -29.648 -21.294  1.00  0.00     0.030 C 
HETATM   11  C18 UNL     1      10.930 -29.699 -19.175  1.00  0.00     0.018 C 
HETATM   12  C19 UNL     1      10.143 -30.837 -18.690  1.00  0.00     0.039 C 
HETATM   13  C20 UNL     1       9.039 -30.581 -17.720  1.00  0.00     0.126 C 
ENDROOT
BRANCH   6  14
HETATM   14  C9  UNL     1      12.376 -26.357 -18.194  1.00  0.00     0.229 C 
HETATM   15  C10 UNL     1      13.104 -25.277 -18.954  1.00  0.00     0.066 C 
HETATM   16  C11 UNL     1      13.170 -24.771 -17.491  1.00  0.00     0.274 C 
HETATM   17  N1  UNL     1      11.806 -25.374 -17.434  1.00  0.00     0.089 N 
HETATM   18  C12 UNL     1      10.905 -24.369 -17.595  1.00  0.00     0.310 C 
ENDBRANCH   6  14
BRANCH   8  19
HETATM   19  O1  UNL     1      11.325 -28.130 -22.391  1.00  0.00    -0.394 OA
ATOM     20  H1  UNL     1      12.031 -28.233 -23.017  1.00  0.00     0.210 HD
ENDBRANCH   8  19
BRANCH   1  21
HETATM   21  C2  UNL     1       8.273 -29.128 -15.962  1.00  0.00     0.007 C 
HETATM   22  C1  UNL     1       8.487 -27.809 -15.306  1.00  0.00     0.006 C 
ENDBRANCH   1  21
BRANCH   9  23
HETATM   23  C17 UNL     1      11.584 -30.929 -21.128  1.00  0.00     0.184 C 
HETATM   24  O2  UNL     1      10.934 -31.881 -21.567  1.00  0.00    -0.647 OA
HETATM   25  O3  UNL     1      12.987 -31.055 -21.054  1.00  0.00    -0.647 OA
ENDBRANCH   9  23
BRANCH  13  26
HETATM   26  O4  UNL     1       8.726 -31.813 -17.085  1.00  0.00    -0.395 OA
ATOM     27  H4  UNL     1       7.867 -32.072 -17.399  1.00  0.00     0.210 HD
ENDBRANCH  13  26
TORSDOF 5
ENDMDL
MODEL 5
REMARK VINA RESULT: -5.640852193      1.950      3.058
REMARK  5 active torsions:
REMARK  status: ('A' for Active; 'I' for Inactive)
REMARK    1  A    between atoms: C2_2  and  C3_3 
REMARK    2  A    between atoms: C8_8  and  C9_9 
REMARK    3  A    between atoms: C14_15  and  O1_16 
REMARK    4  A    between atoms: C15_18  and  C17_20 
REMARK    5  A    between atoms: C20_25  and  O4_26 
ROOT
HETATM    1  C3  UNL     1       7.886 -26.229 -16.251  1.00  0.00    -0.018 C 
HETATM    2  C4  UNL     1       7.706 -26.020 -14.732  1.00  0.00     0.018 C 
HETATM    3  C5  UNL     1       9.329 -26.355 -16.482  1.00  0.00     0.021 C 
HETATM    4  C6  UNL     1       9.848 -27.454 -17.344  1.00  0.00    -0.033 C 
HETATM    5  C7  UNL     1       9.582 -27.046 -18.768  1.00  0.00     0.016 C 
HETATM    6  C8  UNL     1      11.297 -27.727 -17.172  1.00  0.00     0.030 C 
HETATM    7  C13 UNL     1      11.623 -28.817 -18.223  1.00  0.00     0.040 C 
HETATM    8  C14 UNL     1      10.787 -30.005 -18.199  1.00  0.00     0.137 C 
HETATM    9  C15 UNL     1       9.347 -29.885 -17.872  1.00  0.00     0.075 C 
HETATM   10  C16 UNL     1       8.445 -29.854 -19.080  1.00  0.00     0.030 C 
HETATM   11  C18 UNL     1       9.136 -28.728 -16.938  1.00  0.00     0.018 C 
HETATM   12  C19 UNL     1       7.731 -28.628 -16.529  1.00  0.00     0.039 C 
HETATM   13  C20 UNL     1       7.020 -27.332 -16.727  1.00  0.00     0.126 C 
ENDROOT
BRANCH   6  14
HETATM   14  C9  UNL     1      12.381 -26.822 -17.182  1.00  0.00     0.229 C 
HETATM   15  C10 UNL     1      13.808 -27.230 -17.444  1.00  0.00     0.066 C 
HETATM   16  C11 UNL     1      13.946 -25.743 -17.033  1.00  0.00     0.274 C 
HETATM   17  N1  UNL     1      12.660 -25.626 -17.781  1.00  0.00     0.089 N 
HETATM   18  C12 UNL     1      12.950 -25.165 -19.027  1.00  0.00     0.310 C 
ENDBRANCH   6  14
BRANCH   8  19
HETATM   19  O1  UNL     1      10.865 -30.599 -19.482  1.00  0.00    -0.394 OA
ATOM     20  H1  UNL     1      10.342 -31.392 -19.457  1.00  0.00     0.210 HD
ENDBRANCH   8  19
BRANCH   1  21
HETATM   21  C2  UNL     1       7.294 -24.945 -16.851  1.00  0.00     0.007 C 
HETATM   22  C1  UNL     1       7.517 -23.743 -16.001  1.00  0.00     0.006 C 
ENDBRANCH   1  21
BRANCH   9  23
HETATM   23  C17 UNL     1       8.958 -31.114 -17.116  1.00  0.00     0.184 C 
HETATM   24  O2  UNL     1       8.189 -31.965 -17.571  1.00  0.00    -0.647 OA
HETATM   25  O3  UNL     1       9.491 -31.317 -15.826  1.00  0.00    -0.647 OA
ENDBRANCH   9  23
BRANCH  13  26
HETATM   26  O4  UNL     1       5.870 -27.338 -15.893  1.00  0.00    -0.395 OA
ATOM     27  H4  UNL     1       5.311 -26.630 -16.192  1.00  0.00     0.210 HD
ENDBRANCH  13  26
TORSDOF 5
ENDMDL
