MODEL 1
REMARK VINA RESULT: -6.186633521      0.000      0.000
REMARK  4 active torsions:
REMARK  status: ('A' for Active; 'I' for Inactive)
REMARK    1  A    between atoms: C2_3  and  S1_4 
REMARK    2  A    between atoms: S1_4  and  N2_5 
REMARK    3  A    between atoms: C4_11  and  N3_12 
REMARK    4  A    between atoms: N3_12  and  C5_14 
ROOT
HETATM    1  N1  UNL     1      14.338   1.600  13.697  1.00  0.00    -0.100 NA
HETATM    2  C1  UNL     1      15.169   0.457  13.734  1.00  0.00     0.087 A 
HETATM    3  C2  UNL     1      15.034  -0.471  14.740  1.00  0.00     0.106 A 
HETATM    4  C3  UNL     1      15.886  -1.554  14.695  1.00  0.00     0.059 A 
HETATM    5  C4  UNL     1      16.846  -1.780  13.745  1.00  0.00     0.064 A 
HETATM    6  C6  UNL     1      16.941  -0.806  12.746  1.00  0.00     0.081 A 
HETATM    7  N4  UNL     1      17.835  -0.892  11.748  1.00  0.00    -0.305 N 
ATOM      8  H4  UNL     1      18.473  -1.687  11.703  1.00  0.00     0.171 HD
HETATM    9  C7  UNL     1      17.893   0.078  10.797  1.00  0.00     0.327 A 
HETATM   10  O4  UNL     1      18.743  -0.018   9.861  1.00  0.00    -0.247 OA
HETATM   11  N5  UNL     1      17.094   1.153  10.784  1.00  0.00    -0.275 N 
ATOM     12  H5  UNL     1      17.178   1.854  10.048  1.00  0.00     0.173 HD
HETATM   13  C8  UNL     1      16.187   1.289  11.753  1.00  0.00     0.263 A 
HETATM   14  O5  UNL     1      15.410   2.274  11.795  1.00  0.00    -0.267 OA
HETATM   15  C9  UNL     1      16.109   0.313  12.733  1.00  0.00     0.087 A 
ENDROOT
BRANCH   3  16
HETATM   16  S1  UNL     1      13.838  -0.263  15.991  1.00  0.00     0.258 S 
HETATM   17  O1  UNL     1      14.081  -1.232  17.137  1.00  0.00    -0.201 OA
HETATM   18  O2  UNL     1      12.470  -0.581  15.464  1.00  0.00    -0.201 OA
BRANCH  16  19
HETATM   19  N2  UNL     1      13.791   1.368  16.567  1.00  0.00    -0.324 N 
ATOM     20  H22 UNL     1      13.873   2.181  15.956  1.00  0.00     0.169 HD
ATOM     21  H21 UNL     1      13.674   1.408  17.579  1.00  0.00     0.169 HD
ENDBRANCH  16  19
ENDBRANCH   3  16
BRANCH   5  22
HETATM   22  N3  UNL     1      17.717  -2.888  13.701  1.00  0.00    -0.332 N 
ATOM     23  H3  UNL     1      18.382  -2.926  12.929  1.00  0.00     0.168 HD
BRANCH  22  24
HETATM   24  C5  UNL     1      17.749  -3.938  14.623  1.00  0.00     0.353 C 
HETATM   25  O3  UNL     1      18.711  -4.673  14.848  1.00  0.00    -0.283 OA
ENDBRANCH  22  24
ENDBRANCH   5  22
TORSDOF 4
ENDMDL
MODEL 2
REMARK VINA RESULT: -6.019213819      1.494      1.504
REMARK  4 active torsions:
REMARK  status: ('A' for Active; 'I' for Inactive)
REMARK    1  A    between atoms: C2_3  and  S1_4 
REMARK    2  A    between atoms: S1_4  and  N2_5 
REMARK    3  A    between atoms: C4_11  and  N3_12 
REMARK    4  A    between atoms: N3_12  and  C5_14 
ROOT
HETATM    1  N1  UNL     1      14.146   1.259  13.603  1.00  0.00    -0.100 NA
HETATM    2  C1  UNL     1      14.740   0.013  13.298  1.00  0.00     0.087 A 
HETATM    3  C2  UNL     1      14.274  -1.142  13.883  1.00  0.00     0.106 A 
HETATM    4  C3  UNL     1      14.912  -2.311  13.525  1.00  0.00     0.059 A 
HETATM    5  C4  UNL     1      15.959  -2.419  12.649  1.00  0.00     0.064 A 
HETATM    6  C6  UNL     1      16.392  -1.215  12.084  1.00  0.00     0.081 A 
HETATM    7  N4  UNL     1      17.408  -1.162  11.207  1.00  0.00    -0.305 N 
ATOM      8  H4  UNL     1      17.890  -2.019  10.935  1.00  0.00     0.171 HD
HETATM    9  C7  UNL     1      17.797   0.031  10.682  1.00  0.00     0.327 A 
HETATM   10  O4  UNL     1      18.758   0.063   9.855  1.00  0.00    -0.247 OA
HETATM   11  N5  UNL     1      17.218   1.199  10.988  1.00  0.00    -0.275 N 
ATOM     12  H5  UNL     1      17.548   2.068  10.566  1.00  0.00     0.173 HD
HETATM   13  C8  UNL     1      16.203   1.206  11.853  1.00  0.00     0.263 A 
HETATM   14  O5  UNL     1      15.622   2.268  12.179  1.00  0.00    -0.267 OA
HETATM   15  C9  UNL     1      15.790   0.002  12.401  1.00  0.00     0.087 A 
ENDROOT
BRANCH   3  16
HETATM   16  S1  UNL     1      12.946  -1.099  15.010  1.00  0.00     0.258 S 
HETATM   17  O1  UNL     1      13.416  -0.636  16.380  1.00  0.00    -0.201 OA
HETATM   18  O2  UNL     1      12.384  -2.475  15.210  1.00  0.00    -0.201 OA
BRANCH  16  19
HETATM   19  N2  UNL     1      11.652  -0.102  14.437  1.00  0.00    -0.324 N 
ATOM     20  H22 UNL     1      11.475   0.072  13.448  1.00  0.00     0.169 HD
ATOM     21  H21 UNL     1      11.102   0.280  15.206  1.00  0.00     0.169 HD
ENDBRANCH  16  19
ENDBRANCH   3  16
BRANCH   5  22
HETATM   22  N3  UNL     1      16.610  -3.614  12.285  1.00  0.00    -0.332 N 
ATOM     23  H3  UNL     1      17.103  -3.622  11.393  1.00  0.00     0.168 HD
BRANCH  22  24
HETATM   24  C5  UNL     1      16.638  -4.790  13.040  1.00  0.00     0.353 C 
HETATM   25  O3  UNL     1      17.156  -5.855  12.701  1.00  0.00    -0.283 OA
ENDBRANCH  22  24
ENDBRANCH   5  22
TORSDOF 4
ENDMDL
MODEL 3
REMARK VINA RESULT: -5.974241172      2.076      4.788
REMARK  4 active torsions:
REMARK  status: ('A' for Active; 'I' for Inactive)
REMARK    1  A    between atoms: C2_3  and  S1_4 
REMARK    2  A    between atoms: S1_4  and  N2_5 
REMARK    3  A    between atoms: C4_11  and  N3_12 
REMARK    4  A    between atoms: N3_12  and  C5_14 
ROOT
HETATM    1  N1  UNL     1      15.063   1.192  12.367  1.00  0.00    -0.100 NA
HETATM    2  C1  UNL     1      15.856   0.272  13.091  1.00  0.00     0.087 A 
HETATM    3  C2  UNL     1      16.866  -0.422  12.464  1.00  0.00     0.106 A 
HETATM    4  C3  UNL     1      17.587  -1.298  13.248  1.00  0.00     0.059 A 
HETATM    5  C4  UNL     1      17.385  -1.534  14.581  1.00  0.00     0.064 A 
HETATM    6  C6  UNL     1      16.346  -0.803  15.168  1.00  0.00     0.081 A 
HETATM    7  N4  UNL     1      16.030  -0.929  16.467  1.00  0.00    -0.305 N 
ATOM      8  H4  UNL     1      16.554  -1.574  17.058  1.00  0.00     0.171 HD
HETATM    9  C7  UNL     1      15.012  -0.199  16.996  1.00  0.00     0.327 A 
HETATM   10  O4  UNL     1      14.727  -0.329  18.225  1.00  0.00    -0.247 OA
HETATM   11  N5  UNL     1      14.275   0.668  16.290  1.00  0.00    -0.275 N 
ATOM     12  H5  UNL     1      13.521   1.192  16.734  1.00  0.00     0.173 HD
HETATM   13  C8  UNL     1      14.546   0.833  14.994  1.00  0.00     0.263 A 
HETATM   14  O5  UNL     1      13.891   1.629  14.280  1.00  0.00    -0.267 OA
HETATM   15  C9  UNL     1      15.579   0.099  14.432  1.00  0.00     0.087 A 
ENDROOT
BRANCH   3  16
HETATM   16  S1  UNL     1      17.193  -0.183  10.769  1.00  0.00     0.258 S 
HETATM   17  O1  UNL     1      16.249  -1.015   9.915  1.00  0.00    -0.201 OA
HETATM   18  O2  UNL     1      18.577  -0.652  10.433  1.00  0.00    -0.201 OA
BRANCH  16  19
HETATM   19  N2  UNL     1      17.104   1.488  10.329  1.00  0.00    -0.324 N 
ATOM     20  H22 UNL     1      16.234   2.020  10.321  1.00  0.00     0.169 HD
ATOM     21  H21 UNL     1      18.020   1.863  10.084  1.00  0.00     0.169 HD
ENDBRANCH  16  19
ENDBRANCH   3  16
BRANCH   5  22
HETATM   22  N3  UNL     1      18.123  -2.430  15.380  1.00  0.00    -0.332 N 
ATOM     23  H3  UNL     1      18.810  -2.027  16.017  1.00  0.00     0.168 HD
BRANCH  22  24
HETATM   24  C5  UNL     1      17.995  -3.821  15.377  1.00  0.00     0.353 C 
HETATM   25  O3  UNL     1      18.741  -4.615  14.801  1.00  0.00    -0.283 OA
ENDBRANCH  22  24
ENDBRANCH   5  22
TORSDOF 4
ENDMDL
MODEL 4
REMARK VINA RESULT: -5.719660871      2.190      4.832
REMARK  4 active torsions:
REMARK  status: ('A' for Active; 'I' for Inactive)
REMARK    1  A    between atoms: C2_3  and  S1_4 
REMARK    2  A    between atoms: S1_4  and  N2_5 
REMARK    3  A    between atoms: C4_11  and  N3_12 
REMARK    4  A    between atoms: N3_12  and  C5_14 
ROOT
HETATM    1  N1  UNL     1      15.138   1.782  12.718  1.00  0.00    -0.100 NA
HETATM    2  C1  UNL     1      15.433   0.408  12.875  1.00  0.00     0.087 A 
HETATM    3  C2  UNL     1      16.374  -0.198  12.075  1.00  0.00     0.106 A 
HETATM    4  C3  UNL     1      16.597  -1.540  12.299  1.00  0.00     0.059 A 
HETATM    5  C4  UNL     1      15.967  -2.312  13.238  1.00  0.00     0.064 A 
HETATM    6  C6  UNL     1      15.020  -1.647  14.023  1.00  0.00     0.081 A 
HETATM    7  N4  UNL     1      14.322  -2.273  14.984  1.00  0.00    -0.305 N 
ATOM      8  H4  UNL     1      14.476  -3.265  15.160  1.00  0.00     0.171 HD
HETATM    9  C7  UNL     1      13.411  -1.587  15.724  1.00  0.00     0.327 A 
HETATM   10  O4  UNL     1      12.760  -2.192  16.629  1.00  0.00    -0.247 OA
HETATM   11  N5  UNL     1      13.149  -0.284  15.557  1.00  0.00    -0.275 N 
ATOM     12  H5  UNL     1      12.454   0.186  16.138  1.00  0.00     0.173 HD
HETATM   13  C8  UNL     1      13.814   0.388  14.615  1.00  0.00     0.263 A 
HETATM   14  O5  UNL     1      13.612   1.609  14.411  1.00  0.00    -0.267 OA
HETATM   15  C9  UNL     1      14.747  -0.290  13.849  1.00  0.00     0.087 A 
ENDROOT
BRANCH   3  16
HETATM   16  S1  UNL     1      17.225   0.709  10.854  1.00  0.00     0.258 S 
HETATM   17  O1  UNL     1      17.222  -0.036   9.528  1.00  0.00    -0.201 OA
HETATM   18  O2  UNL     1      18.667   0.872  11.234  1.00  0.00    -0.201 OA
BRANCH  16  19
HETATM   19  N2  UNL     1      16.568   2.299  10.664  1.00  0.00    -0.324 N 
ATOM     20  H22 UNL     1      15.827   2.674  11.257  1.00  0.00     0.169 HD
ATOM     21  H21 UNL     1      17.012   2.801   9.896  1.00  0.00     0.169 HD
ENDBRANCH  16  19
ENDBRANCH   3  16
BRANCH   5  22
HETATM   22  N3  UNL     1      16.196  -3.684  13.465  1.00  0.00    -0.332 N 
ATOM     23  H3  UNL     1      15.515  -4.339  13.082  1.00  0.00     0.168 HD
BRANCH  22  24
HETATM   24  C5  UNL     1      17.275  -4.226  14.169  1.00  0.00     0.353 C 
HETATM   25  O3  UNL     1      18.251  -3.602  14.589  1.00  0.00    -0.283 OA
ENDBRANCH  22  24
ENDBRANCH   5  22
TORSDOF 4
ENDMDL
MODEL 5
REMARK VINA RESULT: -5.713662256      2.129      4.314
REMARK  4 active torsions:
REMARK  status: ('A' for Active; 'I' for Inactive)
REMARK    1  A    between atoms: C2_3  and  S1_4 
REMARK    2  A    between atoms: S1_4  and  N2_5 
REMARK    3  A    between atoms: C4_11  and  N3_12 
REMARK    4  A    between atoms: N3_12  and  C5_14 
ROOT
HETATM    1  N1  UNL     1      16.777  -2.988  15.565  1.00  0.00    -0.100 NA
HETATM    2  C1  UNL     1      16.392  -1.802  14.898  1.00  0.00     0.087 A 
HETATM    3  C2  UNL     1      16.118  -0.658  15.614  1.00  0.00     0.106 A 
HETATM    4  C3  UNL     1      15.750   0.451  14.881  1.00  0.00     0.059 A 
HETATM    5  C4  UNL     1      15.634   0.509  13.518  1.00  0.00     0.064 A 
HETATM    6  C6  UNL     1      15.923  -0.680  12.841  1.00  0.00     0.081 A 
HETATM    7  N4  UNL     1      15.852  -0.776  11.503  1.00  0.00    -0.305 N 
ATOM      8  H4  UNL     1      15.580   0.036  10.949  1.00  0.00     0.171 HD
HETATM    9  C7  UNL     1      16.142  -1.952  10.886  1.00  0.00     0.327 A 
HETATM   10  O4  UNL     1      16.071  -2.026   9.622  1.00  0.00    -0.247 OA
HETATM   11  N5  UNL     1      16.505  -3.063  11.540  1.00  0.00    -0.275 N 
ATOM     12  H5  UNL     1      16.712  -3.922  11.029  1.00  0.00     0.173 HD
HETATM   13  C8  UNL     1      16.592  -3.025  12.870  1.00  0.00     0.263 A 
HETATM   14  O5  UNL     1      16.927  -4.033  13.538  1.00  0.00    -0.267 OA
HETATM   15  C9  UNL     1      16.301  -1.837  13.521  1.00  0.00     0.087 A 
ENDROOT
BRANCH   3  16
HETATM   16  S1  UNL     1      16.241  -0.643  17.352  1.00  0.00     0.258 S 
HETATM   17  O1  UNL     1      14.977  -1.202  17.987  1.00  0.00    -0.201 OA
HETATM   18  O2  UNL     1      16.368   0.765  17.854  1.00  0.00    -0.201 OA
BRANCH  16  19
HETATM   19  N2  UNL     1      17.636  -1.505  17.903  1.00  0.00    -0.324 N 
ATOM     20  H22 UNL     1      17.615  -2.486  18.179  1.00  0.00     0.169 HD
ATOM     21  H21 UNL     1      18.466  -0.912  17.914  1.00  0.00     0.169 HD
ENDBRANCH  16  19
ENDBRANCH   3  16
BRANCH   5  22
HETATM   22  N3  UNL     1      15.257   1.643  12.771  1.00  0.00    -0.332 N 
ATOM     23  H3  UNL     1      14.360   2.072  12.998  1.00  0.00     0.168 HD
BRANCH  22  24
HETATM   24  C5  UNL     1      16.005   2.231  11.747  1.00  0.00     0.353 C 
HETATM   25  O3  UNL     1      15.729   2.211  10.547  1.00  0.00    -0.283 OA
ENDBRANCH  22  24
ENDBRANCH   5  22
TORSDOF 4
ENDMDL
