MODEL 1
REMARK VINA RESULT: -4.656568538      0.000      0.000
REMARK  7 active torsions:
REMARK  status: ('A' for Active; 'I' for Inactive)
REMARK    1  A    between atoms: N1_2  and  C2_4 
REMARK    2  A    between atoms: C2_4  and  N2_6 
REMARK    3  A    between atoms: N2_6  and  N3_8 
REMARK       I    between atoms: N3_8  and  C3_10 
REMARK    4  A    between atoms: C3_10  and  C4_12 
REMARK    5  A    between atoms: C4_12  and  N4_13 
REMARK    6  A    between atoms: C6_18  and  S2_19 
REMARK    7  A    between atoms: C8_23  and  N7_24 
ROOT
HETATM    1  N4  UNL     1     -14.211   0.849 -16.502  1.00  0.00    -0.124 N 
HETATM    2  C5  UNL     1     -13.036   1.272 -15.994  1.00  0.00     0.343 A 
HETATM    3  O2  UNL     1     -12.448   0.703 -15.045  1.00  0.00    -0.246 OA
HETATM    4  N5  UNL     1     -12.461   2.361 -16.532  1.00  0.00    -0.288 N 
ATOM      5  H5  UNL     1     -11.572   2.684 -16.151  1.00  0.00     0.172 HD
HETATM    6  C6  UNL     1     -13.012   3.042 -17.555  1.00  0.00     0.163 A 
HETATM    7  N6  UNL     1     -14.178   2.622 -18.058  1.00  0.00    -0.170 N 
ATOM      8  H6  UNL     1     -14.617   3.120 -18.832  1.00  0.00     0.186 HD
HETATM    9  C8  UNL     1     -14.772   1.519 -17.521  1.00  0.00     0.684 A 
ENDROOT
BRANCH   1  10
HETATM   10  C4  UNL     1     -14.815  -0.321 -15.904  1.00  0.00     0.257 C 
BRANCH  10  11
HETATM   11  C3  UNL     1     -15.682  -0.030 -14.751  1.00  0.00     0.255 C 
HETATM   12  N3  UNL     1     -15.204  -0.159 -13.436  1.00  0.00    -0.266 N 
ATOM     13  H3  UNL     1     -14.247  -0.458 -13.250  1.00  0.00     0.190 HD
HETATM   14  O1  UNL     1     -16.861   0.337 -14.949  1.00  0.00    -0.270 OA
BRANCH  12  15
HETATM   15  N2  UNL     1     -16.096   0.139 -12.378  1.00  0.00    -0.274 N 
ATOM     16  H2  UNL     1     -17.099   0.150 -12.562  1.00  0.00     0.189 HD
BRANCH  15  17
HETATM   17  C2  UNL     1     -15.632   0.423 -11.070  1.00  0.00     0.189 C 
HETATM   18  S1  UNL     1     -14.779  -0.632 -10.182  1.00  0.00    -0.039 SA
BRANCH  17  19
HETATM   19  N1  UNL     1     -15.942   1.706 -10.526  1.00  0.00    -0.352 N 
HETATM   20  C1  UNL     1     -15.639   2.813 -11.099  1.00  0.00     0.120 C 
ATOM     21  H1  UNL     1     -16.430   1.745  -9.632  1.00  0.00     0.166 HD
ENDBRANCH  17  19
ENDBRANCH  15  17
ENDBRANCH  12  15
ENDBRANCH  10  11
ENDBRANCH   1  10
BRANCH   9  22
HETATM   22  N7  UNL     1     -15.894   1.136 -18.015  1.00  0.00    -0.234 N 
ATOM     23  H72 UNL     1     -16.300   0.267 -17.668  1.00  0.00     0.174 HD
ATOM     24  H71 UNL     1     -16.359   1.688 -18.736  1.00  0.00     0.174 HD
ENDBRANCH   9  22
BRANCH   6  25
HETATM   25  S2  UNL     1     -12.243   4.487 -18.261  1.00  0.00    -0.098 SA
HETATM   26  C7  UNL     1     -11.438   5.500 -16.989  1.00  0.00     0.099 C 
ENDBRANCH   6  25
TORSDOF 7
ENDMDL
MODEL 2
REMARK VINA RESULT: -4.568838195      4.067      6.231
REMARK  7 active torsions:
REMARK  status: ('A' for Active; 'I' for Inactive)
REMARK    1  A    between atoms: N1_2  and  C2_4 
REMARK    2  A    between atoms: C2_4  and  N2_6 
REMARK    3  A    between atoms: N2_6  and  N3_8 
REMARK       I    between atoms: N3_8  and  C3_10 
REMARK    4  A    between atoms: C3_10  and  C4_12 
REMARK    5  A    between atoms: C4_12  and  N4_13 
REMARK    6  A    between atoms: C6_18  and  S2_19 
REMARK    7  A    between atoms: C8_23  and  N7_24 
ROOT
HETATM    1  N4  UNL     1     -14.653  -2.795 -15.245  1.00  0.00    -0.124 N 
HETATM    2  C5  UNL     1     -15.716  -3.586 -15.496  1.00  0.00     0.343 A 
HETATM    3  O2  UNL     1     -16.747  -3.190 -16.088  1.00  0.00    -0.246 OA
HETATM    4  N5  UNL     1     -15.671  -4.866 -15.090  1.00  0.00    -0.288 N 
ATOM      5  H5  UNL     1     -16.474  -5.467 -15.278  1.00  0.00     0.172 HD
HETATM    6  C6  UNL     1     -14.609  -5.387 -14.447  1.00  0.00     0.163 A 
HETATM    7  N6  UNL     1     -13.555  -4.601 -14.198  1.00  0.00    -0.170 N 
ATOM      8  H6  UNL     1     -12.739  -4.971 -13.712  1.00  0.00     0.186 HD
HETATM    9  C8  UNL     1     -13.588  -3.301 -14.604  1.00  0.00     0.684 A 
ENDROOT
BRANCH   1  10
HETATM   10  C4  UNL     1     -14.725  -1.419 -15.685  1.00  0.00     0.257 C 
BRANCH  10  11
HETATM   11  C3  UNL     1     -15.486  -0.537 -14.784  1.00  0.00     0.255 C 
HETATM   12  N3  UNL     1     -15.218  -0.507 -13.405  1.00  0.00    -0.266 N 
ATOM     13  H3  UNL     1     -14.492  -1.095 -12.997  1.00  0.00     0.190 HD
HETATM   14  O1  UNL     1     -16.383   0.193 -15.258  1.00  0.00    -0.270 OA
BRANCH  12  15
HETATM   15  N2  UNL     1     -15.990   0.367 -12.603  1.00  0.00    -0.274 N 
ATOM     16  H2  UNL     1     -16.798   0.835 -13.014  1.00  0.00     0.189 HD
BRANCH  15  17
HETATM   17  C2  UNL     1     -15.670   0.610 -11.244  1.00  0.00     0.189 C 
HETATM   18  S1  UNL     1     -14.905  -0.470 -10.306  1.00  0.00    -0.039 SA
BRANCH  17  19
HETATM   19  N1  UNL     1     -16.048   1.871 -10.694  1.00  0.00    -0.352 N 
HETATM   20  C1  UNL     1     -15.677   2.998 -11.180  1.00  0.00     0.120 C 
ATOM     21  H1  UNL     1     -16.647   1.876  -9.869  1.00  0.00     0.166 HD
ENDBRANCH  17  19
ENDBRANCH  15  17
ENDBRANCH  12  15
ENDBRANCH  10  11
ENDBRANCH   1  10
BRANCH   9  22
HETATM   22  N7  UNL     1     -12.568  -2.563 -14.350  1.00  0.00    -0.234 N 
ATOM     23  H72 UNL     1     -11.841  -2.487 -15.061  1.00  0.00     0.174 HD
ATOM     24  H71 UNL     1     -12.491  -2.073 -13.458  1.00  0.00     0.174 HD
ENDBRANCH   9  22
BRANCH   6  25
HETATM   25  S2  UNL     1     -14.560  -7.086 -13.911  1.00  0.00    -0.098 SA
HETATM   26  C7  UNL     1     -16.228  -7.743 -13.632  1.00  0.00     0.099 C 
ENDBRANCH   6  25
TORSDOF 7
ENDMDL
MODEL 3
REMARK VINA RESULT: -4.518033936      4.063      6.176
REMARK  7 active torsions:
REMARK  status: ('A' for Active; 'I' for Inactive)
REMARK    1  A    between atoms: N1_2  and  C2_4 
REMARK    2  A    between atoms: C2_4  and  N2_6 
REMARK    3  A    between atoms: N2_6  and  N3_8 
REMARK       I    between atoms: N3_8  and  C3_10 
REMARK    4  A    between atoms: C3_10  and  C4_12 
REMARK    5  A    between atoms: C4_12  and  N4_13 
REMARK    6  A    between atoms: C6_18  and  S2_19 
REMARK    7  A    between atoms: C8_23  and  N7_24 
ROOT
HETATM    1  N4  UNL     1     -15.161  -3.066 -15.533  1.00  0.00    -0.124 N 
HETATM    2  C5  UNL     1     -14.816  -3.920 -14.548  1.00  0.00     0.343 A 
HETATM    3  O2  UNL     1     -14.042  -3.617 -13.610  1.00  0.00    -0.246 OA
HETATM    4  N5  UNL     1     -15.327  -5.162 -14.569  1.00  0.00    -0.288 N 
ATOM      5  H5  UNL     1     -15.069  -5.811 -13.825  1.00  0.00     0.172 HD
HETATM    6  C6  UNL     1     -16.168  -5.584 -15.533  1.00  0.00     0.163 A 
HETATM    7  N6  UNL     1     -16.509  -4.737 -16.510  1.00  0.00    -0.170 N 
ATOM      8  H6  UNL     1     -17.144  -5.032 -17.252  1.00  0.00     0.186 HD
HETATM    9  C8  UNL     1     -15.997  -3.474 -16.500  1.00  0.00     0.684 A 
ENDROOT
BRANCH   1  10
HETATM   10  C4  UNL     1     -14.594  -1.736 -15.494  1.00  0.00     0.257 C 
BRANCH  10  11
HETATM   11  C3  UNL     1     -15.362  -0.776 -14.684  1.00  0.00     0.255 C 
HETATM   12  N3  UNL     1     -15.076  -0.588 -13.321  1.00  0.00    -0.266 N 
ATOM     13  H3  UNL     1     -14.331  -1.112 -12.862  1.00  0.00     0.190 HD
HETATM   14  O1  UNL     1     -16.282  -0.122 -15.221  1.00  0.00    -0.270 OA
BRANCH  12  15
HETATM   15  N2  UNL     1     -15.856   0.353 -12.607  1.00  0.00    -0.274 N 
ATOM     16  H2  UNL     1     -16.593   0.860 -13.098  1.00  0.00     0.189 HD
BRANCH  15  17
HETATM   17  C2  UNL     1     -15.640   0.609 -11.231  1.00  0.00     0.189 C 
HETATM   18  S1  UNL     1     -14.923  -0.450 -10.233  1.00  0.00    -0.039 SA
BRANCH  17  19
HETATM   19  N1  UNL     1     -16.083   1.864 -10.718  1.00  0.00    -0.352 N 
HETATM   20  C1  UNL     1     -15.724   2.997 -11.202  1.00  0.00     0.120 C 
ATOM     21  H1  UNL     1     -16.720   1.862  -9.922  1.00  0.00     0.166 HD
ENDBRANCH  17  19
ENDBRANCH  15  17
ENDBRANCH  12  15
ENDBRANCH  10  11
ENDBRANCH   1  10
BRANCH   9  22
HETATM   22  N7  UNL     1     -16.333  -2.679 -17.451  1.00  0.00    -0.234 N 
ATOM     23  H72 UNL     1     -17.200  -2.151 -17.351  1.00  0.00     0.174 HD
ATOM     24  H71 UNL     1     -15.748  -2.587 -18.281  1.00  0.00     0.174 HD
ENDBRANCH   9  22
BRANCH   6  25
HETATM   25  S2  UNL     1     -16.840  -7.236 -15.553  1.00  0.00    -0.098 SA
HETATM   26  C7  UNL     1     -17.202  -7.826 -13.877  1.00  0.00     0.099 C 
ENDBRANCH   6  25
TORSDOF 7
ENDMDL
MODEL 4
REMARK VINA RESULT: -4.492223219      2.628      3.889
REMARK  7 active torsions:
REMARK  status: ('A' for Active; 'I' for Inactive)
REMARK    1  A    between atoms: N1_2  and  C2_4 
REMARK    2  A    between atoms: C2_4  and  N2_6 
REMARK    3  A    between atoms: N2_6  and  N3_8 
REMARK       I    between atoms: N3_8  and  C3_10 
REMARK    4  A    between atoms: C3_10  and  C4_12 
REMARK    5  A    between atoms: C4_12  and  N4_13 
REMARK    6  A    between atoms: C6_18  and  S2_19 
REMARK    7  A    between atoms: C8_23  and  N7_24 
ROOT
HETATM    1  N4  UNL     1     -15.051  -0.189 -16.733  1.00  0.00    -0.124 N 
HETATM    2  C5  UNL     1     -15.834  -1.270 -16.922  1.00  0.00     0.343 A 
HETATM    3  O2  UNL     1     -15.916  -2.216 -16.104  1.00  0.00    -0.246 OA
HETATM    4  N5  UNL     1     -16.566  -1.341 -18.047  1.00  0.00    -0.288 N 
ATOM      5  H5  UNL     1     -17.159  -2.158 -18.194  1.00  0.00     0.172 HD
HETATM    6  C6  UNL     1     -16.547  -0.377 -18.987  1.00  0.00     0.163 A 
HETATM    7  N6  UNL     1     -15.770   0.695 -18.798  1.00  0.00    -0.170 N 
ATOM      8  H6  UNL     1     -15.737   1.439 -19.495  1.00  0.00     0.186 HD
HETATM    9  C8  UNL     1     -15.022   0.779 -17.662  1.00  0.00     0.684 A 
ENDROOT
BRANCH   1  10
HETATM   10  C4  UNL     1     -14.267  -0.135 -15.519  1.00  0.00     0.257 C 
BRANCH  10  11
HETATM   11  C3  UNL     1     -14.936   0.544 -14.397  1.00  0.00     0.255 C 
HETATM   12  N3  UNL     1     -15.738  -0.171 -13.493  1.00  0.00    -0.266 N 
ATOM     13  H3  UNL     1     -15.875  -1.177 -13.592  1.00  0.00     0.190 HD
HETATM   14  O1  UNL     1     -14.786   1.777 -14.253  1.00  0.00    -0.270 OA
BRANCH  12  15
HETATM   15  N2  UNL     1     -16.348   0.550 -12.439  1.00  0.00    -0.274 N 
ATOM     16  H2  UNL     1     -17.265   0.971 -12.591  1.00  0.00     0.189 HD
BRANCH  15  17
HETATM   17  C2  UNL     1     -15.720   0.703 -11.178  1.00  0.00     0.189 C 
HETATM   18  S1  UNL     1     -14.870  -0.477 -10.461  1.00  0.00    -0.039 SA
BRANCH  17  19
HETATM   19  N1  UNL     1     -15.855   1.964 -10.525  1.00  0.00    -0.352 N 
HETATM   20  C1  UNL     1     -15.606   3.088 -11.091  1.00  0.00     0.120 C 
ATOM     21  H1  UNL     1     -16.166   1.973  -9.554  1.00  0.00     0.166 HD
ENDBRANCH  17  19
ENDBRANCH  15  17
ENDBRANCH  12  15
ENDBRANCH  10  11
ENDBRANCH   1  10
BRANCH   9  22
HETATM   22  N7  UNL     1     -14.278   1.814 -17.504  1.00  0.00    -0.234 N 
ATOM     23  H72 UNL     1     -13.469   1.922 -18.116  1.00  0.00     0.174 HD
ATOM     24  H71 UNL     1     -14.493   2.503 -16.783  1.00  0.00     0.174 HD
ENDBRANCH   9  22
BRANCH   6  25
HETATM   25  S2  UNL     1     -17.521  -0.481 -20.477  1.00  0.00    -0.098 SA
HETATM   26  C7  UNL     1     -19.235  -0.955 -20.118  1.00  0.00     0.099 C 
ENDBRANCH   6  25
TORSDOF 7
ENDMDL
MODEL 5
REMARK VINA RESULT: -4.485886542      3.991      5.882
REMARK  7 active torsions:
REMARK  status: ('A' for Active; 'I' for Inactive)
REMARK    1  A    between atoms: N1_2  and  C2_4 
REMARK    2  A    between atoms: C2_4  and  N2_6 
REMARK    3  A    between atoms: N2_6  and  N3_8 
REMARK       I    between atoms: N3_8  and  C3_10 
REMARK    4  A    between atoms: C3_10  and  C4_12 
REMARK    5  A    between atoms: C4_12  and  N4_13 
REMARK    6  A    between atoms: C6_18  and  S2_19 
REMARK    7  A    between atoms: C8_23  and  N7_24 
ROOT
HETATM    1  N4  UNL     1     -15.599  -2.408 -16.174  1.00  0.00    -0.124 N 
HETATM    2  C5  UNL     1     -16.191  -2.279 -17.379  1.00  0.00     0.343 A 
HETATM    3  O2  UNL     1     -16.102  -1.248 -18.086  1.00  0.00    -0.246 OA
HETATM    4  N5  UNL     1     -16.915  -3.308 -17.851  1.00  0.00    -0.288 N 
ATOM      5  H5  UNL     1     -17.364  -3.214 -18.762  1.00  0.00     0.172 HD
HETATM    6  C6  UNL     1     -17.071  -4.459 -17.168  1.00  0.00     0.163 A 
HETATM    7  N6  UNL     1     -16.484  -4.586 -15.973  1.00  0.00    -0.170 N 
ATOM      8  H6  UNL     1     -16.587  -5.446 -15.435  1.00  0.00     0.186 HD
HETATM    9  C8  UNL     1     -15.747  -3.549 -15.483  1.00  0.00     0.684 A 
ENDROOT
BRANCH   1  10
HETATM   10  C4  UNL     1     -14.830  -1.287 -15.683  1.00  0.00     0.257 C 
BRANCH  10  11
HETATM   11  C3  UNL     1     -15.558  -0.423 -14.739  1.00  0.00     0.255 C 
HETATM   12  N3  UNL     1     -15.269  -0.451 -13.364  1.00  0.00    -0.266 N 
ATOM     13  H3  UNL     1     -14.550  -1.069 -12.989  1.00  0.00     0.190 HD
HETATM   14  O1  UNL     1     -16.446   0.343 -15.171  1.00  0.00    -0.270 OA
BRANCH  12  15
HETATM   15  N2  UNL     1     -16.009   0.408 -12.517  1.00  0.00    -0.274 N 
ATOM     16  H2  UNL     1     -16.835   0.879 -12.887  1.00  0.00     0.189 HD
BRANCH  15  17
HETATM   17  C2  UNL     1     -15.634   0.631 -11.170  1.00  0.00     0.189 C 
HETATM   18  S1  UNL     1     -14.877  -0.481 -10.263  1.00  0.00    -0.039 SA
BRANCH  17  19
HETATM   19  N1  UNL     1     -15.946   1.902 -10.602  1.00  0.00    -0.352 N 
HETATM   20  C1  UNL     1     -15.578   3.019 -11.113  1.00  0.00     0.120 C 
ATOM     21  H1  UNL     1     -16.492   1.924  -9.741  1.00  0.00     0.166 HD
ENDBRANCH  17  19
ENDBRANCH  15  17
ENDBRANCH  12  15
ENDBRANCH  10  11
ENDBRANCH   1  10
BRANCH   9  22
HETATM   22  N7  UNL     1     -15.198  -3.690 -14.331  1.00  0.00    -0.234 N 
ATOM     23  H72 UNL     1     -14.540  -4.460 -14.203  1.00  0.00     0.174 HD
ATOM     24  H71 UNL     1     -15.420  -3.050 -13.568  1.00  0.00     0.174 HD
ENDBRANCH   9  22
BRANCH   6  25
HETATM   25  S2  UNL     1     -18.035  -5.818 -17.801  1.00  0.00    -0.098 SA
HETATM   26  C7  UNL     1     -19.744  -5.759 -17.195  1.00  0.00     0.099 C 
ENDBRANCH   6  25
TORSDOF 7
ENDMDL
