MODEL 1
REMARK VINA RESULT: -6.316788139      0.000      0.000
REMARK  5 active torsions:
REMARK  status: ('A' for Active; 'I' for Inactive)
REMARK    1  A    between atoms: N1_2  and  C2_5 
REMARK    2  A    between atoms: C6_9  and  C7_10 
REMARK    3  A    between atoms: C7_10  and  N2_11 
REMARK    4  A    between atoms: C11_17  and  N4_18 
REMARK    5  A    between atoms: C16_28  and  N7_29 
ROOT
HETATM    1  N2  UNL     1       4.889 -13.451 -18.826  1.00  0.00     0.093 N 
HETATM    2  C8  UNL     1       4.083 -14.271 -19.719  1.00  0.00     0.279 C 
HETATM    3  C9  UNL     1       2.694 -13.703 -19.892  1.00  0.00     0.088 C 
HETATM    4  C10 UNL     1       2.910 -12.397 -20.607  1.00  0.00     0.040 A 
HETATM    5  N3  UNL     1       1.993 -11.907 -21.460  1.00  0.00    -0.195 N 
ATOM      6  H3  UNL     1       1.131 -12.430 -21.610  1.00  0.00     0.184 HD
HETATM    7  C11 UNL     1       2.174 -10.752 -22.119  1.00  0.00     0.682 A 
HETATM    8  N6  UNL     1       3.304 -10.065 -21.921  1.00  0.00    -0.176 N 
ATOM      9  H6  UNL     1       3.458  -9.185 -22.412  1.00  0.00     0.186 HD
HETATM   10  C16 UNL     1       4.254 -10.541 -21.058  1.00  0.00     0.124 A 
HETATM   11  C17 UNL     1       4.063 -11.728 -20.384  1.00  0.00     0.037 A 
HETATM   12  C18 UNL     1       5.125 -12.169 -19.473  1.00  0.00     0.317 C 
ENDROOT
BRANCH   1  13
HETATM   13  C7  UNL     1       4.211 -13.260 -17.555  1.00  0.00     0.277 C 
BRANCH  13  14
HETATM   14  C6  UNL     1       5.082 -13.582 -16.354  1.00  0.00     0.014 C 
HETATM   15  C5  UNL     1       4.423 -12.918 -15.173  1.00  0.00     0.009 C 
HETATM   16  C4  UNL     1       3.469 -13.881 -14.528  1.00  0.00     0.039 C 
HETATM   17  C2  UNL     1       4.326 -14.934 -13.851  1.00  0.00     0.121 C 
HETATM   18  C3  UNL     1       5.291 -14.310 -12.836  1.00  0.00     0.046 C 
HETATM   19  C20 UNL     1       5.126 -15.649 -14.875  1.00  0.00     0.039 C 
HETATM   20  C19 UNL     1       5.172 -15.086 -16.237  1.00  0.00     0.009 C 
BRANCH  17  21
HETATM   21  N1  UNL     1       3.440 -15.804 -13.097  1.00  0.00    -0.070 N 
HETATM   22  C1  UNL     1       2.072 -15.507 -13.477  1.00  0.00     0.267 C 
ATOM     23  H12 UNL     1       3.590 -15.739 -12.091  1.00  0.00     0.277 HD
ATOM     24  H11 UNL     1       3.672 -16.792 -13.210  1.00  0.00     0.277 HD
ENDBRANCH  17  21
ENDBRANCH  13  14
ENDBRANCH   1  13
BRANCH  10  25
HETATM   25  N7  UNL     1       5.295  -9.807 -20.942  1.00  0.00    -0.385 N 
ATOM     26  H72 UNL     1       5.274  -8.810 -20.728  1.00  0.00     0.157 HD
ATOM     27  H71 UNL     1       6.182 -10.291 -21.081  1.00  0.00     0.157 HD
ENDBRANCH  10  25
BRANCH   7  28
HETATM   28  N4  UNL     1       1.147 -10.326 -23.007  1.00  0.00    -0.214 N 
HETATM   29  C12 UNL     1       1.103 -10.638 -24.411  1.00  0.00     0.168 C 
HETATM   30  C13 UNL     1      -0.254 -11.073 -24.868  1.00  0.00     0.252 C 
HETATM   31  N5  UNL     1      -1.231 -11.119 -23.827  1.00  0.00    -0.072 N 
HETATM   32  C14 UNL     1      -1.267  -9.932 -23.015  1.00  0.00     0.252 C 
ATOM     33  H52 UNL     1      -2.154 -11.321 -24.210  1.00  0.00     0.277 HD
ATOM     34  H51 UNL     1      -1.100 -11.948 -23.248  1.00  0.00     0.277 HD
HETATM   35  C15 UNL     1       0.070  -9.528 -22.457  1.00  0.00     0.168 C 
ENDBRANCH   7  28
TORSDOF 5
ENDMDL
MODEL 2
REMARK VINA RESULT: -6.253759411      6.592     10.813
REMARK  5 active torsions:
REMARK  status: ('A' for Active; 'I' for Inactive)
REMARK    1  A    between atoms: N1_2  and  C2_5 
REMARK    2  A    between atoms: C6_9  and  C7_10 
REMARK    3  A    between atoms: C7_10  and  N2_11 
REMARK    4  A    between atoms: C11_17  and  N4_18 
REMARK    5  A    between atoms: C16_28  and  N7_29 
ROOT
HETATM    1  N2  UNL     1       6.877 -14.459 -15.310  1.00  0.00     0.093 N 
HETATM    2  C8  UNL     1       7.760 -13.310 -15.447  1.00  0.00     0.279 C 
HETATM    3  C9  UNL     1       7.717 -12.427 -14.221  1.00  0.00     0.088 C 
HETATM    4  C10 UNL     1       8.304 -13.277 -13.127  1.00  0.00     0.040 A 
HETATM    5  N3  UNL     1       8.991 -12.730 -12.109  1.00  0.00    -0.195 N 
ATOM      6  H3  UNL     1       9.103 -11.717 -12.078  1.00  0.00     0.184 HD
HETATM    7  C11 UNL     1       9.536 -13.472 -11.133  1.00  0.00     0.682 A 
HETATM    8  N6  UNL     1       9.388 -14.801 -11.172  1.00  0.00    -0.176 N 
ATOM      9  H6  UNL     1       9.794 -15.380 -10.437  1.00  0.00     0.186 HD
HETATM   10  C16 UNL     1       8.693 -15.384 -12.196  1.00  0.00     0.124 A 
HETATM   11  C17 UNL     1       8.136 -14.616 -13.197  1.00  0.00     0.037 A 
HETATM   12  C18 UNL     1       7.401 -15.315 -14.258  1.00  0.00     0.317 C 
ENDROOT
BRANCH   1  13
HETATM   13  C7  UNL     1       5.526 -14.029 -14.990  1.00  0.00     0.277 C 
BRANCH  13  14
HETATM   14  C6  UNL     1       4.889 -14.836 -13.872  1.00  0.00     0.014 C 
HETATM   15  C5  UNL     1       4.300 -13.830 -12.917  1.00  0.00     0.009 C 
HETATM   16  C4  UNL     1       2.877 -13.550 -13.301  1.00  0.00     0.039 C 
HETATM   17  C2  UNL     1       2.093 -14.801 -12.952  1.00  0.00     0.121 C 
HETATM   18  C3  UNL     1       2.230 -15.158 -11.467  1.00  0.00     0.046 C 
HETATM   19  C20 UNL     1       2.601 -15.940 -13.754  1.00  0.00     0.039 C 
HETATM   20  C19 UNL     1       3.864 -15.759 -14.493  1.00  0.00     0.009 C 
BRANCH  17  21
HETATM   21  N1  UNL     1       0.686 -14.516 -13.178  1.00  0.00    -0.070 N 
HETATM   22  C1  UNL     1       0.578 -13.601 -14.299  1.00  0.00     0.267 C 
ATOM     23  H12 UNL     1       0.217 -14.168 -12.342  1.00  0.00     0.277 HD
ATOM     24  H11 UNL     1       0.131 -15.362 -13.309  1.00  0.00     0.277 HD
ENDBRANCH  17  21
ENDBRANCH  13  14
ENDBRANCH   1  13
BRANCH  10  25
HETATM   25  N7  UNL     1       8.612 -16.659 -12.137  1.00  0.00    -0.385 N 
ATOM     26  H72 UNL     1       8.652 -17.275 -12.948  1.00  0.00     0.157 HD
ATOM     27  H71 UNL     1       8.501 -17.040 -11.197  1.00  0.00     0.157 HD
ENDBRANCH  10  25
BRANCH   7  28
HETATM   28  N4  UNL     1      10.253 -12.797 -10.106  1.00  0.00    -0.214 N 
HETATM   29  C12 UNL     1      10.225 -11.373  -9.893  1.00  0.00     0.168 C 
HETATM   30  C13 UNL     1      10.063 -11.004  -8.452  1.00  0.00     0.252 C 
HETATM   31  N5  UNL     1       9.945 -12.124  -7.575  1.00  0.00    -0.072 N 
HETATM   32  C14 UNL     1      10.948 -13.133  -7.785  1.00  0.00     0.252 C 
ATOM     33  H52 UNL     1       9.940 -11.819  -6.601  1.00  0.00     0.277 HD
ATOM     34  H51 UNL     1       9.010 -12.528  -7.632  1.00  0.00     0.277 HD
HETATM   35  C15 UNL     1      11.062 -13.599  -9.210  1.00  0.00     0.168 C 
ENDBRANCH   7  28
TORSDOF 5
ENDMDL
MODEL 3
REMARK VINA RESULT: -6.225046250      1.659      2.514
REMARK  5 active torsions:
REMARK  status: ('A' for Active; 'I' for Inactive)
REMARK    1  A    between atoms: N1_2  and  C2_5 
REMARK    2  A    between atoms: C6_9  and  C7_10 
REMARK    3  A    between atoms: C7_10  and  N2_11 
REMARK    4  A    between atoms: C11_17  and  N4_18 
REMARK    5  A    between atoms: C16_28  and  N7_29 
ROOT
HETATM    1  N2  UNL     1       6.043 -12.771 -16.303  1.00  0.00     0.093 N 
HETATM    2  C8  UNL     1       5.731 -13.815 -17.269  1.00  0.00     0.279 C 
HETATM    3  C9  UNL     1       4.423 -13.545 -17.976  1.00  0.00     0.088 C 
HETATM    4  C10 UNL     1       4.682 -12.298 -18.778  1.00  0.00     0.040 A 
HETATM    5  N3  UNL     1       4.061 -12.080 -19.950  1.00  0.00    -0.195 N 
ATOM      6  H3  UNL     1       3.393 -12.771 -20.290  1.00  0.00     0.184 HD
HETATM    7  C11 UNL     1       4.290 -10.982 -20.688  1.00  0.00     0.682 A 
HETATM    8  N6  UNL     1       5.165 -10.074 -20.241  1.00  0.00    -0.176 N 
ATOM      9  H6  UNL     1       5.350  -9.234 -20.788  1.00  0.00     0.186 HD
HETATM   10  C16 UNL     1       5.811 -10.271 -19.051  1.00  0.00     0.124 A 
HETATM   11  C17 UNL     1       5.572 -11.402 -18.298  1.00  0.00     0.037 A 
HETATM   12  C18 UNL     1       6.300 -11.538 -17.032  1.00  0.00     0.317 C 
ENDROOT
BRANCH   1  13
HETATM   13  C7  UNL     1       4.942 -12.591 -15.372  1.00  0.00     0.277 C 
BRANCH  13  14
HETATM   14  C6  UNL     1       4.945 -13.597 -14.235  1.00  0.00     0.014 C 
HETATM   15  C5  UNL     1       4.201 -12.942 -13.100  1.00  0.00     0.009 C 
HETATM   16  C4  UNL     1       2.745 -13.297 -13.187  1.00  0.00     0.039 C 
HETATM   17  C2  UNL     1       2.645 -14.764 -12.815  1.00  0.00     0.121 C 
HETATM   18  C3  UNL     1       3.222 -15.035 -11.421  1.00  0.00     0.046 C 
HETATM   19  C20 UNL     1       3.406 -15.574 -13.799  1.00  0.00     0.039 C 
HETATM   20  C19 UNL     1       4.296 -14.866 -14.738  1.00  0.00     0.009 C 
BRANCH  17  21
HETATM   21  N1  UNL     1       1.235 -15.107 -12.752  1.00  0.00    -0.070 N 
HETATM   22  C1  UNL     1       0.538 -14.380 -13.796  1.00  0.00     0.267 C 
ATOM     23  H12 UNL     1       0.834 -14.945 -11.828  1.00  0.00     0.277 HD
ATOM     24  H11 UNL     1       1.074 -16.113 -12.801  1.00  0.00     0.277 HD
ENDBRANCH  17  21
ENDBRANCH  13  14
ENDBRANCH   1  13
BRANCH  10  25
HETATM   25  N7  UNL     1       6.625  -9.344 -18.718  1.00  0.00    -0.385 N 
ATOM     26  H72 UNL     1       6.363  -8.511 -18.192  1.00  0.00     0.157 HD
ATOM     27  H71 UNL     1       7.589  -9.488 -19.019  1.00  0.00     0.157 HD
ENDBRANCH  10  25
BRANCH   7  28
HETATM   28  N4  UNL     1       3.589 -10.850 -21.918  1.00  0.00    -0.214 N 
HETATM   29  C12 UNL     1       3.737 -11.740 -23.040  1.00  0.00     0.168 C 
HETATM   30  C13 UNL     1       2.427 -12.135 -23.647  1.00  0.00     0.252 C 
HETATM   31  N5  UNL     1       1.290 -11.577 -22.988  1.00  0.00    -0.072 N 
HETATM   32  C14 UNL     1       1.395 -10.162 -22.751  1.00  0.00     0.252 C 
ATOM     33  H52 UNL     1       0.435 -11.794 -23.500  1.00  0.00     0.277 HD
ATOM     34  H51 UNL     1       1.099 -12.074 -22.118  1.00  0.00     0.277 HD
HETATM   35  C15 UNL     1       2.658  -9.748 -22.049  1.00  0.00     0.168 C 
ENDBRANCH   7  28
TORSDOF 5
ENDMDL
MODEL 4
REMARK VINA RESULT: -6.061303249      0.661      1.165
REMARK  5 active torsions:
REMARK  status: ('A' for Active; 'I' for Inactive)
REMARK    1  A    between atoms: N1_2  and  C2_5 
REMARK    2  A    between atoms: C6_9  and  C7_10 
REMARK    3  A    between atoms: C7_10  and  N2_11 
REMARK    4  A    between atoms: C11_17  and  N4_18 
REMARK    5  A    between atoms: C16_28  and  N7_29 
ROOT
HETATM    1  N2  UNL     1       4.901 -13.389 -18.897  1.00  0.00     0.093 N 
HETATM    2  C8  UNL     1       4.102 -14.271 -19.735  1.00  0.00     0.279 C 
HETATM    3  C9  UNL     1       2.677 -13.783 -19.854  1.00  0.00     0.088 C 
HETATM    4  C10 UNL     1       2.788 -12.483 -20.603  1.00  0.00     0.040 A 
HETATM    5  N3  UNL     1       1.807 -12.061 -21.421  1.00  0.00    -0.195 N 
ATOM      6  H3  UNL     1       0.969 -12.633 -21.521  1.00  0.00     0.184 HD
HETATM    7  C11 UNL     1       1.894 -10.912 -22.109  1.00  0.00     0.682 A 
HETATM    8  N6  UNL     1       2.993 -10.161 -21.977  1.00  0.00    -0.176 N 
ATOM      9  H6  UNL     1       3.075  -9.284 -22.492  1.00  0.00     0.186 HD
HETATM   10  C16 UNL     1       4.006 -10.566 -21.151  1.00  0.00     0.124 A 
HETATM   11  C17 UNL     1       3.911 -11.748 -20.447  1.00  0.00     0.037 A 
HETATM   12  C18 UNL     1       5.037 -12.111 -19.578  1.00  0.00     0.317 C 
ENDROOT
BRANCH   1  13
HETATM   13  C7  UNL     1       4.272 -13.209 -17.600  1.00  0.00     0.277 C 
BRANCH  13  14
HETATM   14  C6  UNL     1       5.171 -13.591 -16.437  1.00  0.00     0.014 C 
HETATM   15  C5  UNL     1       4.602 -12.897 -15.227  1.00  0.00     0.009 C 
HETATM   16  C4  UNL     1       3.619 -13.804 -14.547  1.00  0.00     0.039 C 
HETATM   17  C2  UNL     1       4.438 -14.912 -13.911  1.00  0.00     0.121 C 
HETATM   18  C3  UNL     1       5.479 -14.354 -12.934  1.00  0.00     0.046 C 
HETATM   19  C20 UNL     1       5.151 -15.667 -14.969  1.00  0.00     0.039 C 
HETATM   20  C19 UNL     1       5.174 -15.099 -16.330  1.00  0.00     0.009 C 
BRANCH  17  21
HETATM   21  N1  UNL     1       3.533 -15.732 -13.125  1.00  0.00    -0.070 N 
HETATM   22  C1  UNL     1       2.170 -15.409 -13.507  1.00  0.00     0.267 C 
ATOM     23  H12 UNL     1       3.690 -15.638 -12.121  1.00  0.00     0.277 HD
ATOM     24  H11 UNL     1       3.736 -16.729 -13.206  1.00  0.00     0.277 HD
ENDBRANCH  17  21
ENDBRANCH  13  14
ENDBRANCH   1  13
BRANCH  10  25
HETATM   25  N7  UNL     1       5.009  -9.775 -21.098  1.00  0.00    -0.385 N 
ATOM     26  H72 UNL     1       5.963 -10.070 -20.894  1.00  0.00     0.157 HD
ATOM     27  H71 UNL     1       4.793  -8.794 -21.277  1.00  0.00     0.157 HD
ENDBRANCH  10  25
BRANCH   7  28
HETATM   28  N4  UNL     1       0.806 -10.561 -22.956  1.00  0.00    -0.214 N 
HETATM   29  C12 UNL     1      -0.503 -10.188 -22.487  1.00  0.00     0.168 C 
HETATM   30  C13 UNL     1      -1.051  -8.984 -23.189  1.00  0.00     0.252 C 
HETATM   31  N5  UNL     1      -0.168  -8.427 -24.163  1.00  0.00    -0.072 N 
HETATM   32  C14 UNL     1       0.385  -9.400 -25.067  1.00  0.00     0.252 C 
ATOM     33  H52 UNL     1      -0.629  -7.678 -24.678  1.00  0.00     0.277 HD
ATOM     34  H51 UNL     1       0.574  -7.893 -23.711  1.00  0.00     0.277 HD
HETATM   35  C15 UNL     1       1.034 -10.573 -24.386  1.00  0.00     0.168 C 
ENDBRANCH   7  28
TORSDOF 5
ENDMDL
MODEL 5
REMARK VINA RESULT: -5.965004882      3.331      5.166
REMARK  5 active torsions:
REMARK  status: ('A' for Active; 'I' for Inactive)
REMARK    1  A    between atoms: N1_2  and  C2_5 
REMARK    2  A    between atoms: C6_9  and  C7_10 
REMARK    3  A    between atoms: C7_10  and  N2_11 
REMARK    4  A    between atoms: C11_17  and  N4_18 
REMARK    5  A    between atoms: C16_28  and  N7_29 
ROOT
HETATM    1  N2  UNL     1       5.100 -12.967 -16.843  1.00  0.00     0.093 N 
HETATM    2  C8  UNL     1       6.423 -13.077 -17.441  1.00  0.00     0.279 C 
HETATM    3  C9  UNL     1       6.616 -14.415 -18.117  1.00  0.00     0.088 C 
HETATM    4  C10 UNL     1       5.641 -14.400 -19.262  1.00  0.00     0.040 A 
HETATM    5  N3  UNL     1       5.898 -15.056 -20.407  1.00  0.00    -0.195 N 
ATOM      6  H3  UNL     1       6.767 -15.581 -20.490  1.00  0.00     0.184 HD
HETATM    7  C11 UNL     1       5.048 -15.042 -21.446  1.00  0.00     0.682 A 
HETATM    8  N6  UNL     1       3.905 -14.355 -21.337  1.00  0.00    -0.176 N 
ATOM      9  H6  UNL     1       3.247 -14.335 -22.116  1.00  0.00     0.186 HD
HETATM   10  C16 UNL     1       3.618 -13.679 -20.182  1.00  0.00     0.124 A 
HETATM   11  C17 UNL     1       4.496 -13.696 -19.119  1.00  0.00     0.037 A 
HETATM   12  C18 UNL     1       4.115 -12.951 -17.914  1.00  0.00     0.317 C 
ENDROOT
BRANCH   1  13
HETATM   13  C7  UNL     1       4.852 -14.079 -15.941  1.00  0.00     0.277 C 
BRANCH  13  14
HETATM   14  C6  UNL     1       3.670 -13.851 -15.016  1.00  0.00     0.014 C 
HETATM   15  C5  UNL     1       3.091 -15.214 -14.738  1.00  0.00     0.009 C 
HETATM   16  C4  UNL     1       3.730 -15.786 -13.507  1.00  0.00     0.039 C 
HETATM   17  C2  UNL     1       3.193 -14.980 -12.340  1.00  0.00     0.121 C 
HETATM   18  C3  UNL     1       1.662 -15.033 -12.273  1.00  0.00     0.046 C 
HETATM   19  C20 UNL     1       3.603 -13.563 -12.490  1.00  0.00     0.039 C 
HETATM   20  C19 UNL     1       4.178 -13.141 -13.782  1.00  0.00     0.009 C 
BRANCH  17  21
HETATM   21  N1  UNL     1       3.680 -15.597 -11.118  1.00  0.00    -0.070 N 
HETATM   22  C1  UNL     1       3.602 -14.620 -10.047  1.00  0.00     0.267 C 
ATOM     23  H12 UNL     1       4.616 -15.988 -11.223  1.00  0.00     0.277 HD
ATOM     24  H11 UNL     1       3.190 -16.463 -10.894  1.00  0.00     0.277 HD
ENDBRANCH  17  21
ENDBRANCH  13  14
ENDBRANCH   1  13
BRANCH  10  25
HETATM   25  N7  UNL     1       2.502 -13.056 -20.184  1.00  0.00    -0.385 N 
ATOM     26  H72 UNL     1       1.995 -12.789 -21.028  1.00  0.00     0.157 HD
ATOM     27  H71 UNL     1       2.132 -12.831 -19.260  1.00  0.00     0.157 HD
ENDBRANCH  10  25
BRANCH   7  28
HETATM   28  N4  UNL     1       5.418 -15.760 -22.617  1.00  0.00    -0.214 N 
HETATM   29  C12 UNL     1       6.715 -15.694 -23.237  1.00  0.00     0.168 C 
HETATM   30  C13 UNL     1       7.245 -17.039 -23.623  1.00  0.00     0.252 C 
HETATM   31  N5  UNL     1       6.380 -18.123 -23.283  1.00  0.00    -0.072 N 
HETATM   32  C14 UNL     1       5.014 -17.922 -23.686  1.00  0.00     0.252 C 
ATOM     33  H52 UNL     1       6.740 -19.001 -23.657  1.00  0.00     0.277 HD
ATOM     34  H51 UNL     1       6.435 -18.328 -22.285  1.00  0.00     0.277 HD
HETATM   35  C15 UNL     1       4.422 -16.620 -23.223  1.00  0.00     0.168 C 
ENDBRANCH   7  28
TORSDOF 5
ENDMDL
