MODEL 1
REMARK VINA RESULT: -6.101217598      0.000      0.000
REMARK  11 active torsions:
REMARK  status: ('A' for Active; 'I' for Inactive)
REMARK    1  A    between atoms: C2_2  and  O1_3 
REMARK    2  A    between atoms: O1_3  and  C3_4 
REMARK       I    between atoms: C3_4  and  N1_6 
REMARK    3  A    between atoms: N1_6  and  C4_8 
REMARK    4  A    between atoms: C4_8  and  C6_10 
REMARK    5  A    between atoms: C6_10  and  O3_11 
REMARK    6  A    between atoms: C6_10  and  C7_13 
REMARK    7  A    between atoms: C7_13  and  O4_14 
REMARK    8  A    between atoms: C7_13  and  N2_16 
REMARK    9  A    between atoms: N2_16  and  C8_18 
REMARK   10  A    between atoms: C10_22  and  S1_23 
REMARK   11  A    between atoms: S1_23  and  N4_26 
REMARK       I    between atoms: N4_26  and  C11_28 
ROOT
HETATM    1  N2  UNL     1     -60.530 -21.512 -21.592  1.00  0.00    -0.327 N 
ATOM      2  H2  UNL     1     -60.242 -22.319 -21.037  1.00  0.00     0.165 HD
ENDROOT
BRANCH   1   3
HETATM    3  C7  UNL     1     -59.805 -20.256 -21.458  1.00  0.00     0.251 C 
BRANCH   3   4
HETATM    4  C6  UNL     1     -60.030 -19.739 -20.079  1.00  0.00     0.189 C 
BRANCH   4   5
HETATM    5  C4  UNL     1     -61.168 -18.761 -19.950  1.00  0.00     0.115 C 
HETATM    6  C5  UNL     1     -60.726 -17.456 -20.578  1.00  0.00     0.035 C 
BRANCH   5   7
HETATM    7  N1  UNL     1     -62.337 -19.287 -20.625  1.00  0.00    -0.330 N 
HETATM    8  C3  UNL     1     -63.348 -20.015 -19.960  1.00  0.00     0.360 C 
HETATM    9  O2  UNL     1     -63.320 -20.269 -18.723  1.00  0.00    -0.239 OA
ATOM     10  H1  UNL     1     -62.434 -19.123 -21.626  1.00  0.00     0.165 HD
BRANCH   8  11
HETATM   11  O1  UNL     1     -64.450 -20.500 -20.643  1.00  0.00    -0.304 OA
BRANCH  11  12
HETATM   12  C2  UNL     1     -65.235 -19.701 -21.507  1.00  0.00     0.176 C 
HETATM   13  C1  UNL     1     -66.571 -20.349 -21.801  1.00  0.00     0.034 C 
ENDBRANCH  11  12
ENDBRANCH   8  11
ENDBRANCH   5   7
ENDBRANCH   4   5
BRANCH   4  14
HETATM   14  O3  UNL     1     -60.236 -20.831 -19.221  1.00  0.00    -0.389 OA
ATOM     15  H3  UNL     1     -59.912 -21.628 -19.625  1.00  0.00     0.210 HD
ENDBRANCH   4  14
ENDBRANCH   3   4
BRANCH   3  16
HETATM   16  O4  UNL     1     -58.444 -20.604 -21.647  1.00  0.00    -0.374 OA
ATOM     17  H4  UNL     1     -57.905 -19.825 -21.720  1.00  0.00     0.212 HD
ENDBRANCH   3  16
ENDBRANCH   1   3
BRANCH   1  18
HETATM   18  C8  UNL     1     -61.539 -21.625 -22.405  1.00  0.00     0.227 A 
HETATM   19  N3  UNL     1     -62.492 -22.576 -22.448  1.00  0.00    -0.329 N 
HETATM   20  C9  UNL     1     -63.306 -22.231 -23.479  1.00  0.00     0.143 A 
ATOM     21  H3  UNL     1     -62.582 -23.387 -21.835  1.00  0.00     0.168 HD
HETATM   22  C10 UNL     1     -62.832 -21.083 -24.037  1.00  0.00     0.209 A 
HETATM   23  O8  UNL     1     -61.767 -20.749 -23.361  1.00  0.00    -0.264 OA
BRANCH  22  24
HETATM   24  S1  UNL     1     -63.442 -20.152 -25.388  1.00  0.00     0.289 S 
HETATM   25  O5  UNL     1     -62.763 -18.821 -25.461  1.00  0.00    -0.198 OA
HETATM   26  O6  UNL     1     -63.233 -20.945 -26.646  1.00  0.00    -0.198 OA
BRANCH  24  27
HETATM   27  N4  UNL     1     -65.131 -19.912 -25.107  1.00  0.00    -0.249 N 
HETATM   28  C11 UNL     1     -65.859 -19.054 -25.961  1.00  0.00     0.227 C 
HETATM   29  C12 UNL     1     -67.315 -18.769 -25.818  1.00  0.00     0.118 C 
HETATM   30  O7  UNL     1     -65.250 -18.490 -26.908  1.00  0.00    -0.273 OA
ATOM     31  H4  UNL     1     -65.597 -20.385 -24.333  1.00  0.00     0.182 HD
ENDBRANCH  24  27
ENDBRANCH  22  24
ENDBRANCH   1  18
TORSDOF 11
ENDMDL
MODEL 2
REMARK VINA RESULT: -6.039343162      2.237      4.492
REMARK  11 active torsions:
REMARK  status: ('A' for Active; 'I' for Inactive)
REMARK    1  A    between atoms: C2_2  and  O1_3 
REMARK    2  A    between atoms: O1_3  and  C3_4 
REMARK       I    between atoms: C3_4  and  N1_6 
REMARK    3  A    between atoms: N1_6  and  C4_8 
REMARK    4  A    between atoms: C4_8  and  C6_10 
REMARK    5  A    between atoms: C6_10  and  O3_11 
REMARK    6  A    between atoms: C6_10  and  C7_13 
REMARK    7  A    between atoms: C7_13  and  O4_14 
REMARK    8  A    between atoms: C7_13  and  N2_16 
REMARK    9  A    between atoms: N2_16  and  C8_18 
REMARK   10  A    between atoms: C10_22  and  S1_23 
REMARK   11  A    between atoms: S1_23  and  N4_26 
REMARK       I    between atoms: N4_26  and  C11_28 
ROOT
HETATM    1  N2  UNL     1     -61.889 -19.313 -19.484  1.00  0.00    -0.327 N 
ATOM      2  H2  UNL     1     -62.158 -19.080 -18.528  1.00  0.00     0.165 HD
ENDROOT
BRANCH   1   3
HETATM    3  C7  UNL     1     -60.477 -19.341 -19.844  1.00  0.00     0.251 C 
BRANCH   3   4
HETATM    4  C6  UNL     1     -60.207 -20.625 -20.549  1.00  0.00     0.189 C 
BRANCH   4   5
HETATM    5  C4  UNL     1     -59.580 -20.476 -21.910  1.00  0.00     0.115 C 
HETATM    6  C5  UNL     1     -58.439 -21.468 -22.002  1.00  0.00     0.035 C 
BRANCH   5   7
HETATM    7  N1  UNL     1     -60.572 -20.737 -22.932  1.00  0.00    -0.330 N 
HETATM    8  C3  UNL     1     -61.218 -19.713 -23.660  1.00  0.00     0.360 C 
HETATM    9  O2  UNL     1     -60.983 -18.484 -23.483  1.00  0.00    -0.239 OA
ATOM     10  H1  UNL     1     -60.817 -21.706 -23.135  1.00  0.00     0.165 HD
BRANCH   8  11
HETATM   11  O1  UNL     1     -62.161 -20.006 -24.629  1.00  0.00    -0.304 OA
BRANCH  11  12
HETATM   12  C2  UNL     1     -62.907 -19.013 -25.306  1.00  0.00     0.176 C 
HETATM   13  C1  UNL     1     -64.279 -19.520 -25.695  1.00  0.00     0.034 C 
ENDBRANCH  11  12
ENDBRANCH   8  11
ENDBRANCH   5   7
ENDBRANCH   4   5
BRANCH   4  14
HETATM   14  O3  UNL     1     -59.392 -21.422 -19.730  1.00  0.00    -0.389 OA
ATOM     15  H3  UNL     1     -59.921 -22.068 -19.275  1.00  0.00     0.210 HD
ENDBRANCH   4  14
ENDBRANCH   3   4
BRANCH   3  16
HETATM   16  O4  UNL     1     -60.308 -18.241 -20.722  1.00  0.00    -0.374 OA
ATOM     17  H4  UNL     1     -60.873 -17.520 -20.470  1.00  0.00     0.212 HD
ENDBRANCH   3  16
ENDBRANCH   1   3
BRANCH   1  18
HETATM   18  C8  UNL     1     -62.812 -19.581 -20.359  1.00  0.00     0.227 A 
HETATM   19  N3  UNL     1     -63.367 -18.771 -21.281  1.00  0.00    -0.329 N 
HETATM   20  C9  UNL     1     -64.277 -19.536 -21.939  1.00  0.00     0.143 A 
ATOM     21  H3  UNL     1     -63.150 -17.789 -21.450  1.00  0.00     0.168 HD
HETATM   22  C10 UNL     1     -64.255 -20.787 -21.404  1.00  0.00     0.209 A 
HETATM   23  O8  UNL     1     -63.359 -20.775 -20.455  1.00  0.00    -0.264 OA
BRANCH  22  24
HETATM   24  S1  UNL     1     -65.192 -22.206 -21.820  1.00  0.00     0.289 S 
HETATM   25  O5  UNL     1     -66.348 -22.367 -20.885  1.00  0.00    -0.198 OA
HETATM   26  O6  UNL     1     -65.650 -22.074 -23.244  1.00  0.00    -0.198 OA
BRANCH  24  27
HETATM   27  N4  UNL     1     -64.136 -23.567 -21.656  1.00  0.00    -0.249 N 
HETATM   28  C11 UNL     1     -63.050 -23.710 -22.547  1.00  0.00     0.227 C 
HETATM   29  C12 UNL     1     -62.076 -24.838 -22.505  1.00  0.00     0.118 C 
HETATM   30  O7  UNL     1     -62.882 -22.835 -23.437  1.00  0.00    -0.273 OA
ATOM     31  H4  UNL     1     -64.297 -24.259 -20.924  1.00  0.00     0.182 HD
ENDBRANCH  24  27
ENDBRANCH  22  24
ENDBRANCH   1  18
TORSDOF 11
ENDMDL
MODEL 3
REMARK VINA RESULT: -5.940236015      1.359      1.686
REMARK  11 active torsions:
REMARK  status: ('A' for Active; 'I' for Inactive)
REMARK    1  A    between atoms: C2_2  and  O1_3 
REMARK    2  A    between atoms: O1_3  and  C3_4 
REMARK       I    between atoms: C3_4  and  N1_6 
REMARK    3  A    between atoms: N1_6  and  C4_8 
REMARK    4  A    between atoms: C4_8  and  C6_10 
REMARK    5  A    between atoms: C6_10  and  O3_11 
REMARK    6  A    between atoms: C6_10  and  C7_13 
REMARK    7  A    between atoms: C7_13  and  O4_14 
REMARK    8  A    between atoms: C7_13  and  N2_16 
REMARK    9  A    between atoms: N2_16  and  C8_18 
REMARK   10  A    between atoms: C10_22  and  S1_23 
REMARK   11  A    between atoms: S1_23  and  N4_26 
REMARK       I    between atoms: N4_26  and  C11_28 
ROOT
HETATM    1  N2  UNL     1     -60.419 -21.899 -21.645  1.00  0.00    -0.327 N 
ATOM      2  H2  UNL     1     -59.962 -22.541 -20.997  1.00  0.00     0.165 HD
ENDROOT
BRANCH   1   3
HETATM    3  C7  UNL     1     -59.950 -20.523 -21.739  1.00  0.00     0.251 C 
BRANCH   3   4
HETATM    4  C6  UNL     1     -59.951 -19.942 -20.367  1.00  0.00     0.189 C 
BRANCH   4   5
HETATM    5  C4  UNL     1     -61.080 -18.984 -20.089  1.00  0.00     0.115 C 
HETATM    6  C5  UNL     1     -60.599 -17.592 -20.441  1.00  0.00     0.035 C 
BRANCH   5   7
HETATM    7  N1  UNL     1     -62.231 -19.348 -20.888  1.00  0.00    -0.330 N 
HETATM    8  C3  UNL     1     -63.363 -20.006 -20.357  1.00  0.00     0.360 C 
HETATM    9  O2  UNL     1     -63.467 -20.331 -19.141  1.00  0.00    -0.239 OA
ATOM     10  H1  UNL     1     -62.225 -19.119 -21.882  1.00  0.00     0.165 HD
BRANCH   8  11
HETATM   11  O1  UNL     1     -64.443 -20.336 -21.156  1.00  0.00    -0.304 OA
BRANCH  11  12
HETATM   12  C2  UNL     1     -65.607 -19.537 -21.250  1.00  0.00     0.176 C 
HETATM   13  C1  UNL     1     -65.389 -18.344 -22.155  1.00  0.00     0.034 C 
ENDBRANCH  11  12
ENDBRANCH   8  11
ENDBRANCH   5   7
ENDBRANCH   4   5
BRANCH   4  14
HETATM   14  O3  UNL     1     -59.973 -20.993 -19.437  1.00  0.00    -0.389 OA
ATOM     15  H3  UNL     1     -59.097 -21.150 -19.102  1.00  0.00     0.210 HD
ENDBRANCH   4  14
ENDBRANCH   3   4
BRANCH   3  16
HETATM   16  O4  UNL     1     -58.627 -20.627 -22.238  1.00  0.00    -0.374 OA
ATOM     17  H4  UNL     1     -58.625 -20.625 -23.187  1.00  0.00     0.212 HD
ENDBRANCH   3  16
ENDBRANCH   1   3
BRANCH   1  18
HETATM   18  C8  UNL     1     -61.409 -22.325 -22.372  1.00  0.00     0.227 A 
HETATM   19  N3  UNL     1     -61.980 -23.545 -22.399  1.00  0.00    -0.329 N 
HETATM   20  C9  UNL     1     -62.967 -23.466 -23.328  1.00  0.00     0.143 A 
ATOM     21  H3  UNL     1     -61.723 -24.358 -21.838  1.00  0.00     0.168 HD
HETATM   22  C10 UNL     1     -62.974 -22.206 -23.843  1.00  0.00     0.209 A 
HETATM   23  O8  UNL     1     -62.021 -21.549 -23.242  1.00  0.00    -0.264 OA
BRANCH  22  24
HETATM   24  S1  UNL     1     -64.005 -21.496 -25.068  1.00  0.00     0.289 S 
HETATM   25  O5  UNL     1     -64.227 -22.459 -26.191  1.00  0.00    -0.198 OA
HETATM   26  O6  UNL     1     -65.300 -21.092 -24.425  1.00  0.00    -0.198 OA
BRANCH  24  27
HETATM   27  N4  UNL     1     -63.176 -20.103 -25.671  1.00  0.00    -0.249 N 
HETATM   28  C11 UNL     1     -63.772 -19.334 -26.694  1.00  0.00     0.227 C 
HETATM   29  C12 UNL     1     -63.154 -18.116 -27.294  1.00  0.00     0.118 C 
HETATM   30  O7  UNL     1     -64.897 -19.688 -27.137  1.00  0.00    -0.273 OA
ATOM     31  H4  UNL     1     -62.267 -19.840 -25.292  1.00  0.00     0.182 HD
ENDBRANCH  24  27
ENDBRANCH  22  24
ENDBRANCH   1  18
TORSDOF 11
ENDMDL
MODEL 4
REMARK VINA RESULT: -5.929497715      2.089      4.270
REMARK  11 active torsions:
REMARK  status: ('A' for Active; 'I' for Inactive)
REMARK    1  A    between atoms: C2_2  and  O1_3 
REMARK    2  A    between atoms: O1_3  and  C3_4 
REMARK       I    between atoms: C3_4  and  N1_6 
REMARK    3  A    between atoms: N1_6  and  C4_8 
REMARK    4  A    between atoms: C4_8  and  C6_10 
REMARK    5  A    between atoms: C6_10  and  O3_11 
REMARK    6  A    between atoms: C6_10  and  C7_13 
REMARK    7  A    between atoms: C7_13  and  O4_14 
REMARK    8  A    between atoms: C7_13  and  N2_16 
REMARK    9  A    between atoms: N2_16  and  C8_18 
REMARK   10  A    between atoms: C10_22  and  S1_23 
REMARK   11  A    between atoms: S1_23  and  N4_26 
REMARK       I    between atoms: N4_26  and  C11_28 
ROOT
HETATM    1  N2  UNL     1     -61.765 -19.169 -19.457  1.00  0.00    -0.327 N 
ATOM      2  H2  UNL     1     -62.013 -19.070 -18.472  1.00  0.00     0.165 HD
ENDROOT
BRANCH   1   3
HETATM    3  C7  UNL     1     -60.363 -19.301 -19.832  1.00  0.00     0.251 C 
BRANCH   3   4
HETATM    4  C6  UNL     1     -60.194 -20.610 -20.525  1.00  0.00     0.189 C 
BRANCH   4   5
HETATM    5  C4  UNL     1     -59.624 -20.517 -21.916  1.00  0.00     0.115 C 
HETATM    6  C5  UNL     1     -58.539 -21.566 -22.039  1.00  0.00     0.035 C 
BRANCH   5   7
HETATM    7  N1  UNL     1     -60.673 -20.745 -22.886  1.00  0.00    -0.330 N 
HETATM    8  C3  UNL     1     -61.232 -19.714 -23.675  1.00  0.00     0.360 C 
HETATM    9  O2  UNL     1     -60.862 -18.509 -23.602  1.00  0.00    -0.239 OA
ATOM     10  H1  UNL     1     -61.026 -21.694 -23.006  1.00  0.00     0.165 HD
BRANCH   8  11
HETATM   11  O1  UNL     1     -62.234 -19.976 -24.592  1.00  0.00    -0.304 OA
BRANCH  11  12
HETATM   12  C2  UNL     1     -62.828 -18.973 -25.394  1.00  0.00     0.176 C 
HETATM   13  C1  UNL     1     -64.188 -19.402 -25.901  1.00  0.00     0.034 C 
ENDBRANCH  11  12
ENDBRANCH   8  11
ENDBRANCH   5   7
ENDBRANCH   4   5
BRANCH   4  14
HETATM   14  O3  UNL     1     -59.387 -21.436 -19.728  1.00  0.00    -0.389 OA
ATOM     15  H3  UNL     1     -59.907 -22.139 -19.357  1.00  0.00     0.210 HD
ENDBRANCH   4  14
ENDBRANCH   3   4
BRANCH   3  16
HETATM   16  O4  UNL     1     -60.126 -18.227 -20.725  1.00  0.00    -0.374 OA
ATOM     17  H4  UNL     1     -60.429 -17.407 -20.352  1.00  0.00     0.212 HD
ENDBRANCH   3  16
ENDBRANCH   1   3
BRANCH   1  18
HETATM   18  C8  UNL     1     -62.706 -19.174 -20.354  1.00  0.00     0.227 A 
HETATM   19  N3  UNL     1     -62.989 -18.248 -21.292  1.00  0.00    -0.329 N 
HETATM   20  C9  UNL     1     -64.062 -18.732 -21.970  1.00  0.00     0.143 A 
ATOM     21  H3  UNL     1     -62.501 -17.368 -21.456  1.00  0.00     0.168 HD
HETATM   22  C10 UNL     1     -64.404 -19.935 -21.433  1.00  0.00     0.209 A 
HETATM   23  O8  UNL     1     -63.564 -20.167 -20.462  1.00  0.00    -0.264 OA
BRANCH  22  24
HETATM   24  S1  UNL     1     -65.692 -21.038 -21.870  1.00  0.00     0.289 S 
HETATM   25  O5  UNL     1     -65.839 -22.112 -20.840  1.00  0.00    -0.198 OA
HETATM   26  O6  UNL     1     -66.961 -20.250 -22.028  1.00  0.00    -0.198 OA
BRANCH  24  27
HETATM   27  N4  UNL     1     -65.244 -21.756 -23.378  1.00  0.00    -0.249 N 
HETATM   28  C11 UNL     1     -64.051 -22.509 -23.457  1.00  0.00     0.227 C 
HETATM   29  C12 UNL     1     -63.561 -23.172 -24.699  1.00  0.00     0.118 C 
HETATM   30  O7  UNL     1     -63.349 -22.636 -22.419  1.00  0.00    -0.273 OA
ATOM     31  H4  UNL     1     -65.834 -21.637 -24.202  1.00  0.00     0.182 HD
ENDBRANCH  24  27
ENDBRANCH  22  24
ENDBRANCH   1  18
TORSDOF 11
ENDMDL
MODEL 5
REMARK VINA RESULT: -5.899725745      2.945      4.509
REMARK  11 active torsions:
REMARK  status: ('A' for Active; 'I' for Inactive)
REMARK    1  A    between atoms: C2_2  and  O1_3 
REMARK    2  A    between atoms: O1_3  and  C3_4 
REMARK       I    between atoms: C3_4  and  N1_6 
REMARK    3  A    between atoms: N1_6  and  C4_8 
REMARK    4  A    between atoms: C4_8  and  C6_10 
REMARK    5  A    between atoms: C6_10  and  O3_11 
REMARK    6  A    between atoms: C6_10  and  C7_13 
REMARK    7  A    between atoms: C7_13  and  O4_14 
REMARK    8  A    between atoms: C7_13  and  N2_16 
REMARK    9  A    between atoms: N2_16  and  C8_18 
REMARK   10  A    between atoms: C10_22  and  S1_23 
REMARK   11  A    between atoms: S1_23  and  N4_26 
REMARK       I    between atoms: N4_26  and  C11_28 
ROOT
HETATM    1  N2  UNL     1     -62.694 -20.053 -19.996  1.00  0.00    -0.327 N 
ATOM      2  H2  UNL     1     -62.617 -20.286 -19.006  1.00  0.00     0.165 HD
ENDROOT
BRANCH   1   3
HETATM    3  C7  UNL     1     -61.590 -19.372 -20.660  1.00  0.00     0.251 C 
BRANCH   3   4
HETATM    4  C6  UNL     1     -60.393 -20.258 -20.588  1.00  0.00     0.189 C 
BRANCH   4   5
HETATM    5  C4  UNL     1     -60.057 -20.966 -21.873  1.00  0.00     0.115 C 
HETATM    6  C5  UNL     1     -58.569 -21.251 -21.865  1.00  0.00     0.035 C 
BRANCH   5   7
HETATM    7  N1  UNL     1     -60.816 -22.196 -21.962  1.00  0.00    -0.330 N 
HETATM    8  C3  UNL     1     -61.875 -22.384 -22.877  1.00  0.00     0.360 C 
HETATM    9  O2  UNL     1     -62.249 -21.497 -23.695  1.00  0.00    -0.239 OA
ATOM     10  H1  UNL     1     -60.574 -22.962 -21.334  1.00  0.00     0.165 HD
BRANCH   8  11
HETATM   11  O1  UNL     1     -62.575 -23.577 -22.929  1.00  0.00    -0.304 OA
BRANCH  11  12
HETATM   12  C2  UNL     1     -61.999 -24.825 -22.597  1.00  0.00     0.176 C 
HETATM   13  C1  UNL     1     -61.271 -25.430 -23.778  1.00  0.00     0.034 C 
ENDBRANCH  11  12
ENDBRANCH   8  11
ENDBRANCH   5   7
ENDBRANCH   4   5
BRANCH   4  14
HETATM   14  O3  UNL     1     -59.297 -19.493 -20.159  1.00  0.00    -0.389 OA
ATOM     15  H3  UNL     1     -59.266 -19.473 -19.209  1.00  0.00     0.210 HD
ENDBRANCH   4  14
ENDBRANCH   3   4
BRANCH   3  16
HETATM   16  O4  UNL     1     -62.018 -19.215 -22.001  1.00  0.00    -0.374 OA
ATOM     17  H4  UNL     1     -62.725 -18.584 -22.057  1.00  0.00     0.212 HD
ENDBRANCH   3  16
ENDBRANCH   1   3
BRANCH   1  18
HETATM   18  C8  UNL     1     -63.777 -20.369 -20.643  1.00  0.00     0.227 A 
HETATM   19  N3  UNL     1     -64.159 -21.568 -21.123  1.00  0.00    -0.329 N 
HETATM   20  C9  UNL     1     -65.364 -21.358 -21.714  1.00  0.00     0.143 A 
ATOM     21  H3  UNL     1     -63.650 -22.449 -21.057  1.00  0.00     0.168 HD
HETATM   22  C10 UNL     1     -65.685 -20.042 -21.581  1.00  0.00     0.209 A 
HETATM   23  O8  UNL     1     -64.705 -19.479 -20.930  1.00  0.00    -0.264 OA
BRANCH  22  24
HETATM   24  S1  UNL     1     -67.098 -19.166 -22.131  1.00  0.00     0.289 S 
HETATM   25  O5  UNL     1     -67.113 -19.074 -23.623  1.00  0.00    -0.198 OA
HETATM   26  O6  UNL     1     -68.322 -19.863 -21.611  1.00  0.00    -0.198 OA
BRANCH  24  27
HETATM   27  N4  UNL     1     -66.989 -17.574 -21.465  1.00  0.00    -0.249 N 
HETATM   28  C11 UNL     1     -68.006 -16.635 -21.749  1.00  0.00     0.227 C 
HETATM   29  C12 UNL     1     -68.019 -15.236 -21.235  1.00  0.00     0.118 C 
HETATM   30  O7  UNL     1     -68.967 -16.991 -22.480  1.00  0.00    -0.273 OA
ATOM     31  H4  UNL     1     -66.199 -17.315 -20.874  1.00  0.00     0.182 HD
ENDBRANCH  24  27
ENDBRANCH  22  24
ENDBRANCH   1  18
TORSDOF 11
ENDMDL
