MODEL 1
REMARK VINA RESULT: -6.281453839      0.000      0.000
REMARK  10 active torsions:
REMARK  status: ('A' for Active; 'I' for Inactive)
REMARK    1  A    between atoms: O1_2  and  C2_3 
REMARK    2  A    between atoms: C2_3  and  C3_5 
REMARK    3  A    between atoms: C3_5  and  C4_6 
REMARK    4  A    between atoms: C3_5  and  C5_9 
REMARK    5  A    between atoms: C5_9  and  O5_10 
REMARK    6  A    between atoms: C5_9  and  C6_12 
REMARK    7  A    between atoms: C6_12  and  S1_13 
REMARK    8  A    between atoms: S1_13  and  C7_14 
REMARK    9  A    between atoms: C7_14  and  C8_15 
REMARK       I    between atoms: C8_15  and  N1_17 
REMARK   10  A    between atoms: N1_17  and  C9_19 
ROOT
HETATM    1  C7  UNL     1     -64.605 -21.174 -23.240  1.00  0.00     0.177 C 
ENDROOT
BRANCH   1   2
HETATM    2  S1  UNL     1     -63.491 -19.946 -23.945  1.00  0.00    -0.157 SA
BRANCH   2   3
HETATM    3  C6  UNL     1     -63.065 -18.730 -22.654  1.00  0.00     0.107 C 
BRANCH   3   4
HETATM    4  C5  UNL     1     -61.607 -18.984 -22.265  1.00  0.00     0.151 C 
BRANCH   4   5
HETATM    5  C3  UNL     1     -61.343 -18.468 -20.872  1.00  0.00     0.215 C 
BRANCH   5   6
HETATM    6  C2  UNL     1     -60.321 -19.273 -20.190  1.00  0.00     0.275 C 
HETATM    7  O2  UNL     1     -60.381 -19.495 -18.973  1.00  0.00    -0.264 OA
BRANCH   6   8
HETATM    8  O1  UNL     1     -59.234 -19.825 -20.891  1.00  0.00    -0.326 OA
HETATM    9  C1  UNL     1     -59.181 -21.228 -21.046  1.00  0.00     0.213 C 
ENDBRANCH   6   8
ENDBRANCH   5   6
BRANCH   5  10
HETATM   10  C4  UNL     1     -60.912 -17.041 -20.906  1.00  0.00     0.189 C 
HETATM   11  O3  UNL     1     -59.705 -16.686 -20.948  1.00  0.00    -0.647 OA
HETATM   12  O4  UNL     1     -61.876 -16.047 -20.890  1.00  0.00    -0.647 OA
ENDBRANCH   5  10
ENDBRANCH   4   5
BRANCH   4  13
HETATM   13  O5  UNL     1     -60.842 -18.251 -23.202  1.00  0.00    -0.393 OA
ATOM     14  H5  UNL     1     -60.220 -18.827 -23.631  1.00  0.00     0.210 HD
ENDBRANCH   4  13
ENDBRANCH   3   4
ENDBRANCH   2   3
ENDBRANCH   1   2
BRANCH   1  15
HETATM   15  C8  UNL     1     -64.059 -21.688 -21.960  1.00  0.00     0.232 C 
HETATM   16  O6  UNL     1     -64.647 -21.501 -20.872  1.00  0.00    -0.272 OA
HETATM   17  N1  UNL     1     -62.843 -22.403 -21.992  1.00  0.00    -0.306 N 
ATOM     18  H1  UNL     1     -61.950 -21.924 -21.878  1.00  0.00     0.171 HD
BRANCH  17  19
HETATM   19  C9  UNL     1     -62.892 -23.700 -22.174  1.00  0.00     0.156 A 
HETATM   20  N2  UNL     1     -63.834 -24.459 -21.587  1.00  0.00    -0.323 N 
HETATM   21  C10 UNL     1     -63.977 -25.769 -21.701  1.00  0.00     0.147 A 
ATOM     22  H2  UNL     1     -64.508 -23.975 -20.993  1.00  0.00     0.169 HD
HETATM   23  N3  UNL     1     -65.074 -26.358 -20.966  1.00  0.00    -0.080 NA
HETATM   24  C11 UNL     1     -63.194 -26.627 -22.444  1.00  0.00     0.144 A 
HETATM   25  N4  UNL     1     -63.529 -28.035 -22.429  1.00  0.00    -0.094 NA
HETATM   26  C12 UNL     1     -62.111 -26.230 -23.201  1.00  0.00     0.243 A 
HETATM   27  O7  UNL     1     -61.429 -27.074 -23.865  1.00  0.00    -0.278 OA
HETATM   28  S2  UNL     1     -61.794 -24.559 -23.157  1.00  0.00    -0.010 SA
ENDBRANCH  17  19
ENDBRANCH   1  15
TORSDOF 10
ENDMDL
MODEL 2
REMARK VINA RESULT: -6.278780881      4.706      7.284
REMARK  10 active torsions:
REMARK  status: ('A' for Active; 'I' for Inactive)
REMARK    1  A    between atoms: O1_2  and  C2_3 
REMARK    2  A    between atoms: C2_3  and  C3_5 
REMARK    3  A    between atoms: C3_5  and  C4_6 
REMARK    4  A    between atoms: C3_5  and  C5_9 
REMARK    5  A    between atoms: C5_9  and  O5_10 
REMARK    6  A    between atoms: C5_9  and  C6_12 
REMARK    7  A    between atoms: C6_12  and  S1_13 
REMARK    8  A    between atoms: S1_13  and  C7_14 
REMARK    9  A    between atoms: C7_14  and  C8_15 
REMARK       I    between atoms: C8_15  and  N1_17 
REMARK   10  A    between atoms: N1_17  and  C9_19 
ROOT
HETATM    1  C7  UNL     1     -65.678 -19.579 -23.603  1.00  0.00     0.177 C 
ENDROOT
BRANCH   1   2
HETATM    2  S1  UNL     1     -64.005 -20.015 -23.097  1.00  0.00    -0.157 SA
BRANCH   2   3
HETATM    3  C6  UNL     1     -63.172 -18.517 -22.475  1.00  0.00     0.107 C 
BRANCH   3   4
HETATM    4  C5  UNL     1     -61.752 -18.929 -22.078  1.00  0.00     0.151 C 
BRANCH   4   5
HETATM    5  C3  UNL     1     -61.412 -18.374 -20.717  1.00  0.00     0.215 C 
BRANCH   5   6
HETATM    6  C2  UNL     1     -60.362 -19.168 -20.065  1.00  0.00     0.275 C 
HETATM    7  O2  UNL     1     -60.390 -19.400 -18.848  1.00  0.00    -0.264 OA
BRANCH   6   8
HETATM    8  O1  UNL     1     -59.283 -19.698 -20.795  1.00  0.00    -0.326 OA
HETATM    9  C1  UNL     1     -59.194 -21.101 -20.932  1.00  0.00     0.213 C 
ENDBRANCH   6   8
ENDBRANCH   5   6
BRANCH   5  10
HETATM   10  C4  UNL     1     -60.972 -16.953 -20.816  1.00  0.00     0.189 C 
HETATM   11  O3  UNL     1     -59.804 -16.614 -21.141  1.00  0.00    -0.647 OA
HETATM   12  O4  UNL     1     -61.883 -15.947 -20.538  1.00  0.00    -0.647 OA
ENDBRANCH   5  10
ENDBRANCH   4   5
BRANCH   4  13
HETATM   13  O5  UNL     1     -60.912 -18.348 -23.057  1.00  0.00    -0.393 OA
ATOM     14  H5  UNL     1     -61.329 -18.397 -23.910  1.00  0.00     0.210 HD
ENDBRANCH   4  13
ENDBRANCH   3   4
ENDBRANCH   2   3
ENDBRANCH   1   2
BRANCH   1  15
HETATM   15  C8  UNL     1     -66.594 -19.620 -22.437  1.00  0.00     0.232 C 
HETATM   16  O6  UNL     1     -66.219 -20.046 -21.322  1.00  0.00    -0.272 OA
HETATM   17  N1  UNL     1     -67.917 -19.162 -22.610  1.00  0.00    -0.306 N 
ATOM     18  H1  UNL     1     -68.662 -19.803 -22.884  1.00  0.00     0.171 HD
BRANCH  17  19
HETATM   19  C9  UNL     1     -68.164 -17.890 -22.410  1.00  0.00     0.156 A 
HETATM   20  N2  UNL     1     -67.939 -17.307 -21.220  1.00  0.00    -0.323 N 
HETATM   21  C10 UNL     1     -68.150 -16.039 -20.910  1.00  0.00     0.147 A 
ATOM     22  H2  UNL     1     -67.568 -17.904 -20.480  1.00  0.00     0.169 HD
HETATM   23  N3  UNL     1     -67.828 -15.652 -19.554  1.00  0.00    -0.080 NA
HETATM   24  C11 UNL     1     -68.640 -15.053 -21.738  1.00  0.00     0.144 A 
HETATM   25  N4  UNL     1     -68.794 -13.722 -21.192  1.00  0.00    -0.094 NA
HETATM   26  C12 UNL     1     -68.996 -15.253 -23.057  1.00  0.00     0.243 A 
HETATM   27  O7  UNL     1     -69.443 -14.298 -23.768  1.00  0.00    -0.278 OA
HETATM   28  S2  UNL     1     -68.782 -16.847 -23.610  1.00  0.00    -0.010 SA
ENDBRANCH  17  19
ENDBRANCH   1  15
TORSDOF 10
ENDMDL
MODEL 3
REMARK VINA RESULT: -6.132333280      3.388      5.590
REMARK  10 active torsions:
REMARK  status: ('A' for Active; 'I' for Inactive)
REMARK    1  A    between atoms: O1_2  and  C2_3 
REMARK    2  A    between atoms: C2_3  and  C3_5 
REMARK    3  A    between atoms: C3_5  and  C4_6 
REMARK    4  A    between atoms: C3_5  and  C5_9 
REMARK    5  A    between atoms: C5_9  and  O5_10 
REMARK    6  A    between atoms: C5_9  and  C6_12 
REMARK    7  A    between atoms: C6_12  and  S1_13 
REMARK    8  A    between atoms: S1_13  and  C7_14 
REMARK    9  A    between atoms: C7_14  and  C8_15 
REMARK       I    between atoms: C8_15  and  N1_17 
REMARK   10  A    between atoms: N1_17  and  C9_19 
ROOT
HETATM    1  C7  UNL     1     -63.756 -21.599 -22.224  1.00  0.00     0.177 C 
ENDROOT
BRANCH   1   2
HETATM    2  S1  UNL     1     -63.503 -20.396 -23.542  1.00  0.00    -0.157 SA
BRANCH   2   3
HETATM    3  C6  UNL     1     -62.979 -18.815 -22.800  1.00  0.00     0.107 C 
BRANCH   3   4
HETATM    4  C5  UNL     1     -61.524 -18.990 -22.358  1.00  0.00     0.151 C 
BRANCH   4   5
HETATM    5  C3  UNL     1     -61.340 -18.463 -20.956  1.00  0.00     0.215 C 
BRANCH   5   6
HETATM    6  C2  UNL     1     -60.343 -19.250 -20.217  1.00  0.00     0.275 C 
HETATM    7  O2  UNL     1     -60.443 -19.435 -18.997  1.00  0.00    -0.264 OA
BRANCH   6   8
HETATM    8  O1  UNL     1     -59.237 -19.827 -20.867  1.00  0.00    -0.326 OA
HETATM    9  C1  UNL     1     -59.183 -21.234 -20.971  1.00  0.00     0.213 C 
ENDBRANCH   6   8
ENDBRANCH   5   6
BRANCH   5  10
HETATM   10  C4  UNL     1     -60.929 -17.030 -20.975  1.00  0.00     0.189 C 
HETATM   11  O3  UNL     1     -59.726 -16.659 -20.991  1.00  0.00    -0.647 OA
HETATM   12  O4  UNL     1     -61.906 -16.050 -20.976  1.00  0.00    -0.647 OA
ENDBRANCH   5  10
ENDBRANCH   4   5
BRANCH   4  13
HETATM   13  O5  UNL     1     -60.767 -18.213 -23.266  1.00  0.00    -0.393 OA
ATOM     14  H5  UNL     1     -59.961 -18.667 -23.483  1.00  0.00     0.210 HD
ENDBRANCH   4  13
ENDBRANCH   3   4
ENDBRANCH   2   3
ENDBRANCH   1   2
BRANCH   1  15
HETATM   15  C8  UNL     1     -64.648 -21.037 -21.181  1.00  0.00     0.232 C 
HETATM   16  O6  UNL     1     -64.192 -20.489 -20.152  1.00  0.00    -0.272 OA
HETATM   17  N1  UNL     1     -66.042 -21.132 -21.371  1.00  0.00    -0.306 N 
ATOM     18  H1  UNL     1     -66.566 -21.932 -21.016  1.00  0.00     0.171 HD
BRANCH  17  19
HETATM   19  C9  UNL     1     -66.647 -20.165 -22.017  1.00  0.00     0.156 A 
HETATM   20  N2  UNL     1     -66.546 -18.883 -21.625  1.00  0.00    -0.323 N 
HETATM   21  C10 UNL     1     -67.109 -17.834 -22.200  1.00  0.00     0.147 A 
ATOM     22  H2  UNL     1     -65.975 -18.701 -20.799  1.00  0.00     0.169 HD
HETATM   23  N3  UNL     1     -66.848 -16.552 -21.585  1.00  0.00    -0.080 NA
HETATM   24  C11 UNL     1     -67.914 -17.835 -23.320  1.00  0.00     0.144 A 
HETATM   25  N4  UNL     1     -68.429 -16.566 -23.786  1.00  0.00    -0.094 NA
HETATM   26  C12 UNL     1     -68.261 -18.969 -24.025  1.00  0.00     0.243 A 
HETATM   27  O7  UNL     1     -69.008 -18.900 -25.052  1.00  0.00    -0.278 OA
HETATM   28  S2  UNL     1     -67.609 -20.412 -23.404  1.00  0.00    -0.010 SA
ENDBRANCH  17  19
ENDBRANCH   1  15
TORSDOF 10
ENDMDL
MODEL 4
REMARK VINA RESULT: -6.095512680      3.366      5.403
REMARK  10 active torsions:
REMARK  status: ('A' for Active; 'I' for Inactive)
REMARK    1  A    between atoms: O1_2  and  C2_3 
REMARK    2  A    between atoms: C2_3  and  C3_5 
REMARK    3  A    between atoms: C3_5  and  C4_6 
REMARK    4  A    between atoms: C3_5  and  C5_9 
REMARK    5  A    between atoms: C5_9  and  O5_10 
REMARK    6  A    between atoms: C5_9  and  C6_12 
REMARK    7  A    between atoms: C6_12  and  S1_13 
REMARK    8  A    between atoms: S1_13  and  C7_14 
REMARK    9  A    between atoms: C7_14  and  C8_15 
REMARK       I    between atoms: C8_15  and  N1_17 
REMARK   10  A    between atoms: N1_17  and  C9_19 
ROOT
HETATM    1  C7  UNL     1     -64.069 -21.745 -21.661  1.00  0.00     0.177 C 
ENDROOT
BRANCH   1   2
HETATM    2  S1  UNL     1     -63.990 -20.155 -20.819  1.00  0.00    -0.157 SA
BRANCH   2   3
HETATM    3  C6  UNL     1     -63.542 -18.870 -22.033  1.00  0.00     0.107 C 
BRANCH   3   4
HETATM    4  C5  UNL     1     -62.014 -18.799 -22.066  1.00  0.00     0.151 C 
BRANCH   4   5
HETATM    5  C3  UNL     1     -61.487 -18.319 -20.737  1.00  0.00     0.215 C 
BRANCH   5   6
HETATM    6  C2  UNL     1     -60.410 -19.188 -20.244  1.00  0.00     0.275 C 
HETATM    7  O2  UNL     1     -60.276 -19.429 -19.037  1.00  0.00    -0.264 OA
BRANCH   6   8
HETATM    8  O1  UNL     1     -59.488 -19.783 -21.124  1.00  0.00    -0.326 OA
HETATM    9  C1  UNL     1     -59.343 -21.187 -21.091  1.00  0.00     0.213 C 
ENDBRANCH   6   8
ENDBRANCH   5   6
BRANCH   5  10
HETATM   10  C4  UNL     1     -60.990 -16.917 -20.835  1.00  0.00     0.189 C 
HETATM   11  O3  UNL     1     -59.792 -16.627 -21.092  1.00  0.00    -0.647 OA
HETATM   12  O4  UNL     1     -61.879 -15.873 -20.638  1.00  0.00    -0.647 OA
ENDBRANCH   5  10
ENDBRANCH   4   5
BRANCH   4  13
HETATM   13  O5  UNL     1     -61.710 -17.853 -23.073  1.00  0.00    -0.393 OA
ATOM     14  H5  UNL     1     -60.779 -17.661 -23.064  1.00  0.00     0.210 HD
ENDBRANCH   4  13
ENDBRANCH   3   4
ENDBRANCH   2   3
ENDBRANCH   1   2
BRANCH   1  15
HETATM   15  C8  UNL     1     -65.480 -22.114 -21.929  1.00  0.00     0.232 C 
HETATM   16  O6  UNL     1     -66.228 -22.552 -21.027  1.00  0.00    -0.272 OA
HETATM   17  N1  UNL     1     -65.973 -21.960 -23.242  1.00  0.00    -0.306 N 
ATOM     18  H1  UNL     1     -65.921 -22.726 -23.915  1.00  0.00     0.171 HD
BRANCH  17  19
HETATM   19  C9  UNL     1     -66.500 -20.808 -23.575  1.00  0.00     0.156 A 
HETATM   20  N2  UNL     1     -67.134 -20.035 -22.676  1.00  0.00    -0.323 N 
HETATM   21  C10 UNL     1     -67.698 -18.861 -22.901  1.00  0.00     0.147 A 
ATOM     22  H2  UNL     1     -67.184 -20.392 -21.721  1.00  0.00     0.169 HD
HETATM   23  N3  UNL     1     -68.321 -18.223 -21.762  1.00  0.00    -0.080 NA
HETATM   24  C11 UNL     1     -67.753 -18.184 -24.101  1.00  0.00     0.144 A 
HETATM   25  N4  UNL     1     -68.423 -16.902 -24.126  1.00  0.00    -0.094 NA
HETATM   26  C12 UNL     1     -67.210 -18.650 -25.281  1.00  0.00     0.243 A 
HETATM   27  O7  UNL     1     -67.296 -17.974 -26.354  1.00  0.00    -0.278 OA
HETATM   28  S2  UNL     1     -66.443 -20.163 -25.154  1.00  0.00    -0.010 SA
ENDBRANCH  17  19
ENDBRANCH   1  15
TORSDOF 10
ENDMDL
MODEL 5
REMARK VINA RESULT: -6.060106021      5.029      7.913
REMARK  10 active torsions:
REMARK  status: ('A' for Active; 'I' for Inactive)
REMARK    1  A    between atoms: O1_2  and  C2_3 
REMARK    2  A    between atoms: C2_3  and  C3_5 
REMARK    3  A    between atoms: C3_5  and  C4_6 
REMARK    4  A    between atoms: C3_5  and  C5_9 
REMARK    5  A    between atoms: C5_9  and  O5_10 
REMARK    6  A    between atoms: C5_9  and  C6_12 
REMARK    7  A    between atoms: C6_12  and  S1_13 
REMARK    8  A    between atoms: S1_13  and  C7_14 
REMARK    9  A    between atoms: C7_14  and  C8_15 
REMARK       I    between atoms: C8_15  and  N1_17 
REMARK   10  A    between atoms: N1_17  and  C9_19 
ROOT
HETATM    1  C7  UNL     1     -66.420 -19.972 -22.856  1.00  0.00     0.177 C 
ENDROOT
BRANCH   1   2
HETATM    2  S1  UNL     1     -65.260 -19.277 -21.665  1.00  0.00    -0.157 SA
BRANCH   2   3
HETATM    3  C6  UNL     1     -64.023 -20.547 -21.241  1.00  0.00     0.107 C 
BRANCH   3   4
HETATM    4  C5  UNL     1     -62.964 -19.867 -20.371  1.00  0.00     0.151 C 
BRANCH   4   5
HETATM    5  C3  UNL     1     -61.635 -19.853 -21.084  1.00  0.00     0.215 C 
BRANCH   5   6
HETATM    6  C2  UNL     1     -61.476 -18.638 -21.895  1.00  0.00     0.275 C 
HETATM    7  O2  UNL     1     -60.806 -18.640 -22.936  1.00  0.00    -0.264 OA
BRANCH   6   8
HETATM    8  O1  UNL     1     -62.081 -17.424 -21.521  1.00  0.00    -0.326 OA
HETATM    9  C1  UNL     1     -61.300 -16.476 -20.825  1.00  0.00     0.213 C 
ENDBRANCH   6   8
ENDBRANCH   5   6
BRANCH   5  10
HETATM   10  C4  UNL     1     -60.508 -19.955 -20.113  1.00  0.00     0.189 C 
HETATM   11  O3  UNL     1     -60.510 -19.379 -18.993  1.00  0.00    -0.647 OA
HETATM   12  O4  UNL     1     -59.400 -20.715 -20.445  1.00  0.00    -0.647 OA
ENDBRANCH   5  10
ENDBRANCH   4   5
BRANCH   4  13
HETATM   13  O5  UNL     1     -62.876 -20.664 -19.206  1.00  0.00    -0.393 OA
ATOM     14  H5  UNL     1     -63.440 -21.424 -19.292  1.00  0.00     0.210 HD
ENDBRANCH   4  13
ENDBRANCH   3   4
ENDBRANCH   2   3
ENDBRANCH   1   2
BRANCH   1  15
HETATM   15  C8  UNL     1     -67.811 -19.819 -22.367  1.00  0.00     0.232 C 
HETATM   16  O6  UNL     1     -68.219 -20.418 -21.347  1.00  0.00    -0.272 OA
HETATM   17  N1  UNL     1     -68.682 -18.972 -23.084  1.00  0.00    -0.306 N 
ATOM     18  H1  UNL     1     -69.266 -19.337 -23.837  1.00  0.00     0.171 HD
BRANCH  17  19
HETATM   19  C9  UNL     1     -68.721 -17.703 -22.758  1.00  0.00     0.156 A 
HETATM   20  N2  UNL     1     -68.328 -17.274 -21.546  1.00  0.00    -0.323 N 
HETATM   21  C10 UNL     1     -68.324 -16.024 -21.113  1.00  0.00     0.147 A 
ATOM     22  H2  UNL     1     -68.000 -17.986 -20.892  1.00  0.00     0.169 HD
HETATM   23  N3  UNL     1     -67.854 -15.818 -19.761  1.00  0.00    -0.080 NA
HETATM   24  C11 UNL     1     -68.718 -14.904 -21.813  1.00  0.00     0.144 A 
HETATM   25  N4  UNL     1     -68.632 -13.622 -21.146  1.00  0.00    -0.094 NA
HETATM   26  C12 UNL     1     -69.191 -14.924 -23.109  1.00  0.00     0.243 A 
HETATM   27  O7  UNL     1     -69.539 -13.852 -23.697  1.00  0.00    -0.278 OA
HETATM   28  S2  UNL     1     -69.258 -16.472 -23.810  1.00  0.00    -0.010 SA
ENDBRANCH  17  19
ENDBRANCH   1  15
TORSDOF 10
ENDMDL
