MODEL 1
REMARK VINA RESULT: -4.591673777      0.000      0.000
REMARK  1 active torsions:
REMARK  status: ('A' for Active; 'I' for Inactive)
REMARK    1  A    between atoms: C1_4  and  N2_5 
ROOT
HETATM    1  N2  UNL     1      16.718  17.382  57.857  1.00  0.00    -0.192 N 
HETATM    2  N3  UNL     1      16.314  16.132  57.985  1.00  0.00    -0.277 N 
ATOM      3  H3  UNL     1      15.705  15.776  58.722  1.00  0.00     0.189 HD
HETATM    4  C2  UNL     1      16.842  15.397  56.972  1.00  0.00     0.078 A 
HETATM    5  C3  UNL     1      16.764  14.064  56.607  1.00  0.00     0.033 A 
HETATM    6  C4  UNL     1      17.443  13.621  55.483  1.00  0.00     0.002 A 
HETATM    7  C5  UNL     1      18.205  14.464  54.701  1.00  0.00     0.002 A 
HETATM    8  C6  UNL     1      18.260  15.787  55.095  1.00  0.00     0.033 A 
HETATM    9  C7  UNL     1      17.596  16.263  56.209  1.00  0.00     0.078 A 
HETATM   10  N4  UNL     1      17.491  17.486  56.795  1.00  0.00    -0.277 N 
ATOM     11  H4  UNL     1      17.937  18.342  56.466  1.00  0.00     0.189 HD
ENDROOT
BRANCH   1  12
HETATM   12  C1  UNL     1      16.355  18.449  58.755  1.00  0.00     0.220 C 
HETATM   13  N1  UNL     1      16.548  18.283  60.022  1.00  0.00    -0.392 N 
ATOM     14  H12 UNL     1      16.950  17.410  60.363  1.00  0.00     0.157 HD
ATOM     15  H11 UNL     1      16.291  19.038  60.658  1.00  0.00     0.157 HD
ENDBRANCH   1  12
TORSDOF 1
ENDMDL
MODEL 2
REMARK VINA RESULT: -4.568593599      0.074      1.703
REMARK  1 active torsions:
REMARK  status: ('A' for Active; 'I' for Inactive)
REMARK    1  A    between atoms: C1_4  and  N2_5 
ROOT
HETATM    1  N2  UNL     1      16.676  17.415  57.902  1.00  0.00    -0.192 N 
HETATM    2  N3  UNL     1      17.457  17.547  56.845  1.00  0.00    -0.277 N 
ATOM      3  H3  UNL     1      17.893  18.414  56.534  1.00  0.00     0.189 HD
HETATM    4  C2  UNL     1      17.582  16.337  56.242  1.00  0.00     0.078 A 
HETATM    5  C3  UNL     1      18.261  15.884  55.124  1.00  0.00     0.033 A 
HETATM    6  C4  UNL     1      18.182  14.546  54.769  1.00  0.00     0.002 A 
HETATM    7  C5  UNL     1      17.443  13.634  55.492  1.00  0.00     0.002 A 
HETATM    8  C6  UNL     1      16.778  14.121  56.602  1.00  0.00     0.033 A 
HETATM    9  C7  UNL     1      16.836  15.447  56.985  1.00  0.00     0.078 A 
HETATM   10  N4  UNL     1      16.290  16.159  58.007  1.00  0.00    -0.277 N 
ATOM     11  H4  UNL     1      15.682  15.783  58.735  1.00  0.00     0.189 HD
ENDROOT
BRANCH   1  12
HETATM   12  C1  UNL     1      16.317  18.493  58.787  1.00  0.00     0.220 C 
HETATM   13  N1  UNL     1      16.527  18.348  60.055  1.00  0.00    -0.392 N 
ATOM     14  H12 UNL     1      16.937  17.482  60.405  1.00  0.00     0.157 HD
ATOM     15  H11 UNL     1      16.273  19.111  60.682  1.00  0.00     0.157 HD
ENDBRANCH   1  12
TORSDOF 1
ENDMDL
MODEL 3
REMARK VINA RESULT: -3.920896655      3.033      4.702
REMARK  1 active torsions:
REMARK  status: ('A' for Active; 'I' for Inactive)
REMARK    1  A    between atoms: C1_4  and  N2_5 
ROOT
HETATM    1  N2  UNL     1      19.931  16.019  53.745  1.00  0.00    -0.192 N 
HETATM    2  N3  UNL     1      19.445  14.790  53.739  1.00  0.00    -0.277 N 
ATOM      3  H3  UNL     1      19.712  14.049  53.092  1.00  0.00     0.189 HD
HETATM    4  C2  UNL     1      18.531  14.678  54.737  1.00  0.00     0.078 A 
HETATM    5  C3  UNL     1      17.724  13.650  55.192  1.00  0.00     0.033 A 
HETATM    6  C4  UNL     1      16.876  13.868  56.267  1.00  0.00     0.002 A 
HETATM    7  C5  UNL     1      16.801  15.085  56.912  1.00  0.00     0.002 A 
HETATM    8  C6  UNL     1      17.621  16.088  56.431  1.00  0.00     0.033 A 
HETATM    9  C7  UNL     1      18.477  15.905  55.363  1.00  0.00     0.078 A 
HETATM   10  N4  UNL     1      19.363  16.709  54.714  1.00  0.00    -0.277 N 
ATOM     11  H4  UNL     1      19.556  17.684  54.941  1.00  0.00     0.189 HD
ENDROOT
BRANCH   1  12
HETATM   12  C1  UNL     1      20.927  16.503  52.824  1.00  0.00     0.220 C 
HETATM   13  N1  UNL     1      21.847  15.687  52.423  1.00  0.00    -0.392 N 
ATOM     14  H12 UNL     1      21.853  14.725  52.761  1.00  0.00     0.157 HD
ATOM     15  H11 UNL     1      22.552  16.030  51.771  1.00  0.00     0.157 HD
ENDBRANCH   1  12
TORSDOF 1
ENDMDL
MODEL 4
REMARK VINA RESULT: -3.910715647      3.055      4.810
REMARK  1 active torsions:
REMARK  status: ('A' for Active; 'I' for Inactive)
REMARK    1  A    between atoms: C1_4  and  N2_5 
ROOT
HETATM    1  N2  UNL     1      19.921  16.046  53.677  1.00  0.00    -0.192 N 
HETATM    2  N3  UNL     1      19.357  16.739  54.650  1.00  0.00    -0.277 N 
ATOM      3  H3  UNL     1      19.545  17.717  54.869  1.00  0.00     0.189 HD
HETATM    4  C2  UNL     1      18.486  15.934  55.311  1.00  0.00     0.078 A 
HETATM    5  C3  UNL     1      17.637  16.115  56.389  1.00  0.00     0.033 A 
HETATM    6  C4  UNL     1      16.854  15.059  56.830  1.00  0.00     0.002 A 
HETATM    7  C5  UNL     1      16.887  13.817  56.231  1.00  0.00     0.002 A 
HETATM    8  C6  UNL     1      17.747  13.673  55.159  1.00  0.00     0.033 A 
HETATM    9  C7  UNL     1      18.540  14.703  54.693  1.00  0.00     0.078 A 
HETATM   10  N4  UNL     1      19.444  14.817  53.683  1.00  0.00    -0.277 N 
ATOM     11  H4  UNL     1      19.709  14.074  53.037  1.00  0.00     0.189 HD
ENDROOT
BRANCH   1  12
HETATM   12  C1  UNL     1      20.901  16.575  52.765  1.00  0.00     0.220 C 
HETATM   13  N1  UNL     1      21.799  15.775  52.290  1.00  0.00    -0.392 N 
ATOM     14  H12 UNL     1      21.799  14.793  52.566  1.00  0.00     0.157 HD
ATOM     15  H11 UNL     1      22.494  16.150  51.644  1.00  0.00     0.157 HD
ENDBRANCH   1  12
TORSDOF 1
ENDMDL
MODEL 5
REMARK VINA RESULT: -3.876386653      1.045      1.054
REMARK  1 active torsions:
REMARK  status: ('A' for Active; 'I' for Inactive)
REMARK    1  A    between atoms: C1_4  and  N2_5 
ROOT
HETATM    1  N2  UNL     1      17.110  17.831  58.696  1.00  0.00    -0.192 N 
HETATM    2  N3  UNL     1      16.358  16.760  58.518  1.00  0.00    -0.277 N 
ATOM      3  H3  UNL     1      15.471  16.571  58.985  1.00  0.00     0.189 HD
HETATM    4  C2  UNL     1      16.960  15.951  57.609  1.00  0.00     0.078 A 
HETATM    5  C3  UNL     1      16.640  14.727  57.048  1.00  0.00     0.033 A 
HETATM    6  C4  UNL     1      17.494  14.153  56.119  1.00  0.00     0.002 A 
HETATM    7  C5  UNL     1      18.668  14.760  55.724  1.00  0.00     0.002 A 
HETATM    8  C6  UNL     1      18.956  15.980  56.305  1.00  0.00     0.033 A 
HETATM    9  C7  UNL     1      18.127  16.580  57.233  1.00  0.00     0.078 A 
HETATM   10  N4  UNL     1      18.181  17.745  57.933  1.00  0.00    -0.277 N 
ATOM     11  H4  UNL     1      18.927  18.439  57.876  1.00  0.00     0.189 HD
ENDROOT
BRANCH   1  12
HETATM   12  C1  UNL     1      16.786  18.911  59.592  1.00  0.00     0.220 C 
HETATM   13  N1  UNL     1      16.259  18.626  60.739  1.00  0.00    -0.392 N 
ATOM     14  H12 UNL     1      16.083  17.652  60.987  1.00  0.00     0.157 HD
ATOM     15  H11 UNL     1      16.029  19.390  61.373  1.00  0.00     0.157 HD
ENDBRANCH   1  12
TORSDOF 1
ENDMDL
