MODEL 1
REMARK VINA RESULT: -9.086192344      0.000      0.000
REMARK  7 active torsions:
REMARK  status: ('A' for Active; 'I' for Inactive)
REMARK    1  A    between atoms: N1_2  and  C2_3 
REMARK    2  A    between atoms: N1_2  and  C10_24 
REMARK    3  A    between atoms: C2_3  and  C3_4 
REMARK    4  A    between atoms: C3_4  and  N2_5 
REMARK    5  A    between atoms: C7_13  and  N4_14 
REMARK    6  A    between atoms: N4_14  and  N5_15 
REMARK    7  A    between atoms: N10_31  and  O4_32 
ROOT
HETATM    1  N2  UNL     1     -29.375 -13.373 -11.592  1.00  0.00    -0.283 N 
HETATM    2  C4  UNL     1     -29.856 -14.615 -11.580  1.00  0.00     0.331 A 
HETATM    3  O1  UNL     1     -30.128 -15.205 -10.499  1.00  0.00    -0.246 OA
HETATM    4  N3  UNL     1     -30.076 -15.313 -12.726  1.00  0.00    -0.274 N 
ATOM      5  H3  UNL     1     -30.444 -16.263 -12.668  1.00  0.00     0.173 HD
HETATM    6  C5  UNL     1     -29.817 -14.776 -13.946  1.00  0.00     0.268 A 
HETATM    7  O2  UNL     1     -30.014 -15.404 -14.998  1.00  0.00    -0.267 OA
HETATM    8  C6  UNL     1     -29.322 -13.492 -13.975  1.00  0.00     0.137 A 
HETATM    9  C7  UNL     1     -29.067 -12.917 -15.233  1.00  0.00     0.223 A 
HETATM   10  N6  UNL     1     -28.592 -11.631 -15.171  1.00  0.00    -0.325 N 
ATOM     11  H6  UNL     1     -28.385 -11.150 -16.047  1.00  0.00     0.169 HD
HETATM   12  C8  UNL     1     -28.388 -10.979 -14.034  1.00  0.00     0.184 A 
HETATM   13  N7  UNL     1     -28.643 -11.561 -12.860  1.00  0.00    -0.337 N 
ATOM     14  H7  UNL     1     -28.479 -11.041 -11.998  1.00  0.00     0.168 HD
HETATM   15  C9  UNL     1     -29.111 -12.816 -12.791  1.00  0.00     0.133 A 
ENDROOT
BRANCH   1  16
HETATM   16  C3  UNL     1     -29.159 -12.657 -10.365  1.00  0.00     0.155 C 
BRANCH  16  17
HETATM   17  C2  UNL     1     -30.395 -11.982  -9.858  1.00  0.00     0.144 C 
BRANCH  17  18
HETATM   18  N1  UNL     1     -30.890 -12.456  -8.604  1.00  0.00    -0.365 N 
HETATM   19  C1  UNL     1     -32.220 -13.005  -8.515  1.00  0.00     0.151 C 
BRANCH  18  20
HETATM   20  C10 UNL     1     -30.106 -12.442  -7.433  1.00  0.00     0.177 A 
HETATM   21  C11 UNL     1     -29.286 -13.418  -6.904  1.00  0.00     0.167 A 
HETATM   22  N8  UNL     1     -29.030 -14.725  -7.412  1.00  0.00    -0.078 NA
HETATM   23  N9  UNL     1     -28.723 -12.924  -5.761  1.00  0.00    -0.292 N 
HETATM   24  C12 UNL     1     -29.168 -11.674  -5.566  1.00  0.00     0.353 A 
ATOM     25  H9  UNL     1     -28.072 -13.424  -5.156  1.00  0.00     0.172 HD
HETATM   26  O3  UNL     1     -28.906 -10.846  -4.638  1.00  0.00    -0.244 OA
HETATM   27  N10 UNL     1     -30.001 -11.381  -6.571  1.00  0.00    -0.152 N 
BRANCH  27  28
HETATM   28  O4  UNL     1     -30.672 -10.213  -6.771  1.00  0.00    -0.277 OA
ATOM     29  H4  UNL     1     -30.282  -9.475  -7.225  1.00  0.00     0.245 HD
ENDBRANCH  27  28
ENDBRANCH  18  20
ENDBRANCH  17  18
ENDBRANCH  16  17
ENDBRANCH   1  16
BRANCH   9  30
HETATM   30  N4  UNL     1     -29.203 -13.422 -16.299  1.00  0.00    -0.313 NA
BRANCH  30  31
HETATM   31  N5  UNL     1     -29.353 -13.961 -17.443  1.00  0.00    -0.278 N 
ATOM     32  H52 UNL     1     -29.423 -13.532 -16.521  1.00  0.00     0.191 HD
ATOM     33  H51 UNL     1     -29.469 -14.393 -18.359  1.00  0.00     0.191 HD
ENDBRANCH  30  31
ENDBRANCH   9  30
TORSDOF 7
ENDMDL
MODEL 2
REMARK VINA RESULT: -8.731308681      2.485      3.513
REMARK  7 active torsions:
REMARK  status: ('A' for Active; 'I' for Inactive)
REMARK    1  A    between atoms: N1_2  and  C2_3 
REMARK    2  A    between atoms: N1_2  and  C10_24 
REMARK    3  A    between atoms: C2_3  and  C3_4 
REMARK    4  A    between atoms: C3_4  and  N2_5 
REMARK    5  A    between atoms: C7_13  and  N4_14 
REMARK    6  A    between atoms: N4_14  and  N5_15 
REMARK    7  A    between atoms: N10_31  and  O4_32 
ROOT
HETATM    1  N2  UNL     1     -29.530 -13.347 -11.556  1.00  0.00    -0.283 N 
HETATM    2  C4  UNL     1     -29.924 -14.619 -11.554  1.00  0.00     0.331 A 
HETATM    3  O1  UNL     1     -30.185 -15.225 -10.480  1.00  0.00    -0.246 OA
HETATM    4  N3  UNL     1     -30.064 -15.331 -12.704  1.00  0.00    -0.274 N 
ATOM      5  H3  UNL     1     -30.368 -16.303 -12.654  1.00  0.00     0.173 HD
HETATM    6  C5  UNL     1     -29.809 -14.778 -13.918  1.00  0.00     0.268 A 
HETATM    7  O2  UNL     1     -29.933 -15.417 -14.974  1.00  0.00    -0.267 OA
HETATM    8  C6  UNL     1     -29.403 -13.462 -13.936  1.00  0.00     0.137 A 
HETATM    9  C7  UNL     1     -29.153 -12.872 -15.188  1.00  0.00     0.223 A 
HETATM   10  N6  UNL     1     -28.770 -11.556 -15.116  1.00  0.00    -0.325 N 
ATOM     11  H6  UNL     1     -28.572 -11.063 -15.987  1.00  0.00     0.169 HD
HETATM   12  C8  UNL     1     -28.643 -10.891 -13.975  1.00  0.00     0.184 A 
HETATM   13  N7  UNL     1     -28.890 -11.489 -12.807  1.00  0.00    -0.337 N 
ATOM     14  H7  UNL     1     -28.786 -10.958 -11.942  1.00  0.00     0.168 HD
HETATM   15  C9  UNL     1     -29.272 -12.773 -12.748  1.00  0.00     0.133 A 
ENDROOT
BRANCH   1  16
HETATM   16  C3  UNL     1     -29.398 -12.617 -10.325  1.00  0.00     0.155 C 
BRANCH  16  17
HETATM   17  C2  UNL     1     -30.668 -11.946  -9.905  1.00  0.00     0.144 C 
BRANCH  17  18
HETATM   18  N1  UNL     1     -30.514 -10.770  -9.108  1.00  0.00    -0.365 N 
HETATM   19  C1  UNL     1     -29.977 -10.868  -7.773  1.00  0.00     0.151 C 
BRANCH  18  20
HETATM   20  C10 UNL     1     -30.836  -9.486  -9.592  1.00  0.00     0.177 A 
HETATM   21  C11 UNL     1     -31.988  -8.743  -9.437  1.00  0.00     0.167 A 
HETATM   22  N8  UNL     1     -33.181  -9.102  -8.743  1.00  0.00    -0.078 NA
HETATM   23  N9  UNL     1     -31.813  -7.549 -10.077  1.00  0.00    -0.292 N 
HETATM   24  C12 UNL     1     -30.588  -7.530 -10.624  1.00  0.00     0.353 A 
ATOM     25  H9  UNL     1     -32.499  -6.798 -10.131  1.00  0.00     0.172 HD
HETATM   26  O3  UNL     1     -30.008  -6.625 -11.303  1.00  0.00    -0.244 OA
HETATM   27  N10 UNL     1     -29.997  -8.694 -10.334  1.00  0.00    -0.152 N 
BRANCH  27  28
HETATM   28  O4  UNL     1     -28.744  -9.093 -10.687  1.00  0.00    -0.277 OA
ATOM     29  H4  UNL     1     -27.968  -8.602 -10.443  1.00  0.00     0.245 HD
ENDBRANCH  27  28
ENDBRANCH  18  20
ENDBRANCH  17  18
ENDBRANCH  16  17
ENDBRANCH   1  16
BRANCH   9  30
HETATM   30  N4  UNL     1     -29.224 -13.386 -16.256  1.00  0.00    -0.313 NA
BRANCH  30  31
HETATM   31  N5  UNL     1     -29.302 -13.932 -17.404  1.00  0.00    -0.278 N 
ATOM     32  H52 UNL     1     -29.404 -13.583 -16.451  1.00  0.00     0.191 HD
ATOM     33  H51 UNL     1     -29.360 -14.369 -18.323  1.00  0.00     0.191 HD
ENDBRANCH  30  31
ENDBRANCH   9  30
TORSDOF 7
ENDMDL
MODEL 3
REMARK VINA RESULT: -8.648498150      1.293      1.714
REMARK  7 active torsions:
REMARK  status: ('A' for Active; 'I' for Inactive)
REMARK    1  A    between atoms: N1_2  and  C2_3 
REMARK    2  A    between atoms: N1_2  and  C10_24 
REMARK    3  A    between atoms: C2_3  and  C3_4 
REMARK    4  A    between atoms: C3_4  and  N2_5 
REMARK    5  A    between atoms: C7_13  and  N4_14 
REMARK    6  A    between atoms: N4_14  and  N5_15 
REMARK    7  A    between atoms: N10_31  and  O4_32 
ROOT
HETATM    1  N2  UNL     1     -29.375 -13.446 -11.263  1.00  0.00    -0.283 N 
HETATM    2  C4  UNL     1     -29.792 -14.709 -11.315  1.00  0.00     0.331 A 
HETATM    3  O1  UNL     1     -30.039 -15.363 -10.266  1.00  0.00    -0.246 OA
HETATM    4  N3  UNL     1     -29.972 -15.361 -12.495  1.00  0.00    -0.274 N 
ATOM      5  H3  UNL     1     -30.292 -16.329 -12.486  1.00  0.00     0.173 HD
HETATM    6  C5  UNL     1     -29.735 -14.752 -13.686  1.00  0.00     0.268 A 
HETATM    7  O2  UNL     1     -29.895 -15.337 -14.769  1.00  0.00    -0.267 OA
HETATM    8  C6  UNL     1     -29.305 -13.445 -13.649  1.00  0.00     0.137 A 
HETATM    9  C7  UNL     1     -29.073 -12.797 -14.876  1.00  0.00     0.223 A 
HETATM   10  N6  UNL     1     -28.664 -11.494 -14.748  1.00  0.00    -0.325 N 
ATOM     11  H6  UNL     1     -28.477 -10.961 -15.598  1.00  0.00     0.169 HD
HETATM   12  C8  UNL     1     -28.498 -10.889 -13.580  1.00  0.00     0.184 A 
HETATM   13  N7  UNL     1     -28.729 -11.539 -12.437  1.00  0.00    -0.337 N 
ATOM     14  H7  UNL     1     -28.595 -11.054 -11.549  1.00  0.00     0.168 HD
HETATM   15  C9  UNL     1     -29.133 -12.818 -12.432  1.00  0.00     0.133 A 
ENDROOT
BRANCH   1  16
HETATM   16  C3  UNL     1     -29.200 -12.780 -10.002  1.00  0.00     0.155 C 
BRANCH  16  17
HETATM   17  C2  UNL     1     -30.496 -12.376  -9.372  1.00  0.00     0.144 C 
BRANCH  17  18
HETATM   18  N1  UNL     1     -30.462 -11.169  -8.607  1.00  0.00    -0.365 N 
HETATM   19  C1  UNL     1     -30.428  -9.892  -9.274  1.00  0.00     0.151 C 
BRANCH  18  20
HETATM   20  C10 UNL     1     -30.499 -11.171  -7.198  1.00  0.00     0.177 A 
HETATM   21  C11 UNL     1     -31.579 -11.199  -6.338  1.00  0.00     0.167 A 
HETATM   22  N8  UNL     1     -32.966 -11.217  -6.668  1.00  0.00    -0.078 NA
HETATM   23  N9  UNL     1     -31.102 -11.208  -5.059  1.00  0.00    -0.292 N 
HETATM   24  C12 UNL     1     -29.761 -11.187  -5.098  1.00  0.00     0.353 A 
ATOM     25  H9  UNL     1     -31.671 -11.227  -4.213  1.00  0.00     0.172 HD
HETATM   26  O3  UNL     1     -28.914 -11.188  -4.150  1.00  0.00    -0.244 OA
HETATM   27  N10 UNL     1     -29.395 -11.165  -6.384  1.00  0.00    -0.152 N 
BRANCH  27  28
HETATM   28  O4  UNL     1     -28.127 -11.146  -6.880  1.00  0.00    -0.277 OA
ATOM     29  H4  UNL     1     -27.947 -11.156  -7.813  1.00  0.00     0.245 HD
ENDBRANCH  27  28
ENDBRANCH  18  20
ENDBRANCH  17  18
ENDBRANCH  16  17
ENDBRANCH   1  16
BRANCH   9  30
HETATM   30  N4  UNL     1     -29.179 -13.256 -15.966  1.00  0.00    -0.313 NA
BRANCH  30  31
HETATM   31  N5  UNL     1     -29.294 -13.744 -17.137  1.00  0.00    -0.278 N 
ATOM     32  H52 UNL     1     -29.019 -13.399 -16.218  1.00  0.00     0.191 HD
ATOM     33  H51 UNL     1     -29.391 -14.134 -18.074  1.00  0.00     0.191 HD
ENDBRANCH  30  31
ENDBRANCH   9  30
TORSDOF 7
ENDMDL
MODEL 4
REMARK VINA RESULT: -8.584388539      1.816      2.805
REMARK  7 active torsions:
REMARK  status: ('A' for Active; 'I' for Inactive)
REMARK    1  A    between atoms: N1_2  and  C2_3 
REMARK    2  A    between atoms: N1_2  and  C10_24 
REMARK    3  A    between atoms: C2_3  and  C3_4 
REMARK    4  A    between atoms: C3_4  and  N2_5 
REMARK    5  A    between atoms: C7_13  and  N4_14 
REMARK    6  A    between atoms: N4_14  and  N5_15 
REMARK    7  A    between atoms: N10_31  and  O4_32 
ROOT
HETATM    1  N2  UNL     1     -29.639 -12.550 -12.120  1.00  0.00    -0.283 N 
HETATM    2  C4  UNL     1     -30.023 -12.082 -13.306  1.00  0.00     0.331 A 
HETATM    3  O1  UNL     1     -30.390 -10.885 -13.452  1.00  0.00    -0.246 OA
HETATM    4  N3  UNL     1     -30.042 -12.865 -14.417  1.00  0.00    -0.274 N 
ATOM      5  H3  UNL     1     -30.345 -12.463 -15.305  1.00  0.00     0.173 HD
HETATM    6  C5  UNL     1     -29.668 -14.170 -14.374  1.00  0.00     0.268 A 
HETATM    7  O2  UNL     1     -29.682 -14.894 -15.382  1.00  0.00    -0.267 OA
HETATM    8  C6  UNL     1     -29.267 -14.668 -13.155  1.00  0.00     0.137 A 
HETATM    9  C7  UNL     1     -28.860 -16.013 -13.100  1.00  0.00     0.223 A 
HETATM   10  N6  UNL     1     -28.460 -16.423 -11.853  1.00  0.00    -0.325 N 
ATOM     11  H6  UNL     1     -28.150 -17.388 -11.738  1.00  0.00     0.169 HD
HETATM   12  C8  UNL     1     -28.454 -15.631 -10.789  1.00  0.00     0.184 A 
HETATM   13  N7  UNL     1     -28.849 -14.360 -10.883  1.00  0.00    -0.337 N 
ATOM     14  H7  UNL     1     -28.836 -13.769 -10.051  1.00  0.00     0.168 HD
HETATM   15  C9  UNL     1     -29.262 -13.843 -12.050  1.00  0.00     0.133 A 
ENDROOT
BRANCH   1  16
HETATM   16  C3  UNL     1     -29.623 -11.697 -10.963  1.00  0.00     0.155 C 
BRANCH  16  17
HETATM   17  C2  UNL     1     -30.994 -11.336 -10.486  1.00  0.00     0.144 C 
BRANCH  17  18
HETATM   18  N1  UNL     1     -31.381 -11.898  -9.230  1.00  0.00    -0.365 N 
HETATM   19  C1  UNL     1     -32.777 -12.026  -8.895  1.00  0.00     0.151 C 
BRANCH  18  20
HETATM   20  C10 UNL     1     -30.437 -12.377  -8.299  1.00  0.00     0.177 A 
HETATM   21  C11 UNL     1     -30.176 -13.668  -7.884  1.00  0.00     0.167 A 
HETATM   22  N8  UNL     1     -30.822 -14.871  -8.292  1.00  0.00    -0.078 NA
HETATM   23  N9  UNL     1     -29.154 -13.624  -6.979  1.00  0.00    -0.292 N 
HETATM   24  C12 UNL     1     -28.774 -12.347  -6.820  1.00  0.00     0.353 A 
ATOM     25  H9  UNL     1     -28.748 -14.428  -6.503  1.00  0.00     0.172 HD
HETATM   26  O3  UNL     1     -27.866 -11.848  -6.083  1.00  0.00    -0.244 OA
HETATM   27  N10 UNL     1     -29.544 -11.595  -7.612  1.00  0.00    -0.152 N 
BRANCH  27  28
HETATM   28  O4  UNL     1     -29.495 -10.242  -7.768  1.00  0.00    -0.277 OA
ATOM     29  H4  UNL     1     -28.691  -9.748  -7.654  1.00  0.00     0.245 HD
ENDBRANCH  27  28
ENDBRANCH  18  20
ENDBRANCH  17  18
ENDBRANCH  16  17
ENDBRANCH   1  16
BRANCH   9  30
HETATM   30  N4  UNL     1     -28.843 -16.800 -13.990  1.00  0.00    -0.313 NA
BRANCH  30  31
HETATM   31  N5  UNL     1     -28.828 -17.646 -14.941  1.00  0.00    -0.278 N 
ATOM     32  H52 UNL     1     -28.916 -17.110 -14.078  1.00  0.00     0.191 HD
ATOM     33  H51 UNL     1     -28.814 -18.322 -15.705  1.00  0.00     0.191 HD
ENDBRANCH  30  31
ENDBRANCH   9  30
TORSDOF 7
ENDMDL
MODEL 5
REMARK VINA RESULT: -8.532196252      2.118      3.258
REMARK  7 active torsions:
REMARK  status: ('A' for Active; 'I' for Inactive)
REMARK    1  A    between atoms: N1_2  and  C2_3 
REMARK    2  A    between atoms: N1_2  and  C10_24 
REMARK    3  A    between atoms: C2_3  and  C3_4 
REMARK    4  A    between atoms: C3_4  and  N2_5 
REMARK    5  A    between atoms: C7_13  and  N4_14 
REMARK    6  A    between atoms: N4_14  and  N5_15 
REMARK    7  A    between atoms: N10_31  and  O4_32 
ROOT
HETATM    1  N2  UNL     1     -29.588 -12.590 -11.714  1.00  0.00    -0.283 N 
HETATM    2  C4  UNL     1     -29.950 -12.016 -12.860  1.00  0.00     0.331 A 
HETATM    3  O1  UNL     1     -30.298 -10.805 -12.908  1.00  0.00    -0.246 OA
HETATM    4  N3  UNL     1     -29.966 -12.701 -14.035  1.00  0.00    -0.274 N 
ATOM      5  H3  UNL     1     -30.251 -12.221 -14.888  1.00  0.00     0.173 HD
HETATM    6  C5  UNL     1     -29.611 -14.011 -14.099  1.00  0.00     0.268 A 
HETATM    7  O2  UNL     1     -29.622 -14.646 -15.165  1.00  0.00    -0.267 OA
HETATM    8  C6  UNL     1     -29.233 -14.618 -12.922  1.00  0.00     0.137 A 
HETATM    9  C7  UNL     1     -28.846 -15.968 -12.978  1.00  0.00     0.223 A 
HETATM   10  N6  UNL     1     -28.468 -16.489 -11.765  1.00  0.00    -0.325 N 
ATOM     11  H6  UNL     1     -28.174 -17.465 -11.730  1.00  0.00     0.169 HD
HETATM   12  C8  UNL     1     -28.465 -15.792 -10.638  1.00  0.00     0.184 A 
HETATM   13  N7  UNL     1     -28.840 -14.511 -10.627  1.00  0.00    -0.337 N 
ATOM     14  H7  UNL     1     -28.829 -13.993  -9.748  1.00  0.00     0.168 HD
HETATM   15  C9  UNL     1     -29.231 -13.890 -11.750  1.00  0.00     0.133 A 
ENDROOT
BRANCH   1  16
HETATM   16  C3  UNL     1     -29.574 -11.840 -10.489  1.00  0.00     0.155 C 
BRANCH  16  17
HETATM   17  C2  UNL     1     -30.900 -11.832  -9.794  1.00  0.00     0.144 C 
BRANCH  17  18
HETATM   18  N1  UNL     1     -30.853 -11.912  -8.368  1.00  0.00    -0.365 N 
HETATM   19  C1  UNL     1     -31.832 -11.214  -7.573  1.00  0.00     0.151 C 
BRANCH  18  20
HETATM   20  C10 UNL     1     -29.893 -12.690  -7.691  1.00  0.00     0.177 A 
HETATM   21  C11 UNL     1     -28.825 -12.298  -6.909  1.00  0.00     0.167 A 
HETATM   22  N8  UNL     1     -28.402 -10.973  -6.595  1.00  0.00    -0.078 NA
HETATM   23  N9  UNL     1     -28.197 -13.423  -6.455  1.00  0.00    -0.292 N 
HETATM   24  C12 UNL     1     -28.842 -14.499  -6.929  1.00  0.00     0.353 A 
ATOM     25  H9  UNL     1     -27.373 -13.442  -5.854  1.00  0.00     0.172 HD
HETATM   26  O3  UNL     1     -28.607 -15.736  -6.759  1.00  0.00    -0.244 OA
HETATM   27  N10 UNL     1     -29.863 -14.061  -7.674  1.00  0.00    -0.152 N 
BRANCH  27  28
HETATM   28  O4  UNL     1     -30.782 -14.816  -8.338  1.00  0.00    -0.277 OA
ATOM     29  H4  UNL     1     -30.789 -15.765  -8.290  1.00  0.00     0.245 HD
ENDBRANCH  27  28
ENDBRANCH  18  20
ENDBRANCH  17  18
ENDBRANCH  16  17
ENDBRANCH   1  16
BRANCH   9  30
HETATM   30  N4  UNL     1     -28.829 -16.677 -13.931  1.00  0.00    -0.313 NA
BRANCH  30  31
HETATM   31  N5  UNL     1     -28.815 -17.438 -14.951  1.00  0.00    -0.278 N 
ATOM     32  H52 UNL     1     -28.687 -16.941 -14.070  1.00  0.00     0.191 HD
ATOM     33  H51 UNL     1     -28.806 -18.046 -15.770  1.00  0.00     0.191 HD
ENDBRANCH  30  31
ENDBRANCH   9  30
TORSDOF 7
ENDMDL
