MODEL 1
REMARK VINA RESULT: -6.618062929      0.000      0.000
REMARK  3 active torsions:
REMARK  status: ('A' for Active; 'I' for Inactive)
REMARK    1  A    between atoms: O1_2  and  C2_3 
REMARK    2  A    between atoms: C6_10  and  N2_11 
REMARK    3  A    between atoms: N4_17  and  N5_19 
ROOT
HETATM    1  C2  UNL     1       4.089 -32.255 -20.893  1.00  0.00     0.125 C 
HETATM    2  C3  UNL     1       4.640 -31.030 -21.173  1.00  0.00     0.044 C 
HETATM    3  C4  UNL     1       5.615 -31.040 -22.284  1.00  0.00     0.057 C 
HETATM    4  C5  UNL     1       4.385 -29.817 -20.540  1.00  0.00     0.268 C 
HETATM    5  O2  UNL     1       4.888 -28.818 -21.114  1.00  0.00    -0.267 OA
HETATM    6  N1  UNL     1       3.692 -29.528 -19.421  1.00  0.00    -0.156 N 
ATOM      7  H1  UNL     1       3.676 -28.557 -19.114  1.00  0.00     0.187 HD
HETATM    8  C6  UNL     1       3.021 -30.427 -18.679  1.00  0.00     0.680 C 
HETATM    9  N3  UNL     1       2.892 -31.767 -18.796  1.00  0.00    -0.173 N 
ATOM     10  H3  UNL     1       2.440 -32.239 -18.013  1.00  0.00     0.186 HD
HETATM   11  C7  UNL     1       3.282 -32.555 -19.809  1.00  0.00     0.169 C 
HETATM   12  N4  UNL     1       2.877 -33.782 -19.830  1.00  0.00    -0.289 N 
ATOM     13  H4  UNL     1       3.154 -34.410 -20.585  1.00  0.00     0.188 HD
ENDROOT
BRANCH   1  14
HETATM   14  O1  UNL     1       4.364 -33.288 -21.775  1.00  0.00    -0.351 OA
HETATM   15  C1  UNL     1       3.515 -33.411 -22.906  1.00  0.00     0.210 C 
ENDBRANCH   1  14
BRANCH  12  16
HETATM   16  N5  UNL     1       2.051 -34.230 -18.793  1.00  0.00    -0.344 N 
ATOM     17  H52 UNL     1       2.165 -33.849 -17.854  1.00  0.00     0.176 HD
ATOM     18  H51 UNL     1       1.346 -34.936 -19.003  1.00  0.00     0.176 HD
ENDBRANCH  12  16
BRANCH   8  19
HETATM   19  N2  UNL     1       2.390 -29.900 -17.677  1.00  0.00    -0.234 N 
ATOM     20  H22 UNL     1       2.697 -28.963 -17.418  1.00  0.00     0.174 HD
ATOM     21  H21 UNL     1       1.669 -30.507 -17.287  1.00  0.00     0.174 HD
ENDBRANCH   8  19
TORSDOF 3
ENDMDL
MODEL 2
REMARK VINA RESULT: -6.505325897      1.750      1.752
REMARK  3 active torsions:
REMARK  status: ('A' for Active; 'I' for Inactive)
REMARK    1  A    between atoms: O1_2  and  C2_3 
REMARK    2  A    between atoms: C6_10  and  N2_11 
REMARK    3  A    between atoms: N4_17  and  N5_19 
ROOT
HETATM    1  C2  UNL     1       2.795 -31.302 -21.721  1.00  0.00     0.125 C 
HETATM    2  C3  UNL     1       4.035 -30.731 -21.590  1.00  0.00     0.044 C 
HETATM    3  C4  UNL     1       4.956 -31.009 -22.713  1.00  0.00     0.057 C 
HETATM    4  C5  UNL     1       4.503 -29.941 -20.543  1.00  0.00     0.268 C 
HETATM    5  O2  UNL     1       5.615 -29.397 -20.762  1.00  0.00    -0.267 OA
HETATM    6  N1  UNL     1       3.970 -29.660 -19.338  1.00  0.00    -0.156 N 
ATOM      7  H1  UNL     1       4.521 -29.085 -18.702  1.00  0.00     0.187 HD
HETATM    8  C6  UNL     1       2.766 -30.081 -18.912  1.00  0.00     0.680 C 
HETATM    9  N3  UNL     1       1.840 -30.876 -19.490  1.00  0.00    -0.173 N 
ATOM     10  H3  UNL     1       1.064 -31.161 -18.893  1.00  0.00     0.186 HD
HETATM   11  C7  UNL     1       1.809 -31.338 -20.751  1.00  0.00     0.169 C 
HETATM   12  N4  UNL     1       0.729 -31.907 -21.174  1.00  0.00    -0.289 N 
ATOM     13  H4  UNL     1       0.670 -32.269 -22.126  1.00  0.00     0.188 HD
ENDROOT
BRANCH   1  14
HETATM   14  O1  UNL     1       2.500 -31.900 -22.936  1.00  0.00    -0.351 OA
HETATM   15  C1  UNL     1       2.883 -33.257 -23.095  1.00  0.00     0.210 C 
ENDBRANCH   1  14
BRANCH  12  16
HETATM   16  N5  UNL     1      -0.356 -32.016 -20.299  1.00  0.00    -0.344 N 
ATOM     17  H52 UNL     1      -0.276 -31.662 -19.346  1.00  0.00     0.176 HD
ATOM     18  H51 UNL     1      -1.214 -32.452 -20.638  1.00  0.00     0.176 HD
ENDBRANCH  12  16
BRANCH   8  19
HETATM   19  N2  UNL     1       2.451 -29.638 -17.736  1.00  0.00    -0.234 N 
ATOM     20  H22 UNL     1       3.154 -29.045 -17.295  1.00  0.00     0.174 HD
ATOM     21  H21 UNL     1       1.535 -29.950 -17.416  1.00  0.00     0.174 HD
ENDBRANCH   8  19
TORSDOF 3
ENDMDL
MODEL 3
REMARK VINA RESULT: -6.226548072      2.574      3.788
REMARK  3 active torsions:
REMARK  status: ('A' for Active; 'I' for Inactive)
REMARK    1  A    between atoms: O1_2  and  C2_3 
REMARK    2  A    between atoms: C6_10  and  N2_11 
REMARK    3  A    between atoms: N4_17  and  N5_19 
ROOT
HETATM    1  C2  UNL     1       2.671 -30.748 -20.293  1.00  0.00     0.125 C 
HETATM    2  C3  UNL     1       3.761 -30.517 -21.095  1.00  0.00     0.044 C 
HETATM    3  C4  UNL     1       4.733 -29.551 -20.539  1.00  0.00     0.057 C 
HETATM    4  C5  UNL     1       4.039 -31.079 -22.337  1.00  0.00     0.268 C 
HETATM    5  O2  UNL     1       5.192 -30.833 -22.771  1.00  0.00    -0.267 OA
HETATM    6  N1  UNL     1       3.285 -31.841 -23.154  1.00  0.00    -0.156 N 
ATOM      7  H1  UNL     1       3.685 -32.106 -24.053  1.00  0.00     0.187 HD
HETATM    8  C6  UNL     1       2.045 -32.278 -22.871  1.00  0.00     0.680 C 
HETATM    9  N3  UNL     1       1.242 -32.064 -21.807  1.00  0.00    -0.173 N 
ATOM     10  H3  UNL     1       0.282 -32.396 -21.900  1.00  0.00     0.186 HD
HETATM   11  C7  UNL     1       1.544 -31.471 -20.641  1.00  0.00     0.169 C 
HETATM   12  N4  UNL     1       0.700 -31.555 -19.667  1.00  0.00    -0.289 N 
ATOM     13  H4  UNL     1       0.897 -31.117 -18.767  1.00  0.00     0.188 HD
ENDROOT
BRANCH   1  14
HETATM   14  O1  UNL     1       2.699 -30.206 -19.017  1.00  0.00    -0.351 OA
HETATM   15  C1  UNL     1       3.130 -31.059 -17.967  1.00  0.00     0.210 C 
ENDBRANCH   1  14
BRANCH  12  16
HETATM   16  N5  UNL     1      -0.491 -32.259 -19.874  1.00  0.00    -0.344 N 
ATOM     17  H52 UNL     1      -0.681 -32.676 -20.785  1.00  0.00     0.176 HD
ATOM     18  H51 UNL     1      -1.150 -32.340 -19.099  1.00  0.00     0.176 HD
ENDBRANCH  12  16
BRANCH   8  19
HETATM   19  N2  UNL     1       1.543 -33.038 -23.794  1.00  0.00    -0.234 N 
ATOM     20  H22 UNL     1       2.108 -33.122 -24.638  1.00  0.00     0.174 HD
ATOM     21  H21 UNL     1       0.645 -33.448 -23.538  1.00  0.00     0.174 HD
ENDBRANCH   8  19
TORSDOF 3
ENDMDL
MODEL 4
REMARK VINA RESULT: -6.079238983      2.971      4.757
REMARK  3 active torsions:
REMARK  status: ('A' for Active; 'I' for Inactive)
REMARK    1  A    between atoms: O1_2  and  C2_3 
REMARK    2  A    between atoms: C6_10  and  N2_11 
REMARK    3  A    between atoms: N4_17  and  N5_19 
ROOT
HETATM    1  C2  UNL     1       3.161 -30.266 -20.796  1.00  0.00     0.125 C 
HETATM    2  C3  UNL     1       1.953 -30.597 -20.236  1.00  0.00     0.044 C 
HETATM    3  C4  UNL     1       1.734 -30.038 -18.885  1.00  0.00     0.057 C 
HETATM    4  C5  UNL     1       0.944 -31.379 -20.791  1.00  0.00     0.268 C 
HETATM    5  O2  UNL     1      -0.132 -31.373 -20.141  1.00  0.00    -0.267 OA
HETATM    6  N1  UNL     1       0.921 -32.140 -21.902  1.00  0.00    -0.156 N 
ATOM      7  H1  UNL     1       0.073 -32.673 -22.091  1.00  0.00     0.187 HD
HETATM    8  C6  UNL     1       1.935 -32.251 -22.780  1.00  0.00     0.680 C 
HETATM    9  N3  UNL     1       3.176 -31.720 -22.784  1.00  0.00    -0.173 N 
ATOM     10  H3  UNL     1       3.809 -32.076 -23.500  1.00  0.00     0.186 HD
HETATM   11  C7  UNL     1       3.685 -30.783 -21.968  1.00  0.00     0.169 C 
HETATM   12  N4  UNL     1       4.823 -30.253 -22.268  1.00  0.00    -0.289 N 
ATOM     13  H4  UNL     1       5.239 -29.538 -21.671  1.00  0.00     0.188 HD
ENDROOT
BRANCH   1  14
HETATM   14  O1  UNL     1       3.931 -29.327 -20.127  1.00  0.00    -0.351 OA
HETATM   15  C1  UNL     1       4.814 -29.814 -19.128  1.00  0.00     0.210 C 
ENDBRANCH   1  14
BRANCH  12  16
HETATM   16  N5  UNL     1       5.473 -30.680 -23.431  1.00  0.00    -0.344 N 
ATOM     17  H52 UNL     1       6.048 -31.522 -23.410  1.00  0.00     0.176 HD
ATOM     18  H51 UNL     1       5.356 -30.133 -24.284  1.00  0.00     0.176 HD
ENDBRANCH  12  16
BRANCH   8  19
HETATM   19  N2  UNL     1       1.656 -33.004 -23.797  1.00  0.00    -0.234 N 
ATOM     20  H22 UNL     1       0.674 -33.266 -23.884  1.00  0.00     0.174 HD
ATOM     21  H21 UNL     1       2.468 -33.228 -24.371  1.00  0.00     0.174 HD
ENDBRANCH   8  19
TORSDOF 3
ENDMDL
MODEL 5
REMARK VINA RESULT: -6.077055802      2.092      3.560
REMARK  3 active torsions:
REMARK  status: ('A' for Active; 'I' for Inactive)
REMARK    1  A    between atoms: O1_2  and  C2_3 
REMARK    2  A    between atoms: C6_10  and  N2_11 
REMARK    3  A    between atoms: N4_17  and  N5_19 
ROOT
HETATM    1  C2  UNL     1       3.501 -30.508 -20.961  1.00  0.00     0.125 C 
HETATM    2  C3  UNL     1       3.224 -31.142 -22.145  1.00  0.00     0.044 C 
HETATM    3  C4  UNL     1       4.254 -30.958 -23.191  1.00  0.00     0.057 C 
HETATM    4  C5  UNL     1       2.110 -31.917 -22.456  1.00  0.00     0.268 C 
HETATM    5  O2  UNL     1       2.194 -32.529 -23.550  1.00  0.00    -0.267 OA
HETATM    6  N1  UNL     1       0.959 -32.122 -21.787  1.00  0.00    -0.156 N 
ATOM      7  H1  UNL     1       0.250 -32.703 -22.235  1.00  0.00     0.187 HD
HETATM    8  C6  UNL     1       0.673 -31.618 -20.573  1.00  0.00     0.680 C 
HETATM    9  N3  UNL     1       1.370 -30.795 -19.759  1.00  0.00    -0.173 N 
ATOM     10  H3  UNL     1       0.866 -30.444 -18.945  1.00  0.00     0.186 HD
HETATM   11  C7  UNL     1       2.641 -30.380 -19.885  1.00  0.00     0.169 C 
HETATM   12  N4  UNL     1       3.192 -29.768 -18.890  1.00  0.00    -0.289 N 
ATOM     13  H4  UNL     1       4.156 -29.439 -18.950  1.00  0.00     0.188 HD
ENDROOT
BRANCH   1  14
HETATM   14  O1  UNL     1       4.759 -29.941 -20.827  1.00  0.00    -0.351 OA
HETATM   15  C1  UNL     1       5.839 -30.826 -20.570  1.00  0.00     0.210 C 
ENDBRANCH   1  14
BRANCH  12  16
HETATM   16  N5  UNL     1       2.438 -29.566 -17.729  1.00  0.00    -0.344 N 
ATOM     17  H52 UNL     1       1.591 -29.000 -17.767  1.00  0.00     0.176 HD
ATOM     18  H51 UNL     1       2.757 -29.994 -16.860  1.00  0.00     0.176 HD
ENDBRANCH  12  16
BRANCH   8  19
HETATM   19  N2  UNL     1      -0.477 -31.999 -20.114  1.00  0.00    -0.234 N 
ATOM     20  H22 UNL     1      -1.105 -31.243 -19.843  1.00  0.00     0.174 HD
ATOM     21  H21 UNL     1      -0.590 -33.012 -20.091  1.00  0.00     0.174 HD
ENDBRANCH   8  19
TORSDOF 3
ENDMDL
