MODEL 1
REMARK VINA RESULT: -3.915672105      0.000      0.000
REMARK  2 active torsions:
REMARK  status: ('A' for Active; 'I' for Inactive)
REMARK    1  A    between atoms: C7_7  and  N1_8 
REMARK    2  A    between atoms: N1_8  and  C8_10 
ROOT
HETATM    1  C1  UNL     1     -91.401   9.355 -19.258  1.00  0.00     0.019 C 
HETATM    2  C2  UNL     1     -92.436   8.761 -19.417  1.00  0.00    -0.060 C 
HETATM    3  C3  UNL     1     -93.676   8.054 -19.633  1.00  0.00     0.087 A 
HETATM    4  C4  UNL     1     -93.592   6.671 -19.555  1.00  0.00     0.039 A 
HETATM    5  C5  UNL     1     -94.772   5.989 -19.759  1.00  0.00     0.007 A 
HETATM    6  C6  UNL     1     -95.947   6.665 -20.023  1.00  0.00     0.048 A 
HETATM    7  C7  UNL     1     -95.986   8.041 -20.093  1.00  0.00     0.101 A 
HETATM    8  N2  UNL     1     -94.825   8.697 -19.891  1.00  0.00    -0.336 N 
ATOM      9  H2  UNL     1     -94.820   9.716 -19.937  1.00  0.00     0.168 HD
ENDROOT
BRANCH   7  10
HETATM   10  N1  UNL     1     -97.088   8.703 -20.343  1.00  0.00    -0.377 N 
ATOM     11  H1  UNL     1     -97.724   8.350 -21.059  1.00  0.00     0.161 HD
BRANCH  10  12
HETATM   12  C8  UNL     1     -97.432   9.911 -19.642  1.00  0.00     0.116 C 
HETATM   13  C9  UNL     1     -97.392  11.085 -20.573  1.00  0.00     0.026 C 
ENDBRANCH  10  12
ENDBRANCH   7  10
TORSDOF 2
ENDMDL
MODEL 2
REMARK VINA RESULT: -3.818115466      1.867      3.117
REMARK  2 active torsions:
REMARK  status: ('A' for Active; 'I' for Inactive)
REMARK    1  A    between atoms: C7_7  and  N1_8 
REMARK    2  A    between atoms: N1_8  and  C8_10 
ROOT
HETATM    1  C1  UNL     1     -94.411   5.839 -19.764  1.00  0.00     0.019 C 
HETATM    2  C2  UNL     1     -94.919   6.871 -19.405  1.00  0.00    -0.060 C 
HETATM    3  C3  UNL     1     -95.549   8.094 -18.969  1.00  0.00     0.087 A 
HETATM    4  C4  UNL     1     -95.041   8.639 -17.798  1.00  0.00     0.039 A 
HETATM    5  C5  UNL     1     -95.636   9.807 -17.375  1.00  0.00     0.007 A 
HETATM    6  C6  UNL     1     -96.670  10.377 -18.091  1.00  0.00     0.048 A 
HETATM    7  C7  UNL     1     -97.145   9.803 -19.251  1.00  0.00     0.101 A 
HETATM    8  N2  UNL     1     -96.554   8.660 -19.654  1.00  0.00    -0.336 N 
ATOM      9  H2  UNL     1     -96.883   8.210 -20.509  1.00  0.00     0.168 HD
ENDROOT
BRANCH   7  10
HETATM   10  N1  UNL     1     -98.125  10.326 -19.945  1.00  0.00    -0.377 N 
ATOM     11  H1  UNL     1     -98.795   9.704 -20.399  1.00  0.00     0.161 HD
BRANCH  10  12
HETATM   12  C8  UNL     1     -98.288  11.748 -20.090  1.00  0.00     0.116 C 
HETATM   13  C9  UNL     1     -99.720  12.134 -19.875  1.00  0.00     0.026 C 
ENDBRANCH  10  12
ENDBRANCH   7  10
TORSDOF 2
ENDMDL
MODEL 3
REMARK VINA RESULT: -3.816956961      2.245      5.147
REMARK  2 active torsions:
REMARK  status: ('A' for Active; 'I' for Inactive)
REMARK    1  A    between atoms: C7_7  and  N1_8 
REMARK    2  A    between atoms: N1_8  and  C8_10 
ROOT
HETATM    1  C1  UNL     1    -100.051  12.332 -19.351  1.00  0.00     0.019 C 
HETATM    2  C2  UNL     1     -99.084  11.683 -19.660  1.00  0.00    -0.060 C 
HETATM    3  C3  UNL     1     -97.938  10.897 -20.050  1.00  0.00     0.087 A 
HETATM    4  C4  UNL     1     -96.874  11.618 -20.572  1.00  0.00     0.039 A 
HETATM    5  C5  UNL     1     -95.776  10.875 -20.947  1.00  0.00     0.007 A 
HETATM    6  C6  UNL     1     -95.763   9.502 -20.799  1.00  0.00     0.048 A 
HETATM    7  C7  UNL     1     -96.843   8.824 -20.275  1.00  0.00     0.101 A 
HETATM    8  N2  UNL     1     -97.912   9.563 -19.912  1.00  0.00    -0.336 N 
ATOM      9  H2  UNL     1     -98.727   9.091 -19.521  1.00  0.00     0.168 HD
ENDROOT
BRANCH   7  10
HETATM   10  N1  UNL     1     -96.853   7.523 -20.126  1.00  0.00    -0.377 N 
ATOM     11  H1  UNL     1     -97.582   6.979 -20.590  1.00  0.00     0.161 HD
BRANCH  10  12
HETATM   12  C8  UNL     1     -95.871   6.834 -19.332  1.00  0.00     0.116 C 
HETATM   13  C9  UNL     1     -95.018   5.958 -20.199  1.00  0.00     0.026 C 
ENDBRANCH  10  12
ENDBRANCH   7  10
TORSDOF 2
ENDMDL
MODEL 4
REMARK VINA RESULT: -3.780310293      2.521      4.380
REMARK  2 active torsions:
REMARK  status: ('A' for Active; 'I' for Inactive)
REMARK    1  A    between atoms: C7_7  and  N1_8 
REMARK    2  A    between atoms: N1_8  and  C8_10 
ROOT
HETATM    1  C1  UNL     1     -95.967   6.798 -19.854  1.00  0.00     0.019 C 
HETATM    2  C2  UNL     1     -96.325   7.930 -20.059  1.00  0.00    -0.060 C 
HETATM    3  C3  UNL     1     -96.749   9.292 -20.281  1.00  0.00     0.087 A 
HETATM    4  C4  UNL     1     -95.922  10.044 -21.103  1.00  0.00     0.039 A 
HETATM    5  C5  UNL     1     -96.320  11.345 -21.319  1.00  0.00     0.007 A 
HETATM    6  C6  UNL     1     -97.472  11.842 -20.743  1.00  0.00     0.048 A 
HETATM    7  C7  UNL     1     -98.266  11.060 -19.931  1.00  0.00     0.101 A 
HETATM    8  N2  UNL     1     -97.866   9.788 -19.726  1.00  0.00    -0.336 N 
ATOM      9  H2  UNL     1     -98.431   9.183 -19.130  1.00  0.00     0.168 HD
ENDROOT
BRANCH   7  10
HETATM   10  N1  UNL     1     -99.362  11.510 -19.373  1.00  0.00    -0.377 N 
ATOM     11  H1  UNL     1     -99.607  11.187 -18.437  1.00  0.00     0.161 HD
BRANCH  10  12
HETATM   12  C8  UNL     1    -100.232  12.443 -20.037  1.00  0.00     0.116 C 
HETATM   13  C9  UNL     1    -101.664  12.148 -19.708  1.00  0.00     0.026 C 
ENDBRANCH  10  12
ENDBRANCH   7  10
TORSDOF 2
ENDMDL
MODEL 5
REMARK VINA RESULT: -3.742020985      1.298      4.442
REMARK  2 active torsions:
REMARK  status: ('A' for Active; 'I' for Inactive)
REMARK    1  A    between atoms: C7_7  and  N1_8 
REMARK    2  A    between atoms: N1_8  and  C8_10 
ROOT
HETATM    1  C1  UNL     1     -97.536  10.228 -19.646  1.00  0.00     0.019 C 
HETATM    2  C2  UNL     1     -96.704   9.357 -19.667  1.00  0.00    -0.060 C 
HETATM    3  C3  UNL     1     -95.708   8.312 -19.668  1.00  0.00     0.087 A 
HETATM    4  C4  UNL     1     -96.154   7.066 -20.085  1.00  0.00     0.039 A 
HETATM    5  C5  UNL     1     -95.209   6.064 -20.088  1.00  0.00     0.007 A 
HETATM    6  C6  UNL     1     -93.908   6.312 -19.698  1.00  0.00     0.048 A 
HETATM    7  C7  UNL     1     -93.506   7.566 -19.289  1.00  0.00     0.101 A 
HETATM    8  N2  UNL     1     -94.440   8.538 -19.290  1.00  0.00    -0.336 N 
ATOM      9  H2  UNL     1     -94.174   9.477 -18.993  1.00  0.00     0.168 HD
ENDROOT
BRANCH   7  10
HETATM   10  N1  UNL     1     -92.278   7.824 -18.913  1.00  0.00    -0.377 N 
ATOM     11  H1  UNL     1     -92.044   7.766 -17.922  1.00  0.00     0.161 HD
BRANCH  10  12
HETATM   12  C8  UNL     1     -91.250   8.186 -19.852  1.00  0.00     0.116 C 
HETATM   13  C9  UNL     1     -89.967   7.487 -19.517  1.00  0.00     0.026 C 
ENDBRANCH  10  12
ENDBRANCH   7  10
TORSDOF 2
ENDMDL
