MODEL 1
REMARK VINA RESULT: -6.256103776      0.000      0.000
REMARK  3 active torsions:
REMARK  status: ('A' for Active; 'I' for Inactive)
REMARK       I    between atoms: C1_4  and  N3_6 
REMARK    1  A    between atoms: N3_6  and  C2_8 
REMARK    2  A    between atoms: C3_13  and  S1_14 
REMARK    3  A    between atoms: S1_14  and  N6_15 
ROOT
HETATM    1  C2  UNL     1      15.510  28.990  25.282  1.00  0.00     0.699 A 
HETATM    2  N4  UNL     1      15.317  27.771  25.808  1.00  0.00    -0.131 N 
ATOM      3  H4  UNL     1      14.394  27.339  25.772  1.00  0.00     0.205 HD
HETATM    4  N5  UNL     1      16.319  27.137  26.370  1.00  0.00    -0.273 N 
ATOM      5  H5  UNL     1      16.147  26.212  26.764  1.00  0.00     0.188 HD
HETATM    6  C3  UNL     1      17.561  27.646  26.452  1.00  0.00     0.179 A 
HETATM    7  C4  UNL     1      17.751  28.896  25.910  1.00  0.00     0.151 A 
HETATM    8  N7  UNL     1      16.726  29.525  25.346  1.00  0.00    -0.197 N 
ATOM      9  H7  UNL     1      16.876  30.452  24.947  1.00  0.00     0.183 HD
ENDROOT
BRANCH   1  10
HETATM   10  N3  UNL     1      14.531  29.654  24.713  1.00  0.00    -0.162 N 
HETATM   11  C1  UNL     1      13.972  29.075  23.544  1.00  0.00     0.200 C 
HETATM   12  N1  UNL     1      14.686  28.921  22.506  1.00  0.00    -0.373 N 
HETATM   13  N2  UNL     1      12.612  28.689  23.592  1.00  0.00    -0.063 NA
ATOM     14  H12 UNL     1      14.285  28.504  21.665  1.00  0.00     0.158 HD
ATOM     15  H11 UNL     1      15.667  29.199  22.471  1.00  0.00     0.158 HD
ATOM     16  H3  UNL     1      14.190  30.538  25.091  1.00  0.00     0.187 HD
ENDBRANCH   1  10
BRANCH   6  17
HETATM   17  S1  UNL     1      18.900  26.809  27.197  1.00  0.00     0.275 S 
HETATM   18  O1  UNL     1      19.014  27.352  28.611  1.00  0.00    -0.199 OA
HETATM   19  O2  UNL     1      20.149  27.170  26.456  1.00  0.00    -0.199 OA
BRANCH  17  20
HETATM   20  N6  UNL     1      18.571  25.170  27.268  1.00  0.00    -0.323 N 
ATOM     21  H62 UNL     1      18.684  24.526  26.485  1.00  0.00     0.169 HD
ATOM     22  H61 UNL     1      18.245  24.925  28.203  1.00  0.00     0.169 HD
ENDBRANCH  17  20
ENDBRANCH   6  17
TORSDOF 3
ENDMDL
MODEL 2
REMARK VINA RESULT: -6.111529529      1.808      2.475
REMARK  3 active torsions:
REMARK  status: ('A' for Active; 'I' for Inactive)
REMARK       I    between atoms: C1_4  and  N3_6 
REMARK    1  A    between atoms: N3_6  and  C2_8 
REMARK    2  A    between atoms: C3_13  and  S1_14 
REMARK    3  A    between atoms: S1_14  and  N6_15 
ROOT
HETATM    1  C2  UNL     1      16.480  27.957  26.965  1.00  0.00     0.699 A 
HETATM    2  N4  UNL     1      17.078  27.351  25.927  1.00  0.00    -0.131 N 
ATOM      3  H4  UNL     1      16.588  27.258  25.038  1.00  0.00     0.205 HD
HETATM    4  N5  UNL     1      18.295  26.880  26.059  1.00  0.00    -0.273 N 
ATOM      5  H5  UNL     1      18.727  26.423  25.257  1.00  0.00     0.188 HD
HETATM    6  C3  UNL     1      19.000  26.969  27.201  1.00  0.00     0.179 A 
HETATM    7  C4  UNL     1      18.381  27.590  28.260  1.00  0.00     0.151 A 
HETATM    8  N7  UNL     1      17.147  28.062  28.110  1.00  0.00    -0.197 N 
ATOM      9  H7  UNL     1      16.696  28.521  28.901  1.00  0.00     0.183 HD
ENDROOT
BRANCH   1  10
HETATM   10  N3  UNL     1      15.263  28.439  26.869  1.00  0.00    -0.162 N 
HETATM   11  C1  UNL     1      15.098  29.570  26.026  1.00  0.00     0.200 C 
HETATM   12  N1  UNL     1      15.683  30.662  26.303  1.00  0.00    -0.373 N 
HETATM   13  N2  UNL     1      14.268  29.422  24.890  1.00  0.00    -0.063 NA
ATOM     14  H12 UNL     1      15.565  31.474  25.698  1.00  0.00     0.158 HD
ATOM     15  H11 UNL     1      16.282  30.768  27.123  1.00  0.00     0.158 HD
ATOM     16  H3  UNL     1      14.479  28.024  27.372  1.00  0.00     0.187 HD
ENDBRANCH   1  10
BRANCH   6  17
HETATM   17  S1  UNL     1      20.621  26.344  27.386  1.00  0.00     0.275 S 
HETATM   18  O1  UNL     1      21.307  27.229  28.412  1.00  0.00    -0.199 OA
HETATM   19  O2  UNL     1      21.335  26.502  26.080  1.00  0.00    -0.199 OA
BRANCH  17  20
HETATM   20  N6  UNL     1      20.558  24.779  27.971  1.00  0.00    -0.323 N 
ATOM     21  H62 UNL     1      20.389  23.955  27.394  1.00  0.00     0.169 HD
ATOM     22  H61 UNL     1      20.712  24.783  28.980  1.00  0.00     0.169 HD
ENDBRANCH  17  20
ENDBRANCH   6  17
TORSDOF 3
ENDMDL
MODEL 3
REMARK VINA RESULT: -5.993012067      1.066      1.275
REMARK  3 active torsions:
REMARK  status: ('A' for Active; 'I' for Inactive)
REMARK       I    between atoms: C1_4  and  N3_6 
REMARK    1  A    between atoms: N3_6  and  C2_8 
REMARK    2  A    between atoms: C3_13  and  S1_14 
REMARK    3  A    between atoms: S1_14  and  N6_15 
ROOT
HETATM    1  C2  UNL     1      15.435  29.120  25.366  1.00  0.00     0.699 A 
HETATM    2  N4  UNL     1      15.308  27.827  25.703  1.00  0.00    -0.131 N 
ATOM      3  H4  UNL     1      14.465  27.312  25.447  1.00  0.00     0.205 HD
HETATM    4  N5  UNL     1      16.270  27.227  26.362  1.00  0.00    -0.273 N 
ATOM      5  H5  UNL     1      16.149  26.244  26.608  1.00  0.00     0.188 HD
HETATM    6  C3  UNL     1      17.407  27.842  26.731  1.00  0.00     0.179 A 
HETATM    7  C4  UNL     1      17.531  29.167  26.382  1.00  0.00     0.151 A 
HETATM    8  N7  UNL     1      16.546  29.761  25.715  1.00  0.00    -0.197 N 
ATOM      9  H7  UNL     1      16.647  30.743  25.461  1.00  0.00     0.183 HD
ENDROOT
BRANCH   1  10
HETATM   10  N3  UNL     1      14.493  29.753  24.708  1.00  0.00    -0.162 N 
HETATM   11  C1  UNL     1      13.989  29.105  23.549  1.00  0.00     0.200 C 
HETATM   12  N1  UNL     1      14.754  28.881  22.561  1.00  0.00    -0.373 N 
HETATM   13  N2  UNL     1      12.625  28.731  23.551  1.00  0.00    -0.063 NA
ATOM     14  H12 UNL     1      14.393  28.415  21.728  1.00  0.00     0.158 HD
ATOM     15  H11 UNL     1      15.738  29.151  22.560  1.00  0.00     0.158 HD
ATOM     16  H3  UNL     1      14.141  30.660  25.012  1.00  0.00     0.187 HD
ENDBRANCH   1  10
BRANCH   6  17
HETATM   17  S1  UNL     1      18.693  27.050  27.608  1.00  0.00     0.275 S 
HETATM   18  O1  UNL     1      19.953  27.230  26.780  1.00  0.00    -0.199 OA
HETATM   19  O2  UNL     1      18.382  25.588  27.675  1.00  0.00    -0.199 OA
BRANCH  17  20
HETATM   20  N6  UNL     1      18.905  27.795  29.091  1.00  0.00    -0.323 N 
ATOM     21  H62 UNL     1      18.985  27.299  29.978  1.00  0.00     0.169 HD
ATOM     22  H61 UNL     1      18.940  28.807  28.965  1.00  0.00     0.169 HD
ENDBRANCH  17  20
ENDBRANCH   6  17
TORSDOF 3
ENDMDL
MODEL 4
REMARK VINA RESULT: -5.934146209      2.352      3.052
REMARK  3 active torsions:
REMARK  status: ('A' for Active; 'I' for Inactive)
REMARK       I    between atoms: C1_4  and  N3_6 
REMARK    1  A    between atoms: N3_6  and  C2_8 
REMARK    2  A    between atoms: C3_13  and  S1_14 
REMARK    3  A    between atoms: S1_14  and  N6_15 
ROOT
HETATM    1  C2  UNL     1      15.895  28.647  23.501  1.00  0.00     0.699 A 
HETATM    2  N4  UNL     1      16.849  27.741  23.765  1.00  0.00    -0.131 N 
ATOM      3  H4  UNL     1      17.375  27.315  23.003  1.00  0.00     0.205 HD
HETATM    4  N5  UNL     1      17.103  27.405  25.007  1.00  0.00    -0.273 N 
ATOM      5  H5  UNL     1      17.832  26.714  25.183  1.00  0.00     0.188 HD
HETATM    6  C3  UNL     1      16.450  27.927  26.061  1.00  0.00     0.179 A 
HETATM    7  C4  UNL     1      15.474  28.854  25.782  1.00  0.00     0.151 A 
HETATM    8  N7  UNL     1      15.228  29.183  24.518  1.00  0.00    -0.197 N 
ATOM      9  H7  UNL     1      14.501  29.872  24.320  1.00  0.00     0.183 HD
ENDROOT
BRANCH   1  10
HETATM   10  N3  UNL     1      15.613  29.006  22.270  1.00  0.00    -0.162 N 
HETATM   11  C1  UNL     1      16.715  29.135  21.383  1.00  0.00     0.200 C 
HETATM   12  N1  UNL     1      17.612  30.006  21.604  1.00  0.00    -0.373 N 
HETATM   13  N2  UNL     1      16.760  28.267  20.267  1.00  0.00    -0.063 NA
ATOM     14  H12 UNL     1      18.403  30.099  20.967  1.00  0.00     0.158 HD
ATOM     15  H11 UNL     1      17.579  30.633  22.409  1.00  0.00     0.158 HD
ATOM     16  H3  UNL     1      14.656  29.183  21.967  1.00  0.00     0.187 HD
ENDBRANCH   1  10
BRANCH   6  17
HETATM   17  S1  UNL     1      16.782  27.486  27.718  1.00  0.00     0.275 S 
HETATM   18  O1  UNL     1      17.753  26.319  27.666  1.00  0.00    -0.199 OA
HETATM   19  O2  UNL     1      15.507  27.005  28.338  1.00  0.00    -0.199 OA
BRANCH  17  20
HETATM   20  N6  UNL     1      17.511  28.767  28.507  1.00  0.00    -0.323 N 
ATOM     21  H62 UNL     1      18.461  29.091  28.323  1.00  0.00     0.169 HD
ATOM     22  H61 UNL     1      16.865  29.165  29.188  1.00  0.00     0.169 HD
ENDBRANCH  17  20
ENDBRANCH   6  17
TORSDOF 3
ENDMDL
MODEL 5
REMARK VINA RESULT: -5.854853754      1.580      2.074
REMARK  3 active torsions:
REMARK  status: ('A' for Active; 'I' for Inactive)
REMARK       I    between atoms: C1_4  and  N3_6 
REMARK    1  A    between atoms: N3_6  and  C2_8 
REMARK    2  A    between atoms: C3_13  and  S1_14 
REMARK    3  A    between atoms: S1_14  and  N6_15 
ROOT
HETATM    1  C2  UNL     1      15.268  29.332  25.720  1.00  0.00     0.699 A 
HETATM    2  N4  UNL     1      16.086  30.090  26.467  1.00  0.00    -0.131 N 
ATOM      3  H4  UNL     1      16.054  31.106  26.390  1.00  0.00     0.205 HD
HETATM    4  N5  UNL     1      16.927  29.519  27.296  1.00  0.00    -0.273 N 
ATOM      5  H5  UNL     1      17.539  30.115  27.852  1.00  0.00     0.188 HD
HETATM    6  C3  UNL     1      17.023  28.186  27.449  1.00  0.00     0.179 A 
HETATM    7  C4  UNL     1      16.181  27.417  26.679  1.00  0.00     0.151 A 
HETATM    8  N7  UNL     1      15.335  28.010  25.844  1.00  0.00    -0.197 N 
ATOM      9  H7  UNL     1      14.715  27.432  25.277  1.00  0.00     0.183 HD
ENDROOT
BRANCH   1  10
HETATM   10  N3  UNL     1      14.414  29.869  24.879  1.00  0.00    -0.162 N 
HETATM   11  C1  UNL     1      14.070  29.088  23.745  1.00  0.00     0.200 C 
HETATM   12  N1  UNL     1      14.958  28.775  22.894  1.00  0.00    -0.373 N 
HETATM   13  N2  UNL     1      12.720  28.688  23.613  1.00  0.00    -0.063 NA
ATOM     14  H12 UNL     1      14.711  28.214  22.079  1.00  0.00     0.158 HD
ATOM     15  H11 UNL     1      15.932  29.064  22.989  1.00  0.00     0.158 HD
ATOM     16  H3  UNL     1      14.020  30.797  25.033  1.00  0.00     0.187 HD
ENDBRANCH   1  10
BRANCH   6  17
HETATM   17  S1  UNL     1      18.140  27.418  28.549  1.00  0.00     0.275 S 
HETATM   18  O1  UNL     1      19.425  27.195  27.772  1.00  0.00    -0.199 OA
HETATM   19  O2  UNL     1      17.582  26.080  28.924  1.00  0.00    -0.199 OA
BRANCH  17  20
HETATM   20  N6  UNL     1      18.452  28.438  29.838  1.00  0.00    -0.323 N 
ATOM     21  H62 UNL     1      19.259  28.354  30.455  1.00  0.00     0.169 HD
ATOM     22  H61 UNL     1      17.718  29.143  29.903  1.00  0.00     0.169 HD
ENDBRANCH  17  20
ENDBRANCH   6  17
TORSDOF 3
ENDMDL
