MODEL 1
REMARK VINA RESULT: -8.332261746      0.000      0.000
REMARK  8 active torsions:
REMARK  status: ('A' for Active; 'I' for Inactive)
REMARK    1  A    between atoms: N1_1  and  C1_4 
REMARK    2  A    between atoms: C2_7  and  C3_8 
REMARK    3  A    between atoms: C5_14  and  N5_15 
REMARK    4  A    between atoms: N5_15  and  C6_17 
REMARK    5  A    between atoms: C6_17  and  C7_18 
REMARK    6  A    between atoms: C7_18  and  N6_19 
REMARK    7  A    between atoms: C8_25  and  N8_26 
REMARK    8  A    between atoms: N8_26  and  C9_28 
ROOT
HETATM    1  C3  UNL     1      16.314  29.225  25.458  1.00  0.00     0.172 A 
HETATM    2  N3  UNL     1      16.076  30.349  26.143  1.00  0.00    -0.280 N 
ATOM      3  H3  UNL     1      15.636  31.189  25.768  1.00  0.00     0.188 HD
HETATM    4  N4  UNL     1      16.502  30.195  27.376  1.00  0.00    -0.279 N 
ATOM      5  H4  UNL     1      16.441  30.906  28.104  1.00  0.00     0.189 HD
HETATM    6  C4  UNL     1      17.028  28.976  27.542  1.00  0.00     0.189 A 
HETATM    7  C5  UNL     1      17.594  28.344  28.618  1.00  0.00     0.164 A 
HETATM    8  N7  UNL     1      18.030  27.087  28.431  1.00  0.00    -0.172 N 
ATOM      9  H7  UNL     1      18.457  26.585  29.209  1.00  0.00     0.186 HD
HETATM   10  C8  UNL     1      17.914  26.475  27.231  1.00  0.00     0.695 A 
HETATM   11  N9  UNL     1      17.352  27.142  26.214  1.00  0.00    -0.122 N 
ATOM     12  H9  UNL     1      17.269  26.673  25.312  1.00  0.00     0.206 HD
HETATM   13  N10 UNL     1      16.901  28.381  26.324  1.00  0.00    -0.201 N 
ENDROOT
BRANCH   1  14
HETATM   14  C2  UNL     1      15.984  29.014  24.062  1.00  0.00     0.097 A 
HETATM   15  N2  UNL     1      14.769  28.970  23.545  1.00  0.00    -0.188 N 
HETATM   16  C1  UNL     1      14.469  28.775  22.252  1.00  0.00     0.676 A 
ATOM     17  H2  UNL     1      13.987  29.096  24.189  1.00  0.00     0.184 HD
HETATM   18  N11 UNL     1      15.492  28.607  21.395  1.00  0.00    -0.202 N 
HETATM   19  C15 UNL     1      16.780  28.632  21.802  1.00  0.00     0.108 A 
ATOM     20  H11 UNL     1      15.289  28.456  20.407  1.00  0.00     0.183 HD
HETATM   21  C14 UNL     1      17.021  28.836  23.144  1.00  0.00     0.052 A 
BRANCH  16  22
HETATM   22  N1  UNL     1      13.222  28.748  21.843  1.00  0.00    -0.234 N 
ATOM     23  H12 UNL     1      12.599  29.543  21.982  1.00  0.00     0.174 HD
ATOM     24  H11 UNL     1      12.841  27.928  21.371  1.00  0.00     0.174 HD
ENDBRANCH  16  22
ENDBRANCH   1  14
BRANCH   7  25
HETATM   25  N5  UNL     1      17.700  28.917  29.733  1.00  0.00    -0.371 N 
ATOM     26  H5  UNL     1      17.165  29.778  29.849  1.00  0.00     0.161 HD
BRANCH  25  27
HETATM   27  C6  UNL     1      18.477  28.508  30.854  1.00  0.00     0.148 C 
BRANCH  27  28
HETATM   28  C7  UNL     1      17.591  27.938  31.943  1.00  0.00     0.249 C 
BRANCH  28  29
HETATM   29  N6  UNL     1      16.231  28.346  31.740  1.00  0.00    -0.078 N 
ATOM     30  H63 UNL     1      15.570  27.626  32.030  1.00  0.00     0.274 HD
ATOM     31  H62 UNL     1      15.952  29.079  32.392  1.00  0.00     0.274 HD
ATOM     32  H61 UNL     1      16.088  28.626  30.770  1.00  0.00     0.274 HD
ENDBRANCH  28  29
ENDBRANCH  27  28
ENDBRANCH  25  27
ENDBRANCH   7  25
BRANCH  10  33
HETATM   33  N8  UNL     1      18.326  25.304  27.074  1.00  0.00    -0.220 N 
ATOM     34  H8  UNL     1      17.593  24.607  26.940  1.00  0.00     0.178 HD
BRANCH  33  35
HETATM   35  C9  UNL     1      19.639  24.796  27.052  1.00  0.00     0.099 C 
HETATM   36  C10 UNL     1      20.160  24.303  28.370  1.00  0.00     0.026 C 
HETATM   37  C11 UNL     1      21.655  24.215  28.073  1.00  0.00     0.002 C 
HETATM   38  C12 UNL     1      21.918  25.367  27.126  1.00  0.00     0.002 C 
HETATM   39  C13 UNL     1      20.594  25.962  26.767  1.00  0.00     0.026 C 
ENDBRANCH  33  35
ENDBRANCH  10  33
TORSDOF 8
ENDMDL
MODEL 2
REMARK VINA RESULT: -8.128324925      0.640      1.224
REMARK  8 active torsions:
REMARK  status: ('A' for Active; 'I' for Inactive)
REMARK    1  A    between atoms: N1_1  and  C1_4 
REMARK    2  A    between atoms: C2_7  and  C3_8 
REMARK    3  A    between atoms: C5_14  and  N5_15 
REMARK    4  A    between atoms: N5_15  and  C6_17 
REMARK    5  A    between atoms: C6_17  and  C7_18 
REMARK    6  A    between atoms: C7_18  and  N6_19 
REMARK    7  A    between atoms: C8_25  and  N8_26 
REMARK    8  A    between atoms: N8_26  and  C9_28 
ROOT
HETATM    1  C3  UNL     1      16.137  29.339  25.545  1.00  0.00     0.172 A 
HETATM    2  N3  UNL     1      15.938  30.455  26.254  1.00  0.00    -0.280 N 
ATOM      3  H3  UNL     1      15.475  31.298  25.914  1.00  0.00     0.188 HD
HETATM    4  N4  UNL     1      16.434  30.288  27.458  1.00  0.00    -0.279 N 
ATOM      5  H4  UNL     1      16.414  30.991  28.197  1.00  0.00     0.189 HD
HETATM    6  C4  UNL     1      16.970  29.069  27.581  1.00  0.00     0.189 A 
HETATM    7  C5  UNL     1      17.598  28.426  28.616  1.00  0.00     0.164 A 
HETATM    8  N7  UNL     1      18.025  27.172  28.390  1.00  0.00    -0.172 N 
ATOM      9  H7  UNL     1      18.497  26.662  29.137  1.00  0.00     0.186 HD
HETATM   10  C8  UNL     1      17.841  26.573  27.192  1.00  0.00     0.695 A 
HETATM   11  N9  UNL     1      17.220  27.250  26.216  1.00  0.00    -0.122 N 
ATOM     12  H9  UNL     1      17.086  26.790  25.315  1.00  0.00     0.206 HD
HETATM   13  N10 UNL     1      16.774  28.487  26.366  1.00  0.00    -0.201 N 
ENDROOT
BRANCH   1  14
HETATM   14  C2  UNL     1      15.728  29.142  24.167  1.00  0.00     0.097 A 
HETATM   15  N2  UNL     1      16.515  29.173  23.107  1.00  0.00    -0.188 N 
HETATM   16  C1  UNL     1      16.131  28.989  21.834  1.00  0.00     0.676 A 
ATOM     17  H2  UNL     1      17.506  29.352  23.272  1.00  0.00     0.184 HD
HETATM   18  N11 UNL     1      14.827  28.753  21.607  1.00  0.00    -0.202 N 
HETATM   19  C15 UNL     1      13.923  28.696  22.608  1.00  0.00     0.108 A 
ATOM     20  H11 UNL     1      14.512  28.611  20.647  1.00  0.00     0.183 HD
HETATM   21  C14 UNL     1      14.381  28.894  23.894  1.00  0.00     0.052 A 
BRANCH  16  22
HETATM   22  N1  UNL     1      17.000  29.042  20.852  1.00  0.00    -0.234 N 
ATOM     23  H12 UNL     1      16.768  28.704  19.918  1.00  0.00     0.174 HD
ATOM     24  H11 UNL     1      17.934  29.424  20.995  1.00  0.00     0.174 HD
ENDBRANCH  16  22
ENDBRANCH   1  14
BRANCH   7  25
HETATM   25  N5  UNL     1      17.767  28.987  29.729  1.00  0.00    -0.371 N 
ATOM     26  H5  UNL     1      17.254  29.856  29.877  1.00  0.00     0.161 HD
BRANCH  25  27
HETATM   27  C6  UNL     1      18.590  28.554  30.808  1.00  0.00     0.148 C 
BRANCH  27  28
HETATM   28  C7  UNL     1      17.753  27.911  31.896  1.00  0.00     0.249 C 
BRANCH  28  29
HETATM   29  N6  UNL     1      16.396  28.364  31.811  1.00  0.00    -0.078 N 
ATOM     30  H63 UNL     1      16.261  29.254  32.291  1.00  0.00     0.274 HD
ATOM     31  H62 UNL     1      16.153  28.664  30.866  1.00  0.00     0.274 HD
ATOM     32  H61 UNL     1      15.761  27.645  32.157  1.00  0.00     0.274 HD
ENDBRANCH  28  29
ENDBRANCH  27  28
ENDBRANCH  25  27
ENDBRANCH   7  25
BRANCH  10  33
HETATM   33  N8  UNL     1      18.244  25.405  26.998  1.00  0.00    -0.220 N 
ATOM     34  H8  UNL     1      17.508  24.720  26.829  1.00  0.00     0.178 HD
BRANCH  33  35
HETATM   35  C9  UNL     1      19.553  24.885  26.976  1.00  0.00     0.099 C 
HETATM   36  C10 UNL     1      20.051  24.339  28.282  1.00  0.00     0.026 C 
HETATM   37  C11 UNL     1      21.549  24.249  28.003  1.00  0.00     0.002 C 
HETATM   38  C12 UNL     1      21.836  25.432  27.104  1.00  0.00     0.002 C 
HETATM   39  C13 UNL     1      20.522  26.052  26.748  1.00  0.00     0.026 C 
ENDBRANCH  33  35
ENDBRANCH  10  33
TORSDOF 8
ENDMDL
MODEL 3
REMARK VINA RESULT: -7.965779263      0.725      1.187
REMARK  8 active torsions:
REMARK  status: ('A' for Active; 'I' for Inactive)
REMARK    1  A    between atoms: N1_1  and  C1_4 
REMARK    2  A    between atoms: C2_7  and  C3_8 
REMARK    3  A    between atoms: C5_14  and  N5_15 
REMARK    4  A    between atoms: N5_15  and  C6_17 
REMARK    5  A    between atoms: C6_17  and  C7_18 
REMARK    6  A    between atoms: C7_18  and  N6_19 
REMARK    7  A    between atoms: C8_25  and  N8_26 
REMARK    8  A    between atoms: N8_26  and  C9_28 
ROOT
HETATM    1  C3  UNL     1      16.326  29.263  25.457  1.00  0.00     0.172 A 
HETATM    2  N3  UNL     1      16.144  30.416  26.110  1.00  0.00    -0.280 N 
ATOM      3  H3  UNL     1      15.748  31.267  25.711  1.00  0.00     0.188 HD
HETATM    4  N4  UNL     1      16.558  30.274  27.348  1.00  0.00    -0.279 N 
ATOM      5  H4  UNL     1      16.531  31.007  28.057  1.00  0.00     0.189 HD
HETATM    6  C4  UNL     1      17.020  29.035  27.550  1.00  0.00     0.189 A 
HETATM    7  C5  UNL     1      17.549  28.404  28.645  1.00  0.00     0.164 A 
HETATM    8  N7  UNL     1      17.921  27.121  28.494  1.00  0.00    -0.172 N 
ATOM      9  H7  UNL     1      18.320  26.619  29.287  1.00  0.00     0.186 HD
HETATM   10  C8  UNL     1      17.777  26.484  27.311  1.00  0.00     0.695 A 
HETATM   11  N9  UNL     1      17.253  27.151  26.273  1.00  0.00    -0.122 N 
ATOM     12  H9  UNL     1      17.149  26.662  25.383  1.00  0.00     0.206 HD
HETATM   13  N10 UNL     1      16.866  28.414  26.348  1.00  0.00    -0.201 N 
ENDROOT
BRANCH   1  14
HETATM   14  C2  UNL     1      15.989  29.031  24.065  1.00  0.00     0.097 A 
HETATM   15  N2  UNL     1      14.773  28.987  23.554  1.00  0.00    -0.188 N 
HETATM   16  C1  UNL     1      14.467  28.772  22.264  1.00  0.00     0.676 A 
ATOM     17  H2  UNL     1      13.994  29.128  24.198  1.00  0.00     0.184 HD
HETATM   18  N11 UNL     1      15.486  28.584  21.407  1.00  0.00    -0.202 N 
HETATM   19  C15 UNL     1      16.775  28.608  21.809  1.00  0.00     0.108 A 
ATOM     20  H11 UNL     1      15.278  28.419  20.423  1.00  0.00     0.183 HD
HETATM   21  C14 UNL     1      17.023  28.832  23.147  1.00  0.00     0.052 A 
BRANCH  16  22
HETATM   22  N1  UNL     1      13.219  28.747  21.860  1.00  0.00    -0.234 N 
ATOM     23  H12 UNL     1      12.453  28.560  22.508  1.00  0.00     0.174 HD
ATOM     24  H11 UNL     1      12.979  28.915  20.883  1.00  0.00     0.174 HD
ENDBRANCH  16  22
ENDBRANCH   1  14
BRANCH   7  25
HETATM   25  N5  UNL     1      17.681  29.000  29.745  1.00  0.00    -0.371 N 
ATOM     26  H5  UNL     1      17.172  29.878  29.844  1.00  0.00     0.161 HD
BRANCH  25  27
HETATM   27  C6  UNL     1      18.457  28.597  30.869  1.00  0.00     0.148 C 
BRANCH  27  28
HETATM   28  C7  UNL     1      17.578  27.961  31.927  1.00  0.00     0.249 C 
BRANCH  28  29
HETATM   29  N6  UNL     1      16.216  28.372  31.752  1.00  0.00    -0.078 N 
ATOM     30  H63 UNL     1      16.023  29.259  32.217  1.00  0.00     0.274 HD
ATOM     31  H62 UNL     1      16.024  28.658  30.792  1.00  0.00     0.274 HD
ATOM     32  H61 UNL     1      15.583  27.635  32.063  1.00  0.00     0.274 HD
ENDBRANCH  28  29
ENDBRANCH  27  28
ENDBRANCH  25  27
ENDBRANCH   7  25
BRANCH  10  33
HETATM   33  N8  UNL     1      18.129  25.290  27.187  1.00  0.00    -0.220 N 
ATOM     34  H8  UNL     1      17.863  24.855  26.303  1.00  0.00     0.178 HD
BRANCH  33  35
HETATM   35  C9  UNL     1      18.833  24.450  28.072  1.00  0.00     0.099 C 
HETATM   36  C10 UNL     1      20.319  24.405  27.868  1.00  0.00     0.026 C 
HETATM   37  C11 UNL     1      20.681  23.162  28.678  1.00  0.00     0.002 C 
HETATM   38  C12 UNL     1      19.498  22.235  28.494  1.00  0.00     0.002 C 
HETATM   39  C13 UNL     1      18.442  23.000  27.762  1.00  0.00     0.026 C 
ENDBRANCH  33  35
ENDBRANCH  10  33
TORSDOF 8
ENDMDL
MODEL 4
REMARK VINA RESULT: -7.796979482      0.980      1.724
REMARK  8 active torsions:
REMARK  status: ('A' for Active; 'I' for Inactive)
REMARK    1  A    between atoms: N1_1  and  C1_4 
REMARK    2  A    between atoms: C2_7  and  C3_8 
REMARK    3  A    between atoms: C5_14  and  N5_15 
REMARK    4  A    between atoms: N5_15  and  C6_17 
REMARK    5  A    between atoms: C6_17  and  C7_18 
REMARK    6  A    between atoms: C7_18  and  N6_19 
REMARK    7  A    between atoms: C8_25  and  N8_26 
REMARK    8  A    between atoms: N8_26  and  C9_28 
ROOT
HETATM    1  C3  UNL     1      16.146  29.350  25.604  1.00  0.00     0.172 A 
HETATM    2  N3  UNL     1      16.008  30.491  26.288  1.00  0.00    -0.280 N 
ATOM      3  H3  UNL     1      15.587  31.349  25.932  1.00  0.00     0.188 HD
HETATM    4  N4  UNL     1      16.502  30.326  27.494  1.00  0.00    -0.279 N 
ATOM      5  H4  UNL     1      16.521  31.046  28.217  1.00  0.00     0.189 HD
HETATM    6  C4  UNL     1      16.974  29.084  27.642  1.00  0.00     0.189 A 
HETATM    7  C5  UNL     1      17.574  28.433  28.689  1.00  0.00     0.164 A 
HETATM    8  N7  UNL     1      17.934  27.154  28.490  1.00  0.00    -0.172 N 
ATOM      9  H7  UNL     1      18.384  26.637  29.246  1.00  0.00     0.186 HD
HETATM   10  C8  UNL     1      17.713  26.538  27.307  1.00  0.00     0.695 A 
HETATM   11  N9  UNL     1      17.123  27.224  26.318  1.00  0.00    -0.122 N 
ATOM     12  H9  UNL     1      16.961  26.752  25.429  1.00  0.00     0.206 HD
HETATM   13  N10 UNL     1      16.742  28.485  26.442  1.00  0.00    -0.201 N 
ENDROOT
BRANCH   1  14
HETATM   14  C2  UNL     1      15.719  29.144  24.233  1.00  0.00     0.097 A 
HETATM   15  N2  UNL     1      16.496  29.152  23.165  1.00  0.00    -0.188 N 
HETATM   16  C1  UNL     1      16.097  28.960  21.898  1.00  0.00     0.676 A 
ATOM     17  H2  UNL     1      17.491  29.320  23.317  1.00  0.00     0.184 HD
HETATM   18  N11 UNL     1      14.787  28.738  21.687  1.00  0.00    -0.202 N 
HETATM   19  C15 UNL     1      13.892  28.705  22.697  1.00  0.00     0.108 A 
ATOM     20  H11 UNL     1      14.460  28.590  20.732  1.00  0.00     0.183 HD
HETATM   21  C14 UNL     1      14.366  28.910  23.976  1.00  0.00     0.052 A 
BRANCH  16  22
HETATM   22  N1  UNL     1      16.955  28.989  20.906  1.00  0.00    -0.234 N 
ATOM     23  H12 UNL     1      16.763  29.510  20.051  1.00  0.00     0.174 HD
ATOM     24  H11 UNL     1      17.843  28.491  20.964  1.00  0.00     0.174 HD
ENDBRANCH  16  22
ENDBRANCH   1  14
BRANCH   7  25
HETATM   25  N5  UNL     1      17.778  29.010  29.789  1.00  0.00    -0.371 N 
ATOM     26  H5  UNL     1      17.322  29.913  29.913  1.00  0.00     0.161 HD
BRANCH  25  27
HETATM   27  C6  UNL     1      18.569  28.552  30.881  1.00  0.00     0.148 C 
BRANCH  27  28
HETATM   28  C7  UNL     1      17.694  27.956  31.964  1.00  0.00     0.249 C 
BRANCH  28  29
HETATM   29  N6  UNL     1      16.333  28.369  31.785  1.00  0.00    -0.078 N 
ATOM     30  H63 UNL     1      15.680  27.749  32.265  1.00  0.00     0.274 HD
ATOM     31  H62 UNL     1      16.125  29.229  32.294  1.00  0.00     0.274 HD
ATOM     32  H61 UNL     1      16.117  28.453  30.792  1.00  0.00     0.274 HD
ENDBRANCH  28  29
ENDBRANCH  27  28
ENDBRANCH  25  27
ENDBRANCH   7  25
BRANCH  10  33
HETATM   33  N8  UNL     1      18.055  25.347  27.139  1.00  0.00    -0.220 N 
ATOM     34  H8  UNL     1      17.831  24.963  26.221  1.00  0.00     0.178 HD
BRANCH  33  35
HETATM   35  C9  UNL     1      18.701  24.452  28.014  1.00  0.00     0.099 C 
HETATM   36  C10 UNL     1      20.192  24.369  27.864  1.00  0.00     0.026 C 
HETATM   37  C11 UNL     1      20.486  23.084  28.634  1.00  0.00     0.002 C 
HETATM   38  C12 UNL     1      19.285  22.202  28.367  1.00  0.00     0.002 C 
HETATM   39  C13 UNL     1      18.280  23.028  27.629  1.00  0.00     0.026 C 
ENDBRANCH  33  35
ENDBRANCH  10  33
TORSDOF 8
ENDMDL
MODEL 5
REMARK VINA RESULT: -7.776515114      1.472      1.940
REMARK  8 active torsions:
REMARK  status: ('A' for Active; 'I' for Inactive)
REMARK    1  A    between atoms: N1_1  and  C1_4 
REMARK    2  A    between atoms: C2_7  and  C3_8 
REMARK    3  A    between atoms: C5_14  and  N5_15 
REMARK    4  A    between atoms: N5_15  and  C6_17 
REMARK    5  A    between atoms: C6_17  and  C7_18 
REMARK    6  A    between atoms: C7_18  and  N6_19 
REMARK    7  A    between atoms: C8_25  and  N8_26 
REMARK    8  A    between atoms: N8_26  and  C9_28 
ROOT
HETATM    1  C3  UNL     1      16.226  27.743  26.433  1.00  0.00     0.172 A 
HETATM    2  N3  UNL     1      15.324  27.896  27.409  1.00  0.00    -0.280 N 
ATOM      3  H3  UNL     1      14.370  28.234  27.287  1.00  0.00     0.188 HD
HETATM    4  N4  UNL     1      15.868  27.539  28.551  1.00  0.00    -0.279 N 
ATOM      5  H4  UNL     1      15.392  27.562  29.453  1.00  0.00     0.189 HD
HETATM    6  C4  UNL     1      17.132  27.142  28.365  1.00  0.00     0.189 A 
HETATM    7  C5  UNL     1      18.100  26.686  29.220  1.00  0.00     0.164 A 
HETATM    8  N7  UNL     1      19.291  26.368  28.684  1.00  0.00    -0.172 N 
ATOM      9  H7  UNL     1      20.037  26.025  29.290  1.00  0.00     0.186 HD
HETATM   10  C8  UNL     1      19.520  26.494  27.358  1.00  0.00     0.695 A 
HETATM   11  N9  UNL     1      18.535  26.946  26.569  1.00  0.00    -0.122 N 
ATOM     12  H9  UNL     1      18.717  27.038  25.570  1.00  0.00     0.206 HD
HETATM   13  N10 UNL     1      17.339  27.278  27.027  1.00  0.00    -0.201 N 
ENDROOT
BRANCH   1  14
HETATM   14  C2  UNL     1      15.995  28.036  25.032  1.00  0.00     0.097 A 
HETATM   15  N2  UNL     1      14.818  28.159  24.444  1.00  0.00    -0.188 N 
HETATM   16  C1  UNL     1      14.610  28.431  23.146  1.00  0.00     0.676 A 
ATOM     17  H2  UNL     1      13.992  28.036  25.031  1.00  0.00     0.184 HD
HETATM   18  N11 UNL     1      15.692  28.594  22.365  1.00  0.00    -0.202 N 
HETATM   19  C15 UNL     1      16.949  28.494  22.848  1.00  0.00     0.108 A 
ATOM     20  H11 UNL     1      15.558  28.801  21.375  1.00  0.00     0.183 HD
HETATM   21  C14 UNL     1      17.095  28.212  24.190  1.00  0.00     0.052 A 
BRANCH  16  22
HETATM   22  N1  UNL     1      13.394  28.531  22.663  1.00  0.00    -0.234 N 
ATOM     23  H12 UNL     1      13.167  28.209  21.723  1.00  0.00     0.174 HD
ATOM     24  H11 UNL     1      12.639  28.935  23.218  1.00  0.00     0.174 HD
ENDBRANCH  16  22
ENDBRANCH   1  14
BRANCH   7  25
HETATM   25  N5  UNL     1      17.884  26.570  30.454  1.00  0.00    -0.371 N 
ATOM     26  H5  UNL     1      17.445  25.699  30.753  1.00  0.00     0.161 HD
BRANCH  25  27
HETATM   27  C6  UNL     1      18.178  27.508  31.485  1.00  0.00     0.148 C 
BRANCH  27  28
HETATM   28  C7  UNL     1      17.037  27.591  32.477  1.00  0.00     0.249 C 
BRANCH  28  29
HETATM   29  N6  UNL     1      15.905  28.234  31.878  1.00  0.00    -0.078 N 
ATOM     30  H63 UNL     1      16.046  29.239  31.778  1.00  0.00     0.274 HD
ATOM     31  H62 UNL     1      15.809  27.996  30.890  1.00  0.00     0.274 HD
ATOM     32  H61 UNL     1      15.057  28.020  32.404  1.00  0.00     0.274 HD
ENDBRANCH  28  29
ENDBRANCH  27  28
ENDBRANCH  25  27
ENDBRANCH   7  25
BRANCH  10  33
HETATM   33  N8  UNL     1      20.634  26.194  26.875  1.00  0.00    -0.220 N 
ATOM     34  H8  UNL     1      20.650  26.101  25.860  1.00  0.00     0.178 HD
BRANCH  33  35
HETATM   35  C9  UNL     1      21.871  25.964  27.510  1.00  0.00     0.099 C 
HETATM   36  C10 UNL     1      23.077  26.060  26.623  1.00  0.00     0.026 C 
HETATM   37  C11 UNL     1      24.132  25.389  27.499  1.00  0.00     0.002 C 
HETATM   38  C12 UNL     1      23.373  24.310  28.241  1.00  0.00     0.002 C 
HETATM   39  C13 UNL     1      21.921  24.489  27.929  1.00  0.00     0.026 C 
ENDBRANCH  33  35
ENDBRANCH  10  33
TORSDOF 8
ENDMDL
