MODEL 1
REMARK VINA RESULT: -7.793387406      0.000      0.000
REMARK  6 active torsions:
REMARK  status: ('A' for Active; 'I' for Inactive)
REMARK    1  A    between atoms: C4_7  and  S1_8 
REMARK    2  A    between atoms: S1_8  and  C5_9 
REMARK    3  A    between atoms: C5_9  and  C6_10 
REMARK    4  A    between atoms: C6_10  and  N3_11 
REMARK    5  A    between atoms: N3_11  and  C7_13 
REMARK    6  A    between atoms: C13_31  and  N9_32 
ROOT
HETATM    1  N1  UNL     1      23.076  26.352  26.367  1.00  0.00    -0.191 NA
HETATM    2  C1  UNL     1      22.047  26.033  26.805  1.00  0.00     0.104 C 
HETATM    3  C2  UNL     1      20.762  25.655  27.340  1.00  0.00     0.103 A 
HETATM    4  C3  UNL     1      19.875  24.888  26.594  1.00  0.00     0.116 A 
HETATM    5  N2  UNL     1      18.668  24.533  27.099  1.00  0.00    -0.345 N 
ATOM      6  H2  UNL     1      18.037  23.969  26.529  1.00  0.00     0.167 HD
HETATM    7  C4  UNL     1      18.281  24.905  28.326  1.00  0.00     0.145 A 
HETATM    8  N8  UNL     1      19.128  25.647  29.058  1.00  0.00    -0.322 N 
ATOM      9  H8  UNL     1      18.846  25.937  29.994  1.00  0.00     0.169 HD
HETATM   10  C13 UNL     1      20.339  26.023  28.598  1.00  0.00     0.123 A 
ENDROOT
BRANCH  10  11
HETATM   11  N9  UNL     1      21.150  26.743  29.318  1.00  0.00    -0.384 N 
ATOM     12  H92 UNL     1      21.093  27.762  29.334  1.00  0.00     0.157 HD
ATOM     13  H91 UNL     1      21.853  26.251  29.870  1.00  0.00     0.157 HD
ENDBRANCH  10  11
BRANCH   7  14
HETATM   14  S1  UNL     1      16.714  24.453  29.034  1.00  0.00    -0.092 SA
BRANCH  14  15
HETATM   15  C5  UNL     1      15.317  25.337  28.377  1.00  0.00     0.102 C 
BRANCH  15  16
HETATM   16  C6  UNL     1      15.268  26.805  28.715  1.00  0.00     0.132 C 
BRANCH  16  17
HETATM   17  N3  UNL     1      15.112  27.539  27.491  1.00  0.00    -0.374 N 
ATOM     18  H3  UNL     1      14.171  27.878  27.289  1.00  0.00     0.161 HD
BRANCH  17  19
HETATM   19  C7  UNL     1      16.003  27.819  26.629  1.00  0.00     0.132 A 
HETATM   20  N4  UNL     1      17.323  27.851  26.850  1.00  0.00    -0.337 N 
HETATM   21  C8  UNL     1      18.224  28.158  25.904  1.00  0.00     0.182 A 
ATOM     22  H4  UNL     1      17.662  27.630  27.787  1.00  0.00     0.168 HD
HETATM   23  N5  UNL     1      17.826  28.454  24.668  1.00  0.00    -0.346 N 
HETATM   24  C9  UNL     1      16.525  28.449  24.345  1.00  0.00     0.133 A 
ATOM     25  H5  UNL     1      18.519  28.686  23.958  1.00  0.00     0.167 HD
HETATM   26  C10 UNL     1      16.116  28.755  23.062  1.00  0.00     0.278 A 
HETATM   27  C12 UNL     1      15.613  28.134  25.320  1.00  0.00     0.113 A 
HETATM   28  O1  UNL     1      16.952  29.043  22.174  1.00  0.00    -0.265 OA
HETATM   29  N6  UNL     1      14.788  28.723  22.840  1.00  0.00    -0.274 N 
HETATM   30  C11 UNL     1      13.898  28.414  23.797  1.00  0.00     0.327 A 
ATOM     31  H6  UNL     1      14.444  28.943  21.905  1.00  0.00     0.173 HD
HETATM   32  O2  UNL     1      12.667  28.391  23.566  1.00  0.00    -0.247 OA
HETATM   33  N7  UNL     1      14.301  28.116  25.044  1.00  0.00    -0.303 N 
ATOM     34  H7  UNL     1      13.621  27.882  25.767  1.00  0.00     0.171 HD
ENDBRANCH  17  19
ENDBRANCH  16  17
ENDBRANCH  15  16
ENDBRANCH  14  15
ENDBRANCH   7  14
TORSDOF 6
ENDMDL
MODEL 2
REMARK VINA RESULT: -7.748416464      3.240      7.217
REMARK  6 active torsions:
REMARK  status: ('A' for Active; 'I' for Inactive)
REMARK    1  A    between atoms: C4_7  and  S1_8 
REMARK    2  A    between atoms: S1_8  and  C5_9 
REMARK    3  A    between atoms: C5_9  and  C6_10 
REMARK    4  A    between atoms: C6_10  and  N3_11 
REMARK    5  A    between atoms: N3_11  and  C7_13 
REMARK    6  A    between atoms: C13_31  and  N9_32 
ROOT
HETATM    1  N1  UNL     1      16.805  28.998  20.830  1.00  0.00    -0.191 NA
HETATM    2  C1  UNL     1      16.572  28.699  21.929  1.00  0.00     0.104 C 
HETATM    3  C2  UNL     1      16.282  28.308  23.287  1.00  0.00     0.103 A 
HETATM    4  C3  UNL     1      17.300  27.925  24.153  1.00  0.00     0.116 A 
HETATM    5  N2  UNL     1      17.025  27.558  25.429  1.00  0.00    -0.345 N 
ATOM      6  H2  UNL     1      17.792  27.282  26.042  1.00  0.00     0.167 HD
HETATM    7  C4  UNL     1      15.773  27.548  25.904  1.00  0.00     0.145 A 
HETATM    8  N8  UNL     1      14.780  27.916  25.078  1.00  0.00    -0.322 N 
ATOM      9  H8  UNL     1      13.822  27.913  25.428  1.00  0.00     0.169 HD
HETATM   10  C13 UNL     1      15.005  28.289  23.802  1.00  0.00     0.123 A 
ENDROOT
BRANCH  10  11
HETATM   11  N9  UNL     1      14.033  28.642  23.011  1.00  0.00    -0.384 N 
ATOM     12  H92 UNL     1      13.139  28.152  23.008  1.00  0.00     0.157 HD
ATOM     13  H91 UNL     1      14.197  29.434  22.388  1.00  0.00     0.157 HD
ENDBRANCH  10  11
BRANCH   7  14
HETATM   14  S1  UNL     1      15.366  27.087  27.572  1.00  0.00    -0.092 SA
BRANCH  14  15
HETATM   15  C5  UNL     1      16.525  25.978  28.342  1.00  0.00     0.102 C 
BRANCH  15  16
HETATM   16  C6  UNL     1      16.544  24.578  27.785  1.00  0.00     0.132 C 
BRANCH  16  17
HETATM   17  N3  UNL     1      17.890  24.272  27.393  1.00  0.00    -0.374 N 
ATOM     18  H3  UNL     1      18.173  24.598  26.469  1.00  0.00     0.161 HD
BRANCH  17  19
HETATM   19  C7  UNL     1      18.773  23.645  28.058  1.00  0.00     0.132 A 
HETATM   20  N4  UNL     1      18.550  22.603  28.869  1.00  0.00    -0.337 N 
HETATM   21  C8  UNL     1      19.520  21.977  29.554  1.00  0.00     0.182 A 
ATOM     22  H4  UNL     1      17.592  22.266  28.971  1.00  0.00     0.168 HD
HETATM   23  N5  UNL     1      20.784  22.383  29.450  1.00  0.00    -0.346 N 
HETATM   24  C9  UNL     1      21.112  23.417  28.664  1.00  0.00     0.133 A 
ATOM     25  H5  UNL     1      21.512  21.900  29.976  1.00  0.00     0.167 HD
HETATM   26  C10 UNL     1      22.424  23.834  28.558  1.00  0.00     0.278 A 
HETATM   27  C12 UNL     1      20.113  24.049  27.969  1.00  0.00     0.113 A 
HETATM   28  O1  UNL     1      23.335  23.255  29.195  1.00  0.00    -0.265 OA
HETATM   29  N6  UNL     1      22.649  24.883  27.743  1.00  0.00    -0.274 N 
HETATM   30  C11 UNL     1      21.668  25.499  27.064  1.00  0.00     0.327 A 
ATOM     31  H6  UNL     1      23.605  25.223  27.637  1.00  0.00     0.173 HD
HETATM   32  O2  UNL     1      21.902  26.473  26.312  1.00  0.00    -0.247 OA
HETATM   33  N7  UNL     1      20.392  25.090  27.169  1.00  0.00    -0.303 N 
ATOM     34  H7  UNL     1      19.651  25.561  26.651  1.00  0.00     0.171 HD
ENDBRANCH  17  19
ENDBRANCH  16  17
ENDBRANCH  15  16
ENDBRANCH  14  15
ENDBRANCH   7  14
TORSDOF 6
ENDMDL
MODEL 3
REMARK VINA RESULT: -7.709754349      1.130      1.352
REMARK  6 active torsions:
REMARK  status: ('A' for Active; 'I' for Inactive)
REMARK    1  A    between atoms: C4_7  and  S1_8 
REMARK    2  A    between atoms: S1_8  and  C5_9 
REMARK    3  A    between atoms: C5_9  and  C6_10 
REMARK    4  A    between atoms: C6_10  and  N3_11 
REMARK    5  A    between atoms: N3_11  and  C7_13 
REMARK    6  A    between atoms: C13_31  and  N9_32 
ROOT
HETATM    1  N1  UNL     1      23.853  24.481  28.218  1.00  0.00    -0.191 NA
HETATM    2  C1  UNL     1      22.693  24.509  28.157  1.00  0.00     0.104 C 
HETATM    3  C2  UNL     1      21.253  24.526  28.067  1.00  0.00     0.103 A 
HETATM    4  C3  UNL     1      20.474  23.757  28.924  1.00  0.00     0.116 A 
HETATM    5  N2  UNL     1      19.122  23.775  28.838  1.00  0.00    -0.345 N 
ATOM      6  H2  UNL     1      18.576  23.201  29.480  1.00  0.00     0.167 HD
HETATM    7  C4  UNL     1      18.483  24.529  27.933  1.00  0.00     0.145 A 
HETATM    8  N8  UNL     1      19.224  25.277  27.099  1.00  0.00    -0.322 N 
ATOM      9  H8  UNL     1      18.750  25.855  26.405  1.00  0.00     0.169 HD
HETATM   10  C13 UNL     1      20.571  25.291  27.146  1.00  0.00     0.123 A 
ENDROOT
BRANCH  10  11
HETATM   11  N9  UNL     1      21.277  26.021  26.332  1.00  0.00    -0.384 N 
ATOM     12  H92 UNL     1      21.939  26.718  26.673  1.00  0.00     0.157 HD
ATOM     13  H91 UNL     1      21.144  25.872  25.331  1.00  0.00     0.157 HD
ENDBRANCH  10  11
BRANCH   7  14
HETATM   14  S1  UNL     1      16.713  24.595  27.793  1.00  0.00    -0.092 SA
BRANCH  14  15
HETATM   15  C5  UNL     1      15.948  25.962  28.637  1.00  0.00     0.102 C 
BRANCH  15  16
HETATM   16  C6  UNL     1      14.764  26.571  27.931  1.00  0.00     0.132 C 
BRANCH  16  17
HETATM   17  N3  UNL     1      15.165  27.847  27.410  1.00  0.00    -0.374 N 
ATOM     18  H3  UNL     1      14.711  28.663  27.822  1.00  0.00     0.161 HD
BRANCH  17  19
HETATM   19  C7  UNL     1      16.018  28.085  26.498  1.00  0.00     0.132 A 
HETATM   20  N4  UNL     1      17.345  28.148  26.665  1.00  0.00    -0.337 N 
HETATM   21  C8  UNL     1      18.205  28.408  25.667  1.00  0.00     0.182 A 
ATOM     22  H4  UNL     1      17.724  27.988  27.599  1.00  0.00     0.168 HD
HETATM   23  N5  UNL     1      17.755  28.622  24.432  1.00  0.00    -0.346 N 
HETATM   24  C9  UNL     1      16.443  28.580  24.161  1.00  0.00     0.133 A 
ATOM     25  H5  UNL     1      18.417  28.819  23.682  1.00  0.00     0.167 HD
HETATM   26  C10 UNL     1      15.979  28.802  22.879  1.00  0.00     0.278 A 
HETATM   27  C12 UNL     1      15.574  28.314  25.188  1.00  0.00     0.113 A 
HETATM   28  O1  UNL     1      16.776  29.046  21.943  1.00  0.00    -0.265 OA
HETATM   29  N6  UNL     1      14.645  28.740  22.711  1.00  0.00    -0.274 N 
HETATM   30  C11 UNL     1      13.797  28.479  23.720  1.00  0.00     0.327 A 
ATOM     31  H6  UNL     1      14.261  28.898  21.780  1.00  0.00     0.173 HD
HETATM   32  O2  UNL     1      12.559  28.426  23.540  1.00  0.00    -0.247 OA
HETATM   33  N7  UNL     1      14.252  28.263  24.966  1.00  0.00    -0.303 N 
ATOM     34  H7  UNL     1      13.604  28.065  25.728  1.00  0.00     0.171 HD
ENDBRANCH  17  19
ENDBRANCH  16  17
ENDBRANCH  15  16
ENDBRANCH  14  15
ENDBRANCH   7  14
TORSDOF 6
ENDMDL
MODEL 4
REMARK VINA RESULT: -7.686805127      2.744      6.597
REMARK  6 active torsions:
REMARK  status: ('A' for Active; 'I' for Inactive)
REMARK    1  A    between atoms: C4_7  and  S1_8 
REMARK    2  A    between atoms: S1_8  and  C5_9 
REMARK    3  A    between atoms: C5_9  and  C6_10 
REMARK    4  A    between atoms: C6_10  and  N3_11 
REMARK    5  A    between atoms: N3_11  and  C7_13 
REMARK    6  A    between atoms: C13_31  and  N9_32 
ROOT
HETATM    1  N1  UNL     1      16.597  28.983  20.653  1.00  0.00    -0.191 NA
HETATM    2  C1  UNL     1      16.412  28.719  21.769  1.00  0.00     0.104 C 
HETATM    3  C2  UNL     1      16.181  28.369  23.150  1.00  0.00     0.103 A 
HETATM    4  C3  UNL     1      17.240  28.072  24.000  1.00  0.00     0.116 A 
HETATM    5  N2  UNL     1      17.021  27.745  25.296  1.00  0.00    -0.345 N 
ATOM      6  H2  UNL     1      17.818  27.532  25.896  1.00  0.00     0.167 HD
HETATM    7  C4  UNL     1      15.785  27.694  25.811  1.00  0.00     0.145 A 
HETATM    8  N8  UNL     1      14.752  27.979  25.001  1.00  0.00    -0.322 N 
ATOM      9  H8  UNL     1      13.806  27.944  25.380  1.00  0.00     0.169 HD
HETATM   10  C13 UNL     1      14.921  28.310  23.705  1.00  0.00     0.123 A 
ENDROOT
BRANCH  10  11
HETATM   11  N9  UNL     1      13.911  28.584  22.931  1.00  0.00    -0.384 N 
ATOM     12  H92 UNL     1      14.028  29.101  22.060  1.00  0.00     0.157 HD
ATOM     13  H91 UNL     1      12.989  28.261  23.228  1.00  0.00     0.157 HD
ENDBRANCH  10  11
BRANCH   7  14
HETATM   14  S1  UNL     1      15.451  27.283  27.507  1.00  0.00    -0.092 SA
BRANCH  14  15
HETATM   15  C5  UNL     1      15.078  25.568  27.799  1.00  0.00     0.102 C 
BRANCH  15  16
HETATM   16  C6  UNL     1      16.035  24.849  28.713  1.00  0.00     0.132 C 
BRANCH  16  17
HETATM   17  N3  UNL     1      16.902  24.040  27.904  1.00  0.00    -0.374 N 
ATOM     18  H3  UNL     1      16.534  23.762  26.993  1.00  0.00     0.161 HD
BRANCH  17  19
HETATM   19  C7  UNL     1      18.072  23.629  28.182  1.00  0.00     0.132 A 
HETATM   20  N4  UNL     1      18.371  22.485  28.810  1.00  0.00    -0.337 N 
HETATM   21  C8  UNL     1      19.627  22.098  29.085  1.00  0.00     0.182 A 
ATOM     22  H4  UNL     1      17.604  21.874  29.094  1.00  0.00     0.168 HD
HETATM   23  N5  UNL     1      20.658  22.864  28.732  1.00  0.00    -0.346 N 
HETATM   24  C9  UNL     1      20.464  24.028  28.098  1.00  0.00     0.133 A 
ATOM     25  H5  UNL     1      21.607  22.560  28.947  1.00  0.00     0.167 HD
HETATM   26  C10 UNL     1      21.536  24.820  27.733  1.00  0.00     0.278 A 
HETATM   27  C12 UNL     1      19.177  24.414  27.823  1.00  0.00     0.113 A 
HETATM   28  O1  UNL     1      22.710  24.465  27.988  1.00  0.00    -0.265 OA
HETATM   29  N6  UNL     1      21.235  25.971  27.102  1.00  0.00    -0.274 N 
HETATM   30  C11 UNL     1      19.973  26.345  26.834  1.00  0.00     0.327 A 
ATOM     31  H6  UNL     1      21.998  26.584  26.816  1.00  0.00     0.173 HD
HETATM   32  O2  UNL     1      19.718  27.421  26.245  1.00  0.00    -0.247 OA
HETATM   33  N7  UNL     1      18.933  25.572  27.190  1.00  0.00    -0.303 N 
ATOM     34  H7  UNL     1      17.977  25.860  26.984  1.00  0.00     0.171 HD
ENDBRANCH  17  19
ENDBRANCH  16  17
ENDBRANCH  15  16
ENDBRANCH  14  15
ENDBRANCH   7  14
TORSDOF 6
ENDMDL
MODEL 5
REMARK VINA RESULT: -7.473118678      3.718      7.276
REMARK  6 active torsions:
REMARK  status: ('A' for Active; 'I' for Inactive)
REMARK    1  A    between atoms: C4_7  and  S1_8 
REMARK    2  A    between atoms: S1_8  and  C5_9 
REMARK    3  A    between atoms: C5_9  and  C6_10 
REMARK    4  A    between atoms: C6_10  and  N3_11 
REMARK    5  A    between atoms: N3_11  and  C7_13 
REMARK    6  A    between atoms: C13_31  and  N9_32 
ROOT
HETATM    1  N1  UNL     1      16.613  28.984  20.814  1.00  0.00    -0.191 NA
HETATM    2  C1  UNL     1      16.426  28.674  21.918  1.00  0.00     0.104 C 
HETATM    3  C2  UNL     1      16.191  28.269  23.283  1.00  0.00     0.103 A 
HETATM    4  C3  UNL     1      17.243  27.876  24.103  1.00  0.00     0.116 A 
HETATM    5  N2  UNL     1      17.020  27.496  25.385  1.00  0.00    -0.345 N 
ATOM      6  H2  UNL     1      17.811  27.213  25.963  1.00  0.00     0.167 HD
HETATM    7  C4  UNL     1      15.789  27.482  25.912  1.00  0.00     0.145 A 
HETATM    8  N8  UNL     1      14.763  27.860  25.130  1.00  0.00    -0.322 N 
ATOM      9  H8  UNL     1      13.820  27.854  25.520  1.00  0.00     0.169 HD
HETATM   10  C13 UNL     1      14.936  28.246  23.850  1.00  0.00     0.123 A 
ENDROOT
BRANCH  10  11
HETATM   11  N9  UNL     1      13.933  28.609  23.104  1.00  0.00    -0.384 N 
ATOM     12  H92 UNL     1      13.605  28.032  22.329  1.00  0.00     0.157 HD
ATOM     13  H91 UNL     1      13.482  29.498  23.322  1.00  0.00     0.157 HD
ENDBRANCH  10  11
BRANCH   7  14
HETATM   14  S1  UNL     1      15.451  27.004  27.590  1.00  0.00    -0.092 SA
BRANCH  14  15
HETATM   15  C5  UNL     1      16.776  26.133  28.398  1.00  0.00     0.102 C 
BRANCH  15  16
HETATM   16  C6  UNL     1      16.703  24.630  28.313  1.00  0.00     0.132 C 
BRANCH  16  17
HETATM   17  N3  UNL     1      17.709  24.188  27.390  1.00  0.00    -0.374 N 
ATOM     18  H3  UNL     1      17.401  23.532  26.672  1.00  0.00     0.161 HD
BRANCH  17  19
HETATM   19  C7  UNL     1      18.938  24.513  27.359  1.00  0.00     0.132 A 
HETATM   20  N4  UNL     1      19.464  25.516  26.645  1.00  0.00    -0.337 N 
HETATM   21  C8  UNL     1      20.773  25.815  26.643  1.00  0.00     0.182 A 
ATOM     22  H4  UNL     1      18.838  26.083  26.072  1.00  0.00     0.168 HD
HETATM   23  N5  UNL     1      21.625  25.102  27.376  1.00  0.00    -0.346 N 
HETATM   24  C9  UNL     1      21.198  24.077  28.126  1.00  0.00     0.133 A 
ATOM     25  H5  UNL     1      22.617  25.338  27.366  1.00  0.00     0.167 HD
HETATM   26  C10 UNL     1      22.085  23.340  28.885  1.00  0.00     0.278 A 
HETATM   27  C12 UNL     1      19.859  23.780  28.120  1.00  0.00     0.113 A 
HETATM   28  O1  UNL     1      23.308  23.614  28.888  1.00  0.00    -0.265 OA
HETATM   29  N6  UNL     1      21.556  22.331  29.603  1.00  0.00    -0.274 N 
HETATM   30  C11 UNL     1      20.244  22.042  29.595  1.00  0.00     0.327 A 
ATOM     31  H6  UNL     1      22.178  21.761  30.177  1.00  0.00     0.173 HD
HETATM   32  O2  UNL     1      19.775  21.098  30.271  1.00  0.00    -0.247 OA
HETATM   33  N7  UNL     1      19.384  22.763  28.855  1.00  0.00    -0.303 N 
ATOM     34  H7  UNL     1      18.389  22.540  28.852  1.00  0.00     0.171 HD
ENDBRANCH  17  19
ENDBRANCH  16  17
ENDBRANCH  15  16
ENDBRANCH  14  15
ENDBRANCH   7  14
TORSDOF 6
ENDMDL
