MODEL 1
REMARK VINA RESULT: -8.008022287      0.000      0.000
REMARK  5 active torsions:
REMARK  status: ('A' for Active; 'I' for Inactive)
REMARK    1  A    between atoms: C3_4  and  C4_5 
REMARK       I    between atoms: C4_5  and  N2_7 
REMARK    2  A    between atoms: N2_7  and  C5_9 
REMARK    3  A    between atoms: C5_9  and  C6_10 
REMARK    4  A    between atoms: C11_19  and  N5_20 
REMARK    5  A    between atoms: C16_30  and  N9_31 
ROOT
HETATM    1  N1  UNL     1      38.719  15.025 -26.392  1.00  0.00    -0.191 NA
HETATM    2  C1  UNL     1      38.223  15.232 -25.366  1.00  0.00     0.106 C 
HETATM    3  C2  UNL     1      37.631  15.507 -24.090  1.00  0.00     0.121 A 
HETATM    4  C3  UNL     1      36.312  15.270 -23.782  1.00  0.00     0.141 A 
HETATM    5  N4  UNL     1      35.838  15.569 -22.537  1.00  0.00    -0.184 N 
ATOM      6  H4  UNL     1      34.856  15.385 -22.332  1.00  0.00     0.184 HD
HETATM    7  C11 UNL     1      36.606  16.092 -21.574  1.00  0.00     0.689 A 
HETATM    8  N8  UNL     1      37.913  16.332 -21.865  1.00  0.00    -0.175 N 
ATOM      9  H8  UNL     1      38.522  16.731 -21.150  1.00  0.00     0.186 HD
HETATM   10  C16 UNL     1      38.414  16.052 -23.077  1.00  0.00     0.138 A 
ENDROOT
BRANCH   4  11
HETATM   11  C4  UNL     1      35.433  14.691 -24.786  1.00  0.00     0.270 C 
HETATM   12  O1  UNL     1      34.730  15.452 -25.512  1.00  0.00    -0.266 OA
HETATM   13  N2  UNL     1      35.333  13.279 -24.978  1.00  0.00    -0.355 N 
ATOM     14  H2  UNL     1      35.885  12.640 -24.407  1.00  0.00     0.162 HD
BRANCH  13  15
HETATM   15  C5  UNL     1      34.449  12.777 -25.984  1.00  0.00     0.129 C 
BRANCH  15  16
HETATM   16  C6  UNL     1      33.746  11.526 -25.616  1.00  0.00     0.021 C 
HETATM   17  C7  UNL     1      34.306  10.264 -26.191  1.00  0.00     0.009 C 
HETATM   18  C8  UNL     1      33.223   9.204 -26.042  1.00  0.00     0.020 C 
HETATM   19  C9  UNL     1      32.602   9.148 -24.693  1.00  0.00     0.113 C 
HETATM   20  N3  UNL     1      32.491  10.370 -23.976  1.00  0.00    -0.421 N 
HETATM   21  C10 UNL     1      33.584  11.296 -24.129  1.00  0.00     0.120 C 
ATOM     22  H3  UNL     1      31.685  10.580 -23.387  1.00  0.00     0.153 HD
ENDBRANCH  15  16
ENDBRANCH  13  15
ENDBRANCH   4  11
BRANCH  10  23
HETATM   23  N9  UNL     1      39.661  16.279 -23.349  1.00  0.00    -0.384 N 
ATOM     24  H92 UNL     1      40.260  15.539 -23.715  1.00  0.00     0.157 HD
ATOM     25  H91 UNL     1      40.010  17.223 -23.184  1.00  0.00     0.157 HD
ENDBRANCH  10  23
BRANCH   7  26
HETATM   26  N5  UNL     1      36.140  16.388 -20.270  1.00  0.00    -0.155 N 
HETATM   27  C12 UNL     1      35.474  15.390 -19.438  1.00  0.00     0.152 C 
HETATM   28  C13 UNL     1      36.234  15.405 -18.113  1.00  0.00     0.041 C 
HETATM   29  C14 UNL     1      36.178  16.788 -17.491  1.00  0.00     0.124 C 
HETATM   30  N6  UNL     1      36.313  17.855 -18.422  1.00  0.00    -0.364 N 
HETATM   31  C15 UNL     1      36.298  17.689 -19.722  1.00  0.00     0.205 C 
ATOM     32  H6  UNL     1      36.427  18.801 -18.058  1.00  0.00     0.162 HD
HETATM   33  N7  UNL     1      36.431  18.779 -20.611  1.00  0.00    -0.063 NA
ENDBRANCH   7  26
TORSDOF 5
ENDMDL
MODEL 2
REMARK VINA RESULT: -8.000108309      2.292      3.105
REMARK  5 active torsions:
REMARK  status: ('A' for Active; 'I' for Inactive)
REMARK    1  A    between atoms: C3_4  and  C4_5 
REMARK       I    between atoms: C4_5  and  N2_7 
REMARK    2  A    between atoms: N2_7  and  C5_9 
REMARK    3  A    between atoms: C5_9  and  C6_10 
REMARK    4  A    between atoms: C11_19  and  N5_20 
REMARK    5  A    between atoms: C16_30  and  N9_31 
ROOT
HETATM    1  N1  UNL     1      33.677  13.887 -25.829  1.00  0.00    -0.191 NA
HETATM    2  C1  UNL     1      34.182  14.341 -24.890  1.00  0.00     0.106 C 
HETATM    3  C2  UNL     1      34.785  14.922 -23.727  1.00  0.00     0.121 A 
HETATM    4  C3  UNL     1      35.691  14.276 -22.920  1.00  0.00     0.141 A 
HETATM    5  N4  UNL     1      36.209  14.913 -21.830  1.00  0.00    -0.184 N 
ATOM      6  H4  UNL     1      36.880  14.413 -21.245  1.00  0.00     0.184 HD
HETATM    7  C11 UNL     1      35.876  16.165 -21.493  1.00  0.00     0.689 A 
HETATM    8  N8  UNL     1      34.980  16.816 -22.283  1.00  0.00    -0.175 N 
ATOM      9  H8  UNL     1      34.707  17.772 -22.050  1.00  0.00     0.186 HD
HETATM   10  C16 UNL     1      34.449  16.223 -23.363  1.00  0.00     0.138 A 
ENDROOT
BRANCH   4  11
HETATM   11  C4  UNL     1      36.100  12.918 -23.244  1.00  0.00     0.270 C 
HETATM   12  O1  UNL     1      37.236  12.717 -23.765  1.00  0.00    -0.266 OA
HETATM   13  N2  UNL     1      35.255  11.795 -22.992  1.00  0.00    -0.355 N 
ATOM     14  H2  UNL     1      34.334  11.924 -22.575  1.00  0.00     0.162 HD
BRANCH  13  15
HETATM   15  C5  UNL     1      35.722  10.486 -23.334  1.00  0.00     0.129 C 
BRANCH  15  16
HETATM   16  C6  UNL     1      34.829   9.734 -24.247  1.00  0.00     0.021 C 
HETATM   17  C7  UNL     1      33.438  10.264 -24.390  1.00  0.00     0.009 C 
HETATM   18  C8  UNL     1      32.610   9.142 -25.004  1.00  0.00     0.020 C 
HETATM   19  C9  UNL     1      33.239   8.492 -26.182  1.00  0.00     0.113 C 
HETATM   20  N3  UNL     1      34.658   8.407 -26.199  1.00  0.00    -0.421 N 
HETATM   21  C10 UNL     1      35.367   9.533 -25.647  1.00  0.00     0.120 C 
ATOM     22  H3  UNL     1      35.146   7.596 -26.579  1.00  0.00     0.153 HD
ENDBRANCH  15  16
ENDBRANCH  13  15
ENDBRANCH   4  11
BRANCH  10  23
HETATM   23  N9  UNL     1      33.598  16.848 -24.113  1.00  0.00    -0.384 N 
ATOM     24  H92 UNL     1      33.561  16.675 -25.118  1.00  0.00     0.157 HD
ATOM     25  H91 UNL     1      32.973  17.513 -23.657  1.00  0.00     0.157 HD
ENDBRANCH  10  23
BRANCH   7  26
HETATM   26  N5  UNL     1      36.419  16.851 -20.380  1.00  0.00    -0.155 N 
HETATM   27  C12 UNL     1      37.355  17.962 -20.532  1.00  0.00     0.152 C 
HETATM   28  C13 UNL     1      36.759  19.101 -19.707  1.00  0.00     0.041 C 
HETATM   29  C14 UNL     1      36.614  18.679 -18.257  1.00  0.00     0.124 C 
HETATM   30  N6  UNL     1      36.171  17.339 -18.078  1.00  0.00    -0.364 N 
HETATM   31  C15 UNL     1      36.072  16.471 -19.056  1.00  0.00     0.205 C 
ATOM     32  H6  UNL     1      35.916  17.037 -17.138  1.00  0.00     0.162 HD
HETATM   33  N7  UNL     1      35.631  15.149 -18.832  1.00  0.00    -0.063 NA
ENDBRANCH   7  26
TORSDOF 5
ENDMDL
MODEL 3
REMARK VINA RESULT: -7.762181241      3.124      4.482
REMARK  5 active torsions:
REMARK  status: ('A' for Active; 'I' for Inactive)
REMARK    1  A    between atoms: C3_4  and  C4_5 
REMARK       I    between atoms: C4_5  and  N2_7 
REMARK    2  A    between atoms: N2_7  and  C5_9 
REMARK    3  A    between atoms: C5_9  and  C6_10 
REMARK    4  A    between atoms: C11_19  and  N5_20 
REMARK    5  A    between atoms: C16_30  and  N9_31 
ROOT
HETATM    1  N1  UNL     1      33.675  13.448 -25.718  1.00  0.00    -0.191 NA
HETATM    2  C1  UNL     1      34.180  13.958 -24.809  1.00  0.00     0.106 C 
HETATM    3  C2  UNL     1      34.785  14.610 -23.684  1.00  0.00     0.121 A 
HETATM    4  C3  UNL     1      35.627  13.991 -22.792  1.00  0.00     0.141 A 
HETATM    5  N4  UNL     1      36.153  14.697 -21.748  1.00  0.00    -0.184 N 
ATOM      6  H4  UNL     1      36.775  14.216 -21.098  1.00  0.00     0.184 HD
HETATM    7  C11 UNL     1      35.887  15.992 -21.539  1.00  0.00     0.689 A 
HETATM    8  N8  UNL     1      35.054  16.617 -22.414  1.00  0.00    -0.175 N 
ATOM      9  H8  UNL     1      34.833  17.604 -22.279  1.00  0.00     0.186 HD
HETATM   10  C16 UNL     1      34.519  15.956 -23.452  1.00  0.00     0.138 A 
ENDROOT
BRANCH   4  11
HETATM   11  C4  UNL     1      35.962  12.587 -22.975  1.00  0.00     0.270 C 
HETATM   12  O1  UNL     1      35.061  11.710 -22.844  1.00  0.00    -0.266 OA
HETATM   13  N2  UNL     1      37.287  12.164 -23.299  1.00  0.00    -0.355 N 
ATOM     14  H2  UNL     1      38.036  12.847 -23.410  1.00  0.00     0.162 HD
BRANCH  13  15
HETATM   15  C5  UNL     1      37.546  10.767 -23.467  1.00  0.00     0.129 C 
BRANCH  15  16
HETATM   16  C6  UNL     1      38.871  10.453 -24.052  1.00  0.00     0.021 C 
HETATM   17  C7  UNL     1      38.896   9.364 -25.077  1.00  0.00     0.009 C 
HETATM   18  C8  UNL     1      40.351   8.935 -25.215  1.00  0.00     0.020 C 
HETATM   19  C9  UNL     1      41.309  10.060 -25.362  1.00  0.00     0.113 C 
HETATM   20  N3  UNL     1      40.996  11.274 -24.692  1.00  0.00    -0.421 N 
HETATM   21  C10 UNL     1      39.603  11.634 -24.651  1.00  0.00     0.120 C 
ATOM     22  H3  UNL     1      41.717  11.856 -24.264  1.00  0.00     0.153 HD
ENDBRANCH  15  16
ENDBRANCH  13  15
ENDBRANCH   4  11
BRANCH  10  23
HETATM   23  N9  UNL     1      33.728  16.557 -24.285  1.00  0.00    -0.384 N 
ATOM     24  H92 UNL     1      34.098  17.024 -25.114  1.00  0.00     0.157 HD
ATOM     25  H91 UNL     1      32.730  16.540 -24.076  1.00  0.00     0.157 HD
ENDBRANCH  10  23
BRANCH   7  26
HETATM   26  N5  UNL     1      36.439  16.747 -20.476  1.00  0.00    -0.155 N 
HETATM   27  C12 UNL     1      37.366  17.851 -20.707  1.00  0.00     0.152 C 
HETATM   28  C13 UNL     1      36.774  19.034 -19.944  1.00  0.00     0.041 C 
HETATM   29  C14 UNL     1      36.650  18.700 -18.469  1.00  0.00     0.124 C 
HETATM   30  N6  UNL     1      36.217  17.371 -18.205  1.00  0.00    -0.364 N 
HETATM   31  C15 UNL     1      36.111  16.445 -19.127  1.00  0.00     0.205 C 
ATOM     32  H6  UNL     1      35.975  17.124 -17.245  1.00  0.00     0.162 HD
HETATM   33  N7  UNL     1      35.681  15.136 -18.819  1.00  0.00    -0.063 NA
ENDBRANCH   7  26
TORSDOF 5
ENDMDL
MODEL 4
REMARK VINA RESULT: -7.687476000      2.416      3.055
REMARK  5 active torsions:
REMARK  status: ('A' for Active; 'I' for Inactive)
REMARK    1  A    between atoms: C3_4  and  C4_5 
REMARK       I    between atoms: C4_5  and  N2_7 
REMARK    2  A    between atoms: N2_7  and  C5_9 
REMARK    3  A    between atoms: C5_9  and  C6_10 
REMARK    4  A    between atoms: C11_19  and  N5_20 
REMARK    5  A    between atoms: C16_30  and  N9_31 
ROOT
HETATM    1  N1  UNL     1      37.688   9.798 -24.347  1.00  0.00    -0.191 NA
HETATM    2  C1  UNL     1      37.428  10.840 -23.911  1.00  0.00     0.106 C 
HETATM    3  C2  UNL     1      37.134  12.136 -23.375  1.00  0.00     0.121 A 
HETATM    4  C3  UNL     1      35.879  12.695 -23.344  1.00  0.00     0.141 A 
HETATM    5  N4  UNL     1      35.699  13.940 -22.814  1.00  0.00    -0.184 N 
ATOM      6  H4  UNL     1      34.758  14.334 -22.803  1.00  0.00     0.184 HD
HETATM    7  C11 UNL     1      36.703  14.667 -22.310  1.00  0.00     0.689 A 
HETATM    8  N8  UNL     1      37.951  14.127 -22.335  1.00  0.00    -0.175 N 
ATOM      9  H8  UNL     1      38.736  14.659 -21.958  1.00  0.00     0.186 HD
HETATM   10  C16 UNL     1      38.167  12.906 -22.847  1.00  0.00     0.138 A 
ENDROOT
BRANCH   4  11
HETATM   11  C4  UNL     1      34.746  11.946 -23.866  1.00  0.00     0.270 C 
HETATM   12  O1  UNL     1      34.103  11.173 -23.099  1.00  0.00    -0.266 OA
HETATM   13  N2  UNL     1      34.335  12.053 -25.230  1.00  0.00    -0.355 N 
ATOM     14  H2  UNL     1      34.834  12.666 -25.874  1.00  0.00     0.162 HD
BRANCH  13  15
HETATM   15  C5  UNL     1      33.212  11.288 -25.677  1.00  0.00     0.129 C 
BRANCH  15  16
HETATM   16  C6  UNL     1      33.562  10.017 -26.354  1.00  0.00     0.021 C 
HETATM   17  C7  UNL     1      35.000   9.849 -26.731  1.00  0.00     0.009 C 
HETATM   18  C8  UNL     1      35.048   8.719 -27.752  1.00  0.00     0.020 C 
HETATM   19  C9  UNL     1      34.277   7.510 -27.363  1.00  0.00     0.113 C 
HETATM   20  N3  UNL     1      33.099   7.709 -26.591  1.00  0.00    -0.421 N 
HETATM   21  C10 UNL     1      33.155   8.763 -25.611  1.00  0.00     0.120 C 
ATOM     22  H3  UNL     1      32.264   7.138 -26.723  1.00  0.00     0.153 HD
ENDBRANCH  15  16
ENDBRANCH  13  15
ENDBRANCH   4  11
BRANCH  10  23
HETATM   23  N9  UNL     1      39.358  12.394 -22.866  1.00  0.00    -0.384 N 
ATOM     24  H92 UNL     1      39.857  12.198 -21.998  1.00  0.00     0.157 HD
ATOM     25  H91 UNL     1      39.767  12.197 -23.779  1.00  0.00     0.157 HD
ENDBRANCH  10  23
BRANCH   7  26
HETATM   26  N5  UNL     1      36.535  15.950 -21.736  1.00  0.00    -0.155 N 
HETATM   27  C12 UNL     1      35.393  16.278 -20.887  1.00  0.00     0.152 C 
HETATM   28  C13 UNL     1      36.000  16.862 -19.612  1.00  0.00     0.041 C 
HETATM   29  C14 UNL     1      36.830  18.088 -19.939  1.00  0.00     0.124 C 
HETATM   30  N6  UNL     1      37.603  17.972 -21.128  1.00  0.00    -0.364 N 
HETATM   31  C15 UNL     1      37.480  16.982 -21.979  1.00  0.00     0.205 C 
ATOM     32  H6  UNL     1      38.290  18.698 -21.330  1.00  0.00     0.162 HD
HETATM   33  N7  UNL     1      38.266  16.909 -23.150  1.00  0.00    -0.063 NA
ENDBRANCH   7  26
TORSDOF 5
ENDMDL
MODEL 5
REMARK VINA RESULT: -7.663630402      3.928      4.676
REMARK  5 active torsions:
REMARK  status: ('A' for Active; 'I' for Inactive)
REMARK    1  A    between atoms: C3_4  and  C4_5 
REMARK       I    between atoms: C4_5  and  N2_7 
REMARK    2  A    between atoms: N2_7  and  C5_9 
REMARK    3  A    between atoms: C5_9  and  C6_10 
REMARK    4  A    between atoms: C11_19  and  N5_20 
REMARK    5  A    between atoms: C16_30  and  N9_31 
ROOT
HETATM    1  N1  UNL     1      41.352  16.900 -26.523  1.00  0.00    -0.191 NA
HETATM    2  C1  UNL     1      40.624  16.783 -25.630  1.00  0.00     0.106 C 
HETATM    3  C2  UNL     1      39.703  16.656 -24.539  1.00  0.00     0.121 A 
HETATM    4  C3  UNL     1      39.702  15.613 -23.644  1.00  0.00     0.141 A 
HETATM    5  N4  UNL     1      38.781  15.578 -22.637  1.00  0.00    -0.184 N 
ATOM      6  H4  UNL     1      38.799  14.793 -21.986  1.00  0.00     0.184 HD
HETATM    7  C11 UNL     1      37.854  16.528 -22.468  1.00  0.00     0.689 A 
HETATM    8  N8  UNL     1      37.843  17.567 -23.346  1.00  0.00    -0.175 N 
ATOM      9  H8  UNL     1      37.146  18.305 -23.242  1.00  0.00     0.186 HD
HETATM   10  C16 UNL     1      38.732  17.635 -24.348  1.00  0.00     0.138 A 
ENDROOT
BRANCH   4  11
HETATM   11  C4  UNL     1      40.695  14.557 -23.772  1.00  0.00     0.270 C 
HETATM   12  O1  UNL     1      41.829  14.699 -23.230  1.00  0.00    -0.266 OA
HETATM   13  N2  UNL     1      40.430  13.355 -24.496  1.00  0.00    -0.355 N 
ATOM     14  H2  UNL     1      39.526  13.211 -24.946  1.00  0.00     0.162 HD
BRANCH  13  15
HETATM   15  C5  UNL     1      41.451  12.357 -24.581  1.00  0.00     0.129 C 
BRANCH  15  16
HETATM   16  C6  UNL     1      40.947  10.974 -24.755  1.00  0.00     0.021 C 
HETATM   17  C7  UNL     1      39.460  10.811 -24.753  1.00  0.00     0.009 C 
HETATM   18  C8  UNL     1      39.189   9.331 -24.521  1.00  0.00     0.020 C 
HETATM   19  C9  UNL     1      39.995   8.420 -25.374  1.00  0.00     0.113 C 
HETATM   20  N3  UNL     1      41.305   8.846 -25.726  1.00  0.00    -0.421 N 
HETATM   21  C10 UNL     1      41.465  10.254 -25.982  1.00  0.00     0.120 C 
ATOM     22  H3  UNL     1      42.086   8.193 -25.794  1.00  0.00     0.153 HD
ENDBRANCH  15  16
ENDBRANCH  13  15
ENDBRANCH   4  11
BRANCH  10  23
HETATM   23  N9  UNL     1      38.719  18.628 -25.181  1.00  0.00    -0.384 N 
ATOM     24  H92 UNL     1      39.553  19.197 -25.330  1.00  0.00     0.157 HD
ATOM     25  H91 UNL     1      37.846  18.811 -25.676  1.00  0.00     0.157 HD
ENDBRANCH  10  23
BRANCH   7  26
HETATM   26  N5  UNL     1      36.905  16.522 -21.417  1.00  0.00    -0.155 N 
HETATM   27  C12 UNL     1      35.806  15.561 -21.368  1.00  0.00     0.152 C 
HETATM   28  C13 UNL     1      35.893  14.927 -19.981  1.00  0.00     0.041 C 
HETATM   29  C14 UNL     1      35.761  15.991 -18.908  1.00  0.00     0.124 C 
HETATM   30  N6  UNL     1      36.443  17.205 -19.200  1.00  0.00    -0.364 N 
HETATM   31  C15 UNL     1      36.983  17.472 -20.364  1.00  0.00     0.205 C 
ATOM     32  H6  UNL     1      36.515  17.907 -18.463  1.00  0.00     0.162 HD
HETATM   33  N7  UNL     1      37.648  18.693 -20.611  1.00  0.00    -0.063 NA
ENDBRANCH   7  26
TORSDOF 5
ENDMDL
