MODEL 1
REMARK VINA RESULT: -6.738682512      0.000      0.000
REMARK  7 active torsions:
REMARK  status: ('A' for Active; 'I' for Inactive)
REMARK    1  A    between atoms: C2_2  and  S1_3 
REMARK    2  A    between atoms: S1_3  and  C3_4 
REMARK    3  A    between atoms: C3_4  and  C4_5 
REMARK    4  A    between atoms: C4_5  and  C5_6 
REMARK    5  A    between atoms: C8_12  and  N2_13 
REMARK       I    between atoms: N2_13  and  C9_15 
REMARK       I    between atoms: C9_15  and  N4_19 
REMARK    6  A    between atoms: N4_19  and  N5_21 
REMARK    7  A    between atoms: C12_32  and  N9_33 
ROOT
HETATM    1  C5  UNL     1      25.553  33.286  52.656  1.00  0.00     0.125 A 
HETATM    2  N1  UNL     1      24.345  33.753  52.330  1.00  0.00    -0.337 N 
ATOM      3  H1  UNL     1      23.891  33.590  51.432  1.00  0.00     0.168 HD
HETATM    4  C6  UNL     1      23.802  34.464  53.332  1.00  0.00     0.090 A 
HETATM    5  C7  UNL     1      24.781  34.408  54.334  1.00  0.00     0.149 A 
HETATM    6  O1  UNL     1      25.797  33.703  53.895  1.00  0.00    -0.291 OA
HETATM    7  C8  UNL     1      24.480  35.069  55.503  1.00  0.00     0.159 A 
HETATM    8  N6  UNL     1      23.324  35.730  55.680  1.00  0.00    -0.325 N 
ATOM      9  H6  UNL     1      23.155  36.203  56.568  1.00  0.00     0.169 HD
HETATM   10  C10 UNL     1      22.376  35.786  54.711  1.00  0.00     0.124 A 
HETATM   11  N7  UNL     1      21.218  36.449  54.891  1.00  0.00    -0.338 N 
ATOM     12  H7  UNL     1      21.056  36.919  55.782  1.00  0.00     0.168 HD
HETATM   13  C11 UNL     1      20.272  36.515  53.948  1.00  0.00     0.183 A 
HETATM   14  N8  UNL     1      20.479  35.901  52.782  1.00  0.00    -0.338 N 
ATOM     15  H8  UNL     1      19.761  35.947  52.059  1.00  0.00     0.168 HD
HETATM   16  C12 UNL     1      21.649  35.203  52.534  1.00  0.00     0.116 A 
HETATM   17  C13 UNL     1      22.614  35.142  53.511  1.00  0.00     0.081 A 
ENDROOT
BRANCH   7  18
HETATM   18  N2  UNL     1      25.326  35.062  56.469  1.00  0.00    -0.173 N 
HETATM   19  C9  UNL     1      26.278  36.055  56.734  1.00  0.00     0.691 C 
HETATM   20  N3  UNL     1      25.934  37.104  57.393  1.00  0.00    -0.233 N 
HETATM   21  N4  UNL     1      27.640  35.974  56.308  1.00  0.00    -0.139 N 
ATOM     22  H32 UNL     1      24.963  37.163  57.696  1.00  0.00     0.174 HD
ATOM     23  H31 UNL     1      26.628  37.827  57.585  1.00  0.00     0.174 HD
ATOM     24  H4  UNL     1      28.236  36.801  56.282  1.00  0.00     0.205 HD
ATOM     25  H2  UNL     1      25.302  34.262  57.101  1.00  0.00     0.186 HD
BRANCH  21  26
HETATM   26  N5  UNL     1      28.121  34.726  55.930  1.00  0.00    -0.331 N 
ATOM     27  H52 UNL     1      27.772  33.881  56.383  1.00  0.00     0.177 HD
ATOM     28  H51 UNL     1      28.826  34.695  55.194  1.00  0.00     0.177 HD
ENDBRANCH  21  26
ENDBRANCH   7  18
BRANCH   1  29
HETATM   29  C4  UNL     1      26.485  32.461  51.842  1.00  0.00     0.095 C 
BRANCH  29  30
HETATM   30  C3  UNL     1      26.861  31.166  52.492  1.00  0.00     0.082 C 
BRANCH  30  31
HETATM   31  S1  UNL     1      25.356  30.151  52.593  1.00  0.00    -0.169 SA
BRANCH  31  32
HETATM   32  C2  UNL     1      25.086  29.523  54.254  1.00  0.00     0.069 C 
HETATM   33  C1  UNL     1      24.610  30.665  55.127  1.00  0.00     0.016 C 
ENDBRANCH  31  32
ENDBRANCH  30  31
ENDBRANCH  29  30
ENDBRANCH   1  29
BRANCH  16  34
HETATM   34  N9  UNL     1      21.796  34.642  51.423  1.00  0.00    -0.385 N 
ATOM     35  H92 UNL     1      21.236  34.902  50.611  1.00  0.00     0.157 HD
ATOM     36  H91 UNL     1      22.498  33.908  51.331  1.00  0.00     0.157 HD
ENDBRANCH  16  34
TORSDOF 7
ENDMDL
MODEL 2
REMARK VINA RESULT: -6.437749893      3.281      6.243
REMARK  7 active torsions:
REMARK  status: ('A' for Active; 'I' for Inactive)
REMARK    1  A    between atoms: C2_2  and  S1_3 
REMARK    2  A    between atoms: S1_3  and  C3_4 
REMARK    3  A    between atoms: C3_4  and  C4_5 
REMARK    4  A    between atoms: C4_5  and  C5_6 
REMARK    5  A    between atoms: C8_12  and  N2_13 
REMARK       I    between atoms: N2_13  and  C9_15 
REMARK       I    between atoms: C9_15  and  N4_19 
REMARK    6  A    between atoms: N4_19  and  N5_21 
REMARK    7  A    between atoms: C12_32  and  N9_33 
ROOT
HETATM    1  C5  UNL     1      23.923  34.063  54.492  1.00  0.00     0.125 A 
HETATM    2  N1  UNL     1      24.032  32.755  54.740  1.00  0.00    -0.337 N 
ATOM      3  H1  UNL     1      23.524  32.268  55.477  1.00  0.00     0.168 HD
HETATM    4  C6  UNL     1      24.893  32.162  53.898  1.00  0.00     0.090 A 
HETATM    5  C7  UNL     1      25.328  33.217  53.084  1.00  0.00     0.149 A 
HETATM    6  O1  UNL     1      24.731  34.321  53.468  1.00  0.00    -0.291 OA
HETATM    7  C8  UNL     1      26.239  32.884  52.108  1.00  0.00     0.159 A 
HETATM    8  N6  UNL     1      26.690  31.631  51.939  1.00  0.00    -0.325 N 
ATOM      9  H6  UNL     1      27.365  31.442  51.199  1.00  0.00     0.169 HD
HETATM   10  C10 UNL     1      26.270  30.608  52.727  1.00  0.00     0.124 A 
HETATM   11  N7  UNL     1      26.724  29.351  52.555  1.00  0.00    -0.338 N 
ATOM     12  H7  UNL     1      27.399  29.171  51.813  1.00  0.00     0.168 HD
HETATM   13  C11 UNL     1      26.322  28.331  53.321  1.00  0.00     0.183 A 
HETATM   14  N8  UNL     1      25.438  28.562  54.293  1.00  0.00    -0.338 N 
ATOM     15  H8  UNL     1      25.127  27.788  54.879  1.00  0.00     0.168 HD
HETATM   16  C12 UNL     1      24.935  29.832  54.520  1.00  0.00     0.116 A 
HETATM   17  C13 UNL     1      25.354  30.873  53.728  1.00  0.00     0.081 A 
ENDROOT
BRANCH   7  18
HETATM   18  N2  UNL     1      26.683  33.797  51.321  1.00  0.00    -0.173 N 
HETATM   19  C9  UNL     1      27.553  34.835  51.676  1.00  0.00     0.691 C 
HETATM   20  N3  UNL     1      28.821  34.618  51.710  1.00  0.00    -0.233 N 
HETATM   21  N4  UNL     1      27.113  36.152  52.012  1.00  0.00    -0.139 N 
ATOM     22  H32 UNL     1      29.136  33.678  51.471  1.00  0.00     0.174 HD
ATOM     23  H31 UNL     1      29.454  35.375  51.969  1.00  0.00     0.174 HD
ATOM     24  H4  UNL     1      27.721  36.804  52.509  1.00  0.00     0.205 HD
ATOM     25  H2  UNL     1      26.376  33.762  50.349  1.00  0.00     0.186 HD
BRANCH  21  26
HETATM   26  N5  UNL     1      25.824  36.513  51.637  1.00  0.00    -0.331 N 
ATOM     27  H52 UNL     1      25.120  35.797  51.460  1.00  0.00     0.177 HD
ATOM     28  H51 UNL     1      25.619  37.508  51.549  1.00  0.00     0.177 HD
ENDBRANCH  21  26
ENDBRANCH   7  18
BRANCH   1  29
HETATM   29  C4  UNL     1      23.086  35.078  55.185  1.00  0.00     0.095 C 
BRANCH  29  30
HETATM   30  C3  UNL     1      21.656  35.075  54.745  1.00  0.00     0.082 C 
BRANCH  30  31
HETATM   31  S1  UNL     1      20.630  35.318  56.226  1.00  0.00    -0.169 SA
BRANCH  31  32
HETATM   32  C2  UNL     1      18.898  34.973  55.902  1.00  0.00     0.069 C 
HETATM   33  C1  UNL     1      18.278  34.403  57.161  1.00  0.00     0.016 C 
ENDBRANCH  31  32
ENDBRANCH  30  31
ENDBRANCH  29  30
ENDBRANCH   1  29
BRANCH  16  34
HETATM   34  N9  UNL     1      24.106  29.997  55.445  1.00  0.00    -0.385 N 
ATOM     35  H92 UNL     1      24.246  29.596  56.373  1.00  0.00     0.157 HD
ATOM     36  H91 UNL     1      23.269  30.551  55.264  1.00  0.00     0.157 HD
ENDBRANCH  16  34
TORSDOF 7
ENDMDL
MODEL 3
REMARK VINA RESULT: -6.378469290      0.870      1.035
REMARK  7 active torsions:
REMARK  status: ('A' for Active; 'I' for Inactive)
REMARK    1  A    between atoms: C2_2  and  S1_3 
REMARK    2  A    between atoms: S1_3  and  C3_4 
REMARK    3  A    between atoms: C3_4  and  C4_5 
REMARK    4  A    between atoms: C4_5  and  C5_6 
REMARK    5  A    between atoms: C8_12  and  N2_13 
REMARK       I    between atoms: N2_13  and  C9_15 
REMARK       I    between atoms: C9_15  and  N4_19 
REMARK    6  A    between atoms: N4_19  and  N5_21 
REMARK    7  A    between atoms: C12_32  and  N9_33 
ROOT
HETATM    1  C5  UNL     1      25.552  33.269  52.662  1.00  0.00     0.125 A 
HETATM    2  N1  UNL     1      24.346  33.736  52.331  1.00  0.00    -0.337 N 
ATOM      3  H1  UNL     1      23.894  33.568  51.433  1.00  0.00     0.168 HD
HETATM    4  C6  UNL     1      23.803  34.456  53.326  1.00  0.00     0.090 A 
HETATM    5  C7  UNL     1      24.779  34.405  54.330  1.00  0.00     0.149 A 
HETATM    6  O1  UNL     1      25.795  33.695  53.898  1.00  0.00    -0.291 OA
HETATM    7  C8  UNL     1      24.477  35.076  55.493  1.00  0.00     0.159 A 
HETATM    8  N6  UNL     1      23.323  35.741  55.663  1.00  0.00    -0.325 N 
ATOM      9  H6  UNL     1      23.153  36.221  56.547  1.00  0.00     0.169 HD
HETATM   10  C10 UNL     1      22.377  35.791  54.691  1.00  0.00     0.124 A 
HETATM   11  N7  UNL     1      21.220  36.459  54.864  1.00  0.00    -0.338 N 
ATOM     12  H7  UNL     1      21.057  36.936  55.751  1.00  0.00     0.168 HD
HETATM   13  C11 UNL     1      20.276  36.519  53.919  1.00  0.00     0.183 A 
HETATM   14  N8  UNL     1      20.484  35.896  52.758  1.00  0.00    -0.338 N 
ATOM     15  H8  UNL     1      19.768  35.938  52.033  1.00  0.00     0.168 HD
HETATM   16  C12 UNL     1      21.653  35.194  52.518  1.00  0.00     0.116 A 
HETATM   17  C13 UNL     1      22.616  35.138  53.497  1.00  0.00     0.081 A 
ENDROOT
BRANCH   7  18
HETATM   18  N2  UNL     1      25.321  35.075  56.461  1.00  0.00    -0.173 N 
HETATM   19  C9  UNL     1      26.285  36.060  56.712  1.00  0.00     0.691 C 
HETATM   20  N3  UNL     1      25.952  37.124  57.353  1.00  0.00    -0.233 N 
HETATM   21  N4  UNL     1      27.646  35.956  56.291  1.00  0.00    -0.139 N 
ATOM     22  H32 UNL     1      24.980  37.199  57.654  1.00  0.00     0.174 HD
ATOM     23  H31 UNL     1      26.654  37.841  57.536  1.00  0.00     0.174 HD
ATOM     24  H4  UNL     1      28.252  36.776  56.253  1.00  0.00     0.205 HD
ATOM     25  H2  UNL     1      25.286  34.285  57.106  1.00  0.00     0.186 HD
BRANCH  21  26
HETATM   26  N5  UNL     1      28.114  34.696  55.934  1.00  0.00    -0.331 N 
ATOM     27  H52 UNL     1      28.336  34.008  56.653  1.00  0.00     0.177 HD
ATOM     28  H51 UNL     1      28.221  34.497  54.940  1.00  0.00     0.177 HD
ENDBRANCH  21  26
ENDBRANCH   7  18
BRANCH   1  29
HETATM   29  C4  UNL     1      26.484  32.436  51.857  1.00  0.00     0.095 C 
BRANCH  29  30
HETATM   30  C3  UNL     1      26.903  31.173  52.543  1.00  0.00     0.082 C 
BRANCH  30  31
HETATM   31  S1  UNL     1      25.456  30.073  52.588  1.00  0.00    -0.169 SA
BRANCH  31  32
HETATM   32  C2  UNL     1      25.908  28.364  52.280  1.00  0.00     0.069 C 
HETATM   33  C1  UNL     1      27.355  28.170  52.682  1.00  0.00     0.016 C 
ENDBRANCH  31  32
ENDBRANCH  30  31
ENDBRANCH  29  30
ENDBRANCH   1  29
BRANCH  16  34
HETATM   34  N9  UNL     1      21.801  34.624  51.411  1.00  0.00    -0.385 N 
ATOM     35  H92 UNL     1      21.005  34.357  50.832  1.00  0.00     0.157 HD
ATOM     36  H91 UNL     1      22.746  34.425  51.082  1.00  0.00     0.157 HD
ENDBRANCH  16  34
TORSDOF 7
ENDMDL
MODEL 4
REMARK VINA RESULT: -6.332210607      2.368      4.527
REMARK  7 active torsions:
REMARK  status: ('A' for Active; 'I' for Inactive)
REMARK    1  A    between atoms: C2_2  and  S1_3 
REMARK    2  A    between atoms: S1_3  and  C3_4 
REMARK    3  A    between atoms: C3_4  and  C4_5 
REMARK    4  A    between atoms: C4_5  and  C5_6 
REMARK    5  A    between atoms: C8_12  and  N2_13 
REMARK       I    between atoms: N2_13  and  C9_15 
REMARK       I    between atoms: C9_15  and  N4_19 
REMARK    6  A    between atoms: N4_19  and  N5_21 
REMARK    7  A    between atoms: C12_32  and  N9_33 
ROOT
HETATM    1  C5  UNL     1      23.848  33.707  52.687  1.00  0.00     0.125 A 
HETATM    2  N1  UNL     1      24.601  34.791  52.893  1.00  0.00    -0.337 N 
ATOM      3  H1  UNL     1      25.613  34.818  52.768  1.00  0.00     0.168 HD
HETATM    4  C6  UNL     1      23.862  35.840  53.287  1.00  0.00     0.090 A 
HETATM    5  C7  UNL     1      22.559  35.325  53.313  1.00  0.00     0.149 A 
HETATM    6  O1  UNL     1      22.595  34.064  52.953  1.00  0.00    -0.291 OA
HETATM    7  C8  UNL     1      21.573  36.208  53.692  1.00  0.00     0.159 A 
HETATM    8  N6  UNL     1      21.835  37.484  54.018  1.00  0.00    -0.325 N 
ATOM      9  H6  UNL     1      21.064  38.093  54.292  1.00  0.00     0.169 HD
HETATM   10  C10 UNL     1      23.096  37.984  53.993  1.00  0.00     0.124 A 
HETATM   11  N7  UNL     1      23.355  39.265  54.321  1.00  0.00    -0.338 N 
ATOM     12  H7  UNL     1      22.579  39.868  54.593  1.00  0.00     0.168 HD
HETATM   13  C11 UNL     1      24.591  39.776  54.302  1.00  0.00     0.183 A 
HETATM   14  N8  UNL     1      25.609  38.991  53.946  1.00  0.00    -0.338 N 
ATOM     15  H8  UNL     1      26.554  39.375  53.929  1.00  0.00     0.168 HD
HETATM   16  C12 UNL     1      25.408  37.665  53.599  1.00  0.00     0.116 A 
HETATM   17  C13 UNL     1      24.134  37.151  53.621  1.00  0.00     0.081 A 
ENDROOT
BRANCH   7  18
HETATM   18  N2  UNL     1      20.353  35.810  53.739  1.00  0.00    -0.173 N 
HETATM   19  C9  UNL     1      19.382  36.245  54.650  1.00  0.00     0.691 C 
HETATM   20  N3  UNL     1      18.740  37.336  54.421  1.00  0.00    -0.233 N 
HETATM   21  N4  UNL     1      19.051  35.538  55.847  1.00  0.00    -0.139 N 
ATOM     22  H32 UNL     1      18.976  37.841  53.567  1.00  0.00     0.174 HD
ATOM     23  H31 UNL     1      18.033  37.653  55.084  1.00  0.00     0.174 HD
ATOM     24  H4  UNL     1      18.545  35.992  56.607  1.00  0.00     0.205 HD
ATOM     25  H2  UNL     1      20.064  35.115  53.050  1.00  0.00     0.186 HD
BRANCH  21  26
HETATM   26  N5  UNL     1      19.446  34.208  55.937  1.00  0.00    -0.331 N 
ATOM     27  H52 UNL     1      20.377  33.926  55.631  1.00  0.00     0.177 HD
ATOM     28  H51 UNL     1      18.774  33.542  56.316  1.00  0.00     0.177 HD
ENDBRANCH  21  26
ENDBRANCH   7  18
BRANCH   1  29
HETATM   29  C4  UNL     1      24.267  32.349  52.249  1.00  0.00     0.095 C 
BRANCH  29  30
HETATM   30  C3  UNL     1      25.490  31.845  52.948  1.00  0.00     0.082 C 
BRANCH  30  31
HETATM   31  S1  UNL     1      25.428  30.028  52.911  1.00  0.00    -0.169 SA
BRANCH  31  32
HETATM   32  C2  UNL     1      25.266  29.333  54.559  1.00  0.00     0.069 C 
HETATM   33  C1  UNL     1      24.440  30.283  55.401  1.00  0.00     0.016 C 
ENDBRANCH  31  32
ENDBRANCH  30  31
ENDBRANCH  29  30
ENDBRANCH   1  29
BRANCH  16  34
HETATM   34  N9  UNL     1      26.397  36.969  53.271  1.00  0.00    -0.385 N 
ATOM     35  H92 UNL     1      27.244  36.935  53.839  1.00  0.00     0.157 HD
ATOM     36  H91 UNL     1      26.350  36.420  52.413  1.00  0.00     0.157 HD
ENDBRANCH  16  34
TORSDOF 7
ENDMDL
MODEL 5
REMARK VINA RESULT: -6.298833986      1.338      4.588
REMARK  7 active torsions:
REMARK  status: ('A' for Active; 'I' for Inactive)
REMARK    1  A    between atoms: C2_2  and  S1_3 
REMARK    2  A    between atoms: S1_3  and  C3_4 
REMARK    3  A    between atoms: C3_4  and  C4_5 
REMARK    4  A    between atoms: C4_5  and  C5_6 
REMARK    5  A    between atoms: C8_12  and  N2_13 
REMARK       I    between atoms: N2_13  and  C9_15 
REMARK       I    between atoms: C9_15  and  N4_19 
REMARK    6  A    between atoms: N4_19  and  N5_21 
REMARK    7  A    between atoms: C12_32  and  N9_33 
ROOT
HETATM    1  C5  UNL     1      25.293  32.366  52.899  1.00  0.00     0.125 A 
HETATM    2  N1  UNL     1      26.156  32.979  53.714  1.00  0.00    -0.337 N 
ATOM      3  H1  UNL     1      27.147  32.747  53.777  1.00  0.00     0.168 HD
HETATM    4  C6  UNL     1      25.558  33.937  54.439  1.00  0.00     0.090 A 
HETATM    5  C7  UNL     1      24.224  33.880  54.012  1.00  0.00     0.149 A 
HETATM    6  O1  UNL     1      24.111  32.940  53.103  1.00  0.00    -0.291 OA
HETATM    7  C8  UNL     1      23.366  34.776  54.606  1.00  0.00     0.159 A 
HETATM    8  N6  UNL     1      23.771  35.652  55.539  1.00  0.00    -0.325 N 
ATOM      9  H6  UNL     1      23.090  36.293  55.947  1.00  0.00     0.169 HD
HETATM   10  C10 UNL     1      25.061  35.708  55.955  1.00  0.00     0.124 A 
HETATM   11  N7  UNL     1      25.466  36.589  56.891  1.00  0.00    -0.338 N 
ATOM     12  H7  UNL     1      24.779  37.227  57.293  1.00  0.00     0.168 HD
HETATM   13  C11 UNL     1      26.733  36.659  57.313  1.00  0.00     0.183 A 
HETATM   14  N8  UNL     1      27.634  35.827  56.790  1.00  0.00    -0.338 N 
ATOM     15  H8  UNL     1      28.603  35.877  57.107  1.00  0.00     0.168 HD
HETATM   16  C12 UNL     1      27.282  34.899  55.824  1.00  0.00     0.116 A 
HETATM   17  C13 UNL     1      25.977  34.836  55.398  1.00  0.00     0.081 A 
ENDROOT
BRANCH   7  18
HETATM   18  N2  UNL     1      22.127  34.786  54.266  1.00  0.00    -0.173 N 
HETATM   19  C9  UNL     1      21.427  35.883  53.748  1.00  0.00     0.691 C 
HETATM   20  N3  UNL     1      21.501  36.147  52.491  1.00  0.00    -0.233 N 
HETATM   21  N4  UNL     1      20.616  36.748  54.545  1.00  0.00    -0.139 N 
ATOM     22  H32 UNL     1      22.080  35.530  51.922  1.00  0.00     0.174 HD
ATOM     23  H31 UNL     1      20.990  36.946  52.115  1.00  0.00     0.174 HD
ATOM     24  H4  UNL     1      20.334  37.668  54.208  1.00  0.00     0.205 HD
ATOM     25  H2  UNL     1      21.607  33.916  54.383  1.00  0.00     0.186 HD
BRANCH  21  26
HETATM   26  N5  UNL     1      20.226  36.288  55.798  1.00  0.00    -0.331 N 
ATOM     27  H52 UNL     1      19.263  35.999  55.964  1.00  0.00     0.177 HD
ATOM     28  H51 UNL     1      20.936  36.255  56.530  1.00  0.00     0.177 HD
ENDBRANCH  21  26
ENDBRANCH   7  18
BRANCH   1  29
HETATM   29  C4  UNL     1      25.542  31.260  51.937  1.00  0.00     0.095 C 
BRANCH  29  30
HETATM   30  C3  UNL     1      25.080  29.925  52.428  1.00  0.00     0.082 C 
BRANCH  30  31
HETATM   31  S1  UNL     1      26.269  29.365  53.685  1.00  0.00    -0.169 SA
BRANCH  31  32
HETATM   32  C2  UNL     1      25.471  29.042  55.260  1.00  0.00     0.069 C 
HETATM   33  C1  UNL     1      24.343  30.036  55.440  1.00  0.00     0.016 C 
ENDBRANCH  31  32
ENDBRANCH  30  31
ENDBRANCH  29  30
ENDBRANCH   1  29
BRANCH  16  34
HETATM   34  N9  UNL     1      28.166  34.140  55.363  1.00  0.00    -0.385 N 
ATOM     35  H92 UNL     1      28.797  33.617  55.970  1.00  0.00     0.157 HD
ATOM     36  H91 UNL     1      28.254  34.044  54.351  1.00  0.00     0.157 HD
ENDBRANCH  16  34
TORSDOF 7
ENDMDL
