MODEL 1
REMARK VINA RESULT: -7.416117395      0.000      0.000
REMARK  5 active torsions:
REMARK  status: ('A' for Active; 'I' for Inactive)
REMARK    1  A    between atoms: N1_1  and  C1_4 
REMARK    2  A    between atoms: N3_8  and  C3_10 
REMARK    3  A    between atoms: C5_17  and  C6_18 
REMARK    4  A    between atoms: C7_19  and  C8_20 
REMARK    5  A    between atoms: C8_20  and  C9_21 
ROOT
HETATM    1  C1  UNL     1      20.600  36.536  54.408  1.00  0.00     0.678 A 
HETATM    2  N2  UNL     1      21.607  36.484  55.306  1.00  0.00    -0.175 N 
ATOM      3  H2  UNL     1      21.539  37.042  56.157  1.00  0.00     0.186 HD
HETATM    4  C2  UNL     1      22.700  35.717  55.111  1.00  0.00     0.149 A 
HETATM    5  N3  UNL     1      23.606  35.709  55.979  1.00  0.00    -0.332 N 
ATOM      6  H3  UNL     1      23.418  36.309  56.782  1.00  0.00     0.165 HD
HETATM    7  C4  UNL     1      22.746  34.983  53.947  1.00  0.00     0.107 A 
HETATM    8  N6  UNL     1      23.783  34.209  53.684  1.00  0.00    -0.338 N 
ATOM      9  H6  UNL     1      24.547  34.164  54.358  1.00  0.00     0.167 HD
HETATM   10  C5  UNL     1      23.865  33.477  52.561  1.00  0.00     0.105 A 
HETATM   11  N7  UNL     1      22.862  33.532  51.672  1.00  0.00    -0.350 N 
ATOM     12  H7  UNL     1      22.927  32.975  50.819  1.00  0.00     0.166 HD
HETATM   13  C13 UNL     1      21.775  34.294  51.864  1.00  0.00     0.122 A 
HETATM   14  C14 UNL     1      21.700  35.038  53.017  1.00  0.00     0.095 A 
HETATM   15  N8  UNL     1      20.650  35.817  53.275  1.00  0.00    -0.188 N 
ATOM     16  H8  UNL     1      19.880  35.868  52.608  1.00  0.00     0.184 HD
ENDROOT
BRANCH  10  17
HETATM   17  C6  UNL     1      25.049  32.626  52.313  1.00  0.00     0.044 C 
HETATM   18  C7  UNL     1      24.980  31.370  52.636  1.00  0.00    -0.022 C 
BRANCH  18  19
HETATM   19  C8  UNL     1      26.161  30.478  52.399  1.00  0.00     0.034 C 
BRANCH  19  20
HETATM   20  C9  UNL     1      26.038  29.239  53.293  1.00  0.00     0.022 C 
HETATM   21  C10 UNL     1      24.993  29.446  54.331  1.00  0.00     0.174 C 
HETATM   22  O2  UNL     1      25.480  29.554  55.620  1.00  0.00    -0.381 OA
HETATM   23  C11 UNL     1      25.781  28.310  56.184  1.00  0.00     0.241 C 
HETATM   24  S1  UNL     1      27.097  27.606  55.128  1.00  0.00    -0.143 SA
HETATM   25  C12 UNL     1      27.392  28.865  53.849  1.00  0.00     0.083 C 
ENDBRANCH  19  20
ENDBRANCH  18  19
ENDBRANCH  10  17
BRANCH   5  26
HETATM   26  C3  UNL     1      24.840  35.020  56.051  1.00  0.00     0.364 C 
HETATM   27  N4  UNL     1      25.670  35.222  57.198  1.00  0.00    -0.065 NA
HETATM   28  N5  UNL     1      26.010  36.431  56.579  1.00  0.00     0.019 NA
HETATM   29  O1  UNL     1      25.828  35.801  55.396  1.00  0.00    -0.225 OA
ENDBRANCH   5  26
BRANCH   1  30
HETATM   30  N1  UNL     1      19.553  37.273  54.599  1.00  0.00    -0.234 N 
ATOM     31  H12 UNL     1      19.441  38.090  54.000  1.00  0.00     0.174 HD
ATOM     32  H11 UNL     1      18.864  37.051  55.318  1.00  0.00     0.174 HD
ENDBRANCH   1  30
TORSDOF 5
ENDMDL
MODEL 2
REMARK VINA RESULT: -7.023623273      2.734      4.307
REMARK  5 active torsions:
REMARK  status: ('A' for Active; 'I' for Inactive)
REMARK    1  A    between atoms: N1_1  and  C1_4 
REMARK    2  A    between atoms: N3_8  and  C3_10 
REMARK    3  A    between atoms: C5_17  and  C6_18 
REMARK    4  A    between atoms: C7_19  and  C8_20 
REMARK    5  A    between atoms: C8_20  and  C9_21 
ROOT
HETATM    1  C1  UNL     1      24.905  39.715  54.073  1.00  0.00     0.678 A 
HETATM    2  N2  UNL     1      23.609  39.418  53.845  1.00  0.00    -0.175 N 
ATOM      3  H2  UNL     1      22.956  40.174  53.640  1.00  0.00     0.186 HD
HETATM    4  C2  UNL     1      23.149  38.149  53.881  1.00  0.00     0.149 A 
HETATM    5  N3  UNL     1      21.933  37.932  53.662  1.00  0.00    -0.332 N 
ATOM      6  H3  UNL     1      21.388  38.772  53.470  1.00  0.00     0.165 HD
HETATM    7  C4  UNL     1      24.067  37.162  54.162  1.00  0.00     0.107 A 
HETATM    8  N6  UNL     1      23.694  35.897  54.215  1.00  0.00    -0.338 N 
ATOM      9  H6  UNL     1      22.716  35.664  54.044  1.00  0.00     0.167 HD
HETATM   10  C5  UNL     1      24.558  34.905  54.486  1.00  0.00     0.105 A 
HETATM   11  N7  UNL     1      25.846  35.206  54.712  1.00  0.00    -0.350 N 
ATOM     12  H7  UNL     1      26.500  34.450  54.918  1.00  0.00     0.166 HD
HETATM   13  C13 UNL     1      26.304  36.466  54.677  1.00  0.00     0.122 A 
HETATM   14  C14 UNL     1      25.411  37.473  54.398  1.00  0.00     0.095 A 
HETATM   15  N8  UNL     1      25.796  38.748  54.346  1.00  0.00    -0.188 N 
ATOM     16  H8  UNL     1      26.772  38.991  54.515  1.00  0.00     0.184 HD
ENDROOT
BRANCH  10  17
HETATM   17  C6  UNL     1      24.090  33.503  54.535  1.00  0.00     0.044 C 
HETATM   18  C7  UNL     1      24.940  32.583  54.875  1.00  0.00    -0.022 C 
BRANCH  18  19
HETATM   19  C8  UNL     1      24.500  31.151  54.935  1.00  0.00     0.034 C 
BRANCH  19  20
HETATM   20  C9  UNL     1      25.613  30.264  54.365  1.00  0.00     0.022 C 
HETATM   21  C10 UNL     1      25.568  30.258  52.879  1.00  0.00     0.174 C 
HETATM   22  O2  UNL     1      25.183  29.051  52.324  1.00  0.00    -0.381 OA
HETATM   23  C11 UNL     1      26.229  28.122  52.286  1.00  0.00     0.241 C 
HETATM   24  S1  UNL     1      26.681  27.834  54.034  1.00  0.00    -0.143 SA
HETATM   25  C12 UNL     1      25.549  28.890  54.990  1.00  0.00     0.083 C 
ENDBRANCH  19  20
ENDBRANCH  18  19
ENDBRANCH  10  17
BRANCH   5  26
HETATM   26  C3  UNL     1      21.177  36.736  53.632  1.00  0.00     0.364 C 
HETATM   27  N4  UNL     1      20.109  36.624  52.687  1.00  0.00    -0.065 NA
HETATM   28  N5  UNL     1      19.401  37.431  53.586  1.00  0.00     0.019 NA
HETATM   29  O1  UNL     1      20.121  36.849  54.573  1.00  0.00    -0.225 OA
ENDBRANCH   5  26
BRANCH   1  30
HETATM   30  N1  UNL     1      25.342  40.933  54.037  1.00  0.00    -0.234 N 
ATOM     31  H12 UNL     1      25.139  41.527  54.841  1.00  0.00     0.174 HD
ATOM     32  H11 UNL     1      25.869  41.292  53.241  1.00  0.00     0.174 HD
ENDBRANCH   1  30
TORSDOF 5
ENDMDL
MODEL 3
REMARK VINA RESULT: -6.943010651      2.863      4.101
REMARK  5 active torsions:
REMARK  status: ('A' for Active; 'I' for Inactive)
REMARK    1  A    between atoms: N1_1  and  C1_4 
REMARK    2  A    between atoms: N3_8  and  C3_10 
REMARK    3  A    between atoms: C5_17  and  C6_18 
REMARK    4  A    between atoms: C7_19  and  C8_20 
REMARK    5  A    between atoms: C8_20  and  C9_21 
ROOT
HETATM    1  C1  UNL     1      24.618  39.874  53.752  1.00  0.00     0.678 A 
HETATM    2  N2  UNL     1      23.346  39.471  53.960  1.00  0.00    -0.175 N 
ATOM      3  H2  UNL     1      22.653  40.157  54.257  1.00  0.00     0.186 HD
HETATM    4  C2  UNL     1      22.965  38.188  53.787  1.00  0.00     0.149 A 
HETATM    5  N3  UNL     1      21.769  37.871  53.995  1.00  0.00    -0.332 N 
ATOM      6  H3  UNL     1      21.177  38.648  54.288  1.00  0.00     0.165 HD
HETATM    7  C4  UNL     1      23.936  37.299  53.386  1.00  0.00     0.107 A 
HETATM    8  N6  UNL     1      23.642  36.026  53.195  1.00  0.00    -0.338 N 
ATOM      9  H6  UNL     1      22.683  35.714  53.349  1.00  0.00     0.167 HD
HETATM   10  C5  UNL     1      24.560  35.128  52.804  1.00  0.00     0.105 A 
HETATM   11  N7  UNL     1      25.823  35.533  52.598  1.00  0.00    -0.350 N 
ATOM     12  H7  UNL     1      26.518  34.848  52.301  1.00  0.00     0.166 HD
HETATM   13  C13 UNL     1      26.202  36.807  52.770  1.00  0.00     0.122 A 
HETATM   14  C14 UNL     1      25.255  37.719  53.170  1.00  0.00     0.095 A 
HETATM   15  N8  UNL     1      25.561  39.002  53.360  1.00  0.00    -0.188 N 
ATOM     16  H8  UNL     1      26.517  39.324  53.207  1.00  0.00     0.184 HD
ENDROOT
BRANCH  10  17
HETATM   17  C6  UNL     1      24.179  33.713  52.605  1.00  0.00     0.044 C 
HETATM   18  C7  UNL     1      25.124  32.827  52.531  1.00  0.00    -0.022 C 
BRANCH  18  19
HETATM   19  C8  UNL     1      24.774  31.383  52.329  1.00  0.00     0.034 C 
BRANCH  19  20
HETATM   20  C9  UNL     1      25.589  30.531  53.309  1.00  0.00     0.022 C 
HETATM   21  C10 UNL     1      26.410  29.532  52.576  1.00  0.00     0.174 C 
HETATM   22  O2  UNL     1      26.006  28.221  52.750  1.00  0.00    -0.381 OA
HETATM   23  C11 UNL     1      26.450  27.681  53.962  1.00  0.00     0.241 C 
HETATM   24  S1  UNL     1      25.666  28.703  55.261  1.00  0.00    -0.143 SA
HETATM   25  C12 UNL     1      24.677  29.932  54.355  1.00  0.00     0.083 C 
ENDBRANCH  19  20
ENDBRANCH  18  19
ENDBRANCH  10  17
BRANCH   5  26
HETATM   26  C3  UNL     1      21.090  36.633  53.900  1.00  0.00     0.364 C 
HETATM   27  N4  UNL     1      20.264  36.392  52.757  1.00  0.00    -0.065 NA
HETATM   28  N5  UNL     1      19.341  37.218  53.410  1.00  0.00     0.019 NA
HETATM   29  O1  UNL     1      19.846  36.751  54.574  1.00  0.00    -0.225 OA
ENDBRANCH   5  26
BRANCH   1  30
HETATM   30  N1  UNL     1      24.979  41.105  53.919  1.00  0.00    -0.234 N 
ATOM     31  H12 UNL     1      24.381  41.694  54.499  1.00  0.00     0.174 HD
ATOM     32  H11 UNL     1      25.827  41.480  53.492  1.00  0.00     0.174 HD
ENDBRANCH   1  30
TORSDOF 5
ENDMDL
MODEL 4
REMARK VINA RESULT: -6.838407392      2.401      3.371
REMARK  5 active torsions:
REMARK  status: ('A' for Active; 'I' for Inactive)
REMARK    1  A    between atoms: N1_1  and  C1_4 
REMARK    2  A    between atoms: N3_8  and  C3_10 
REMARK    3  A    between atoms: C5_17  and  C6_18 
REMARK    4  A    between atoms: C7_19  and  C8_20 
REMARK    5  A    between atoms: C8_20  and  C9_21 
ROOT
HETATM    1  C1  UNL     1      23.472  39.036  53.588  1.00  0.00     0.678 A 
HETATM    2  N2  UNL     1      22.336  38.444  54.014  1.00  0.00    -0.175 N 
ATOM      3  H2  UNL     1      21.547  39.028  54.291  1.00  0.00     0.186 HD
HETATM    4  C2  UNL     1      22.212  37.102  54.083  1.00  0.00     0.149 A 
HETATM    5  N3  UNL     1      21.133  36.605  54.487  1.00  0.00    -0.332 N 
ATOM      6  H3  UNL     1      20.424  37.296  54.734  1.00  0.00     0.165 HD
HETATM    7  C4  UNL     1      23.304  36.355  53.699  1.00  0.00     0.107 A 
HETATM    8  N6  UNL     1      23.261  35.036  53.738  1.00  0.00    -0.338 N 
ATOM      9  H6  UNL     1      22.406  34.581  54.058  1.00  0.00     0.167 HD
HETATM   10  C5  UNL     1      24.303  34.273  53.372  1.00  0.00     0.105 A 
HETATM   11  N7  UNL     1      25.430  34.867  52.949  1.00  0.00    -0.350 N 
ATOM     12  H7  UNL     1      26.220  34.285  52.671  1.00  0.00     0.166 HD
HETATM   13  C13 UNL     1      25.553  36.200  52.880  1.00  0.00     0.122 A 
HETATM   14  C14 UNL     1      24.481  36.972  53.257  1.00  0.00     0.095 A 
HETATM   15  N8  UNL     1      24.533  38.303  53.214  1.00  0.00    -0.188 N 
ATOM     16  H8  UNL     1      25.382  38.768  52.894  1.00  0.00     0.184 HD
ENDROOT
BRANCH  10  17
HETATM   17  C6  UNL     1      24.204  32.799  53.435  1.00  0.00     0.044 C 
HETATM   18  C7  UNL     1      25.275  32.101  53.207  1.00  0.00    -0.022 C 
BRANCH  18  19
HETATM   19  C8  UNL     1      25.211  30.604  53.263  1.00  0.00     0.034 C 
BRANCH  19  20
HETATM   20  C9  UNL     1      25.592  30.142  54.674  1.00  0.00     0.022 C 
HETATM   21  C10 UNL     1      26.504  28.969  54.612  1.00  0.00     0.174 C 
HETATM   22  O2  UNL     1      25.945  27.785  55.054  1.00  0.00    -0.381 OA
HETATM   23  C11 UNL     1      25.931  27.688  56.449  1.00  0.00     0.241 C 
HETATM   24  S1  UNL     1      24.878  29.070  57.018  1.00  0.00    -0.143 SA
HETATM   25  C12 UNL     1      24.346  29.909  55.496  1.00  0.00     0.083 C 
ENDBRANCH  19  20
ENDBRANCH  18  19
ENDBRANCH  10  17
BRANCH   5  26
HETATM   26  C3  UNL     1      20.717  35.264  54.664  1.00  0.00     0.364 C 
HETATM   27  N4  UNL     1      19.457  35.016  55.292  1.00  0.00    -0.065 NA
HETATM   28  N5  UNL     1      20.139  35.302  56.481  1.00  0.00     0.019 NA
HETATM   29  O1  UNL     1      21.244  34.790  55.893  1.00  0.00    -0.225 OA
ENDBRANCH   5  26
BRANCH   1  30
HETATM   30  N1  UNL     1      23.585  40.324  53.523  1.00  0.00    -0.234 N 
ATOM     31  H12 UNL     1      24.085  40.789  54.281  1.00  0.00     0.174 HD
ATOM     32  H11 UNL     1      23.195  40.860  52.747  1.00  0.00     0.174 HD
ENDBRANCH   1  30
TORSDOF 5
ENDMDL
MODEL 5
REMARK VINA RESULT: -6.703954984      2.434      3.434
REMARK  5 active torsions:
REMARK  status: ('A' for Active; 'I' for Inactive)
REMARK    1  A    between atoms: N1_1  and  C1_4 
REMARK    2  A    between atoms: N3_8  and  C3_10 
REMARK    3  A    between atoms: C5_17  and  C6_18 
REMARK    4  A    between atoms: C7_19  and  C8_20 
REMARK    5  A    between atoms: C8_20  and  C9_21 
ROOT
HETATM    1  C1  UNL     1      23.557  38.922  53.451  1.00  0.00     0.678 A 
HETATM    2  N2  UNL     1      22.419  38.364  53.916  1.00  0.00    -0.175 N 
ATOM      3  H2  UNL     1      21.640  38.970  54.173  1.00  0.00     0.186 HD
HETATM    4  C2  UNL     1      22.281  37.029  54.053  1.00  0.00     0.149 A 
HETATM    5  N3  UNL     1      21.201  36.565  54.491  1.00  0.00    -0.332 N 
ATOM      6  H3  UNL     1      20.503  37.275  54.711  1.00  0.00     0.165 HD
HETATM    7  C4  UNL     1      23.360  36.252  53.694  1.00  0.00     0.107 A 
HETATM    8  N6  UNL     1      23.303  34.937  53.799  1.00  0.00    -0.338 N 
ATOM      9  H6  UNL     1      22.447  34.508  54.149  1.00  0.00     0.167 HD
HETATM   10  C5  UNL     1      24.333  34.145  53.460  1.00  0.00     0.105 A 
HETATM   11  N7  UNL     1      25.462  34.705  52.998  1.00  0.00    -0.350 N 
ATOM     12  H7  UNL     1      26.243  34.100  52.741  1.00  0.00     0.166 HD
HETATM   13  C13 UNL     1      25.600  36.031  52.862  1.00  0.00     0.122 A 
HETATM   14  C14 UNL     1      24.540  36.833  53.212  1.00  0.00     0.095 A 
HETATM   15  N8  UNL     1      24.606  38.160  53.102  1.00  0.00    -0.188 N 
ATOM     16  H8  UNL     1      25.457  38.598  52.752  1.00  0.00     0.184 HD
ENDROOT
BRANCH  10  17
HETATM   17  C6  UNL     1      24.219  32.677  53.597  1.00  0.00     0.044 C 
HETATM   18  C7  UNL     1      24.815  32.105  54.597  1.00  0.00    -0.022 C 
BRANCH  18  19
HETATM   19  C8  UNL     1      24.721  30.618  54.767  1.00  0.00     0.034 C 
BRANCH  19  20
HETATM   20  C9  UNL     1      26.010  29.974  54.245  1.00  0.00     0.022 C 
HETATM   21  C10 UNL     1      25.928  29.754  52.777  1.00  0.00     0.174 C 
HETATM   22  O2  UNL     1      25.856  28.425  52.400  1.00  0.00    -0.381 OA
HETATM   23  C11 UNL     1      27.105  27.797  52.415  1.00  0.00     0.241 C 
HETATM   24  S1  UNL     1      27.664  27.874  54.154  1.00  0.00    -0.143 SA
HETATM   25  C12 UNL     1      26.323  28.727  55.038  1.00  0.00     0.083 C 
ENDBRANCH  19  20
ENDBRANCH  18  19
ENDBRANCH  10  17
BRANCH   5  26
HETATM   26  C3  UNL     1      20.772  35.240  54.737  1.00  0.00     0.364 C 
HETATM   27  N4  UNL     1      19.491  35.036  55.338  1.00  0.00    -0.065 NA
HETATM   28  N5  UNL     1      20.135  35.393  56.529  1.00  0.00     0.019 NA
HETATM   29  O1  UNL     1      21.256  34.841  56.011  1.00  0.00    -0.225 OA
ENDBRANCH   5  26
BRANCH   1  30
HETATM   30  N1  UNL     1      23.684  40.204  53.322  1.00  0.00    -0.234 N 
ATOM     31  H12 UNL     1      23.516  40.777  54.148  1.00  0.00     0.174 HD
ATOM     32  H11 UNL     1      23.944  40.631  52.432  1.00  0.00     0.174 HD
ENDBRANCH   1  30
TORSDOF 5
ENDMDL
