MODEL 1
REMARK VINA RESULT: -8.137769245      0.000      0.000
REMARK  7 active torsions:
REMARK  status: ('A' for Active; 'I' for Inactive)
REMARK    1  A    between atoms: C4_8  and  N4_9 
REMARK    2  A    between atoms: C5_14  and  N6_15 
REMARK    3  A    between atoms: N6_15  and  N7_17 
REMARK    4  A    between atoms: C6_19  and  C7_20 
REMARK    5  A    between atoms: C10_25  and  N9_26 
REMARK    6  A    between atoms: N9_26  and  C11_28 
REMARK    7  A    between atoms: C11_28  and  C12_29 
ROOT
HETATM    1  N1  UNL     1     -21.212  34.171 -10.002  1.00  0.00    -0.191 NA
HETATM    2  C1  UNL     1     -22.124  34.872 -10.104  1.00  0.00     0.107 C 
HETATM    3  C2  UNL     1     -23.260  35.753 -10.229  1.00  0.00     0.132 A 
HETATM    4  C3  UNL     1     -24.396  35.560  -9.446  1.00  0.00     0.156 A 
HETATM    5  N2  UNL     1     -24.449  34.497  -8.521  1.00  0.00    -0.080 NA
HETATM    6  N3  UNL     1     -25.430  36.418  -9.606  1.00  0.00    -0.177 N 
ATOM      7  H3  UNL     1     -26.264  36.281  -9.036  1.00  0.00     0.185 HD
HETATM    8  C4  UNL     1     -25.414  37.437 -10.474  1.00  0.00     0.678 A 
HETATM    9  N5  UNL     1     -24.324  37.621 -11.223  1.00  0.00    -0.174 N 
ATOM     10  H5  UNL     1     -24.296  38.394 -11.890  1.00  0.00     0.186 HD
HETATM   11  C5  UNL     1     -23.266  36.805 -11.113  1.00  0.00     0.159 A 
ENDROOT
BRANCH  11  12
HETATM   12  N6  UNL     1     -22.221  37.005 -11.851  1.00  0.00    -0.284 N 
ATOM     13  H6  UNL     1     -21.960  36.309 -12.549  1.00  0.00     0.188 HD
BRANCH  12  14
HETATM   14  N7  UNL     1     -21.473  38.117 -11.712  1.00  0.00    -0.308 N 
HETATM   15  C6  UNL     1     -20.292  38.251 -11.361  1.00  0.00     0.137 C 
ATOM     16  H7  UNL     1     -21.957  38.987 -11.930  1.00  0.00     0.186 HD
BRANCH  15  17
HETATM   17  C7  UNL     1     -19.350  37.248 -10.991  1.00  0.00     0.067 A 
HETATM   18  C8  UNL     1     -18.401  36.686 -11.782  1.00  0.00     0.049 A 
HETATM   19  C9  UNL     1     -17.523  35.702 -11.311  1.00  0.00     0.108 A 
HETATM   20  N8  UNL     1     -17.622  35.303 -10.046  1.00  0.00    -0.202 N 
HETATM   21  C10 UNL     1     -18.565  35.847  -9.227  1.00  0.00     0.678 A 
ATOM     22  H8  UNL     1     -16.991  34.587  -9.688  1.00  0.00     0.183 HD
HETATM   23  N10 UNL     1     -19.392  36.786  -9.699  1.00  0.00    -0.191 N 
ATOM     24  H10 UNL     1     -20.090  37.179  -9.067  1.00  0.00     0.184 HD
BRANCH  21  25
HETATM   25  N9  UNL     1     -18.647  35.456  -8.022  1.00  0.00    -0.224 N 
ATOM     26  H9  UNL     1     -19.548  35.091  -7.713  1.00  0.00     0.177 HD
BRANCH  25  27
HETATM   27  C11 UNL     1     -17.591  35.480  -7.061  1.00  0.00     0.170 C 
BRANCH  27  28
HETATM   28  C12 UNL     1     -18.138  35.637  -5.637  1.00  0.00     0.139 C 
HETATM   29  C13 UNL     1     -17.014  36.151  -4.780  1.00  0.00     0.035 C 
HETATM   30  C14 UNL     1     -17.296  37.627  -4.710  1.00  0.00     0.029 C 
HETATM   31  C15 UNL     1     -18.673  37.779  -5.279  1.00  0.00     0.168 C 
HETATM   32  O1  UNL     1     -19.167  36.536  -5.578  1.00  0.00    -0.384 OA
ENDBRANCH  27  28
ENDBRANCH  25  27
ENDBRANCH  21  25
ENDBRANCH  15  17
ENDBRANCH  12  14
ENDBRANCH  11  12
BRANCH   8  33
HETATM   33  N4  UNL     1     -26.429  38.223 -10.583  1.00  0.00    -0.234 N 
ATOM     34  H42 UNL     1     -27.324  37.875 -10.929  1.00  0.00     0.174 HD
ATOM     35  H41 UNL     1     -26.356  39.206 -10.325  1.00  0.00     0.174 HD
ENDBRANCH   8  33
TORSDOF 7
ENDMDL
MODEL 2
REMARK VINA RESULT: -8.034153424      1.156      1.669
REMARK  7 active torsions:
REMARK  status: ('A' for Active; 'I' for Inactive)
REMARK    1  A    between atoms: C4_8  and  N4_9 
REMARK    2  A    between atoms: C5_14  and  N6_15 
REMARK    3  A    between atoms: N6_15  and  N7_17 
REMARK    4  A    between atoms: C6_19  and  C7_20 
REMARK    5  A    between atoms: C10_25  and  N9_26 
REMARK    6  A    between atoms: N9_26  and  C11_28 
REMARK    7  A    between atoms: C11_28  and  C12_29 
ROOT
HETATM    1  N1  UNL     1     -21.062  34.168  -9.964  1.00  0.00    -0.191 NA
HETATM    2  C1  UNL     1     -21.978  34.861 -10.084  1.00  0.00     0.107 C 
HETATM    3  C2  UNL     1     -23.119  35.732 -10.232  1.00  0.00     0.132 A 
HETATM    4  C3  UNL     1     -24.246  35.567  -9.429  1.00  0.00     0.156 A 
HETATM    5  N2  UNL     1     -24.284  34.542  -8.460  1.00  0.00    -0.080 NA
HETATM    6  N3  UNL     1     -25.285  36.413  -9.612  1.00  0.00    -0.177 N 
ATOM      7  H3  UNL     1     -26.112  36.297  -9.027  1.00  0.00     0.185 HD
HETATM    8  C4  UNL     1     -25.283  37.396 -10.520  1.00  0.00     0.678 A 
HETATM    9  N5  UNL     1     -24.203  37.554 -11.289  1.00  0.00    -0.174 N 
ATOM     10  H5  UNL     1     -24.186  38.299 -11.986  1.00  0.00     0.186 HD
HETATM   11  C5  UNL     1     -23.140  36.747 -11.158  1.00  0.00     0.159 A 
ENDROOT
BRANCH  11  12
HETATM   12  N6  UNL     1     -22.105  36.921 -11.915  1.00  0.00    -0.284 N 
ATOM     13  H6  UNL     1     -21.820  36.177 -12.552  1.00  0.00     0.188 HD
BRANCH  12  14
HETATM   14  N7  UNL     1     -21.398  38.067 -11.876  1.00  0.00    -0.308 N 
HETATM   15  C6  UNL     1     -20.255  38.292 -11.451  1.00  0.00     0.137 C 
ATOM     16  H7  UNL     1     -21.881  38.880 -12.258  1.00  0.00     0.186 HD
BRANCH  15  17
HETATM   17  C7  UNL     1     -19.327  37.386 -10.864  1.00  0.00     0.067 A 
HETATM   18  C8  UNL     1     -18.607  36.426 -11.499  1.00  0.00     0.049 A 
HETATM   19  C9  UNL     1     -17.717  35.586 -10.818  1.00  0.00     0.108 A 
HETATM   20  N8  UNL     1     -17.572  35.732  -9.504  1.00  0.00    -0.202 N 
HETATM   21  C10 UNL     1     -18.280  36.685  -8.837  1.00  0.00     0.678 A 
ATOM     22  H8  UNL     1     -16.929  35.128  -8.993  1.00  0.00     0.183 HD
HETATM   23  N10 UNL     1     -19.124  37.476  -9.509  1.00  0.00    -0.191 N 
ATOM     24  H10 UNL     1     -19.644  38.183  -8.988  1.00  0.00     0.184 HD
BRANCH  21  25
HETATM   25  N9  UNL     1     -18.131  36.813  -7.583  1.00  0.00    -0.224 N 
ATOM     26  H9  UNL     1     -17.676  37.664  -7.253  1.00  0.00     0.177 HD
BRANCH  25  27
HETATM   27  C11 UNL     1     -18.545  35.871  -6.591  1.00  0.00     0.170 C 
BRANCH  27  28
HETATM   28  C12 UNL     1     -17.338  35.252  -5.876  1.00  0.00     0.139 C 
HETATM   29  C13 UNL     1     -17.871  34.268  -4.872  1.00  0.00     0.035 C 
HETATM   30  C14 UNL     1     -17.722  32.950  -5.584  1.00  0.00     0.029 C 
HETATM   31  C15 UNL     1     -16.879  33.260  -6.782  1.00  0.00     0.168 C 
HETATM   32  O1  UNL     1     -16.518  34.580  -6.739  1.00  0.00    -0.384 OA
ENDBRANCH  27  28
ENDBRANCH  25  27
ENDBRANCH  21  25
ENDBRANCH  15  17
ENDBRANCH  12  14
ENDBRANCH  11  12
BRANCH   8  33
HETATM   33  N4  UNL     1     -26.303  38.173 -10.650  1.00  0.00    -0.234 N 
ATOM     34  H42 UNL     1     -26.819  38.499  -9.832  1.00  0.00     0.174 HD
ATOM     35  H41 UNL     1     -26.613  38.476 -11.573  1.00  0.00     0.174 HD
ENDBRANCH   8  33
TORSDOF 7
ENDMDL
MODEL 3
REMARK VINA RESULT: -7.898064770      0.872      1.028
REMARK  7 active torsions:
REMARK  status: ('A' for Active; 'I' for Inactive)
REMARK    1  A    between atoms: C4_8  and  N4_9 
REMARK    2  A    between atoms: C5_14  and  N6_15 
REMARK    3  A    between atoms: N6_15  and  N7_17 
REMARK    4  A    between atoms: C6_19  and  C7_20 
REMARK    5  A    between atoms: C10_25  and  N9_26 
REMARK    6  A    between atoms: N9_26  and  C11_28 
REMARK    7  A    between atoms: C11_28  and  C12_29 
ROOT
HETATM    1  N1  UNL     1     -21.247  34.062  -9.972  1.00  0.00    -0.191 NA
HETATM    2  C1  UNL     1     -22.139  34.785 -10.091  1.00  0.00     0.107 C 
HETATM    3  C2  UNL     1     -23.250  35.694 -10.237  1.00  0.00     0.132 A 
HETATM    4  C3  UNL     1     -24.404  35.532  -9.474  1.00  0.00     0.156 A 
HETATM    5  N2  UNL     1     -24.500  34.472  -8.547  1.00  0.00    -0.080 NA
HETATM    6  N3  UNL     1     -25.414  36.414  -9.653  1.00  0.00    -0.177 N 
ATOM      7  H3  UNL     1     -26.261  36.300  -9.097  1.00  0.00     0.185 HD
HETATM    8  C4  UNL     1     -25.357  37.431 -10.522  1.00  0.00     0.678 A 
HETATM    9  N5  UNL     1     -24.251  37.586 -11.253  1.00  0.00    -0.174 N 
ATOM     10  H5  UNL     1     -24.192  38.356 -11.920  1.00  0.00     0.186 HD
HETATM   11  C5  UNL     1     -23.215  36.745 -11.123  1.00  0.00     0.159 A 
ENDROOT
BRANCH  11  12
HETATM   12  N6  UNL     1     -22.154  36.916 -11.843  1.00  0.00    -0.284 N 
ATOM     13  H6  UNL     1     -21.867  36.188 -12.496  1.00  0.00     0.188 HD
BRANCH  12  14
HETATM   14  N7  UNL     1     -21.420  38.042 -11.743  1.00  0.00    -0.308 N 
HETATM   15  C6  UNL     1     -20.250  38.208 -11.370  1.00  0.00     0.137 C 
ATOM     16  H7  UNL     1     -21.906  38.895 -12.020  1.00  0.00     0.186 HD
BRANCH  15  17
HETATM   17  C7  UNL     1     -19.309  37.237 -10.923  1.00  0.00     0.067 A 
HETATM   18  C8  UNL     1     -18.277  36.712 -11.632  1.00  0.00     0.049 A 
HETATM   19  C9  UNL     1     -17.408  35.756 -11.090  1.00  0.00     0.108 A 
HETATM   20  N8  UNL     1     -17.600  35.348  -9.839  1.00  0.00    -0.202 N 
HETATM   21  C10 UNL     1     -18.627  35.855  -9.102  1.00  0.00     0.678 A 
ATOM     22  H8  UNL     1     -16.976  34.653  -9.430  1.00  0.00     0.183 HD
HETATM   23  N10 UNL     1     -19.443  36.767  -9.640  1.00  0.00    -0.191 N 
ATOM     24  H10 UNL     1     -20.206  37.133  -9.069  1.00  0.00     0.184 HD
BRANCH  21  25
HETATM   25  N9  UNL     1     -18.797  35.456  -7.909  1.00  0.00    -0.224 N 
ATOM     26  H9  UNL     1     -19.685  35.002  -7.693  1.00  0.00     0.177 HD
BRANCH  25  27
HETATM   27  C11 UNL     1     -17.857  35.586  -6.841  1.00  0.00     0.170 C 
BRANCH  27  28
HETATM   28  C12 UNL     1     -17.590  37.059  -6.511  1.00  0.00     0.139 C 
HETATM   29  C13 UNL     1     -17.766  37.224  -5.027  1.00  0.00     0.035 C 
HETATM   30  C14 UNL     1     -16.351  37.183  -4.516  1.00  0.00     0.029 C 
HETATM   31  C15 UNL     1     -15.501  37.282  -5.745  1.00  0.00     0.168 C 
HETATM   32  O1  UNL     1     -16.316  37.436  -6.835  1.00  0.00    -0.384 OA
ENDBRANCH  27  28
ENDBRANCH  25  27
ENDBRANCH  21  25
ENDBRANCH  15  17
ENDBRANCH  12  14
ENDBRANCH  11  12
BRANCH   8  33
HETATM   33  N4  UNL     1     -26.351  38.241 -10.650  1.00  0.00    -0.234 N 
ATOM     34  H42 UNL     1     -27.299  37.947 -10.416  1.00  0.00     0.174 HD
ATOM     35  H41 UNL     1     -26.206  39.193 -10.988  1.00  0.00     0.174 HD
ENDBRANCH   8  33
TORSDOF 7
ENDMDL
MODEL 4
REMARK VINA RESULT: -7.866867895      1.312      1.679
REMARK  7 active torsions:
REMARK  status: ('A' for Active; 'I' for Inactive)
REMARK    1  A    between atoms: C4_8  and  N4_9 
REMARK    2  A    between atoms: C5_14  and  N6_15 
REMARK    3  A    between atoms: N6_15  and  N7_17 
REMARK    4  A    between atoms: C6_19  and  C7_20 
REMARK    5  A    between atoms: C10_25  and  N9_26 
REMARK    6  A    between atoms: N9_26  and  C11_28 
REMARK    7  A    between atoms: C11_28  and  C12_29 
ROOT
HETATM    1  N1  UNL     1     -21.081  34.001  -9.818  1.00  0.00    -0.191 NA
HETATM    2  C1  UNL     1     -21.968  34.724  -9.972  1.00  0.00     0.107 C 
HETATM    3  C2  UNL     1     -23.074  35.631 -10.163  1.00  0.00     0.132 A 
HETATM    4  C3  UNL     1     -24.252  35.476  -9.436  1.00  0.00     0.156 A 
HETATM    5  N2  UNL     1     -24.378  34.426  -8.502  1.00  0.00    -0.080 NA
HETATM    6  N3  UNL     1     -25.254  36.357  -9.655  1.00  0.00    -0.177 N 
ATOM      7  H3  UNL     1     -26.120  36.248  -9.126  1.00  0.00     0.185 HD
HETATM    8  C4  UNL     1     -25.170  37.365 -10.532  1.00  0.00     0.678 A 
HETATM    9  N5  UNL     1     -24.041  37.513 -11.229  1.00  0.00    -0.174 N 
ATOM     10  H5  UNL     1     -23.961  38.277 -11.901  1.00  0.00     0.186 HD
HETATM   11  C5  UNL     1     -23.010  36.673 -11.057  1.00  0.00     0.159 A 
ENDROOT
BRANCH  11  12
HETATM   12  N6  UNL     1     -21.926  36.838 -11.744  1.00  0.00    -0.284 N 
ATOM     13  H6  UNL     1     -21.666  36.143 -12.445  1.00  0.00     0.188 HD
BRANCH  12  14
HETATM   14  N7  UNL     1     -21.135  37.911 -11.550  1.00  0.00    -0.308 N 
HETATM   15  C6  UNL     1     -19.906  37.989 -11.412  1.00  0.00     0.137 C 
ATOM     16  H7  UNL     1     -21.628  38.803 -11.511  1.00  0.00     0.186 HD
BRANCH  15  17
HETATM   17  C7  UNL     1     -18.939  36.943 -11.418  1.00  0.00     0.067 A 
HETATM   18  C8  UNL     1     -18.086  36.623 -12.425  1.00  0.00     0.049 A 
HETATM   19  C9  UNL     1     -17.171  35.568 -12.321  1.00  0.00     0.108 A 
HETATM   20  N8  UNL     1     -17.136  34.855 -11.199  1.00  0.00    -0.202 N 
HETATM   21  C10 UNL     1     -17.978  35.151 -10.171  1.00  0.00     0.678 A 
ATOM     22  H8  UNL     1     -16.475  34.083 -11.108  1.00  0.00     0.183 HD
HETATM   23  N10 UNL     1     -18.844  36.163 -10.292  1.00  0.00    -0.191 N 
ATOM     24  H10 UNL     1     -19.465  36.367  -9.509  1.00  0.00     0.184 HD
BRANCH  21  25
HETATM   25  N9  UNL     1     -17.932  34.461  -9.106  1.00  0.00    -0.224 N 
ATOM     26  H9  UNL     1     -17.626  33.492  -9.193  1.00  0.00     0.177 HD
BRANCH  25  27
HETATM   27  C11 UNL     1     -18.270  34.921  -7.796  1.00  0.00     0.170 C 
BRANCH  27  28
HETATM   28  C12 UNL     1     -17.135  34.648  -6.802  1.00  0.00     0.139 C 
HETATM   29  C13 UNL     1     -17.567  35.197  -5.470  1.00  0.00     0.035 C 
HETATM   30  C14 UNL     1     -18.064  33.972  -4.750  1.00  0.00     0.029 C 
HETATM   31  C15 UNL     1     -17.620  32.824  -5.603  1.00  0.00     0.168 C 
HETATM   32  O1  UNL     1     -16.890  33.311  -6.655  1.00  0.00    -0.384 OA
ENDBRANCH  27  28
ENDBRANCH  25  27
ENDBRANCH  21  25
ENDBRANCH  15  17
ENDBRANCH  12  14
ENDBRANCH  11  12
BRANCH   8  33
HETATM   33  N4  UNL     1     -26.159  38.174 -10.700  1.00  0.00    -0.234 N 
ATOM     34  H42 UNL     1     -27.013  38.076 -10.151  1.00  0.00     0.174 HD
ATOM     35  H41 UNL     1     -26.103  38.928 -11.384  1.00  0.00     0.174 HD
ENDBRANCH   8  33
TORSDOF 7
ENDMDL
MODEL 5
REMARK VINA RESULT: -7.716239661      3.947      5.783
REMARK  7 active torsions:
REMARK  status: ('A' for Active; 'I' for Inactive)
REMARK    1  A    between atoms: C4_8  and  N4_9 
REMARK    2  A    between atoms: C5_14  and  N6_15 
REMARK    3  A    between atoms: N6_15  and  N7_17 
REMARK    4  A    between atoms: C6_19  and  C7_20 
REMARK    5  A    between atoms: C10_25  and  N9_26 
REMARK    6  A    between atoms: N9_26  and  C11_28 
REMARK    7  A    between atoms: C11_28  and  C12_29 
ROOT
HETATM    1  N1  UNL     1     -23.498  35.114  -8.440  1.00  0.00    -0.191 NA
HETATM    2  C1  UNL     1     -22.742  35.279  -9.298  1.00  0.00     0.107 C 
HETATM    3  C2  UNL     1     -21.796  35.492 -10.367  1.00  0.00     0.132 A 
HETATM    4  C3  UNL     1     -22.220  35.516 -11.693  1.00  0.00     0.156 A 
HETATM    5  N2  UNL     1     -23.583  35.333 -12.008  1.00  0.00    -0.080 NA
HETATM    6  N3  UNL     1     -21.290  35.720 -12.654  1.00  0.00    -0.177 N 
ATOM      7  H3  UNL     1     -21.594  35.738 -13.627  1.00  0.00     0.185 HD
HETATM    8  C4  UNL     1     -19.989  35.898 -12.392  1.00  0.00     0.678 A 
HETATM    9  N5  UNL     1     -19.583  35.874 -11.120  1.00  0.00    -0.174 N 
ATOM     10  H5  UNL     1     -18.595  36.009 -10.905  1.00  0.00     0.186 HD
HETATM   11  C5  UNL     1     -20.456  35.677 -10.122  1.00  0.00     0.159 A 
ENDROOT
BRANCH  11  12
HETATM   12  N6  UNL     1     -20.039  35.658  -8.898  1.00  0.00    -0.284 N 
ATOM     13  H6  UNL     1     -20.569  35.143  -8.195  1.00  0.00     0.188 HD
BRANCH  12  14
HETATM   14  N7  UNL     1     -18.915  36.307  -8.536  1.00  0.00    -0.308 N 
HETATM   15  C6  UNL     1     -18.037  35.997  -7.717  1.00  0.00     0.137 C 
ATOM     16  H7  UNL     1     -18.762  37.195  -9.012  1.00  0.00     0.186 HD
BRANCH  15  17
HETATM   17  C7  UNL     1     -17.951  34.837  -6.896  1.00  0.00     0.067 A 
HETATM   18  C8  UNL     1     -18.052  34.783  -5.543  1.00  0.00     0.049 A 
HETATM   19  C9  UNL     1     -17.952  33.580  -4.833  1.00  0.00     0.108 A 
HETATM   20  N8  UNL     1     -17.750  32.451  -5.507  1.00  0.00    -0.202 N 
HETATM   21  C10 UNL     1     -17.644  32.471  -6.865  1.00  0.00     0.678 A 
ATOM     22  H8  UNL     1     -17.674  31.566  -5.005  1.00  0.00     0.183 HD
HETATM   23  N10 UNL     1     -17.743  33.632  -7.521  1.00  0.00    -0.191 N 
ATOM     24  H10 UNL     1     -17.660  33.623  -8.538  1.00  0.00     0.184 HD
BRANCH  21  25
HETATM   25  N9  UNL     1     -17.451  31.385  -7.493  1.00  0.00    -0.224 N 
ATOM     26  H9  UNL     1     -17.687  31.375  -8.486  1.00  0.00     0.177 HD
BRANCH  25  27
HETATM   27  C11 UNL     1     -16.934  30.176  -6.936  1.00  0.00     0.170 C 
BRANCH  27  28
HETATM   28  C12 UNL     1     -17.260  28.970  -7.825  1.00  0.00     0.139 C 
HETATM   29  C13 UNL     1     -17.355  27.767  -6.929  1.00  0.00     0.035 C 
HETATM   30  C14 UNL     1     -18.839  27.617  -6.728  1.00  0.00     0.029 C 
HETATM   31  C15 UNL     1     -19.453  28.547  -7.729  1.00  0.00     0.168 C 
HETATM   32  O1  UNL     1     -18.454  29.117  -8.473  1.00  0.00    -0.384 OA
ENDBRANCH  27  28
ENDBRANCH  25  27
ENDBRANCH  21  25
ENDBRANCH  15  17
ENDBRANCH  12  14
ENDBRANCH  11  12
BRANCH   8  33
HETATM   33  N4  UNL     1     -19.147  36.088 -13.349  1.00  0.00    -0.234 N 
ATOM     34  H42 UNL     1     -18.150  36.186 -13.156  1.00  0.00     0.174 HD
ATOM     35  H41 UNL     1     -19.463  36.143 -14.317  1.00  0.00     0.174 HD
ENDBRANCH   8  33
TORSDOF 7
ENDMDL
