MODEL 1
REMARK VINA RESULT: -6.250381999      0.000      0.000
REMARK  6 active torsions:
REMARK  status: ('A' for Active; 'I' for Inactive)
REMARK    1  A    between atoms: C2_2  and  C4_4 
REMARK    2  A    between atoms: C4_4  and  C5_5 
REMARK    3  A    between atoms: C4_4  and  N1_11 
REMARK    4  A    between atoms: C5_5  and  C6_6 
REMARK    5  A    between atoms: C6_6  and  C7_7 
REMARK    6  A    between atoms: N1_11  and  O1_13 
ROOT
HETATM    1  C4  UNL     1      22.399  16.834  15.499  1.00  0.00     0.035 C 
ENDROOT
BRANCH   1   2
HETATM    2  C2  UNL     1      22.342  18.275  15.084  1.00  0.00     0.029 C 
HETATM    3  C1  UNL     1      20.996  18.716  14.602  1.00  0.00     0.016 C 
HETATM    4  C3  UNL     1      22.735  19.181  16.232  1.00  0.00     0.016 C 
ENDBRANCH   1   2
BRANCH   1   5
HETATM    5  C5  UNL     1      22.867  15.925  14.463  1.00  0.00     0.028 C 
BRANCH   5   6
HETATM    6  C6  UNL     1      23.348  16.371  13.195  1.00  0.00     0.016 C 
BRANCH   6   7
HETATM    7  C7  UNL     1      22.872  16.586  12.012  1.00  0.00    -0.021 C 
HETATM    8  C8  UNL     1      23.532  16.662  10.638  1.00  0.00     0.056 C 
HETATM    9  C9  UNL     1      22.531  17.615  10.018  1.00  0.00     0.084 C 
HETATM   10  S1  UNL     1      21.351  16.908  11.184  1.00  0.00    -0.134 SA
ENDBRANCH   6   7
ENDBRANCH   5   6
ENDBRANCH   1   5
BRANCH   1  11
HETATM   11  N1  UNL     1      22.053  16.533  16.658  1.00  0.00    -0.273 N 
ATOM     12  H1  UNL     1      22.831  16.158  17.200  1.00  0.00     0.193 HD
BRANCH  11  13
HETATM   13  O1  UNL     1      20.937  16.576  17.363  1.00  0.00    -0.290 OA
ATOM     14  H1  UNL     1      20.574  16.105  18.105  1.00  0.00     0.244 HD
ENDBRANCH  11  13
ENDBRANCH   1  11
TORSDOF 6
ENDMDL
MODEL 2
REMARK VINA RESULT: -6.207918979      2.931      5.026
REMARK  6 active torsions:
REMARK  status: ('A' for Active; 'I' for Inactive)
REMARK    1  A    between atoms: C2_2  and  C4_4 
REMARK    2  A    between atoms: C4_4  and  C5_5 
REMARK    3  A    between atoms: C4_4  and  N1_11 
REMARK    4  A    between atoms: C5_5  and  C6_6 
REMARK    5  A    between atoms: C6_6  and  C7_7 
REMARK    6  A    between atoms: N1_11  and  O1_13 
ROOT
HETATM    1  C4  UNL     1      22.646  16.879  11.383  1.00  0.00     0.035 C 
ENDROOT
BRANCH   1   2
HETATM    2  C2  UNL     1      23.483  17.518  10.314  1.00  0.00     0.029 C 
HETATM    3  C1  UNL     1      24.480  16.594   9.689  1.00  0.00     0.016 C 
HETATM    4  C3  UNL     1      22.610  18.065   9.204  1.00  0.00     0.016 C 
ENDBRANCH   1   2
BRANCH   1   5
HETATM    5  C5  UNL     1      23.398  16.408  12.537  1.00  0.00     0.028 C 
BRANCH   5   6
HETATM    6  C6  UNL     1      22.828  16.283  13.840  1.00  0.00     0.016 C 
BRANCH   6   7
HETATM    7  C7  UNL     1      22.340  17.060  14.751  1.00  0.00    -0.021 C 
HETATM    8  C8  UNL     1      21.537  18.356  14.674  1.00  0.00     0.056 C 
HETATM    9  C9  UNL     1      22.016  18.934  15.990  1.00  0.00     0.084 C 
HETATM   10  S1  UNL     1      22.229  17.218  16.502  1.00  0.00    -0.134 SA
ENDBRANCH   6   7
ENDBRANCH   5   6
ENDBRANCH   1   5
BRANCH   1  11
HETATM   11  N1  UNL     1      21.415  16.802  11.211  1.00  0.00    -0.273 N 
ATOM     12  H1  UNL     1      21.020  17.688  10.897  1.00  0.00     0.193 HD
BRANCH  11  13
HETATM   13  O1  UNL     1      20.490  15.867  11.331  1.00  0.00    -0.290 OA
ATOM     14  H1  UNL     1      19.553  15.843  11.492  1.00  0.00     0.244 HD
ENDBRANCH  11  13
ENDBRANCH   1  11
TORSDOF 6
ENDMDL
MODEL 3
REMARK VINA RESULT: -6.194827101      2.741      4.786
REMARK  6 active torsions:
REMARK  status: ('A' for Active; 'I' for Inactive)
REMARK    1  A    between atoms: C2_2  and  C4_4 
REMARK    2  A    between atoms: C4_4  and  C5_5 
REMARK    3  A    between atoms: C4_4  and  N1_11 
REMARK    4  A    between atoms: C5_5  and  C6_6 
REMARK    5  A    between atoms: C6_6  and  C7_7 
REMARK    6  A    between atoms: N1_11  and  O1_13 
ROOT
HETATM    1  C4  UNL     1      21.910  16.599  12.085  1.00  0.00     0.035 C 
ENDROOT
BRANCH   1   2
HETATM    2  C2  UNL     1      22.417  16.685  10.675  1.00  0.00     0.029 C 
HETATM    3  C1  UNL     1      21.814  17.800   9.880  1.00  0.00     0.016 C 
HETATM    4  C3  UNL     1      23.920  16.873  10.654  1.00  0.00     0.016 C 
ENDBRANCH   1   2
BRANCH   1   5
HETATM    5  C5  UNL     1      22.953  16.502  13.096  1.00  0.00     0.028 C 
BRANCH   5   6
HETATM    6  C6  UNL     1      22.676  16.417  14.494  1.00  0.00     0.016 C 
BRANCH   6   7
HETATM    7  C7  UNL     1      22.165  17.164  15.417  1.00  0.00    -0.021 C 
HETATM    8  C8  UNL     1      21.454  18.514  15.369  1.00  0.00     0.056 C 
HETATM    9  C9  UNL     1      21.858  18.971  16.756  1.00  0.00     0.084 C 
HETATM   10  S1  UNL     1      21.921  17.215  17.161  1.00  0.00    -0.134 SA
ENDBRANCH   6   7
ENDBRANCH   5   6
ENDBRANCH   1   5
BRANCH   1  11
HETATM   11  N1  UNL     1      20.680  16.616  12.278  1.00  0.00    -0.273 N 
ATOM     12  H1  UNL     1      20.333  17.564  12.426  1.00  0.00     0.193 HD
BRANCH  11  13
HETATM   13  O1  UNL     1      19.710  15.722  12.342  1.00  0.00    -0.290 OA
ATOM     14  H1  UNL     1      18.926  15.594  12.864  1.00  0.00     0.244 HD
ENDBRANCH  11  13
ENDBRANCH   1  11
TORSDOF 6
ENDMDL
MODEL 4
REMARK VINA RESULT: -6.045687766      2.325      2.648
REMARK  6 active torsions:
REMARK  status: ('A' for Active; 'I' for Inactive)
REMARK    1  A    between atoms: C2_2  and  C4_4 
REMARK    2  A    between atoms: C4_4  and  C5_5 
REMARK    3  A    between atoms: C4_4  and  N1_11 
REMARK    4  A    between atoms: C5_5  and  C6_6 
REMARK    5  A    between atoms: C6_6  and  C7_7 
REMARK    6  A    between atoms: N1_11  and  O1_13 
ROOT
HETATM    1  C4  UNL     1      21.636  16.951  13.402  1.00  0.00     0.035 C 
ENDROOT
BRANCH   1   2
HETATM    2  C2  UNL     1      21.458  17.277  14.855  1.00  0.00     0.029 C 
HETATM    3  C1  UNL     1      22.420  16.571  15.759  1.00  0.00     0.016 C 
HETATM    4  C3  UNL     1      21.616  18.764  15.096  1.00  0.00     0.016 C 
ENDBRANCH   1   2
BRANCH   1   5
HETATM    5  C5  UNL     1      23.023  16.830  12.975  1.00  0.00     0.028 C 
BRANCH   5   6
HETATM    6  C6  UNL     1      23.401  16.390  11.671  1.00  0.00     0.016 C 
BRANCH   6   7
HETATM    7  C7  UNL     1      23.515  16.893  10.485  1.00  0.00    -0.021 C 
HETATM    8  C8  UNL     1      24.591  16.760   9.411  1.00  0.00     0.056 C 
HETATM    9  C9  UNL     1      24.364  18.114   8.770  1.00  0.00     0.084 C 
HETATM   10  S1  UNL     1      22.667  17.947   9.356  1.00  0.00    -0.134 SA
ENDBRANCH   6   7
ENDBRANCH   5   6
ENDBRANCH   1   5
BRANCH   1  11
HETATM   11  N1  UNL     1      20.621  16.811  12.693  1.00  0.00    -0.273 N 
ATOM     12  H1  UNL     1      20.360  17.681  12.230  1.00  0.00     0.193 HD
BRANCH  11  13
HETATM   13  O1  UNL     1      19.797  15.825  12.388  1.00  0.00    -0.290 OA
ATOM     14  H1  UNL     1      19.123  15.329  12.839  1.00  0.00     0.244 HD
ENDBRANCH  11  13
ENDBRANCH   1  11
TORSDOF 6
ENDMDL
MODEL 5
REMARK VINA RESULT: -5.999065896      2.473      2.886
REMARK  6 active torsions:
REMARK  status: ('A' for Active; 'I' for Inactive)
REMARK    1  A    between atoms: C2_2  and  C4_4 
REMARK    2  A    between atoms: C4_4  and  C5_5 
REMARK    3  A    between atoms: C4_4  and  N1_11 
REMARK    4  A    between atoms: C5_5  and  C6_6 
REMARK    5  A    between atoms: C6_6  and  C7_7 
REMARK    6  A    between atoms: N1_11  and  O1_13 
ROOT
HETATM    1  C4  UNL     1      21.891  16.953  13.197  1.00  0.00     0.035 C 
ENDROOT
BRANCH   1   2
HETATM    2  C2  UNL     1      22.239  17.600  14.506  1.00  0.00     0.029 C 
HETATM    3  C1  UNL     1      21.240  18.615  14.966  1.00  0.00     0.016 C 
HETATM    4  C3  UNL     1      22.370  16.561  15.600  1.00  0.00     0.016 C 
ENDBRANCH   1   2
BRANCH   1   5
HETATM    5  C5  UNL     1      23.039  16.508  12.420  1.00  0.00     0.028 C 
BRANCH   5   6
HETATM    6  C6  UNL     1      23.040  16.453  10.994  1.00  0.00     0.016 C 
BRANCH   6   7
HETATM    7  C7  UNL     1      23.654  17.030  10.013  1.00  0.00    -0.021 C 
HETATM    8  C8  UNL     1      23.341  18.282   9.198  1.00  0.00     0.056 C 
HETATM    9  C9  UNL     1      24.029  17.836   7.924  1.00  0.00     0.084 C 
HETATM   10  S1  UNL     1      25.092  16.863   9.009  1.00  0.00    -0.134 SA
ENDBRANCH   6   7
ENDBRANCH   5   6
ENDBRANCH   1   5
BRANCH   1  11
HETATM   11  N1  UNL     1      20.690  16.848  12.884  1.00  0.00    -0.273 N 
ATOM     12  H1  UNL     1      20.202  17.741  12.949  1.00  0.00     0.193 HD
BRANCH  11  13
HETATM   13  O1  UNL     1      19.887  15.876  12.490  1.00  0.00    -0.290 OA
ATOM     14  H1  UNL     1      19.374  15.195  12.910  1.00  0.00     0.244 HD
ENDBRANCH  11  13
ENDBRANCH   1  11
TORSDOF 6
ENDMDL
