MODEL 1
REMARK VINA RESULT: -6.938860454      0.000      0.000
REMARK  2 active torsions:
REMARK  status: ('A' for Active; 'I' for Inactive)
REMARK    1  A    between atoms: C2_5  and  N3_6 
REMARK    2  A    between atoms: N3_6  and  N4_8 
ROOT
HETATM    1  N1  UNL     1      22.939  18.316   9.286  1.00  0.00    -0.172 NA
HETATM    2  C1  UNL     1      22.014  17.826   9.738  1.00  0.00     0.182 C 
HETATM    3  N2  UNL     1      20.887  17.207  10.281  1.00  0.00    -0.289 N 
ATOM      4  H2  UNL     1      20.097  16.983   9.675  1.00  0.00     0.178 HD
HETATM    5  C2  UNL     1      20.828  16.915  11.529  1.00  0.00     0.207 C 
ENDROOT
BRANCH   5   6
HETATM    6  N3  UNL     1      21.931  17.226  12.372  1.00  0.00    -0.296 N 
ATOM      7  H3  UNL     1      22.532  18.015  12.137  1.00  0.00     0.187 HD
BRANCH   6   8
HETATM    8  N4  UNL     1      22.206  16.477  13.510  1.00  0.00    -0.308 N 
HETATM    9  C3  UNL     1      21.919  16.962  14.660  1.00  0.00     0.004 C 
HETATM   10  C4  UNL     1      22.286  16.017  15.772  1.00  0.00     0.054 C 
HETATM   11  C9  UNL     1      21.314  18.288  14.646  1.00  0.00     0.054 C 
HETATM   12  C5  UNL     1      22.382  16.710  17.088  1.00  0.00     0.006 C 
HETATM   13  C6  UNL     1      23.153  18.007  16.878  1.00  0.00     0.000 C 
HETATM   14  C7  UNL     1      22.130  19.120  16.866  1.00  0.00     0.000 C 
HETATM   15  C8  UNL     1      20.953  18.817  15.995  1.00  0.00     0.006 C 
ATOM     16  H4  UNL     1      22.631  15.553  13.431  1.00  0.00     0.186 HD
ENDBRANCH   6   8
ENDBRANCH   5   6
TORSDOF 2
ENDMDL
MODEL 2
REMARK VINA RESULT: -6.731523085      2.244      3.396
REMARK  2 active torsions:
REMARK  status: ('A' for Active; 'I' for Inactive)
REMARK    1  A    between atoms: C2_5  and  N3_6 
REMARK    2  A    between atoms: N3_6  and  N4_8 
ROOT
HETATM    1  N1  UNL     1      26.087  15.777   8.047  1.00  0.00    -0.172 NA
HETATM    2  C1  UNL     1      25.561  16.767   8.258  1.00  0.00     0.182 C 
HETATM    3  N2  UNL     1      24.910  17.978   8.495  1.00  0.00    -0.289 N 
ATOM      4  H2  UNL     1      25.244  18.825   8.036  1.00  0.00     0.178 HD
HETATM    5  C2  UNL     1      23.896  18.042   9.280  1.00  0.00     0.207 C 
ENDROOT
BRANCH   5   6
HETATM    6  N3  UNL     1      23.430  16.859   9.917  1.00  0.00    -0.296 N 
ATOM      7  H3  UNL     1      22.791  16.241   9.417  1.00  0.00     0.187 HD
BRANCH   6   8
HETATM    8  N4  UNL     1      23.826  16.527  11.208  1.00  0.00    -0.308 N 
HETATM    9  C3  UNL     1      22.957  16.535  12.148  1.00  0.00     0.004 C 
HETATM   10  C4  UNL     1      23.562  16.152  13.471  1.00  0.00     0.054 C 
HETATM   11  C9  UNL     1      21.604  16.902  11.746  1.00  0.00     0.054 C 
HETATM   12  C5  UNL     1      22.713  16.576  14.619  1.00  0.00     0.006 C 
HETATM   13  C6  UNL     1      22.249  18.004  14.356  1.00  0.00     0.000 C 
HETATM   14  C7  UNL     1      20.812  17.913  13.899  1.00  0.00     0.000 C 
HETATM   15  C8  UNL     1      20.600  16.867  12.851  1.00  0.00     0.006 C 
ATOM     16  H4  UNL     1      24.796  16.279  11.403  1.00  0.00     0.186 HD
ENDBRANCH   6   8
ENDBRANCH   5   6
TORSDOF 2
ENDMDL
MODEL 3
REMARK VINA RESULT: -6.597741084      1.357      1.698
REMARK  2 active torsions:
REMARK  status: ('A' for Active; 'I' for Inactive)
REMARK    1  A    between atoms: C2_5  and  N3_6 
REMARK    2  A    between atoms: N3_6  and  N4_8 
ROOT
HETATM    1  N1  UNL     1      22.650  18.872   9.152  1.00  0.00    -0.172 NA
HETATM    2  C1  UNL     1      23.320  17.970   9.345  1.00  0.00     0.182 C 
HETATM    3  N2  UNL     1      24.160  16.880   9.582  1.00  0.00    -0.289 N 
ATOM      4  H2  UNL     1      24.818  16.588   8.860  1.00  0.00     0.178 HD
HETATM    5  C2  UNL     1      24.117  16.241  10.694  1.00  0.00     0.207 C 
ENDROOT
BRANCH   5   6
HETATM    6  N3  UNL     1      23.200  16.652  11.702  1.00  0.00    -0.296 N 
ATOM      7  H3  UNL     1      22.506  17.367  11.484  1.00  0.00     0.187 HD
BRANCH   6   8
HETATM    8  N4  UNL     1      23.230  16.100  12.977  1.00  0.00    -0.308 N 
HETATM    9  C3  UNL     1      22.531  16.638  13.906  1.00  0.00     0.004 C 
HETATM   10  C4  UNL     1      22.687  15.911  15.214  1.00  0.00     0.054 C 
HETATM   11  C9  UNL     1      21.756  17.807  13.507  1.00  0.00     0.054 C 
HETATM   12  C5  UNL     1      22.263  16.746  16.373  1.00  0.00     0.006 C 
HETATM   13  C6  UNL     1      22.843  18.142  16.180  1.00  0.00     0.000 C 
HETATM   14  C7  UNL     1      21.709  19.018  15.701  1.00  0.00     0.000 C 
HETATM   15  C8  UNL     1      20.919  18.394  14.596  1.00  0.00     0.006 C 
ATOM     16  H4  UNL     1      23.801  15.278  13.171  1.00  0.00     0.186 HD
ENDBRANCH   6   8
ENDBRANCH   5   6
TORSDOF 2
ENDMDL
MODEL 4
REMARK VINA RESULT: -6.533763946      1.930      5.790
REMARK  2 active torsions:
REMARK  status: ('A' for Active; 'I' for Inactive)
REMARK    1  A    between atoms: C2_5  and  N3_6 
REMARK    2  A    between atoms: N3_6  and  N4_8 
ROOT
HETATM    1  N1  UNL     1      21.232  18.753  16.574  1.00  0.00    -0.172 NA
HETATM    2  C1  UNL     1      21.509  17.670  16.351  1.00  0.00     0.182 C 
HETATM    3  N2  UNL     1      21.826  16.338  16.077  1.00  0.00    -0.289 N 
ATOM      4  H2  UNL     1      21.636  15.623  16.779  1.00  0.00     0.178 HD
HETATM    5  C2  UNL     1      22.351  16.000  14.956  1.00  0.00     0.207 C 
ENDROOT
BRANCH   5   6
HETATM    6  N3  UNL     1      22.613  16.999  13.977  1.00  0.00    -0.296 N 
ATOM      7  H3  UNL     1      23.450  17.575  14.062  1.00  0.00     0.187 HD
BRANCH   6   8
HETATM    8  N4  UNL     1      21.751  17.207  12.906  1.00  0.00    -0.308 N 
HETATM    9  C3  UNL     1      22.191  17.056  11.713  1.00  0.00     0.004 C 
HETATM   10  C4  UNL     1      21.125  17.322  10.687  1.00  0.00     0.054 C 
HETATM   11  C9  UNL     1      23.593  16.668  11.609  1.00  0.00     0.054 C 
HETATM   12  C5  UNL     1      21.699  17.590   9.338  1.00  0.00     0.006 C 
HETATM   13  C6  UNL     1      22.873  18.545   9.511  1.00  0.00     0.000 C 
HETATM   14  C7  UNL     1      24.128  17.711   9.393  1.00  0.00     0.000 C 
HETATM   15  C8  UNL     1      24.073  16.460  10.210  1.00  0.00     0.006 C 
ATOM     16  H4  UNL     1      20.781  17.477  13.069  1.00  0.00     0.186 HD
ENDBRANCH   6   8
ENDBRANCH   5   6
TORSDOF 2
ENDMDL
MODEL 5
REMARK VINA RESULT: -6.492654842      1.134      1.309
REMARK  2 active torsions:
REMARK  status: ('A' for Active; 'I' for Inactive)
REMARK    1  A    between atoms: C2_5  and  N3_6 
REMARK    2  A    between atoms: N3_6  and  N4_8 
ROOT
HETATM    1  N1  UNL     1      21.512  17.725   9.518  1.00  0.00    -0.172 NA
HETATM    2  C1  UNL     1      22.498  17.374   9.970  1.00  0.00     0.182 C 
HETATM    3  N2  UNL     1      23.713  16.966  10.523  1.00  0.00    -0.289 N 
ATOM      4  H2  UNL     1      24.553  16.967   9.945  1.00  0.00     0.178 HD
HETATM    5  C2  UNL     1      23.790  16.590  11.748  1.00  0.00     0.207 C 
ENDROOT
BRANCH   5   6
HETATM    6  N3  UNL     1      22.618  16.592  12.555  1.00  0.00    -0.296 N 
ATOM      7  H3  UNL     1      21.758  16.996  12.185  1.00  0.00     0.187 HD
BRANCH   6   8
HETATM    8  N4  UNL     1      22.620  16.054  13.836  1.00  0.00    -0.308 N 
HETATM    9  C3  UNL     1      22.169  16.756  14.808  1.00  0.00     0.004 C 
HETATM   10  C4  UNL     1      22.250  16.017  16.116  1.00  0.00     0.054 C 
HETATM   11  C9  UNL     1      21.687  18.084  14.447  1.00  0.00     0.054 C 
HETATM   12  C5  UNL     1      22.161  16.936  17.285  1.00  0.00     0.006 C 
HETATM   13  C6  UNL     1      23.060  18.134  17.007  1.00  0.00     0.000 C 
HETATM   14  C7  UNL     1      22.150  19.272  16.606  1.00  0.00     0.000 C 
HETATM   15  C8  UNL     1      21.130  18.870  15.590  1.00  0.00     0.006 C 
ATOM     16  H4  UNL     1      22.976  15.113  14.001  1.00  0.00     0.186 HD
ENDBRANCH   6   8
ENDBRANCH   5   6
TORSDOF 2
ENDMDL
