MODEL 1
REMARK VINA RESULT: -4.411436793      0.000      0.000
REMARK  6 active torsions:
REMARK  status: ('A' for Active; 'I' for Inactive)
REMARK    1  A    between atoms: N1_1  and  C1_4 
REMARK    2  A    between atoms: C1_4  and  N2_5 
REMARK    3  A    between atoms: C2_6  and  N3_7 
REMARK    4  A    between atoms: C3_14  and  C4_15 
REMARK    5  A    between atoms: C4_15  and  N6_16 
REMARK    6  A    between atoms: C4_15  and  N7_20 
ROOT
HETATM    1  N2  UNL     1      12.591  -4.307   5.210  1.00  0.00    -0.105 N 
HETATM    2  C2  UNL     1      13.736  -4.860   5.635  1.00  0.00     0.700 A 
HETATM    3  N4  UNL     1      14.872  -4.624   4.960  1.00  0.00    -0.131 N 
ATOM      4  H4  UNL     1      15.746  -5.042   5.279  1.00  0.00     0.205 HD
HETATM    5  N5  UNL     1      14.868  -3.864   3.895  1.00  0.00    -0.282 N 
ATOM      6  H5  UNL     1      15.752  -3.709   3.408  1.00  0.00     0.187 HD
HETATM    7  C3  UNL     1      13.750  -3.269   3.402  1.00  0.00     0.153 A 
HETATM    8  C5  UNL     1      12.584  -3.516   4.102  1.00  0.00     0.295 A 
HETATM    9  O1  UNL     1      11.505  -2.997   3.704  1.00  0.00    -0.265 OA
ENDROOT
BRANCH   7  10
HETATM   10  C4  UNL     1      13.787  -2.416   2.195  1.00  0.00     0.434 C 
BRANCH  10  11
HETATM   11  N6  UNL     1      12.961  -2.867   1.129  1.00  0.00    -0.045 N 
ATOM     12  H63 UNL     1      13.360  -3.701   0.699  1.00  0.00     0.277 HD
ATOM     13  H62 UNL     1      12.092  -3.257   1.493  1.00  0.00     0.277 HD
ATOM     14  H61 UNL     1      12.764  -2.161   0.419  1.00  0.00     0.277 HD
ENDBRANCH  10  11
BRANCH  10  15
HETATM   15  N7  UNL     1      13.494  -1.059   2.599  1.00  0.00    -0.045 N 
ATOM     16  H73 UNL     1      12.625  -0.983   3.127  1.00  0.00     0.277 HD
ATOM     17  H72 UNL     1      14.125  -0.719   3.326  1.00  0.00     0.277 HD
ATOM     18  H71 UNL     1      13.502  -0.474   1.764  1.00  0.00     0.277 HD
ENDBRANCH  10  15
ENDBRANCH   7  10
BRANCH   1  19
HETATM   19  C1  UNL     1      11.377  -4.549   5.918  1.00  0.00     0.203 C 
BRANCH  19  20
HETATM   20  N1  UNL     1      10.390  -5.112   5.307  1.00  0.00    -0.394 N 
ATOM     21  H12 UNL     1      10.445  -5.260   4.300  1.00  0.00     0.156 HD
ATOM     22  H11 UNL     1       9.571  -5.402   5.842  1.00  0.00     0.156 HD
ENDBRANCH  19  20
ENDBRANCH   1  19
BRANCH   2  23
HETATM   23  N3  UNL     1      13.749  -5.622   6.699  1.00  0.00    -0.233 N 
ATOM     24  H32 UNL     1      13.279  -6.527   6.688  1.00  0.00     0.174 HD
ATOM     25  H31 UNL     1      14.228  -5.318   7.547  1.00  0.00     0.174 HD
ENDBRANCH   2  23
TORSDOF 6
ENDMDL
MODEL 2
REMARK VINA RESULT: -4.279274410      1.079      1.487
REMARK  6 active torsions:
REMARK  status: ('A' for Active; 'I' for Inactive)
REMARK    1  A    between atoms: N1_1  and  C1_4 
REMARK    2  A    between atoms: C1_4  and  N2_5 
REMARK    3  A    between atoms: C2_6  and  N3_7 
REMARK    4  A    between atoms: C3_14  and  C4_15 
REMARK    5  A    between atoms: C4_15  and  N6_16 
REMARK    6  A    between atoms: C4_15  and  N7_20 
ROOT
HETATM    1  N2  UNL     1      12.634  -4.142   4.624  1.00  0.00    -0.105 N 
HETATM    2  C2  UNL     1      13.954  -4.188   4.852  1.00  0.00     0.700 A 
HETATM    3  N4  UNL     1      14.763  -3.329   4.212  1.00  0.00    -0.131 N 
ATOM      4  H4  UNL     1      15.769  -3.359   4.382  1.00  0.00     0.205 HD
HETATM    5  N5  UNL     1      14.273  -2.452   3.373  1.00  0.00    -0.282 N 
ATOM      6  H5  UNL     1      14.921  -1.816   2.906  1.00  0.00     0.187 HD
HETATM    7  C3  UNL     1      12.948  -2.343   3.090  1.00  0.00     0.153 A 
HETATM    8  C5  UNL     1      12.121  -3.231   3.752  1.00  0.00     0.295 A 
HETATM    9  O1  UNL     1      10.878  -3.189   3.540  1.00  0.00    -0.265 OA
ENDROOT
BRANCH   7  10
HETATM   10  C4  UNL     1      12.434  -1.338   2.136  1.00  0.00     0.434 C 
BRANCH  10  11
HETATM   11  N6  UNL     1      13.298  -0.229   1.925  1.00  0.00    -0.045 N 
ATOM     12  H63 UNL     1      12.761   0.637   1.881  1.00  0.00     0.277 HD
ATOM     13  H62 UNL     1      13.855  -0.048   2.760  1.00  0.00     0.277 HD
ATOM     14  H61 UNL     1      13.903  -0.313   1.107  1.00  0.00     0.277 HD
ENDBRANCH  10  11
BRANCH  10  15
HETATM   15  N7  UNL     1      12.087  -2.023   0.911  1.00  0.00    -0.045 N 
ATOM     16  H73 UNL     1      11.421  -1.501   0.342  1.00  0.00     0.277 HD
ATOM     17  H72 UNL     1      12.854  -2.043   0.239  1.00  0.00     0.277 HD
ATOM     18  H71 UNL     1      11.752  -2.955   1.156  1.00  0.00     0.277 HD
ENDBRANCH  10  15
ENDBRANCH   7  10
BRANCH   1  19
HETATM   19  C1  UNL     1      11.762  -5.048   5.297  1.00  0.00     0.203 C 
BRANCH  19  20
HETATM   20  N1  UNL     1      10.764  -4.585   5.970  1.00  0.00    -0.394 N 
ATOM     21  H12 UNL     1      10.911  -3.800   6.604  1.00  0.00     0.156 HD
ATOM     22  H11 UNL     1       9.844  -5.010   5.857  1.00  0.00     0.156 HD
ENDBRANCH  19  20
ENDBRANCH   1  19
BRANCH   2  23
HETATM   23  N3  UNL     1      14.452  -5.062   5.689  1.00  0.00    -0.233 N 
ATOM     24  H32 UNL     1      14.389  -4.903   6.694  1.00  0.00     0.174 HD
ATOM     25  H31 UNL     1      14.906  -5.908   5.344  1.00  0.00     0.174 HD
ENDBRANCH   2  23
TORSDOF 6
ENDMDL
MODEL 3
REMARK VINA RESULT: -4.241237224      2.069      4.346
REMARK  6 active torsions:
REMARK  status: ('A' for Active; 'I' for Inactive)
REMARK    1  A    between atoms: N1_1  and  C1_4 
REMARK    2  A    between atoms: C1_4  and  N2_5 
REMARK    3  A    between atoms: C2_6  and  N3_7 
REMARK    4  A    between atoms: C3_14  and  C4_15 
REMARK    5  A    between atoms: C4_15  and  N6_16 
REMARK    6  A    between atoms: C4_15  and  N7_20 
ROOT
HETATM    1  N2  UNL     1      14.306  -5.094   2.455  1.00  0.00    -0.105 N 
HETATM    2  C2  UNL     1      15.136  -4.053   2.616  1.00  0.00     0.700 A 
HETATM    3  N4  UNL     1      15.276  -3.505   3.833  1.00  0.00    -0.131 N 
ATOM      4  H4  UNL     1      15.906  -2.713   3.962  1.00  0.00     0.205 HD
HETATM    5  N5  UNL     1      14.611  -3.977   4.857  1.00  0.00    -0.282 N 
ATOM      6  H5  UNL     1      14.743  -3.532   5.766  1.00  0.00     0.187 HD
HETATM    7  C3  UNL     1      13.752  -5.027   4.774  1.00  0.00     0.153 A 
HETATM    8  C5  UNL     1      13.613  -5.587   3.517  1.00  0.00     0.295 A 
HETATM    9  O1  UNL     1      12.833  -6.567   3.363  1.00  0.00    -0.265 OA
ENDROOT
BRANCH   7  10
HETATM   10  C4  UNL     1      13.019  -5.532   5.954  1.00  0.00     0.434 C 
BRANCH  10  11
HETATM   11  N6  UNL     1      13.770  -5.525   7.161  1.00  0.00    -0.045 N 
ATOM     12  H63 UNL     1      13.891  -4.571   7.499  1.00  0.00     0.277 HD
ATOM     13  H62 UNL     1      13.217  -5.912   7.926  1.00  0.00     0.277 HD
ATOM     14  H61 UNL     1      14.672  -5.997   7.101  1.00  0.00     0.277 HD
ENDBRANCH  10  11
BRANCH  10  15
HETATM   15  N7  UNL     1      11.780  -4.795   6.057  1.00  0.00    -0.045 N 
ATOM     16  H73 UNL     1      11.925  -3.793   6.175  1.00  0.00     0.277 HD
ATOM     17  H72 UNL     1      11.269  -4.755   5.175  1.00  0.00     0.277 HD
ATOM     18  H71 UNL     1      11.231  -5.207   6.812  1.00  0.00     0.277 HD
ENDBRANCH  10  15
ENDBRANCH   7  10
BRANCH   1  19
HETATM   19  C1  UNL     1      14.148  -5.686   1.167  1.00  0.00     0.203 C 
BRANCH  19  20
HETATM   20  N1  UNL     1      13.062  -5.477   0.504  1.00  0.00    -0.394 N 
ATOM     21  H12 UNL     1      12.607  -4.567   0.565  1.00  0.00     0.156 HD
ATOM     22  H11 UNL     1      12.676  -6.225  -0.072  1.00  0.00     0.156 HD
ENDBRANCH  19  20
ENDBRANCH   1  19
BRANCH   2  23
HETATM   23  N3  UNL     1      15.805  -3.574   1.598  1.00  0.00    -0.233 N 
ATOM     24  H32 UNL     1      15.871  -4.107   0.731  1.00  0.00     0.174 HD
ATOM     25  H31 UNL     1      16.264  -2.666   1.662  1.00  0.00     0.174 HD
ENDBRANCH   2  23
TORSDOF 6
ENDMDL
MODEL 4
REMARK VINA RESULT: -4.171545119      1.758      2.826
REMARK  6 active torsions:
REMARK  status: ('A' for Active; 'I' for Inactive)
REMARK    1  A    between atoms: N1_1  and  C1_4 
REMARK    2  A    between atoms: C1_4  and  N2_5 
REMARK    3  A    between atoms: C2_6  and  N3_7 
REMARK    4  A    between atoms: C3_14  and  C4_15 
REMARK    5  A    between atoms: C4_15  and  N6_16 
REMARK    6  A    between atoms: C4_15  and  N7_20 
ROOT
HETATM    1  N2  UNL     1      12.759  -4.542   4.974  1.00  0.00    -0.105 N 
HETATM    2  C2  UNL     1      11.535  -4.029   4.781  1.00  0.00     0.700 A 
HETATM    3  N4  UNL     1      11.379  -2.995   3.940  1.00  0.00    -0.131 N 
ATOM      4  H4  UNL     1      10.450  -2.602   3.789  1.00  0.00     0.205 HD
HETATM    5  N5  UNL     1      12.409  -2.487   3.311  1.00  0.00    -0.282 N 
ATOM      6  H5  UNL     1      12.249  -1.701   2.680  1.00  0.00     0.187 HD
HETATM    7  C3  UNL     1      13.678  -2.950   3.453  1.00  0.00     0.153 A 
HETATM    8  C5  UNL     1      13.832  -4.015   4.321  1.00  0.00     0.295 A 
HETATM    9  O1  UNL     1      14.983  -4.499   4.504  1.00  0.00    -0.265 OA
ENDROOT
BRANCH   7  10
HETATM   10  C4  UNL     1      14.815  -2.349   2.725  1.00  0.00     0.434 C 
BRANCH  10  11
HETATM   11  N6  UNL     1      15.860  -1.865   3.558  1.00  0.00    -0.045 N 
ATOM     12  H63 UNL     1      16.010  -0.869   3.398  1.00  0.00     0.277 HD
ATOM     13  H62 UNL     1      15.556  -1.841   4.532  1.00  0.00     0.277 HD
ATOM     14  H61 UNL     1      16.739  -2.375   3.473  1.00  0.00     0.277 HD
ENDBRANCH  10  11
BRANCH  10  15
HETATM   15  N7  UNL     1      15.274  -3.308   1.745  1.00  0.00    -0.045 N 
ATOM     16  H73 UNL     1      16.051  -3.876   2.083  1.00  0.00     0.277 HD
ATOM     17  H72 UNL     1      14.608  -4.066   1.592  1.00  0.00     0.277 HD
ATOM     18  H71 UNL     1      15.499  -2.800   0.889  1.00  0.00     0.277 HD
ENDBRANCH  10  15
ENDBRANCH   7  10
BRANCH   1  19
HETATM   19  C1  UNL     1      12.940  -5.640   5.865  1.00  0.00     0.203 C 
BRANCH  19  20
HETATM   20  N1  UNL     1      13.704  -5.501   6.895  1.00  0.00    -0.394 N 
ATOM     21  H12 UNL     1      14.652  -5.148   6.769  1.00  0.00     0.156 HD
ATOM     22  H11 UNL     1      13.347  -5.744   7.819  1.00  0.00     0.156 HD
ENDBRANCH  19  20
ENDBRANCH   1  19
BRANCH   2  23
HETATM   23  N3  UNL     1      10.501  -4.531   5.406  1.00  0.00    -0.233 N 
ATOM     24  H32 UNL     1      10.631  -5.242   6.126  1.00  0.00     0.174 HD
ATOM     25  H31 UNL     1       9.557  -4.216   5.180  1.00  0.00     0.174 HD
ENDBRANCH   2  23
TORSDOF 6
ENDMDL
MODEL 5
REMARK VINA RESULT: -4.162415832      1.338      3.979
REMARK  6 active torsions:
REMARK  status: ('A' for Active; 'I' for Inactive)
REMARK    1  A    between atoms: N1_1  and  C1_4 
REMARK    2  A    between atoms: C1_4  and  N2_5 
REMARK    3  A    between atoms: C2_6  and  N3_7 
REMARK    4  A    between atoms: C3_14  and  C4_15 
REMARK    5  A    between atoms: C4_15  and  N6_16 
REMARK    6  A    between atoms: C4_15  and  N7_20 
ROOT
HETATM    1  N2  UNL     1      13.116  -2.374   3.099  1.00  0.00    -0.105 N 
HETATM    2  C2  UNL     1      14.438  -2.168   3.177  1.00  0.00     0.700 A 
HETATM    3  N4  UNL     1      15.174  -2.923   4.008  1.00  0.00    -0.131 N 
ATOM      4  H4  UNL     1      16.181  -2.771   4.071  1.00  0.00     0.205 HD
HETATM    5  N5  UNL     1      14.612  -3.853   4.737  1.00  0.00    -0.282 N 
ATOM      6  H5  UNL     1      15.205  -4.406   5.357  1.00  0.00     0.187 HD
HETATM    7  C3  UNL     1      13.280  -4.122   4.713  1.00  0.00     0.153 A 
HETATM    8  C5  UNL     1      12.528  -3.341   3.856  1.00  0.00     0.295 A 
HETATM    9  O1  UNL     1      11.283  -3.533   3.781  1.00  0.00    -0.265 OA
ENDROOT
BRANCH   7  10
HETATM   10  C4  UNL     1      12.683  -5.182   5.553  1.00  0.00     0.434 C 
BRANCH  10  11
HETATM   11  N6  UNL     1      11.543  -4.772   6.297  1.00  0.00    -0.045 N 
ATOM     12  H63 UNL     1      11.819  -4.147   7.054  1.00  0.00     0.277 HD
ATOM     13  H62 UNL     1      10.968  -4.135   5.746  1.00  0.00     0.277 HD
ATOM     14  H61 UNL     1      10.976  -5.539   6.659  1.00  0.00     0.277 HD
ENDBRANCH  10  11
BRANCH  10  15
HETATM   15  N7  UNL     1      12.422  -6.326   4.708  1.00  0.00    -0.045 N 
ATOM     16  H73 UNL     1      11.665  -6.912   5.059  1.00  0.00     0.277 HD
ATOM     17  H72 UNL     1      11.995  -6.071   3.818  1.00  0.00     0.277 HD
ATOM     18  H71 UNL     1      13.297  -6.838   4.594  1.00  0.00     0.277 HD
ENDBRANCH  10  15
ENDBRANCH   7  10
BRANCH   1  19
HETATM   19  C1  UNL     1      12.321  -1.580   2.221  1.00  0.00     0.203 C 
BRANCH  19  20
HETATM   20  N1  UNL     1      11.780  -2.129   1.187  1.00  0.00    -0.394 N 
ATOM     21  H12 UNL     1      12.373  -2.589   0.497  1.00  0.00     0.156 HD
ATOM     22  H11 UNL     1      10.766  -2.095   1.076  1.00  0.00     0.156 HD
ENDBRANCH  19  20
ENDBRANCH   1  19
BRANCH   2  23
HETATM   23  N3  UNL     1      15.008  -1.240   2.452  1.00  0.00    -0.233 N 
ATOM     24  H32 UNL     1      16.016  -1.259   2.293  1.00  0.00     0.174 HD
ATOM     25  H31 UNL     1      14.451  -0.491   2.040  1.00  0.00     0.174 HD
ENDBRANCH   2  23
TORSDOF 6
ENDMDL
