MODEL 1
REMARK VINA RESULT: -7.579076956      0.000      0.000
REMARK  11 active torsions:
REMARK  status: ('A' for Active; 'I' for Inactive)
REMARK    1  A    between atoms: C3_4  and  C4_5 
REMARK    2  A    between atoms: C5_8  and  C6_9 
REMARK    3  A    between atoms: C6_9  and  C7_10 
REMARK    4  A    between atoms: C7_10  and  C8_11 
REMARK    5  A    between atoms: C9_14  and  N4_15 
REMARK    6  A    between atoms: N4_15  and  C10_17 
REMARK    7  A    between atoms: C10_17  and  C11_18 
REMARK    8  A    between atoms: C10_17  and  C12_23 
REMARK    9  A    between atoms: C11_18  and  N5_19 
REMARK   10  A    between atoms: C12_23  and  N6_24 
REMARK   11  A    between atoms: C13_30  and  N8_31 
ROOT
HETATM    1  C8  UNL     1     -21.536 -17.860  13.024  1.00  0.00     0.077 A 
HETATM    2  N3  UNL     1     -21.016 -16.671  13.365  1.00  0.00    -0.190 N 
ATOM      3  H3  UNL     1     -21.644 -15.880  13.508  1.00  0.00     0.184 HD
HETATM    4  C9  UNL     1     -19.690 -16.492  13.524  1.00  0.00     0.680 A 
HETATM    5  N7  UNL     1     -18.893 -17.554  13.327  1.00  0.00    -0.175 N 
ATOM      6  H7  UNL     1     -17.887 -17.432  13.445  1.00  0.00     0.186 HD
HETATM    7  C13 UNL     1     -19.351 -18.763  12.986  1.00  0.00     0.141 A 
HETATM    8  C14 UNL     1     -20.687 -18.959  12.822  1.00  0.00     0.117 A 
HETATM    9  N9  UNL     1     -21.247 -20.212  12.462  1.00  0.00    -0.096 NA
ENDROOT
BRANCH   4  10
HETATM   10  N4  UNL     1     -19.210 -15.324  13.857  1.00  0.00    -0.218 N 
ATOM     11  H4  UNL     1     -18.454 -14.933  13.295  1.00  0.00     0.178 HD
BRANCH  10  12
HETATM   12  C10 UNL     1     -19.689 -14.568  14.966  1.00  0.00     0.150 C 
BRANCH  12  13
HETATM   13  C11 UNL     1     -19.032 -13.183  14.884  1.00  0.00     0.256 C 
BRANCH  13  14
HETATM   14  N5  UNL     1     -20.011 -12.131  15.042  1.00  0.00    -0.077 N 
ATOM     15  H53 UNL     1     -20.686 -12.127  14.276  1.00  0.00     0.274 HD
ATOM     16  H52 UNL     1     -20.651 -12.325  15.812  1.00  0.00     0.274 HD
ATOM     17  H51 UNL     1     -19.561 -11.222  15.149  1.00  0.00     0.274 HD
ENDBRANCH  13  14
ENDBRANCH  12  13
BRANCH  12  18
HETATM   18  C12 UNL     1     -19.272 -15.143  16.305  1.00  0.00     0.256 C 
BRANCH  18  19
HETATM   19  N6  UNL     1     -18.213 -14.352  16.905  1.00  0.00    -0.077 N 
ATOM     20  H63 UNL     1     -17.689 -13.830  16.203  1.00  0.00     0.274 HD
ATOM     21  H62 UNL     1     -18.586 -13.565  17.436  1.00  0.00     0.274 HD
ATOM     22  H61 UNL     1     -17.599 -14.934  17.476  1.00  0.00     0.274 HD
ENDBRANCH  18  19
ENDBRANCH  12  18
ENDBRANCH  10  12
ENDBRANCH   4  10
BRANCH   1  23
HETATM   23  C7  UNL     1     -22.958 -18.072  12.849  1.00  0.00     0.034 C 
BRANCH  23  24
HETATM   24  C6  UNL     1     -23.632 -17.717  11.772  1.00  0.00     0.034 C 
BRANCH  24  25
HETATM   25  C5  UNL     1     -24.732 -18.544  11.250  1.00  0.00     0.065 A 
HETATM   26  C3  UNL     1     -25.443 -18.343  10.108  1.00  0.00     0.074 A 
HETATM   27  C2  UNL     1     -26.373 -19.393  10.047  1.00  0.00     0.128 A 
HETATM   28  N1  UNL     1     -26.197 -20.170  11.123  1.00  0.00    -0.306 N 
HETATM   29  C1  UNL     1     -26.987 -21.379  11.419  1.00  0.00     0.177 C 
HETATM   30  N10 UNL     1     -25.225 -19.657  11.823  1.00  0.00    -0.298 N 
ATOM     31  H10 UNL     1     -24.880 -20.051  12.698  1.00  0.00     0.187 HD
BRANCH  26  32
HETATM   32  C4  UNL     1     -25.338 -17.306   9.113  1.00  0.00     0.268 C 
HETATM   33  N2  UNL     1     -26.336 -16.310   9.019  1.00  0.00    -0.057 NA
HETATM   34  O1  UNL     1     -24.378 -17.275   8.329  1.00  0.00    -0.271 OA
ENDBRANCH  26  32
ENDBRANCH  24  25
ENDBRANCH  23  24
ENDBRANCH   1  23
BRANCH   7  35
HETATM   35  N8  UNL     1     -18.543 -19.778  12.801  1.00  0.00    -0.383 N 
ATOM     36  H82 UNL     1     -17.572 -19.588  12.554  1.00  0.00     0.157 HD
ATOM     37  H81 UNL     1     -18.863 -20.742  12.899  1.00  0.00     0.157 HD
ENDBRANCH   7  35
TORSDOF 11
ENDMDL
MODEL 2
REMARK VINA RESULT: -7.452010878      0.786      1.336
REMARK  11 active torsions:
REMARK  status: ('A' for Active; 'I' for Inactive)
REMARK    1  A    between atoms: C3_4  and  C4_5 
REMARK    2  A    between atoms: C5_8  and  C6_9 
REMARK    3  A    between atoms: C6_9  and  C7_10 
REMARK    4  A    between atoms: C7_10  and  C8_11 
REMARK    5  A    between atoms: C9_14  and  N4_15 
REMARK    6  A    between atoms: N4_15  and  C10_17 
REMARK    7  A    between atoms: C10_17  and  C11_18 
REMARK    8  A    between atoms: C10_17  and  C12_23 
REMARK    9  A    between atoms: C11_18  and  N5_19 
REMARK   10  A    between atoms: C12_23  and  N6_24 
REMARK   11  A    between atoms: C13_30  and  N8_31 
ROOT
HETATM    1  C8  UNL     1     -21.964 -18.296  13.125  1.00  0.00     0.077 A 
HETATM    2  N3  UNL     1     -21.884 -17.128  13.780  1.00  0.00    -0.190 N 
ATOM      3  H3  UNL     1     -22.743 -16.628  14.009  1.00  0.00     0.184 HD
HETATM    4  C9  UNL     1     -20.701 -16.595  14.146  1.00  0.00     0.680 A 
HETATM    5  N7  UNL     1     -19.589 -17.278  13.829  1.00  0.00    -0.175 N 
ATOM      6  H7  UNL     1     -18.687 -16.886  14.100  1.00  0.00     0.186 HD
HETATM    7  C13 UNL     1     -19.605 -18.445  13.176  1.00  0.00     0.141 A 
HETATM    8  C14 UNL     1     -20.791 -18.995  12.802  1.00  0.00     0.117 A 
HETATM    9  N9  UNL     1     -20.888 -20.229  12.109  1.00  0.00    -0.096 NA
ENDROOT
BRANCH   4  10
HETATM   10  N4  UNL     1     -20.651 -15.457  14.784  1.00  0.00    -0.218 N 
ATOM     11  H4  UNL     1     -21.525 -15.045  15.109  1.00  0.00     0.178 HD
BRANCH  10  12
HETATM   12  C10 UNL     1     -19.436 -14.760  15.049  1.00  0.00     0.150 C 
BRANCH  12  13
HETATM   13  C11 UNL     1     -18.915 -15.263  16.401  1.00  0.00     0.256 C 
BRANCH  13  14
HETATM   14  N5  UNL     1     -18.094 -14.263  17.049  1.00  0.00    -0.077 N 
ATOM     15  H53 UNL     1     -17.101 -14.486  16.973  1.00  0.00     0.274 HD
ATOM     16  H52 UNL     1     -18.097 -13.384  16.533  1.00  0.00     0.274 HD
ATOM     17  H51 UNL     1     -18.375 -14.129  18.020  1.00  0.00     0.274 HD
ENDBRANCH  13  14
ENDBRANCH  12  13
BRANCH  12  18
HETATM   18  C12 UNL     1     -19.629 -13.266  15.211  1.00  0.00     0.256 C 
BRANCH  18  19
HETATM   19  N6  UNL     1     -18.529 -12.530  14.612  1.00  0.00    -0.077 N 
ATOM     20  H63 UNL     1     -17.626 -12.931  14.863  1.00  0.00     0.274 HD
ATOM     21  H62 UNL     1     -18.486 -12.673  13.602  1.00  0.00     0.274 HD
ATOM     22  H61 UNL     1     -18.579 -11.539  14.849  1.00  0.00     0.274 HD
ENDBRANCH  18  19
ENDBRANCH  12  18
ENDBRANCH  10  12
ENDBRANCH   4  10
BRANCH   1  23
HETATM   23  C7  UNL     1     -23.225 -18.884  12.725  1.00  0.00     0.034 C 
BRANCH  23  24
HETATM   24  C6  UNL     1     -24.143 -18.255  12.015  1.00  0.00     0.034 C 
BRANCH  24  25
HETATM   25  C5  UNL     1     -25.236 -18.988  11.355  1.00  0.00     0.065 A 
HETATM   26  C3  UNL     1     -25.837 -18.681  10.174  1.00  0.00     0.074 A 
HETATM   27  C2  UNL     1     -26.811 -19.672   9.973  1.00  0.00     0.128 A 
HETATM   28  N1  UNL     1     -26.766 -20.520  11.009  1.00  0.00    -0.306 N 
HETATM   29  C1  UNL     1     -27.637 -21.698  11.163  1.00  0.00     0.177 C 
HETATM   30  N10 UNL     1     -25.831 -20.103  11.815  1.00  0.00    -0.298 N 
ATOM     31  H10 UNL     1     -25.581 -20.566  12.689  1.00  0.00     0.187 HD
BRANCH  26  32
HETATM   32  C4  UNL     1     -25.597 -17.596   9.258  1.00  0.00     0.268 C 
HETATM   33  N2  UNL     1     -26.568 -16.583   9.090  1.00  0.00    -0.057 NA
HETATM   34  O1  UNL     1     -24.543 -17.537   8.608  1.00  0.00    -0.271 OA
ENDBRANCH  26  32
ENDBRANCH  24  25
ENDBRANCH  23  24
ENDBRANCH   1  23
BRANCH   7  35
HETATM   35  N8  UNL     1     -18.499 -19.084  12.883  1.00  0.00    -0.383 N 
ATOM     36  H82 UNL     1     -17.635 -18.799  13.344  1.00  0.00     0.157 HD
ATOM     37  H81 UNL     1     -18.487 -19.851  12.211  1.00  0.00     0.157 HD
ENDBRANCH   7  35
TORSDOF 11
ENDMDL
MODEL 3
REMARK VINA RESULT: -6.583919279      2.163      8.751
REMARK  11 active torsions:
REMARK  status: ('A' for Active; 'I' for Inactive)
REMARK    1  A    between atoms: C3_4  and  C4_5 
REMARK    2  A    between atoms: C5_8  and  C6_9 
REMARK    3  A    between atoms: C6_9  and  C7_10 
REMARK    4  A    between atoms: C7_10  and  C8_11 
REMARK    5  A    between atoms: C9_14  and  N4_15 
REMARK    6  A    between atoms: N4_15  and  C10_17 
REMARK    7  A    between atoms: C10_17  and  C11_18 
REMARK    8  A    between atoms: C10_17  and  C12_23 
REMARK    9  A    between atoms: C11_18  and  N5_19 
REMARK   10  A    between atoms: C12_23  and  N6_24 
REMARK   11  A    between atoms: C13_30  and  N8_31 
ROOT
HETATM    1  C8  UNL     1     -24.862 -18.786  11.572  1.00  0.00     0.077 A 
HETATM    2  N3  UNL     1     -25.483 -19.835  12.132  1.00  0.00    -0.190 N 
ATOM      3  H3  UNL     1     -25.121 -20.216  13.006  1.00  0.00     0.184 HD
HETATM    4  C9  UNL     1     -26.572 -20.401  11.573  1.00  0.00     0.680 A 
HETATM    5  N7  UNL     1     -27.022 -19.876  10.423  1.00  0.00    -0.175 N 
ATOM      6  H7  UNL     1     -27.845 -20.294   9.989  1.00  0.00     0.186 HD
HETATM    7  C13 UNL     1     -26.446 -18.832   9.816  1.00  0.00     0.141 A 
HETATM    8  C14 UNL     1     -25.347 -18.251  10.369  1.00  0.00     0.117 A 
HETATM    9  N9  UNL     1     -24.682 -17.141   9.786  1.00  0.00    -0.096 NA
ENDROOT
BRANCH   4  10
HETATM   10  N4  UNL     1     -27.158 -21.421  12.139  1.00  0.00    -0.218 N 
ATOM     11  H4  UNL     1     -26.941 -21.625  13.115  1.00  0.00     0.178 HD
BRANCH  10  12
HETATM   12  C10 UNL     1     -28.085 -22.266  11.463  1.00  0.00     0.150 C 
BRANCH  12  13
HETATM   13  C11 UNL     1     -29.088 -22.765  12.512  1.00  0.00     0.256 C 
BRANCH  13  14
HETATM   14  N5  UNL     1     -28.634 -22.463  13.852  1.00  0.00    -0.077 N 
ATOM     15  H53 UNL     1     -27.757 -21.941  13.843  1.00  0.00     0.274 HD
ATOM     16  H52 UNL     1     -29.226 -21.764  14.300  1.00  0.00     0.274 HD
ATOM     17  H51 UNL     1     -28.561 -23.310  14.416  1.00  0.00     0.274 HD
ENDBRANCH  13  14
ENDBRANCH  12  13
BRANCH  12  18
HETATM   18  C12 UNL     1     -27.443 -23.510  10.882  1.00  0.00     0.256 C 
BRANCH  18  19
HETATM   19  N6  UNL     1     -28.383 -24.617  10.854  1.00  0.00    -0.077 N 
ATOM     20  H63 UNL     1     -28.362 -25.151  11.723  1.00  0.00     0.274 HD
ATOM     21  H62 UNL     1     -29.349 -24.292  10.896  1.00  0.00     0.274 HD
ATOM     22  H61 UNL     1     -28.222 -25.214  10.042  1.00  0.00     0.274 HD
ENDBRANCH  18  19
ENDBRANCH  12  18
ENDBRANCH  10  12
ENDBRANCH   4  10
BRANCH   1  23
HETATM   23  C7  UNL     1     -23.693 -18.165  12.158  1.00  0.00     0.034 C 
BRANCH  23  24
HETATM   24  C6  UNL     1     -22.927 -18.738  13.066  1.00  0.00     0.034 C 
BRANCH  24  25
HETATM   25  C5  UNL     1     -21.657 -18.128  13.493  1.00  0.00     0.065 A 
HETATM   26  C3  UNL     1     -20.403 -18.625  13.314  1.00  0.00     0.074 A 
HETATM   27  C2  UNL     1     -19.534 -17.686  13.890  1.00  0.00     0.128 A 
HETATM   28  N1  UNL     1     -20.271 -16.682  14.384  1.00  0.00    -0.306 N 
HETATM   29  C1  UNL     1     -19.720 -15.499  15.069  1.00  0.00     0.177 C 
HETATM   30  N10 UNL     1     -21.521 -16.957  14.141  1.00  0.00    -0.298 N 
ATOM     31  H10 UNL     1     -22.301 -16.358  14.409  1.00  0.00     0.187 HD
BRANCH  26  32
HETATM   32  C4  UNL     1     -19.963 -19.843  12.682  1.00  0.00     0.268 C 
HETATM   33  N2  UNL     1     -18.822 -20.520  13.168  1.00  0.00    -0.057 NA
HETATM   34  O1  UNL     1     -20.575 -20.310  11.710  1.00  0.00    -0.271 OA
ENDBRANCH  26  32
ENDBRANCH  24  25
ENDBRANCH  23  24
ENDBRANCH   1  23
BRANCH   7  35
HETATM   35  N8  UNL     1     -26.912 -18.346   8.693  1.00  0.00    -0.383 N 
ATOM     36  H82 UNL     1     -27.583 -17.578   8.736  1.00  0.00     0.157 HD
ATOM     37  H81 UNL     1     -26.621 -18.715   7.788  1.00  0.00     0.157 HD
ENDBRANCH   7  35
TORSDOF 11
ENDMDL
MODEL 4
REMARK VINA RESULT: -6.569667087      3.318      6.501
REMARK  11 active torsions:
REMARK  status: ('A' for Active; 'I' for Inactive)
REMARK    1  A    between atoms: C3_4  and  C4_5 
REMARK    2  A    between atoms: C5_8  and  C6_9 
REMARK    3  A    between atoms: C6_9  and  C7_10 
REMARK    4  A    between atoms: C7_10  and  C8_11 
REMARK    5  A    between atoms: C9_14  and  N4_15 
REMARK    6  A    between atoms: N4_15  and  C10_17 
REMARK    7  A    between atoms: C10_17  and  C11_18 
REMARK    8  A    between atoms: C10_17  and  C12_23 
REMARK    9  A    between atoms: C11_18  and  N5_19 
REMARK   10  A    between atoms: C12_23  and  N6_24 
REMARK   11  A    between atoms: C13_30  and  N8_31 
ROOT
HETATM    1  C8  UNL     1     -18.959 -14.499  16.313  1.00  0.00     0.077 A 
HETATM    2  N3  UNL     1     -18.133 -14.116  17.299  1.00  0.00    -0.190 N 
ATOM      3  H3  UNL     1     -17.794 -14.815  17.960  1.00  0.00     0.184 HD
HETATM    4  C9  UNL     1     -17.737 -12.835  17.441  1.00  0.00     0.680 A 
HETATM    5  N7  UNL     1     -18.202 -11.941  16.554  1.00  0.00    -0.175 N 
ATOM      6  H7  UNL     1     -17.911 -10.968  16.650  1.00  0.00     0.186 HD
HETATM    7  C13 UNL     1     -19.028 -12.261  15.552  1.00  0.00     0.141 A 
HETATM    8  C14 UNL     1     -19.435 -13.549  15.396  1.00  0.00     0.117 A 
HETATM    9  N9  UNL     1     -20.308 -13.966  14.358  1.00  0.00    -0.096 NA
ENDROOT
BRANCH   4  10
HETATM   10  N4  UNL     1     -16.932 -12.489  18.409  1.00  0.00    -0.218 N 
ATOM     11  H4  UNL     1     -16.198 -13.141  18.685  1.00  0.00     0.178 HD
BRANCH  10  12
HETATM   12  C10 UNL     1     -17.028 -11.247  19.101  1.00  0.00     0.150 C 
BRANCH  12  13
HETATM   13  C11 UNL     1     -16.827 -11.546  20.592  1.00  0.00     0.256 C 
BRANCH  13  14
HETATM   14  N5  UNL     1     -15.592 -10.971  21.078  1.00  0.00    -0.077 N 
ATOM     15  H53 UNL     1     -15.763 -10.261  21.790  1.00  0.00     0.274 HD
ATOM     16  H52 UNL     1     -15.065 -11.636  21.645  1.00  0.00     0.274 HD
ATOM     17  H51 UNL     1     -15.029 -10.605  20.310  1.00  0.00     0.274 HD
ENDBRANCH  13  14
ENDBRANCH  12  13
BRANCH  12  18
HETATM   18  C12 UNL     1     -18.397 -10.607  18.989  1.00  0.00     0.256 C 
BRANCH  18  19
HETATM   19  N6  UNL     1     -18.889 -10.199  20.293  1.00  0.00    -0.077 N 
ATOM     20  H63 UNL     1     -18.531 -10.799  21.036  1.00  0.00     0.274 HD
ATOM     21  H62 UNL     1     -18.474  -9.317  20.593  1.00  0.00     0.274 HD
ATOM     22  H61 UNL     1     -19.909 -10.157  20.304  1.00  0.00     0.274 HD
ENDBRANCH  18  19
ENDBRANCH  12  18
ENDBRANCH  10  12
ENDBRANCH   4  10
BRANCH   1  23
HETATM   23  C7  UNL     1     -19.393 -15.869  16.145  1.00  0.00     0.034 C 
BRANCH  23  24
HETATM   24  C6  UNL     1     -19.044 -16.637  15.130  1.00  0.00     0.034 C 
BRANCH  24  25
HETATM   25  C5  UNL     1     -20.047 -17.387  14.356  1.00  0.00     0.065 A 
HETATM   26  C3  UNL     1     -19.840 -18.496  13.596  1.00  0.00     0.074 A 
HETATM   27  C2  UNL     1     -21.094 -18.834  13.064  1.00  0.00     0.128 A 
HETATM   28  N1  UNL     1     -21.990 -17.943  13.508  1.00  0.00    -0.306 N 
HETATM   29  C1  UNL     1     -23.425 -17.960  13.168  1.00  0.00     0.177 C 
HETATM   30  N10 UNL     1     -21.357 -17.096  14.269  1.00  0.00    -0.298 N 
ATOM     31  H10 UNL     1     -21.802 -16.309  14.742  1.00  0.00     0.187 HD
BRANCH  26  32
HETATM   32  C4  UNL     1     -18.632 -19.236  13.333  1.00  0.00     0.268 C 
HETATM   33  N2  UNL     1     -18.673 -20.644  13.227  1.00  0.00    -0.057 NA
HETATM   34  O1  UNL     1     -17.547 -18.650  13.198  1.00  0.00    -0.271 OA
ENDBRANCH  26  32
ENDBRANCH  24  25
ENDBRANCH  23  24
ENDBRANCH   1  23
BRANCH   7  35
HETATM   35  N8  UNL     1     -19.463 -11.361  14.705  1.00  0.00    -0.383 N 
ATOM     36  H82 UNL     1     -18.858 -11.091  13.929  1.00  0.00     0.157 HD
ATOM     37  H81 UNL     1     -20.383 -10.932  14.805  1.00  0.00     0.157 HD
ENDBRANCH   7  35
TORSDOF 11
ENDMDL
MODEL 5
REMARK VINA RESULT: -6.503670500      1.903      2.349
REMARK  11 active torsions:
REMARK  status: ('A' for Active; 'I' for Inactive)
REMARK    1  A    between atoms: C3_4  and  C4_5 
REMARK    2  A    between atoms: C5_8  and  C6_9 
REMARK    3  A    between atoms: C6_9  and  C7_10 
REMARK    4  A    between atoms: C7_10  and  C8_11 
REMARK    5  A    between atoms: C9_14  and  N4_15 
REMARK    6  A    between atoms: N4_15  and  C10_17 
REMARK    7  A    between atoms: C10_17  and  C11_18 
REMARK    8  A    between atoms: C10_17  and  C12_23 
REMARK    9  A    between atoms: C11_18  and  N5_19 
REMARK   10  A    between atoms: C12_23  and  N6_24 
REMARK   11  A    between atoms: C13_30  and  N8_31 
ROOT
HETATM    1  C8  UNL     1     -21.997 -18.381  13.183  1.00  0.00     0.077 A 
HETATM    2  N3  UNL     1     -21.919 -17.204  13.822  1.00  0.00    -0.190 N 
ATOM      3  H3  UNL     1     -22.781 -16.727  14.088  1.00  0.00     0.184 HD
HETATM    4  C9  UNL     1     -20.735 -16.634  14.124  1.00  0.00     0.680 A 
HETATM    5  N7  UNL     1     -19.621 -17.288  13.760  1.00  0.00    -0.175 N 
ATOM      6  H7  UNL     1     -18.719 -16.868  13.982  1.00  0.00     0.186 HD
HETATM    7  C13 UNL     1     -19.635 -18.463  13.120  1.00  0.00     0.141 A 
HETATM    8  C14 UNL     1     -20.821 -19.050  12.809  1.00  0.00     0.117 A 
HETATM    9  N9  UNL     1     -20.916 -20.294  12.134  1.00  0.00    -0.096 NA
ENDROOT
BRANCH   4  10
HETATM   10  N4  UNL     1     -20.687 -15.488  14.748  1.00  0.00    -0.218 N 
ATOM     11  H4  UNL     1     -21.565 -15.056  15.037  1.00  0.00     0.178 HD
BRANCH  10  12
HETATM   12  C10 UNL     1     -19.470 -14.808  15.044  1.00  0.00     0.150 C 
BRANCH  12  13
HETATM   13  C11 UNL     1     -19.006 -15.297  16.422  1.00  0.00     0.256 C 
BRANCH  13  14
HETATM   14  N5  UNL     1     -18.139 -14.327  17.055  1.00  0.00    -0.077 N 
ATOM     15  H53 UNL     1     -18.643 -13.473  17.293  1.00  0.00     0.274 HD
ATOM     16  H52 UNL     1     -17.874 -14.619  17.996  1.00  0.00     0.274 HD
ATOM     17  H51 UNL     1     -17.321 -14.133  16.479  1.00  0.00     0.274 HD
ENDBRANCH  13  14
ENDBRANCH  12  13
BRANCH  12  18
HETATM   18  C12 UNL     1     -19.643 -13.308  15.176  1.00  0.00     0.256 C 
BRANCH  18  19
HETATM   19  N6  UNL     1     -18.523 -12.600  14.580  1.00  0.00    -0.077 N 
ATOM     20  H63 UNL     1     -17.819 -13.244  14.221  1.00  0.00     0.274 HD
ATOM     21  H62 UNL     1     -18.785 -12.152  13.702  1.00  0.00     0.274 HD
ATOM     22  H61 UNL     1     -18.121 -11.931  15.238  1.00  0.00     0.274 HD
ENDBRANCH  18  19
ENDBRANCH  12  18
ENDBRANCH  10  12
ENDBRANCH   4  10
BRANCH   1  23
HETATM   23  C7  UNL     1     -23.259 -19.009  12.851  1.00  0.00     0.034 C 
BRANCH  23  24
HETATM   24  C6  UNL     1     -24.201 -18.439  12.125  1.00  0.00     0.034 C 
BRANCH  24  25
HETATM   25  C5  UNL     1     -25.628 -18.646  12.421  1.00  0.00     0.065 A 
HETATM   26  C3  UNL     1     -26.534 -19.332  11.673  1.00  0.00     0.074 A 
HETATM   27  C2  UNL     1     -27.749 -19.247  12.371  1.00  0.00     0.128 A 
HETATM   28  N1  UNL     1     -27.542 -18.533  13.485  1.00  0.00    -0.306 N 
HETATM   29  C1  UNL     1     -28.581 -18.222  14.483  1.00  0.00     0.177 C 
HETATM   30  N10 UNL     1     -26.286 -18.186  13.501  1.00  0.00    -0.298 N 
ATOM     31  H10 UNL     1     -25.855 -17.633  14.242  1.00  0.00     0.187 HD
BRANCH  26  32
HETATM   32  C4  UNL     1     -26.375 -20.029  10.422  1.00  0.00     0.268 C 
HETATM   33  N2  UNL     1     -26.277 -19.303   9.214  1.00  0.00    -0.057 NA
HETATM   34  O1  UNL     1     -26.324 -21.268  10.389  1.00  0.00    -0.271 OA
ENDBRANCH  26  32
ENDBRANCH  24  25
ENDBRANCH  23  24
ENDBRANCH   1  23
BRANCH   7  35
HETATM   35  N8  UNL     1     -18.527 -19.073  12.779  1.00  0.00    -0.383 N 
ATOM     36  H82 UNL     1     -18.028 -18.749  11.950  1.00  0.00     0.157 HD
ATOM     37  H81 UNL     1     -18.158 -19.855  13.320  1.00  0.00     0.157 HD
ENDBRANCH   7  35
TORSDOF 11
ENDMDL
