MODEL 1
REMARK VINA RESULT: -3.189573902      0.000      0.000
REMARK  1 active torsions:
REMARK  status: ('A' for Active; 'I' for Inactive)
REMARK    1  A    between atoms: O1_1  and  C1_3 
ROOT
HETATM    1  C1  UNL     1      20.657   8.946  -4.226  1.00  0.00     0.122 C 
HETATM    2  C2  UNL     1      19.840   8.418  -3.037  1.00  0.00     0.036 C 
HETATM    3  C3  UNL     1      20.679   7.300  -2.489  1.00  0.00    -0.012 C 
HETATM    4  C4  UNL     1      20.685   6.185  -3.495  1.00  0.00     0.005 C 
HETATM    5  C5  UNL     1      21.583   6.678  -4.639  1.00  0.00     0.007 C 
HETATM    6  C6  UNL     1      21.903   8.096  -4.229  1.00  0.00     0.015 C 
HETATM    7  C7  UNL     1      22.081   7.889  -2.714  1.00  0.00     0.012 C 
ENDROOT
BRANCH   1   8
HETATM    8  O1  UNL     1      19.945   8.874  -5.396  1.00  0.00    -0.395 OA
ATOM      9  H1  UNL     1      20.318   9.436  -6.065  1.00  0.00     0.210 HD
ENDBRANCH   1   8
TORSDOF 1
ENDMDL
MODEL 2
REMARK VINA RESULT: -3.165215422      1.325      2.262
REMARK  1 active torsions:
REMARK  status: ('A' for Active; 'I' for Inactive)
REMARK    1  A    between atoms: O1_1  and  C1_3 
ROOT
HETATM    1  C1  UNL     1      22.603   7.877  -3.722  1.00  0.00     0.122 C 
HETATM    2  C2  UNL     1      22.208   7.782  -2.241  1.00  0.00     0.036 C 
HETATM    3  C3  UNL     1      20.754   7.410  -2.276  1.00  0.00    -0.012 C 
HETATM    4  C4  UNL     1      19.986   8.581  -2.820  1.00  0.00     0.005 C 
HETATM    5  C5  UNL     1      20.307   8.614  -4.321  1.00  0.00     0.007 C 
HETATM    6  C6  UNL     1      21.341   7.522  -4.468  1.00  0.00     0.015 C 
HETATM    7  C7  UNL     1      20.750   6.480  -3.500  1.00  0.00     0.012 C 
ENDROOT
BRANCH   1   8
HETATM    8  O1  UNL     1      23.089   9.121  -4.034  1.00  0.00    -0.395 OA
ATOM      9  H1  UNL     1      23.422   9.152  -4.923  1.00  0.00     0.210 HD
ENDBRANCH   1   8
TORSDOF 1
ENDMDL
MODEL 3
REMARK VINA RESULT: -3.120342178      1.116      2.111
REMARK  1 active torsions:
REMARK  status: ('A' for Active; 'I' for Inactive)
REMARK    1  A    between atoms: O1_1  and  C1_3 
ROOT
HETATM    1  C1  UNL     1      20.877   8.398  -4.012  1.00  0.00     0.122 C 
HETATM    2  C2  UNL     1      21.140   7.022  -4.644  1.00  0.00     0.036 C 
HETATM    3  C3  UNL     1      21.243   6.096  -3.466  1.00  0.00    -0.012 C 
HETATM    4  C4  UNL     1      22.497   6.436  -2.714  1.00  0.00     0.005 C 
HETATM    5  C5  UNL     1      22.197   7.764  -2.005  1.00  0.00     0.007 C 
HETATM    6  C6  UNL     1      20.827   8.124  -2.530  1.00  0.00     0.015 C 
HETATM    7  C7  UNL     1      20.185   6.724  -2.545  1.00  0.00     0.012 C 
ENDROOT
BRANCH   1   8
HETATM    8  O1  UNL     1      21.843   9.305  -4.367  1.00  0.00    -0.395 OA
ATOM      9  H1  UNL     1      21.491  10.187  -4.412  1.00  0.00     0.210 HD
ENDBRANCH   1   8
TORSDOF 1
ENDMDL
MODEL 4
REMARK VINA RESULT: -3.112533777      1.423      2.098
REMARK  1 active torsions:
REMARK  status: ('A' for Active; 'I' for Inactive)
REMARK    1  A    between atoms: O1_1  and  C1_3 
ROOT
HETATM    1  C1  UNL     1      19.985   7.658  -1.950  1.00  0.00     0.122 C 
HETATM    2  C2  UNL     1      19.915   6.221  -2.488  1.00  0.00     0.036 C 
HETATM    3  C3  UNL     1      21.177   6.073  -3.289  1.00  0.00    -0.012 C 
HETATM    4  C4  UNL     1      21.069   6.957  -4.497  1.00  0.00     0.005 C 
HETATM    5  C5  UNL     1      21.236   8.389  -3.968  1.00  0.00     0.007 C 
HETATM    6  C6  UNL     1      21.296   8.189  -2.472  1.00  0.00     0.015 C 
HETATM    7  C7  UNL     1      22.138   6.901  -2.421  1.00  0.00     0.012 C 
ENDROOT
BRANCH   1   8
HETATM    8  O1  UNL     1      18.899   8.396  -2.349  1.00  0.00    -0.395 OA
ATOM      9  H1  UNL     1      19.145   9.057  -2.986  1.00  0.00     0.210 HD
ENDBRANCH   1   8
TORSDOF 1
ENDMDL
MODEL 5
REMARK VINA RESULT: -3.098468651      1.695      2.799
REMARK  1 active torsions:
REMARK  status: ('A' for Active; 'I' for Inactive)
REMARK    1  A    between atoms: O1_1  and  C1_3 
ROOT
HETATM    1  C1  UNL     1      21.242   6.086  -2.984  1.00  0.00     0.122 C 
HETATM    2  C2  UNL     1      21.189   6.383  -4.491  1.00  0.00     0.036 C 
HETATM    3  C3  UNL     1      21.440   7.860  -4.579  1.00  0.00    -0.012 C 
HETATM    4  C4  UNL     1      20.256   8.571  -3.990  1.00  0.00     0.005 C 
HETATM    5  C5  UNL     1      20.366   8.354  -2.474  1.00  0.00     0.007 C 
HETATM    6  C6  UNL     1      21.548   7.421  -2.352  1.00  0.00     0.015 C 
HETATM    7  C7  UNL     1      22.459   8.021  -3.439  1.00  0.00     0.012 C 
ENDROOT
BRANCH   1   8
HETATM    8  O1  UNL     1      20.070   5.528  -2.541  1.00  0.00    -0.395 OA
ATOM      9  H1  UNL     1      19.337   6.120  -2.659  1.00  0.00     0.210 HD
ENDBRANCH   1   8
TORSDOF 1
ENDMDL
