MODEL 1
REMARK VINA RESULT: -4.741107227      0.000      0.000
REMARK  6 active torsions:
REMARK  status: ('A' for Active; 'I' for Inactive)
REMARK    1  A    between atoms: N1_1  and  N2_4 
REMARK    2  A    between atoms: C1_6  and  C2_7 
REMARK    3  A    between atoms: C2_7  and  N3_8 
REMARK    4  A    between atoms: N3_8  and  C3_10 
REMARK    5  A    between atoms: C3_10  and  N4_12 
REMARK    6  A    between atoms: N4_12  and  C4_14 
ROOT
HETATM    1  C3  UNL     1      21.329   9.109  -3.334  1.00  0.00     0.168 C 
HETATM    2  S1  UNL     1      22.955   9.102  -3.241  1.00  0.00    -0.041 SA
ENDROOT
BRANCH   1   3
HETATM    3  N3  UNL     1      20.777   9.740  -4.485  1.00  0.00    -0.362 N 
ATOM      4  H3  UNL     1      20.146  10.527  -4.339  1.00  0.00     0.162 HD
BRANCH   3   5
HETATM    5  C2  UNL     1      21.048   9.345  -5.830  1.00  0.00     0.168 C 
BRANCH   5   6
HETATM    6  C1  UNL     1      21.685  10.396  -6.657  1.00  0.00     0.099 C 
HETATM    7  N2  UNL     1      21.483  11.632  -6.436  1.00  0.00    -0.321 N 
ATOM      8  H2  UNL     1      20.605  11.811  -6.923  1.00  0.00     0.185 HD
BRANCH   7   9
HETATM    9  N1  UNL     1      21.767  12.744  -5.952  1.00  0.00    -0.346 N 
ATOM     10  H12 UNL     1      22.569  12.999  -6.528  1.00  0.00     0.176 HD
ATOM     11  H11 UNL     1      21.638  13.524  -5.306  1.00  0.00     0.176 HD
ENDBRANCH   7   9
ENDBRANCH   5   6
ENDBRANCH   3   5
ENDBRANCH   1   3
BRANCH   1  12
HETATM   12  N4  UNL     1      20.498   8.535  -2.348  1.00  0.00    -0.363 N 
ATOM     13  H4  UNL     1      20.472   9.028  -1.456  1.00  0.00     0.162 HD
BRANCH  12  14
HETATM   14  C4  UNL     1      19.699   7.375  -2.422  1.00  0.00     0.083 C 
HETATM   15  C5  UNL     1      20.491   6.106  -2.383  1.00  0.00     0.025 C 
HETATM   16  C6  UNL     1      19.554   4.887  -2.471  1.00  0.00     0.002 C 
HETATM   17  C7  UNL     1      18.652   4.980  -1.256  1.00  0.00     0.000 C 
HETATM   18  C8  UNL     1      17.732   6.161  -1.479  1.00  0.00     0.002 C 
HETATM   19  C9  UNL     1      18.606   7.409  -1.378  1.00  0.00     0.025 C 
ENDBRANCH  12  14
ENDBRANCH   1  12
TORSDOF 6
ENDMDL
MODEL 2
REMARK VINA RESULT: -4.646914438      1.449      2.147
REMARK  6 active torsions:
REMARK  status: ('A' for Active; 'I' for Inactive)
REMARK    1  A    between atoms: N1_1  and  N2_4 
REMARK    2  A    between atoms: C1_6  and  C2_7 
REMARK    3  A    between atoms: C2_7  and  N3_8 
REMARK    4  A    between atoms: N3_8  and  C3_10 
REMARK    5  A    between atoms: C3_10  and  N4_12 
REMARK    6  A    between atoms: N4_12  and  C4_14 
ROOT
HETATM    1  C3  UNL     1      22.361   7.027  -3.601  1.00  0.00     0.168 C 
HETATM    2  S1  UNL     1      23.519   7.604  -2.612  1.00  0.00    -0.041 SA
ENDROOT
BRANCH   1   3
HETATM    3  N3  UNL     1      22.345   7.566  -4.919  1.00  0.00    -0.362 N 
ATOM      4  H3  UNL     1      23.213   7.957  -5.283  1.00  0.00     0.162 HD
BRANCH   3   5
HETATM    5  C2  UNL     1      21.195   7.596  -5.764  1.00  0.00     0.168 C 
BRANCH   5   6
HETATM    6  C1  UNL     1      20.403   8.844  -5.672  1.00  0.00     0.099 C 
HETATM    7  N2  UNL     1      20.962   9.984  -5.585  1.00  0.00    -0.321 N 
ATOM      8  H2  UNL     1      21.163  10.064  -4.588  1.00  0.00     0.185 HD
BRANCH   7   9
HETATM    9  N1  UNL     1      21.399  11.055  -6.046  1.00  0.00    -0.346 N 
ATOM     10  H12 UNL     1      21.603  10.776  -7.006  1.00  0.00     0.176 HD
ATOM     11  H11 UNL     1      21.659  12.040  -5.989  1.00  0.00     0.176 HD
ENDBRANCH   7   9
ENDBRANCH   5   6
ENDBRANCH   3   5
ENDBRANCH   1   3
BRANCH   1  12
HETATM   12  N4  UNL     1      21.419   6.054  -3.199  1.00  0.00    -0.363 N 
ATOM     13  H4  UNL     1      21.481   5.158  -3.683  1.00  0.00     0.162 HD
BRANCH  12  14
HETATM   14  C4  UNL     1      20.404   6.147  -2.225  1.00  0.00     0.083 C 
HETATM   15  C5  UNL     1      19.692   7.463  -2.234  1.00  0.00     0.025 C 
HETATM   16  C6  UNL     1      18.604   7.490  -1.144  1.00  0.00     0.002 C 
HETATM   17  C7  UNL     1      17.644   6.372  -1.501  1.00  0.00     0.000 C 
HETATM   18  C8  UNL     1      18.374   5.069  -1.252  1.00  0.00     0.002 C 
HETATM   19  C9  UNL     1      19.456   4.973  -2.324  1.00  0.00     0.025 C 
ENDBRANCH  12  14
ENDBRANCH   1  12
TORSDOF 6
ENDMDL
MODEL 3
REMARK VINA RESULT: -4.590410501      1.639      2.127
REMARK  6 active torsions:
REMARK  status: ('A' for Active; 'I' for Inactive)
REMARK    1  A    between atoms: N1_1  and  N2_4 
REMARK    2  A    between atoms: C1_6  and  C2_7 
REMARK    3  A    between atoms: C2_7  and  N3_8 
REMARK    4  A    between atoms: N3_8  and  C3_10 
REMARK    5  A    between atoms: C3_10  and  N4_12 
REMARK    6  A    between atoms: N4_12  and  C4_14 
ROOT
HETATM    1  C3  UNL     1      21.516   6.771  -4.693  1.00  0.00     0.168 C 
HETATM    2  S1  UNL     1      22.354   5.550  -5.370  1.00  0.00    -0.041 SA
ENDROOT
BRANCH   1   3
HETATM    3  N3  UNL     1      20.766   7.582  -5.592  1.00  0.00    -0.362 N 
ATOM      4  H3  UNL     1      20.333   7.126  -6.394  1.00  0.00     0.162 HD
BRANCH   3   5
HETATM    5  C2  UNL     1      20.579   8.990  -5.445  1.00  0.00     0.168 C 
BRANCH   5   6
HETATM    6  C1  UNL     1      21.715   9.809  -5.929  1.00  0.00     0.099 C 
HETATM    7  N2  UNL     1      21.558  11.020  -6.285  1.00  0.00    -0.321 N 
ATOM      8  H2  UNL     1      21.237  10.935  -7.249  1.00  0.00     0.185 HD
BRANCH   7   9
HETATM    9  N1  UNL     1      21.582  12.252  -6.105  1.00  0.00    -0.346 N 
ATOM     10  H12 UNL     1      21.386  12.298  -5.105  1.00  0.00     0.176 HD
ATOM     11  H11 UNL     1      21.688  13.221  -6.406  1.00  0.00     0.176 HD
ENDBRANCH   7   9
ENDBRANCH   5   6
ENDBRANCH   3   5
ENDBRANCH   1   3
BRANCH   1  12
HETATM   12  N4  UNL     1      21.519   7.032  -3.305  1.00  0.00    -0.363 N 
ATOM     13  H4  UNL     1      22.336   7.535  -2.956  1.00  0.00     0.162 HD
BRANCH  12  14
HETATM   14  C4  UNL     1      20.555   6.695  -2.334  1.00  0.00     0.083 C 
HETATM   15  C5  UNL     1      19.502   7.744  -2.155  1.00  0.00     0.025 C 
HETATM   16  C6  UNL     1      18.489   7.308  -1.080  1.00  0.00     0.002 C 
HETATM   17  C7  UNL     1      17.870   6.026  -1.602  1.00  0.00     0.000 C 
HETATM   18  C8  UNL     1      18.943   4.961  -1.540  1.00  0.00     0.002 C 
HETATM   19  C9  UNL     1      19.970   5.328  -2.608  1.00  0.00     0.025 C 
ENDBRANCH  12  14
ENDBRANCH   1  12
TORSDOF 6
ENDMDL
MODEL 4
REMARK VINA RESULT: -4.504111848      1.994      6.379
REMARK  6 active torsions:
REMARK  status: ('A' for Active; 'I' for Inactive)
REMARK    1  A    between atoms: N1_1  and  N2_4 
REMARK    2  A    between atoms: C1_6  and  C2_7 
REMARK    3  A    between atoms: C2_7  and  N3_8 
REMARK    4  A    between atoms: N3_8  and  C3_10 
REMARK    5  A    between atoms: C3_10  and  N4_12 
REMARK    6  A    between atoms: N4_12  and  C4_14 
ROOT
HETATM    1  C3  UNL     1      20.333   8.683  -3.092  1.00  0.00     0.168 C 
HETATM    2  S1  UNL     1      21.593   7.772  -2.607  1.00  0.00    -0.041 SA
ENDROOT
BRANCH   1   3
HETATM    3  N3  UNL     1      19.219   8.724  -2.206  1.00  0.00    -0.362 N 
ATOM      4  H3  UNL     1      18.526   9.458  -2.348  1.00  0.00     0.162 HD
BRANCH   3   5
HETATM    5  C2  UNL     1      19.008   7.806  -1.133  1.00  0.00     0.168 C 
BRANCH   5   6
HETATM    6  C1  UNL     1      18.094   6.687  -1.459  1.00  0.00     0.099 C 
HETATM    7  N2  UNL     1      18.532   5.519  -1.709  1.00  0.00    -0.321 N 
ATOM      8  H2  UNL     1      18.782   5.575  -2.696  1.00  0.00     0.185 HD
BRANCH   7   9
HETATM    9  N1  UNL     1      18.825   4.346  -1.411  1.00  0.00    -0.346 N 
ATOM     10  H12 UNL     1      19.428   4.503  -0.603  1.00  0.00     0.176 HD
ATOM     11  H11 UNL     1      18.791   3.333  -1.532  1.00  0.00     0.176 HD
ENDBRANCH   7   9
ENDBRANCH   5   6
ENDBRANCH   3   5
ENDBRANCH   1   3
BRANCH   1  12
HETATM   12  N4  UNL     1      20.321   9.395  -4.312  1.00  0.00    -0.363 N 
ATOM     13  H4  UNL     1      19.453   9.888  -4.522  1.00  0.00     0.162 HD
BRANCH  12  14
HETATM   14  C4  UNL     1      21.338   9.519  -5.280  1.00  0.00     0.083 C 
HETATM   15  C5  UNL     1      20.833   9.425  -6.685  1.00  0.00     0.025 C 
HETATM   16  C6  UNL     1      21.998   9.567  -7.684  1.00  0.00     0.002 C 
HETATM   17  C7  UNL     1      22.586  10.941  -7.428  1.00  0.00     0.000 C 
HETATM   18  C8  UNL     1      23.270  10.884  -6.079  1.00  0.00     0.002 C 
HETATM   19  C9  UNL     1      22.158  10.768  -5.041  1.00  0.00     0.025 C 
ENDBRANCH  12  14
ENDBRANCH   1  12
TORSDOF 6
ENDMDL
MODEL 5
REMARK VINA RESULT: -4.492758804      2.603      3.374
REMARK  6 active torsions:
REMARK  status: ('A' for Active; 'I' for Inactive)
REMARK    1  A    between atoms: N1_1  and  N2_4 
REMARK    2  A    between atoms: C1_6  and  C2_7 
REMARK    3  A    between atoms: C2_7  and  N3_8 
REMARK    4  A    between atoms: N3_8  and  C3_10 
REMARK    5  A    between atoms: C3_10  and  N4_12 
REMARK    6  A    between atoms: N4_12  and  C4_14 
ROOT
HETATM    1  C3  UNL     1      22.217   4.633  -3.951  1.00  0.00     0.168 C 
HETATM    2  S1  UNL     1      23.461   3.583  -3.988  1.00  0.00    -0.041 SA
ENDROOT
BRANCH   1   3
HETATM    3  N3  UNL     1      21.953   5.324  -5.168  1.00  0.00    -0.362 N 
ATOM      4  H3  UNL     1      21.332   4.877  -5.842  1.00  0.00     0.162 HD
BRANCH   3   5
HETATM    5  C2  UNL     1      22.497   6.599  -5.507  1.00  0.00     0.168 C 
BRANCH   5   6
HETATM    6  C1  UNL     1      21.586   7.461  -6.294  1.00  0.00     0.099 C 
HETATM    7  N2  UNL     1      20.783   8.272  -5.731  1.00  0.00    -0.321 N 
ATOM      8  H2  UNL     1      19.986   7.681  -5.497  1.00  0.00     0.185 HD
BRANCH   7   9
HETATM    9  N1  UNL     1      20.435   9.391  -5.309  1.00  0.00    -0.346 N 
ATOM     10  H12 UNL     1      19.894   9.121  -4.487  1.00  0.00     0.176 HD
ATOM     11  H11 UNL     1      20.397  10.410  -5.335  1.00  0.00     0.176 HD
ENDBRANCH   7   9
ENDBRANCH   5   6
ENDBRANCH   3   5
ENDBRANCH   1   3
BRANCH   1  12
HETATM   12  N4  UNL     1      21.437   4.864  -2.797  1.00  0.00    -0.363 N 
ATOM     13  H4  UNL     1      21.766   4.406  -1.947  1.00  0.00     0.162 HD
BRANCH  12  14
HETATM   14  C4  UNL     1      20.267   5.638  -2.654  1.00  0.00     0.083 C 
HETATM   15  C5  UNL     1      19.263   5.027  -1.727  1.00  0.00     0.025 C 
HETATM   16  C6  UNL     1      18.015   5.924  -1.624  1.00  0.00     0.002 C 
HETATM   17  C7  UNL     1      18.509   7.244  -1.065  1.00  0.00     0.000 C 
HETATM   18  C8  UNL     1      19.337   7.899  -2.150  1.00  0.00     0.002 C 
HETATM   19  C9  UNL     1      20.607   7.063  -2.282  1.00  0.00     0.025 C 
ENDBRANCH  12  14
ENDBRANCH   1  12
TORSDOF 6
ENDMDL
