MODEL 1
REMARK VINA RESULT: -4.101467865      0.000      0.000
REMARK  1 active torsions:
REMARK  status: ('A' for Active; 'I' for Inactive)
REMARK    1  A    between atoms: C2_2  and  C3_3 
ROOT
HETATM    1  C3  UNL     1      20.355   8.477  -1.968  1.00  0.00     0.133 C 
HETATM    2  C4  UNL     1      19.069   7.808  -1.792  1.00  0.00     0.059 C 
HETATM    3  N1  UNL     1      18.053   7.265  -1.661  1.00  0.00    -0.197 NA
ENDROOT
BRANCH   1   4
HETATM    4  C2  UNL     1      20.996   7.901  -3.211  1.00  0.00    -0.025 C 
HETATM    5  C1  UNL     1      20.432   8.525  -4.442  1.00  0.00     0.017 C 
HETATM    6  C5  UNL     1      22.509   7.877  -3.145  1.00  0.00    -0.005 C 
HETATM    7  C6  UNL     1      23.084   7.624  -4.507  1.00  0.00     0.005 C 
HETATM    8  C10 UNL     1      22.367   6.545  -2.396  1.00  0.00     0.011 C 
HETATM    9  C7  UNL     1      22.549   6.405  -5.161  1.00  0.00     0.001 C 
HETATM   10  C8  UNL     1      21.381   5.776  -4.482  1.00  0.00     0.005 C 
HETATM   11  C9  UNL     1      21.040   6.410  -3.157  1.00  0.00    -0.005 C 
ENDBRANCH   1   4
TORSDOF 1
ENDMDL
MODEL 2
REMARK VINA RESULT: -4.039397466      1.031      2.076
REMARK  1 active torsions:
REMARK  status: ('A' for Active; 'I' for Inactive)
REMARK    1  A    between atoms: C2_2  and  C3_3 
ROOT
HETATM    1  C3  UNL     1      20.206   8.533  -3.119  1.00  0.00     0.133 C 
HETATM    2  C4  UNL     1      19.445   8.063  -1.964  1.00  0.00     0.059 C 
HETATM    3  N1  UNL     1      18.854   7.685  -1.042  1.00  0.00    -0.197 NA
ENDROOT
BRANCH   1   4
HETATM    4  C2  UNL     1      21.498   7.745  -3.157  1.00  0.00    -0.025 C 
HETATM    5  C1  UNL     1      22.331   8.026  -1.954  1.00  0.00     0.017 C 
HETATM    6  C5  UNL     1      21.291   6.275  -3.460  1.00  0.00    -0.005 C 
HETATM    7  C6  UNL     1      22.537   5.501  -3.151  1.00  0.00     0.005 C 
HETATM    8  C10 UNL     1      21.291   6.672  -4.943  1.00  0.00     0.011 C 
HETATM    9  C7  UNL     1      23.749   6.030  -3.825  1.00  0.00     0.001 C 
HETATM   10  C8  UNL     1      23.582   7.353  -4.491  1.00  0.00     0.005 C 
HETATM   11  C9  UNL     1      22.160   7.854  -4.490  1.00  0.00    -0.005 C 
ENDBRANCH   1   4
TORSDOF 1
ENDMDL
MODEL 3
REMARK VINA RESULT: -3.864447633      1.397      2.492
REMARK  1 active torsions:
REMARK  status: ('A' for Active; 'I' for Inactive)
REMARK    1  A    between atoms: C2_2  and  C3_3 
ROOT
HETATM    1  C3  UNL     1      18.834   7.166  -1.455  1.00  0.00     0.133 C 
HETATM    2  C4  UNL     1      18.326   5.800  -1.358  1.00  0.00     0.059 C 
HETATM    3  N1  UNL     1      17.936   4.712  -1.284  1.00  0.00    -0.197 NA
ENDROOT
BRANCH   1   4
HETATM    4  C2  UNL     1      20.090   7.120  -2.298  1.00  0.00    -0.025 C 
HETATM    5  C1  UNL     1      20.522   5.713  -2.538  1.00  0.00     0.017 C 
HETATM    6  C5  UNL     1      20.004   7.980  -3.542  1.00  0.00    -0.005 C 
HETATM    7  C6  UNL     1      21.113   7.633  -4.491  1.00  0.00     0.005 C 
HETATM    8  C10 UNL     1      20.442   9.153  -2.653  1.00  0.00     0.011 C 
HETATM    9  C7  UNL     1      22.462   7.697  -3.877  1.00  0.00     0.001 C 
HETATM   10  C8  UNL     1      22.483   7.855  -2.395  1.00  0.00     0.005 C 
HETATM   11  C9  UNL     1      21.119   8.076  -1.793  1.00  0.00    -0.005 C 
ENDBRANCH   1   4
TORSDOF 1
ENDMDL
MODEL 4
REMARK VINA RESULT: -3.791677649      2.372      2.925
REMARK  1 active torsions:
REMARK  status: ('A' for Active; 'I' for Inactive)
REMARK    1  A    between atoms: C2_2  and  C3_3 
ROOT
HETATM    1  C3  UNL     1      20.478   8.615  -4.713  1.00  0.00     0.133 C 
HETATM    2  C4  UNL     1      20.858   9.140  -6.022  1.00  0.00     0.059 C 
HETATM    3  N1  UNL     1      21.166   9.544  -7.063  1.00  0.00    -0.197 NA
ENDROOT
BRANCH   1   4
HETATM    4  C2  UNL     1      21.338   7.398  -4.450  1.00  0.00    -0.025 C 
HETATM    5  C1  UNL     1      21.396   6.513  -5.647  1.00  0.00     0.017 C 
HETATM    6  C5  UNL     1      22.685   7.741  -3.846  1.00  0.00    -0.005 C 
HETATM    7  C6  UNL     1      23.605   6.560  -3.926  1.00  0.00     0.005 C 
HETATM    8  C10 UNL     1      21.975   7.744  -2.484  1.00  0.00     0.011 C 
HETATM    9  C7  UNL     1      23.040   5.324  -3.329  1.00  0.00     0.001 C 
HETATM   10  C8  UNL     1      21.595   5.391  -2.972  1.00  0.00     0.005 C 
HETATM   11  C9  UNL     1      20.994   6.763  -3.144  1.00  0.00    -0.005 C 
ENDBRANCH   1   4
TORSDOF 1
ENDMDL
MODEL 5
REMARK VINA RESULT: -3.787099677      0.969      1.948
REMARK  1 active torsions:
REMARK  status: ('A' for Active; 'I' for Inactive)
REMARK    1  A    between atoms: C2_2  and  C3_3 
ROOT
HETATM    1  C3  UNL     1      19.973   7.708  -1.838  1.00  0.00     0.133 C 
HETATM    2  C4  UNL     1      18.617   7.182  -1.700  1.00  0.00     0.059 C 
HETATM    3  N1  UNL     1      17.548   6.750  -1.592  1.00  0.00    -0.197 NA
ENDROOT
BRANCH   1   4
HETATM    4  C2  UNL     1      20.787   6.667  -2.575  1.00  0.00    -0.025 C 
HETATM    5  C1  UNL     1      20.243   5.299  -2.342  1.00  0.00     0.017 C 
HETATM    6  C5  UNL     1      21.026   7.018  -4.029  1.00  0.00    -0.005 C 
HETATM    7  C6  UNL     1      21.528   5.819  -4.777  1.00  0.00     0.005 C 
HETATM    8  C10 UNL     1      22.221   7.850  -3.540  1.00  0.00     0.011 C 
HETATM    9  C7  UNL     1      22.726   5.193  -4.164  1.00  0.00     0.001 C 
HETATM   10  C8  UNL     1      23.085   5.697  -2.808  1.00  0.00     0.005 C 
HETATM   11  C9  UNL     1      22.250   6.869  -2.358  1.00  0.00    -0.005 C 
ENDBRANCH   1   4
TORSDOF 1
ENDMDL
