MODEL 1
REMARK VINA RESULT: -3.388841630      0.000      0.000
REMARK  0 active torsions:
REMARK  status: ('A' for Active; 'I' for Inactive)
ROOT
HETATM    1  C1  UNL     1      19.933   9.067  -4.422  1.00  0.00     0.048 C 
HETATM    2  C2  UNL     1      20.325   8.434  -3.107  1.00  0.00     0.100 C 
HETATM    3  C3  UNL     1      19.185   8.298  -2.156  1.00  0.00     0.048 C 
HETATM    4  N1  UNL     1      21.493   9.016  -2.527  1.00  0.00    -0.078 NA
HETATM    5  O1  UNL     1      22.579   8.701  -3.141  1.00  0.00    -0.264 OA
HETATM    6  C4  UNL     1      22.776   7.352  -3.258  1.00  0.00     0.127 C 
HETATM    7  C5  UNL     1      23.281   6.659  -2.051  1.00  0.00     0.060 C 
HETATM    8  C6  UNL     1      23.636   7.062  -4.441  1.00  0.00     0.060 C 
HETATM    9  S1  UNL     1      21.045   6.791  -3.536  1.00  0.00    -0.101 SA
ENDROOT
TORSDOF 0
ENDMDL
MODEL 2
REMARK VINA RESULT: -3.370285437      0.615      3.592
REMARK  0 active torsions:
REMARK  status: ('A' for Active; 'I' for Inactive)
ROOT
HETATM    1  C1  UNL     1      23.203   6.691  -1.943  1.00  0.00     0.048 C 
HETATM    2  C2  UNL     1      22.829   7.335  -3.258  1.00  0.00     0.100 C 
HETATM    3  C3  UNL     1      23.730   6.951  -4.380  1.00  0.00     0.048 C 
HETATM    4  N1  UNL     1      22.605   8.742  -3.153  1.00  0.00    -0.078 NA
HETATM    5  O1  UNL     1      21.506   9.041  -2.554  1.00  0.00    -0.264 OA
HETATM    6  C4  UNL     1      20.398   8.464  -3.111  1.00  0.00     0.127 C 
HETATM    7  C5  UNL     1      19.879   9.104  -4.341  1.00  0.00     0.060 C 
HETATM    8  C6  UNL     1      19.325   8.324  -2.086  1.00  0.00     0.060 C 
HETATM    9  S1  UNL     1      21.087   6.825  -3.587  1.00  0.00    -0.101 SA
ENDROOT
TORSDOF 0
ENDMDL
MODEL 3
REMARK VINA RESULT: -3.337923885      1.915      2.811
REMARK  0 active torsions:
REMARK  status: ('A' for Active; 'I' for Inactive)
ROOT
HETATM    1  C1  UNL     1      19.735   9.098  -2.906  1.00  0.00     0.048 C 
HETATM    2  C2  UNL     1      20.907   8.281  -3.398  1.00  0.00     0.100 C 
HETATM    3  C3  UNL     1      21.093   7.007  -2.648  1.00  0.00     0.048 C 
HETATM    4  N1  UNL     1      22.105   9.045  -3.542  1.00  0.00    -0.078 NA
HETATM    5  O1  UNL     1      22.083   9.844  -4.550  1.00  0.00    -0.264 OA
HETATM    6  C4  UNL     1      21.815   9.225  -5.740  1.00  0.00     0.127 C 
HETATM    7  C5  UNL     1      22.943   8.499  -6.366  1.00  0.00     0.060 C 
HETATM    8  C6  UNL     1      21.207  10.195  -6.695  1.00  0.00     0.060 C 
HETATM    9  S1  UNL     1      20.586   7.971  -5.187  1.00  0.00    -0.101 SA
ENDROOT
TORSDOF 0
ENDMDL
MODEL 4
REMARK VINA RESULT: -3.307892519      1.953      3.253
REMARK  0 active torsions:
REMARK  status: ('A' for Active; 'I' for Inactive)
ROOT
HETATM    1  C1  UNL     1      22.946   8.225  -6.361  1.00  0.00     0.048 C 
HETATM    2  C2  UNL     1      21.797   9.088  -5.893  1.00  0.00     0.100 C 
HETATM    3  C3  UNL     1      21.174   9.884  -6.988  1.00  0.00     0.048 C 
HETATM    4  N1  UNL     1      22.105   9.853  -4.727  1.00  0.00    -0.078 NA
HETATM    5  O1  UNL     1      22.171   9.146  -3.655  1.00  0.00    -0.264 OA
HETATM    6  C4  UNL     1      21.044   8.411  -3.408  1.00  0.00     0.127 C 
HETATM    7  C5  UNL     1      19.898   9.148  -2.828  1.00  0.00     0.060 C 
HETATM    8  C6  UNL     1      21.384   7.215  -2.584  1.00  0.00     0.060 C 
HETATM    9  S1  UNL     1      20.584   7.931  -5.125  1.00  0.00    -0.101 SA
ENDROOT
TORSDOF 0
ENDMDL
MODEL 5
REMARK VINA RESULT: -3.127500825      1.622      2.969
REMARK  0 active torsions:
REMARK  status: ('A' for Active; 'I' for Inactive)
ROOT
HETATM    1  C1  UNL     1      20.272   6.680  -2.653  1.00  0.00     0.048 C 
HETATM    2  C2  UNL     1      21.651   7.194  -2.991  1.00  0.00     0.100 C 
HETATM    3  C3  UNL     1      22.747   6.364  -2.416  1.00  0.00     0.048 C 
HETATM    4  N1  UNL     1      21.805   8.595  -2.754  1.00  0.00    -0.078 NA
HETATM    5  O1  UNL     1      21.187   9.328  -3.613  1.00  0.00    -0.264 OA
HETATM    6  C4  UNL     1      21.530   9.065  -4.911  1.00  0.00     0.127 C 
HETATM    7  C5  UNL     1      22.815   9.637  -5.375  1.00  0.00     0.060 C 
HETATM    8  C6  UNL     1      20.414   9.448  -5.822  1.00  0.00     0.060 C 
HETATM    9  S1  UNL     1      21.732   7.237  -4.833  1.00  0.00    -0.101 SA
ENDROOT
TORSDOF 0
ENDMDL
