MODEL 1
REMARK VINA RESULT: -4.858893497      0.000      0.000
REMARK  1 active torsions:
REMARK  status: ('A' for Active; 'I' for Inactive)
REMARK    1  A    between atoms: C4_4  and  C5_5 
ROOT
HETATM    1  C5  UNL     1      20.770   7.779  -3.117  1.00  0.00     0.151 C 
HETATM    2  C6  UNL     1      19.939   9.022  -3.344  1.00  0.00     0.264 C 
HETATM    3  N1  UNL     1      20.593   9.835  -4.371  1.00  0.00    -0.071 N 
ATOM      4  H11 UNL     1      21.514  10.172  -4.091  1.00  0.00     0.277 HD
ATOM      5  H12 UNL     1      20.156  10.747  -4.500  1.00  0.00     0.277 HD
HETATM    6  C7  UNL     1      20.621   9.037  -5.583  1.00  0.00     0.258 C 
HETATM    7  C8  UNL     1      21.485   7.819  -5.256  1.00  0.00     0.195 C 
HETATM    8  O1  UNL     1      20.778   7.070  -4.317  1.00  0.00    -0.382 OA
ENDROOT
BRANCH   1   9
HETATM    9  C4  UNL     1      20.136   6.986  -2.004  1.00  0.00     0.016 C 
HETATM   10  C3  UNL     1      19.011   7.682  -1.333  1.00  0.00     0.007 C 
HETATM   11  C2  UNL     1      17.634   7.271  -1.811  1.00  0.00     0.000 C 
HETATM   12  C1  UNL     1      17.421   5.779  -1.667  1.00  0.00     0.000 C 
HETATM   13  C10 UNL     1      18.767   5.085  -1.397  1.00  0.00     0.000 C 
HETATM   14  C9  UNL     1      19.686   5.641  -2.496  1.00  0.00     0.007 C 
ENDBRANCH   1   9
TORSDOF 1
ENDMDL
MODEL 2
REMARK VINA RESULT: -4.800610172      1.323      1.480
REMARK  1 active torsions:
REMARK  status: ('A' for Active; 'I' for Inactive)
REMARK    1  A    between atoms: C4_4  and  C5_5 
ROOT
HETATM    1  C5  UNL     1      20.377   8.762  -2.830  1.00  0.00     0.151 C 
HETATM    2  C6  UNL     1      20.212   8.319  -4.265  1.00  0.00     0.264 C 
HETATM    3  N1  UNL     1      20.390   9.484  -5.134  1.00  0.00    -0.071 N 
ATOM      4  H11 UNL     1      19.682  10.204  -4.990  1.00  0.00     0.277 HD
ATOM      5  H12 UNL     1      20.180   9.291  -6.113  1.00  0.00     0.277 HD
HETATM    6  C7  UNL     1      21.743   9.962  -4.922  1.00  0.00     0.258 C 
HETATM    7  C8  UNL     1      21.804  10.392  -3.456  1.00  0.00     0.195 C 
HETATM    8  O1  UNL     1      21.683   9.231  -2.696  1.00  0.00    -0.382 OA
ENDROOT
BRANCH   1   9
HETATM    9  C4  UNL     1      20.114   7.577  -1.938  1.00  0.00     0.016 C 
HETATM   10  C3  UNL     1      18.877   7.695  -1.127  1.00  0.00     0.007 C 
HETATM   11  C2  UNL     1      17.674   6.972  -1.695  1.00  0.00     0.000 C 
HETATM   12  C1  UNL     1      17.963   5.502  -1.908  1.00  0.00     0.000 C 
HETATM   13  C10 UNL     1      19.475   5.247  -1.802  1.00  0.00     0.000 C 
HETATM   14  C9  UNL     1      20.085   6.305  -2.734  1.00  0.00     0.007 C 
ENDBRANCH   1   9
TORSDOF 1
ENDMDL
MODEL 3
REMARK VINA RESULT: -4.418218580      2.098      4.575
REMARK  1 active torsions:
REMARK  status: ('A' for Active; 'I' for Inactive)
REMARK    1  A    between atoms: C4_4  and  C5_5 
ROOT
HETATM    1  C5  UNL     1      19.786   7.302  -2.569  1.00  0.00     0.151 C 
HETATM    2  C6  UNL     1      18.701   7.474  -1.530  1.00  0.00     0.264 C 
HETATM    3  N1  UNL     1      17.723   6.397  -1.699  1.00  0.00    -0.071 N 
ATOM      4  H11 UNL     1      17.244   6.427  -2.599  1.00  0.00     0.277 HD
ATOM      5  H12 UNL     1      16.898   6.507  -1.110  1.00  0.00     0.277 HD
HETATM    6  C7  UNL     1      18.428   5.150  -1.468  1.00  0.00     0.258 C 
HETATM    7  C8  UNL     1      19.490   5.066  -2.567  1.00  0.00     0.195 C 
HETATM    8  O1  UNL     1      20.409   6.082  -2.310  1.00  0.00    -0.382 OA
ENDROOT
BRANCH   1   9
HETATM    9  C4  UNL     1      20.745   8.456  -2.443  1.00  0.00     0.016 C 
HETATM   10  C3  UNL     1      22.173   8.055  -2.429  1.00  0.00     0.007 C 
HETATM   11  C2  UNL     1      22.883   8.187  -3.760  1.00  0.00     0.000 C 
HETATM   12  C1  UNL     1      22.794   9.599  -4.297  1.00  0.00     0.000 C 
HETATM   13  C10 UNL     1      21.737  10.390  -3.508  1.00  0.00     0.000 C 
HETATM   14  C9  UNL     1      20.508   9.469  -3.527  1.00  0.00     0.007 C 
ENDBRANCH   1   9
TORSDOF 1
ENDMDL
MODEL 4
REMARK VINA RESULT: -4.404677496      2.313      4.604
REMARK  1 active torsions:
REMARK  status: ('A' for Active; 'I' for Inactive)
REMARK    1  A    between atoms: C4_4  and  C5_5 
ROOT
HETATM    1  C5  UNL     1      20.318   6.828  -2.388  1.00  0.00     0.151 C 
HETATM    2  C6  UNL     1      20.131   5.398  -2.843  1.00  0.00     0.264 C 
HETATM    3  N1  UNL     1      19.349   4.688  -1.829  1.00  0.00    -0.071 N 
ATOM      4  H11 UNL     1      19.823   4.625  -0.927  1.00  0.00     0.277 HD
ATOM      5  H12 UNL     1      19.277   3.686  -2.006  1.00  0.00     0.277 HD
HETATM    6  C7  UNL     1      18.060   5.350  -1.753  1.00  0.00     0.258 C 
HETATM    7  C8  UNL     1      18.355   6.774  -1.279  1.00  0.00     0.195 C 
HETATM    8  O1  UNL     1      19.049   7.401  -2.312  1.00  0.00    -0.382 OA
ENDROOT
BRANCH   1   9
HETATM    9  C4  UNL     1      21.190   7.532  -3.394  1.00  0.00     0.016 C 
HETATM   10  C3  UNL     1      20.550   8.712  -4.025  1.00  0.00     0.007 C 
HETATM   11  C2  UNL     1      20.938  10.045  -3.419  1.00  0.00     0.000 C 
HETATM   12  C1  UNL     1      22.437  10.248  -3.446  1.00  0.00     0.000 C 
HETATM   13  C10 UNL     1      23.138   8.918  -3.768  1.00  0.00     0.000 C 
HETATM   14  C9  UNL     1      22.502   7.927  -2.781  1.00  0.00     0.007 C 
ENDBRANCH   1   9
TORSDOF 1
ENDMDL
MODEL 5
REMARK VINA RESULT: -4.315180270      1.896      2.618
REMARK  1 active torsions:
REMARK  status: ('A' for Active; 'I' for Inactive)
REMARK    1  A    between atoms: C4_4  and  C5_5 
ROOT
HETATM    1  C5  UNL     1      21.351   7.920  -2.075  1.00  0.00     0.151 C 
HETATM    2  C6  UNL     1      21.679   9.187  -2.831  1.00  0.00     0.264 C 
HETATM    3  N1  UNL     1      22.971   9.688  -2.358  1.00  0.00    -0.071 N 
ATOM      4  H11 UNL     1      22.964   9.954  -1.374  1.00  0.00     0.277 HD
ATOM      5  H12 UNL     1      23.211  10.604  -2.737  1.00  0.00     0.277 HD
HETATM    6  C7  UNL     1      23.955   8.667  -2.667  1.00  0.00     0.258 C 
HETATM    7  C8  UNL     1      23.543   7.438  -1.853  1.00  0.00     0.195 C 
HETATM    8  O1  UNL     1      22.339   6.989  -2.392  1.00  0.00    -0.382 OA
ENDROOT
BRANCH   1   9
HETATM    9  C4  UNL     1      19.986   7.454  -2.507  1.00  0.00     0.016 C 
HETATM   10  C3  UNL     1      19.958   6.063  -3.022  1.00  0.00     0.007 C 
HETATM   11  C2  UNL     1      19.507   5.023  -2.018  1.00  0.00     0.000 C 
HETATM   12  C1  UNL     1      18.139   5.348  -1.461  1.00  0.00     0.000 C 
HETATM   13  C10 UNL     1      17.760   6.794  -1.821  1.00  0.00     0.000 C 
HETATM   14  C9  UNL     1      18.991   7.607  -1.392  1.00  0.00     0.007 C 
ENDBRANCH   1   9
TORSDOF 1
ENDMDL
