MODEL 1
REMARK VINA RESULT: -3.933537126      0.000      0.000
REMARK  1 active torsions:
REMARK  status: ('A' for Active; 'I' for Inactive)
REMARK    1  A    between atoms: C8_8  and  N1_9 
ROOT
HETATM    1  C1  UNL     1       9.310  13.654  17.788  1.00  0.00     0.012 C 
HETATM    2  C2  UNL     1       9.645  14.560  18.922  1.00  0.00     0.012 C 
HETATM    3  C3  UNL     1      10.157  13.856  20.144  1.00  0.00     0.006 C 
HETATM    4  C4  UNL     1       9.659  14.595  21.349  1.00  0.00     0.000 C 
HETATM    5  C5  UNL     1      10.526  15.688  21.822  1.00  0.00     0.000 C 
HETATM    6  C6  UNL     1      11.321  16.412  20.811  1.00  0.00     0.002 C 
HETATM    7  C7  UNL     1      10.628  16.702  19.526  1.00  0.00     0.033 C 
HETATM    8  C8  UNL     1      10.703  15.583  18.521  1.00  0.00     0.187 C 
ENDROOT
BRANCH   8   9
HETATM    9  N1  UNL     1      12.009  15.009  18.433  1.00  0.00    -0.075 N 
ATOM     10  H13 UNL     1      11.968  13.992  18.495  1.00  0.00     0.274 HD
ATOM     11  H12 UNL     1      12.389  15.101  17.491  1.00  0.00     0.274 HD
ATOM     12  H11 UNL     1      12.650  15.393  19.127  1.00  0.00     0.274 HD
ENDBRANCH   8   9
TORSDOF 1
ENDMDL
MODEL 2
REMARK VINA RESULT: -3.927969776      1.846      3.684
REMARK  1 active torsions:
REMARK  status: ('A' for Active; 'I' for Inactive)
REMARK    1  A    between atoms: C8_8  and  N1_9 
ROOT
HETATM    1  C1  UNL     1      10.106  18.560  21.444  1.00  0.00     0.012 C 
HETATM    2  C2  UNL     1      10.100  17.210  20.815  1.00  0.00     0.012 C 
HETATM    3  C3  UNL     1      11.322  16.904  19.999  1.00  0.00     0.006 C 
HETATM    4  C4  UNL     1      10.901  16.065  18.829  1.00  0.00     0.000 C 
HETATM    5  C5  UNL     1      10.900  14.610  19.064  1.00  0.00     0.000 C 
HETATM    6  C6  UNL     1      10.601  14.142  20.431  1.00  0.00     0.002 C 
HETATM    7  C7  UNL     1       9.517  14.871  21.144  1.00  0.00     0.033 C 
HETATM    8  C8  UNL     1       9.980  16.109  21.865  1.00  0.00     0.187 C 
ENDROOT
BRANCH   8   9
HETATM    9  N1  UNL     1      11.198  15.905  22.582  1.00  0.00    -0.075 N 
ATOM     10  H13 UNL     1      11.945  16.496  22.215  1.00  0.00     0.274 HD
ATOM     11  H12 UNL     1      11.138  16.286  23.526  1.00  0.00     0.274 HD
ATOM     12  H11 UNL     1      11.481  14.926  22.598  1.00  0.00     0.274 HD
ENDBRANCH   8   9
TORSDOF 1
ENDMDL
MODEL 3
REMARK VINA RESULT: -3.823043459      1.911      3.438
REMARK  1 active torsions:
REMARK  status: ('A' for Active; 'I' for Inactive)
REMARK    1  A    between atoms: C8_8  and  N1_9 
ROOT
HETATM    1  C1  UNL     1      10.298  15.805  23.648  1.00  0.00     0.012 C 
HETATM    2  C2  UNL     1      10.684  15.793  22.210  1.00  0.00     0.012 C 
HETATM    3  C3  UNL     1       9.782  14.972  21.335  1.00  0.00     0.006 C 
HETATM    4  C4  UNL     1      10.622  14.340  20.266  1.00  0.00     0.000 C 
HETATM    5  C5  UNL     1      10.795  15.144  19.043  1.00  0.00     0.000 C 
HETATM    6  C6  UNL     1      10.799  16.612  19.190  1.00  0.00     0.002 C 
HETATM    7  C7  UNL     1      11.529  17.145  20.372  1.00  0.00     0.033 C 
HETATM    8  C8  UNL     1      10.702  17.204  21.629  1.00  0.00     0.187 C 
ENDROOT
BRANCH   8   9
HETATM    9  N1  UNL     1       9.388  17.715  21.400  1.00  0.00    -0.075 N 
ATOM     10  H13 UNL     1       8.891  17.862  22.278  1.00  0.00     0.274 HD
ATOM     11  H12 UNL     1       9.420  18.678  21.066  1.00  0.00     0.274 HD
ATOM     12  H11 UNL     1       8.846  17.126  20.767  1.00  0.00     0.274 HD
ENDBRANCH   8   9
TORSDOF 1
ENDMDL
MODEL 4
REMARK VINA RESULT: -3.622331788      2.632      4.131
REMARK  1 active torsions:
REMARK  status: ('A' for Active; 'I' for Inactive)
REMARK    1  A    between atoms: C8_8  and  N1_9 
ROOT
HETATM    1  C1  UNL     1       8.160  16.828  24.452  1.00  0.00     0.012 C 
HETATM    2  C2  UNL     1       9.096  16.372  23.387  1.00  0.00     0.012 C 
HETATM    3  C3  UNL     1       8.434  15.642  22.255  1.00  0.00     0.006 C 
HETATM    4  C4  UNL     1       9.372  14.572  21.782  1.00  0.00     0.000 C 
HETATM    5  C5  UNL     1      10.323  14.985  20.735  1.00  0.00     0.000 C 
HETATM    6  C6  UNL     1      10.779  16.389  20.747  1.00  0.00     0.002 C 
HETATM    7  C7  UNL     1      11.063  16.969  22.087  1.00  0.00     0.033 C 
HETATM    8  C8  UNL     1       9.855  17.546  22.776  1.00  0.00     0.187 C 
ENDROOT
BRANCH   8   9
HETATM    9  N1  UNL     1       9.040  18.323  21.898  1.00  0.00    -0.075 N 
ATOM     10  H13 UNL     1       9.610  18.859  21.244  1.00  0.00     0.274 HD
ATOM     11  H12 UNL     1       8.543  17.729  21.234  1.00  0.00     0.274 HD
ATOM     12  H11 UNL     1       8.394  18.930  22.403  1.00  0.00     0.274 HD
ENDBRANCH   8   9
TORSDOF 1
ENDMDL
MODEL 5
REMARK VINA RESULT: -3.619688648      1.301      2.941
REMARK  1 active torsions:
REMARK  status: ('A' for Active; 'I' for Inactive)
REMARK    1  A    between atoms: C8_8  and  N1_9 
ROOT
HETATM    1  C1  UNL     1      11.613  18.206  20.650  1.00  0.00     0.012 C 
HETATM    2  C2  UNL     1      11.211  16.773  20.607  1.00  0.00     0.012 C 
HETATM    3  C3  UNL     1       9.809  16.511  21.072  1.00  0.00     0.006 C 
HETATM    4  C4  UNL     1       9.793  15.189  21.780  1.00  0.00     0.000 C 
HETATM    5  C5  UNL     1       9.548  14.016  20.923  1.00  0.00     0.000 C 
HETATM    6  C6  UNL     1      10.028  14.081  19.529  1.00  0.00     0.002 C 
HETATM    7  C7  UNL     1      11.364  14.707  19.331  1.00  0.00     0.033 C 
HETATM    8  C8  UNL     1      11.325  16.206  19.195  1.00  0.00     0.187 C 
ENDROOT
BRANCH   8   9
HETATM    9  N1  UNL     1      10.271  16.655  18.342  1.00  0.00    -0.075 N 
ATOM     10  H13 UNL     1       9.465  16.967  18.886  1.00  0.00     0.274 HD
ATOM     11  H12 UNL     1      10.514  17.536  17.889  1.00  0.00     0.274 HD
ATOM     12  H11 UNL     1      10.000  15.951  17.656  1.00  0.00     0.274 HD
ENDBRANCH   8   9
TORSDOF 1
ENDMDL
