MODEL 1
REMARK VINA RESULT: -6.245946669      0.000      0.000
REMARK  6 active torsions:
REMARK  status: ('A' for Active; 'I' for Inactive)
REMARK    1  A    between atoms: C3_3  and  S1_6 
REMARK    2  A    between atoms: S1_6  and  N1_9 
REMARK    3  A    between atoms: N1_9  and  C6_11 
REMARK    4  A    between atoms: C6_11  and  C7_12 
REMARK    5  A    between atoms: C7_12  and  C8_13 
REMARK       I    between atoms: C8_13  and  N2_15 
REMARK    6  A    between atoms: N2_15  and  C9_17 
ROOT
HETATM    1  C1  UNL     1      16.960  28.160  23.886  1.00  0.00     0.014 C 
HETATM    2  C2  UNL     1      16.051  28.281  23.101  1.00  0.00    -0.090 C 
HETATM    3  C3  UNL     1      14.955  28.430  22.122  1.00  0.00     0.137 C 
HETATM    4  C4  UNL     1      13.703  27.839  22.820  1.00  0.00     0.048 C 
HETATM    5  C5  UNL     1      14.678  29.858  21.900  1.00  0.00     0.048 C 
ENDROOT
BRANCH   3   6
HETATM    6  S1  UNL     1      15.271  27.418  20.753  1.00  0.00     0.245 S 
HETATM    7  O1  UNL     1      16.631  27.747  20.132  1.00  0.00    -0.204 OA
HETATM    8  O2  UNL     1      14.289  27.728  19.625  1.00  0.00    -0.204 OA
BRANCH   6   9
HETATM    9  N1  UNL     1      15.247  25.737  20.971  1.00  0.00    -0.318 N 
ATOM     10  H1  UNL     1      15.516  25.257  21.831  1.00  0.00     0.172 HD
BRANCH   9  11
HETATM   11  C6  UNL     1      14.803  25.097  19.794  1.00  0.00     0.141 C 
BRANCH  11  12
HETATM   12  C7  UNL     1      15.898  24.669  18.848  1.00  0.00     0.123 C 
BRANCH  12  13
HETATM   13  C8  UNL     1      15.931  25.350  17.571  1.00  0.00     0.219 C 
HETATM   14  O3  UNL     1      15.446  24.848  16.532  1.00  0.00    -0.274 OA
HETATM   15  N2  UNL     1      16.530  26.636  17.463  1.00  0.00    -0.361 N 
ATOM     16  H2  UNL     1      16.931  27.062  18.299  1.00  0.00     0.162 HD
BRANCH  15  17
HETATM   17  C9  UNL     1      16.592  27.361  16.215  1.00  0.00     0.118 C 
HETATM   18  C10 UNL     1      17.852  28.196  16.214  1.00  0.00     0.026 C 
ENDBRANCH  15  17
ENDBRANCH  12  13
ENDBRANCH  11  12
ENDBRANCH   9  11
ENDBRANCH   6   9
ENDBRANCH   3   6
TORSDOF 6
ENDMDL
MODEL 2
REMARK VINA RESULT: -6.084970265      0.340      1.452
REMARK  6 active torsions:
REMARK  status: ('A' for Active; 'I' for Inactive)
REMARK    1  A    between atoms: C3_3  and  S1_6 
REMARK    2  A    between atoms: S1_6  and  N1_9 
REMARK    3  A    between atoms: N1_9  and  C6_11 
REMARK    4  A    between atoms: C6_11  and  C7_12 
REMARK    5  A    between atoms: C7_12  and  C8_13 
REMARK       I    between atoms: C8_13  and  N2_15 
REMARK    6  A    between atoms: N2_15  and  C9_17 
ROOT
HETATM    1  C1  UNL     1      14.902  30.979  21.716  1.00  0.00     0.014 C 
HETATM    2  C2  UNL     1      14.896  29.808  22.008  1.00  0.00    -0.090 C 
HETATM    3  C3  UNL     1      14.876  28.370  22.344  1.00  0.00     0.137 C 
HETATM    4  C4  UNL     1      16.080  28.158  23.298  1.00  0.00     0.048 C 
HETATM    5  C5  UNL     1      13.665  28.058  23.119  1.00  0.00     0.048 C 
ENDROOT
BRANCH   3   6
HETATM    6  S1  UNL     1      15.216  27.445  20.920  1.00  0.00     0.245 S 
HETATM    7  O1  UNL     1      16.593  27.802  20.353  1.00  0.00    -0.204 OA
HETATM    8  O2  UNL     1      14.264  27.836  19.792  1.00  0.00    -0.204 OA
BRANCH   6   9
HETATM    9  N1  UNL     1      15.175  25.754  21.028  1.00  0.00    -0.318 N 
ATOM     10  H1  UNL     1      15.444  25.216  21.852  1.00  0.00     0.172 HD
BRANCH   9  11
HETATM   11  C6  UNL     1      14.715  25.197  19.816  1.00  0.00     0.141 C 
BRANCH  11  12
HETATM   12  C7  UNL     1      15.798  24.703  18.888  1.00  0.00     0.123 C 
BRANCH  12  13
HETATM   13  C8  UNL     1      15.888  25.373  17.608  1.00  0.00     0.219 C 
HETATM   14  O3  UNL     1      15.486  24.845  16.547  1.00  0.00    -0.274 OA
HETATM   15  N2  UNL     1      16.449  26.678  17.524  1.00  0.00    -0.361 N 
ATOM     16  H2  UNL     1      16.783  27.125  18.378  1.00  0.00     0.162 HD
BRANCH  15  17
HETATM   17  C9  UNL     1      16.564  27.393  16.273  1.00  0.00     0.118 C 
HETATM   18  C10 UNL     1      17.865  28.162  16.286  1.00  0.00     0.026 C 
ENDBRANCH  15  17
ENDBRANCH  12  13
ENDBRANCH  11  12
ENDBRANCH   9  11
ENDBRANCH   6   9
ENDBRANCH   3   6
TORSDOF 6
ENDMDL
MODEL 3
REMARK VINA RESULT: -6.023844616      2.249      3.354
REMARK  6 active torsions:
REMARK  status: ('A' for Active; 'I' for Inactive)
REMARK    1  A    between atoms: C3_3  and  S1_6 
REMARK    2  A    between atoms: S1_6  and  N1_9 
REMARK    3  A    between atoms: N1_9  and  C6_11 
REMARK    4  A    between atoms: C6_11  and  C7_12 
REMARK    5  A    between atoms: C7_12  and  C8_13 
REMARK       I    between atoms: C8_13  and  N2_15 
REMARK    6  A    between atoms: N2_15  and  C9_17 
ROOT
HETATM    1  C1  UNL     1      13.832  24.235  20.871  1.00  0.00     0.014 C 
HETATM    2  C2  UNL     1      14.436  25.256  20.649  1.00  0.00    -0.090 C 
HETATM    3  C3  UNL     1      15.196  26.492  20.368  1.00  0.00     0.137 C 
HETATM    4  C4  UNL     1      14.122  27.598  20.196  1.00  0.00     0.048 C 
HETATM    5  C5  UNL     1      15.995  26.861  21.547  1.00  0.00     0.048 C 
ENDROOT
BRANCH   3   6
HETATM    6  S1  UNL     1      15.988  26.341  18.836  1.00  0.00     0.245 S 
HETATM    7  O1  UNL     1      16.714  24.998  18.726  1.00  0.00    -0.204 OA
HETATM    8  O2  UNL     1      17.119  27.359  18.720  1.00  0.00    -0.204 OA
BRANCH   6   9
HETATM    9  N1  UNL     1      15.053  26.488  17.429  1.00  0.00    -0.318 N 
ATOM     10  H1  UNL     1      14.418  27.260  17.229  1.00  0.00     0.172 HD
BRANCH   9  11
HETATM   11  C6  UNL     1      15.282  25.389  16.573  1.00  0.00     0.141 C 
BRANCH  11  12
HETATM   12  C7  UNL     1      15.838  25.742  15.215  1.00  0.00     0.123 C 
BRANCH  12  13
HETATM   13  C8  UNL     1      16.627  26.954  15.150  1.00  0.00     0.219 C 
HETATM   14  O3  UNL     1      16.183  28.016  14.658  1.00  0.00    -0.274 OA
HETATM   15  N2  UNL     1      17.957  26.968  15.656  1.00  0.00    -0.361 N 
ATOM     16  H2  UNL     1      18.337  26.112  16.061  1.00  0.00     0.162 HD
BRANCH  15  17
HETATM   17  C9  UNL     1      18.789  28.148  15.616  1.00  0.00     0.118 C 
HETATM   18  C10 UNL     1      20.092  27.786  14.941  1.00  0.00     0.026 C 
ENDBRANCH  15  17
ENDBRANCH  12  13
ENDBRANCH  11  12
ENDBRANCH   9  11
ENDBRANCH   6   9
ENDBRANCH   3   6
TORSDOF 6
ENDMDL
MODEL 4
REMARK VINA RESULT: -5.878677282      1.551      1.812
REMARK  6 active torsions:
REMARK  status: ('A' for Active; 'I' for Inactive)
REMARK    1  A    between atoms: C3_3  and  S1_6 
REMARK    2  A    between atoms: S1_6  and  N1_9 
REMARK    3  A    between atoms: N1_9  and  C6_11 
REMARK    4  A    between atoms: C6_11  and  C7_12 
REMARK    5  A    between atoms: C7_12  and  C8_13 
REMARK       I    between atoms: C8_13  and  N2_15 
REMARK    6  A    between atoms: N2_15  and  C9_17 
ROOT
HETATM    1  C1  UNL     1      16.768  28.306  23.758  1.00  0.00     0.014 C 
HETATM    2  C2  UNL     1      15.843  28.252  22.985  1.00  0.00    -0.090 C 
HETATM    3  C3  UNL     1      14.726  28.179  22.020  1.00  0.00     0.137 C 
HETATM    4  C4  UNL     1      13.457  27.959  22.884  1.00  0.00     0.048 C 
HETATM    5  C5  UNL     1      14.561  29.481  21.354  1.00  0.00     0.048 C 
ENDROOT
BRANCH   3   6
HETATM    6  S1  UNL     1      14.904  26.759  21.046  1.00  0.00     0.245 S 
HETATM    7  O1  UNL     1      13.969  25.646  21.527  1.00  0.00    -0.204 OA
HETATM    8  O2  UNL     1      16.293  26.154  21.237  1.00  0.00    -0.204 OA
BRANCH   6   9
HETATM    9  N1  UNL     1      14.656  26.893  19.374  1.00  0.00    -0.318 N 
ATOM     10  H1  UNL     1      13.776  27.163  18.936  1.00  0.00     0.172 HD
BRANCH   9  11
HETATM   11  C6  UNL     1      15.843  26.577  18.677  1.00  0.00     0.141 C 
BRANCH  11  12
HETATM   12  C7  UNL     1      15.745  25.386  17.757  1.00  0.00     0.123 C 
BRANCH  12  13
HETATM   13  C8  UNL     1      15.949  25.656  16.349  1.00  0.00     0.219 C 
HETATM   14  O3  UNL     1      15.001  25.716  15.535  1.00  0.00    -0.274 OA
HETATM   15  N2  UNL     1      17.264  25.863  15.846  1.00  0.00    -0.361 N 
ATOM     16  H2  UNL     1      18.051  25.818  16.494  1.00  0.00     0.162 HD
BRANCH  15  17
HETATM   17  C9  UNL     1      17.526  26.136  14.452  1.00  0.00     0.118 C 
HETATM   18  C10 UNL     1      18.683  27.104  14.367  1.00  0.00     0.026 C 
ENDBRANCH  15  17
ENDBRANCH  12  13
ENDBRANCH  11  12
ENDBRANCH   9  11
ENDBRANCH   6   9
ENDBRANCH   3   6
TORSDOF 6
ENDMDL
MODEL 5
REMARK VINA RESULT: -5.862145079      0.346      1.501
REMARK  6 active torsions:
REMARK  status: ('A' for Active; 'I' for Inactive)
REMARK    1  A    between atoms: C3_3  and  S1_6 
REMARK    2  A    between atoms: S1_6  and  N1_9 
REMARK    3  A    between atoms: N1_9  and  C6_11 
REMARK    4  A    between atoms: C6_11  and  C7_12 
REMARK    5  A    between atoms: C7_12  and  C8_13 
REMARK       I    between atoms: C8_13  and  N2_15 
REMARK    6  A    between atoms: N2_15  and  C9_17 
ROOT
HETATM    1  C1  UNL     1      12.877  27.846  23.351  1.00  0.00     0.014 C 
HETATM    2  C2  UNL     1      13.926  28.091  22.807  1.00  0.00    -0.090 C 
HETATM    3  C3  UNL     1      15.214  28.367  22.136  1.00  0.00     0.137 C 
HETATM    4  C4  UNL     1      15.121  29.843  21.671  1.00  0.00     0.048 C 
HETATM    5  C5  UNL     1      16.308  28.303  23.118  1.00  0.00     0.048 C 
ENDROOT
BRANCH   3   6
HETATM    6  S1  UNL     1      15.325  27.410  20.698  1.00  0.00     0.245 S 
HETATM    7  O1  UNL     1      16.573  27.778  19.892  1.00  0.00    -0.204 OA
HETATM    8  O2  UNL     1      14.182  27.749  19.744  1.00  0.00    -0.204 OA
BRANCH   6   9
HETATM    9  N1  UNL     1      15.345  25.722  20.853  1.00  0.00    -0.318 N 
ATOM     10  H1  UNL     1      15.649  25.217  21.685  1.00  0.00     0.172 HD
BRANCH   9  11
HETATM   11  C6  UNL     1      14.882  25.116  19.665  1.00  0.00     0.141 C 
BRANCH  11  12
HETATM   12  C7  UNL     1      15.962  24.694  18.700  1.00  0.00     0.123 C 
BRANCH  12  13
HETATM   13  C8  UNL     1      15.978  25.384  17.427  1.00  0.00     0.219 C 
HETATM   14  O3  UNL     1      15.375  24.946  16.421  1.00  0.00    -0.274 OA
HETATM   15  N2  UNL     1      16.696  26.604  17.285  1.00  0.00    -0.361 N 
ATOM     16  H2  UNL     1      17.194  26.977  18.093  1.00  0.00     0.162 HD
BRANCH  15  17
HETATM   17  C9  UNL     1      16.746  27.334  16.039  1.00  0.00     0.118 C 
HETATM   18  C10 UNL     1      17.808  28.402  16.159  1.00  0.00     0.026 C 
ENDBRANCH  15  17
ENDBRANCH  12  13
ENDBRANCH  11  12
ENDBRANCH   9  11
ENDBRANCH   6   9
ENDBRANCH   3   6
TORSDOF 6
ENDMDL
