MODEL 1
REMARK VINA RESULT: -6.257919958      0.000      0.000
REMARK  7 active torsions:
REMARK  status: ('A' for Active; 'I' for Inactive)
REMARK       I    between atoms: C2_2  and  N1_4 
REMARK    1  A    between atoms: N1_4  and  C3_6 
REMARK    2  A    between atoms: C3_6  and  C5_8 
REMARK    3  A    between atoms: C5_8  and  C6_9 
REMARK    4  A    between atoms: C6_9  and  C7_11 
REMARK    5  A    between atoms: C7_11  and  C8_12 
REMARK    6  A    between atoms: C7_11  and  N2_16 
REMARK    7  A    between atoms: C8_12  and  C9_13 
REMARK       I    between atoms: N2_16  and  C12_18 
ROOT
HETATM    1  C6  UNL     1      15.861  27.632  21.551  1.00  0.00     0.151 C 
HETATM    2  O2  UNL     1      16.591  27.780  20.594  1.00  0.00    -0.296 OA
ENDROOT
BRANCH   1   3
HETATM    3  C5  UNL     1      14.708  26.708  21.395  1.00  0.00     0.105 C 
BRANCH   3   4
HETATM    4  C3  UNL     1      14.993  25.539  20.524  1.00  0.00     0.087 C 
HETATM    5  C4  UNL     1      13.828  24.550  20.742  1.00  0.00     0.032 C 
BRANCH   4   6
HETATM    6  N1  UNL     1      14.950  25.910  19.120  1.00  0.00    -0.357 N 
HETATM    7  C2  UNL     1      15.693  25.245  18.121  1.00  0.00     0.213 C 
HETATM    8  C1  UNL     1      15.625  25.651  16.711  1.00  0.00     0.117 C 
HETATM    9  O1  UNL     1      16.427  24.282  18.474  1.00  0.00    -0.274 OA
ATOM     10  H1  UNL     1      14.352  26.689  18.843  1.00  0.00     0.162 HD
ENDBRANCH   4   6
ENDBRANCH   3   4
ENDBRANCH   1   3
BRANCH   1  11
HETATM   11  C7  UNL     1      16.111  28.361  22.853  1.00  0.00     0.154 C 
BRANCH  11  12
HETATM   12  C8  UNL     1      14.802  28.682  23.451  1.00  0.00     0.037 C 
BRANCH  12  13
HETATM   13  C9  UNL     1      14.272  30.060  23.289  1.00  0.00    -0.020 C 
HETATM   14  C10 UNL     1      13.154  30.221  22.334  1.00  0.00     0.009 C 
HETATM   15  C11 UNL     1      15.368  31.046  22.971  1.00  0.00     0.009 C 
ENDBRANCH  12  13
ENDBRANCH  11  12
BRANCH  11  16
HETATM   16  N2  UNL     1      17.000  27.548  23.612  1.00  0.00    -0.350 N 
HETATM   17  C12 UNL     1      18.103  28.185  24.287  1.00  0.00     0.214 C 
HETATM   18  C13 UNL     1      19.082  27.422  25.100  1.00  0.00     0.117 C 
HETATM   19  O3  UNL     1      18.280  29.428  24.209  1.00  0.00    -0.274 OA
ATOM     20  H2  UNL     1      16.860  26.540  23.677  1.00  0.00     0.163 HD
ENDBRANCH  11  16
ENDBRANCH   1  11
TORSDOF 7
ENDMDL
MODEL 2
REMARK VINA RESULT: -6.138607075      2.570      5.018
REMARK  7 active torsions:
REMARK  status: ('A' for Active; 'I' for Inactive)
REMARK       I    between atoms: C2_2  and  N1_4 
REMARK    1  A    between atoms: N1_4  and  C3_6 
REMARK    2  A    between atoms: C3_6  and  C5_8 
REMARK    3  A    between atoms: C5_8  and  C6_9 
REMARK    4  A    between atoms: C6_9  and  C7_11 
REMARK    5  A    between atoms: C7_11  and  C8_12 
REMARK    6  A    between atoms: C7_11  and  N2_16 
REMARK    7  A    between atoms: C8_12  and  C9_13 
REMARK       I    between atoms: N2_16  and  C12_18 
ROOT
HETATM    1  C6  UNL     1      16.214  26.909  18.520  1.00  0.00     0.151 C 
HETATM    2  O2  UNL     1      17.108  27.727  18.554  1.00  0.00    -0.296 OA
ENDROOT
BRANCH   1   3
HETATM    3  C5  UNL     1      15.643  26.575  17.190  1.00  0.00     0.105 C 
BRANCH   3   4
HETATM    4  C3  UNL     1      16.655  26.119  16.202  1.00  0.00     0.087 C 
HETATM    5  C4  UNL     1      15.873  25.777  14.916  1.00  0.00     0.032 C 
BRANCH   4   6
HETATM    6  N1  UNL     1      17.563  27.197  15.848  1.00  0.00    -0.357 N 
HETATM    7  C2  UNL     1      18.788  26.987  15.179  1.00  0.00     0.213 C 
HETATM    8  C1  UNL     1      19.681  28.103  14.840  1.00  0.00     0.117 C 
HETATM    9  O1  UNL     1      19.102  25.803  14.877  1.00  0.00    -0.274 OA
ATOM     10  H1  UNL     1      17.301  28.151  16.094  1.00  0.00     0.162 HD
ENDBRANCH   4   6
ENDBRANCH   3   4
ENDBRANCH   1   3
BRANCH   1  11
HETATM   11  C7  UNL     1      15.696  26.254  19.781  1.00  0.00     0.154 C 
BRANCH  11  12
HETATM   12  C8  UNL     1      15.765  24.793  19.594  1.00  0.00     0.037 C 
BRANCH  12  13
HETATM   13  C9  UNL     1      14.540  23.991  19.845  1.00  0.00    -0.020 C 
HETATM   14  C10 UNL     1      13.803  24.296  21.091  1.00  0.00     0.009 C 
HETATM   15  C11 UNL     1      14.814  22.510  19.757  1.00  0.00     0.009 C 
ENDBRANCH  12  13
ENDBRANCH  11  12
BRANCH  11  16
HETATM   16  N2  UNL     1      16.430  26.814  20.865  1.00  0.00    -0.350 N 
HETATM   17  C12 UNL     1      15.715  27.584  21.852  1.00  0.00     0.214 C 
HETATM   18  C13 UNL     1      16.394  28.207  23.015  1.00  0.00     0.117 C 
HETATM   19  O3  UNL     1      14.474  27.759  21.761  1.00  0.00    -0.274 OA
ATOM     20  H2  UNL     1      17.438  26.674  20.941  1.00  0.00     0.163 HD
ENDBRANCH  11  16
ENDBRANCH   1  11
TORSDOF 7
ENDMDL
MODEL 3
REMARK VINA RESULT: -6.135838191      1.759      6.478
REMARK  7 active torsions:
REMARK  status: ('A' for Active; 'I' for Inactive)
REMARK       I    between atoms: C2_2  and  N1_4 
REMARK    1  A    between atoms: N1_4  and  C3_6 
REMARK    2  A    between atoms: C3_6  and  C5_8 
REMARK    3  A    between atoms: C5_8  and  C6_9 
REMARK    4  A    between atoms: C6_9  and  C7_11 
REMARK    5  A    between atoms: C7_11  and  C8_12 
REMARK    6  A    between atoms: C7_11  and  N2_16 
REMARK    7  A    between atoms: C8_12  and  C9_13 
REMARK       I    between atoms: N2_16  and  C12_18 
ROOT
HETATM    1  C6  UNL     1      16.225  26.788  20.174  1.00  0.00     0.151 C 
HETATM    2  O2  UNL     1      17.095  27.500  19.721  1.00  0.00    -0.296 OA
ENDROOT
BRANCH   1   3
HETATM    3  C5  UNL     1      15.947  26.889  21.630  1.00  0.00     0.105 C 
BRANCH   3   4
HETATM    4  C3  UNL     1      15.762  28.284  22.108  1.00  0.00     0.087 C 
HETATM    5  C4  UNL     1      14.639  28.228  23.165  1.00  0.00     0.032 C 
BRANCH   4   6
HETATM    6  N1  UNL     1      16.946  28.760  22.802  1.00  0.00    -0.357 N 
HETATM    7  C2  UNL     1      17.196  30.125  23.057  1.00  0.00     0.213 C 
HETATM    8  C1  UNL     1      18.407  30.569  23.760  1.00  0.00     0.117 C 
HETATM    9  O1  UNL     1      16.344  30.967  22.660  1.00  0.00    -0.274 OA
ATOM     10  H1  UNL     1      17.630  28.074  23.121  1.00  0.00     0.162 HD
ENDBRANCH   4   6
ENDBRANCH   3   4
ENDBRANCH   1   3
BRANCH   1  11
HETATM   11  C7  UNL     1      15.451  25.832  19.294  1.00  0.00     0.154 C 
BRANCH  11  12
HETATM   12  C8  UNL     1      14.297  25.336  20.067  1.00  0.00     0.037 C 
BRANCH  12  13
HETATM   13  C9  UNL     1      14.168  23.872  20.280  1.00  0.00    -0.020 C 
HETATM   14  C10 UNL     1      14.466  23.381  21.644  1.00  0.00     0.009 C 
HETATM   15  C11 UNL     1      14.963  23.087  19.266  1.00  0.00     0.009 C 
ENDBRANCH  12  13
ENDBRANCH  11  12
BRANCH  11  16
HETATM   16  N2  UNL     1      15.181  26.522  18.078  1.00  0.00    -0.350 N 
HETATM   17  C12 UNL     1      15.722  25.989  16.853  1.00  0.00     0.214 C 
HETATM   18  C13 UNL     1      15.495  26.639  15.538  1.00  0.00     0.117 C 
HETATM   19  O3  UNL     1      16.417  24.941  16.853  1.00  0.00    -0.274 OA
ATOM     20  H2  UNL     1      14.618  27.373  18.074  1.00  0.00     0.163 HD
ENDBRANCH  11  16
ENDBRANCH   1  11
TORSDOF 7
ENDMDL
MODEL 4
REMARK VINA RESULT: -5.965141345      1.819      6.486
REMARK  7 active torsions:
REMARK  status: ('A' for Active; 'I' for Inactive)
REMARK       I    between atoms: C2_2  and  N1_4 
REMARK    1  A    between atoms: N1_4  and  C3_6 
REMARK    2  A    between atoms: C3_6  and  C5_8 
REMARK    3  A    between atoms: C5_8  and  C6_9 
REMARK    4  A    between atoms: C6_9  and  C7_11 
REMARK    5  A    between atoms: C7_11  and  C8_12 
REMARK    6  A    between atoms: C7_11  and  N2_16 
REMARK    7  A    between atoms: C8_12  and  C9_13 
REMARK       I    between atoms: N2_16  and  C12_18 
ROOT
HETATM    1  C6  UNL     1      16.136  26.725  19.809  1.00  0.00     0.151 C 
HETATM    2  O2  UNL     1      17.170  27.332  19.633  1.00  0.00    -0.296 OA
ENDROOT
BRANCH   1   3
HETATM    3  C5  UNL     1      15.571  26.719  21.183  1.00  0.00     0.105 C 
BRANCH   3   4
HETATM    4  C3  UNL     1      15.523  28.063  21.815  1.00  0.00     0.087 C 
HETATM    5  C4  UNL     1      14.356  28.019  22.824  1.00  0.00     0.032 C 
BRANCH   4   6
HETATM    6  N1  UNL     1      16.722  28.316  22.595  1.00  0.00    -0.357 N 
HETATM    7  C2  UNL     1      17.103  29.603  23.031  1.00  0.00     0.213 C 
HETATM    8  C1  UNL     1      18.325  29.821  23.816  1.00  0.00     0.117 C 
HETATM    9  O1  UNL     1      16.359  30.575  22.725  1.00  0.00    -0.274 OA
ATOM     10  H1  UNL     1      17.318  27.525  22.840  1.00  0.00     0.162 HD
ENDBRANCH   4   6
ENDBRANCH   3   4
ENDBRANCH   1   3
BRANCH   1  11
HETATM   11  C7  UNL     1      15.446  25.998  18.676  1.00  0.00     0.154 C 
BRANCH  11  12
HETATM   12  C8  UNL     1      15.880  26.615  17.409  1.00  0.00     0.037 C 
BRANCH  12  13
HETATM   13  C9  UNL     1      16.135  25.730  16.244  1.00  0.00    -0.020 C 
HETATM   14  C10 UNL     1      17.365  26.006  15.470  1.00  0.00     0.009 C 
HETATM   15  C11 UNL     1      14.946  25.670  15.317  1.00  0.00     0.009 C 
ENDBRANCH  12  13
ENDBRANCH  11  12
BRANCH  11  16
HETATM   16  N2  UNL     1      15.710  24.611  18.857  1.00  0.00    -0.350 N 
HETATM   17  C12 UNL     1      14.753  23.821  19.590  1.00  0.00     0.214 C 
HETATM   18  C13 UNL     1      14.942  22.369  19.831  1.00  0.00     0.117 C 
HETATM   19  O3  UNL     1      13.708  24.340  20.059  1.00  0.00    -0.274 OA
ATOM     20  H2  UNL     1      16.557  24.187  18.478  1.00  0.00     0.163 HD
ENDBRANCH  11  16
ENDBRANCH   1  11
TORSDOF 7
ENDMDL
MODEL 5
REMARK VINA RESULT: -5.836600624      1.385      1.387
REMARK  7 active torsions:
REMARK  status: ('A' for Active; 'I' for Inactive)
REMARK       I    between atoms: C2_2  and  N1_4 
REMARK    1  A    between atoms: N1_4  and  C3_6 
REMARK    2  A    between atoms: C3_6  and  C5_8 
REMARK    3  A    between atoms: C5_8  and  C6_9 
REMARK    4  A    between atoms: C6_9  and  C7_11 
REMARK    5  A    between atoms: C7_11  and  C8_12 
REMARK    6  A    between atoms: C7_11  and  N2_16 
REMARK    7  A    between atoms: C8_12  and  C9_13 
REMARK       I    between atoms: N2_16  and  C12_18 
ROOT
HETATM    1  C6  UNL     1      15.750  27.553  21.363  1.00  0.00     0.151 C 
HETATM    2  O2  UNL     1      16.705  27.409  20.631  1.00  0.00    -0.296 OA
ENDROOT
BRANCH   1   3
HETATM    3  C5  UNL     1      14.697  26.506  21.326  1.00  0.00     0.105 C 
BRANCH   3   4
HETATM    4  C3  UNL     1      14.992  25.393  20.387  1.00  0.00     0.087 C 
HETATM    5  C4  UNL     1      13.858  24.364  20.574  1.00  0.00     0.032 C 
BRANCH   4   6
HETATM    6  N1  UNL     1      14.910  25.838  19.006  1.00  0.00    -0.357 N 
HETATM    7  C2  UNL     1      15.687  25.283  17.967  1.00  0.00     0.213 C 
HETATM    8  C1  UNL     1      15.578  25.762  16.583  1.00  0.00     0.117 C 
HETATM    9  O1  UNL     1      16.488  24.354  18.260  1.00  0.00    -0.274 OA
ATOM     10  H1  UNL     1      14.258  26.589  18.777  1.00  0.00     0.162 HD
ENDBRANCH   4   6
ENDBRANCH   3   4
ENDBRANCH   1   3
BRANCH   1  11
HETATM   11  C7  UNL     1      15.632  28.751  22.279  1.00  0.00     0.154 C 
BRANCH  11  12
HETATM   12  C8  UNL     1      14.450  28.551  23.138  1.00  0.00     0.037 C 
BRANCH  12  13
HETATM   13  C9  UNL     1      13.334  29.525  23.042  1.00  0.00    -0.020 C 
HETATM   14  C10 UNL     1      12.918  29.909  21.675  1.00  0.00     0.009 C 
HETATM   15  C11 UNL     1      13.600  30.761  23.866  1.00  0.00     0.009 C 
ENDBRANCH  12  13
ENDBRANCH  11  12
BRANCH  11  16
HETATM   16  N2  UNL     1      16.894  28.903  22.920  1.00  0.00    -0.350 N 
HETATM   17  C12 UNL     1      17.397  30.236  23.137  1.00  0.00     0.214 C 
HETATM   18  C13 UNL     1      18.702  30.494  23.796  1.00  0.00     0.117 C 
HETATM   19  O3  UNL     1      16.740  31.244  22.771  1.00  0.00    -0.274 OA
ATOM     20  H2  UNL     1      17.430  28.087  23.218  1.00  0.00     0.163 HD
ENDBRANCH  11  16
ENDBRANCH   1  11
TORSDOF 7
ENDMDL
