MODEL 1
REMARK VINA RESULT: -5.008814454      0.000      0.000
REMARK  1 active torsions:
REMARK  status: ('A' for Active; 'I' for Inactive)
REMARK    1  A    between atoms: C2_2  and  C3_3 
ROOT
HETATM    1  C3  UNL     1     -46.095 -30.234 -17.143  1.00  0.00     0.089 A 
HETATM    2  C4  UNL     1     -47.052 -29.124 -16.867  1.00  0.00     0.136 A 
HETATM    3  N1  UNL     1     -47.168 -29.005 -18.299  1.00  0.00    -0.380 N 
ATOM      4  H1  UNL     1     -47.713 -28.380 -18.894  1.00  0.00     0.160 HD
HETATM    5  C5  UNL     1     -46.358 -29.949 -18.565  1.00  0.00     0.098 A 
HETATM    6  N2  UNL     1     -45.883 -30.516 -19.772  1.00  0.00    -0.087 NA
ENDROOT
BRANCH   1   7
HETATM    7  C2  UNL     1     -46.506 -31.567 -16.674  1.00  0.00    -0.024 C 
HETATM    8  C1  UNL     1     -47.695 -31.764 -16.154  1.00  0.00     0.008 C 
ENDBRANCH   1   7
TORSDOF 1
ENDMDL
MODEL 2
REMARK VINA RESULT: -4.724534835      1.676      1.830
REMARK  1 active torsions:
REMARK  status: ('A' for Active; 'I' for Inactive)
REMARK    1  A    between atoms: C2_2  and  C3_3 
ROOT
HETATM    1  C3  UNL     1     -47.296 -30.131 -16.806  1.00  0.00     0.089 A 
HETATM    2  C4  UNL     1     -47.166 -28.905 -17.646  1.00  0.00     0.136 A 
HETATM    3  N1  UNL     1     -46.774 -29.797 -18.707  1.00  0.00    -0.380 N 
ATOM      4  H1  UNL     1     -46.506 -29.633 -19.678  1.00  0.00     0.160 HD
HETATM    5  C5  UNL     1     -46.878 -30.860 -18.017  1.00  0.00     0.098 A 
HETATM    6  N2  UNL     1     -46.671 -32.232 -18.300  1.00  0.00    -0.087 NA
ENDROOT
BRANCH   1   7
HETATM    7  C2  UNL     1     -48.650 -30.433 -16.317  1.00  0.00    -0.024 C 
HETATM    8  C1  UNL     1     -49.206 -29.707 -15.374  1.00  0.00     0.008 C 
ENDBRANCH   1   7
TORSDOF 1
ENDMDL
MODEL 3
REMARK VINA RESULT: -4.558666213      2.138      2.772
REMARK  1 active torsions:
REMARK  status: ('A' for Active; 'I' for Inactive)
REMARK    1  A    between atoms: C2_2  and  C3_3 
ROOT
HETATM    1  C3  UNL     1     -48.322 -31.198 -16.482  1.00  0.00     0.089 A 
HETATM    2  C4  UNL     1     -46.912 -31.672 -16.387  1.00  0.00     0.136 A 
HETATM    3  N1  UNL     1     -46.949 -31.752 -17.826  1.00  0.00    -0.380 N 
ATOM      4  H1  UNL     1     -46.253 -32.035 -18.516  1.00  0.00     0.160 HD
HETATM    5  C5  UNL     1     -48.150 -31.348 -17.938  1.00  0.00     0.098 A 
HETATM    6  N2  UNL     1     -49.006 -31.126 -19.044  1.00  0.00    -0.087 NA
ENDROOT
BRANCH   1   7
HETATM    7  C2  UNL     1     -48.572 -29.827 -16.009  1.00  0.00    -0.024 C 
HETATM    8  C1  UNL     1     -49.405 -29.594 -15.021  1.00  0.00     0.008 C 
ENDBRANCH   1   7
TORSDOF 1
ENDMDL
MODEL 4
REMARK VINA RESULT: -4.479332715      1.916      2.274
REMARK  1 active torsions:
REMARK  status: ('A' for Active; 'I' for Inactive)
REMARK    1  A    between atoms: C2_2  and  C3_3 
ROOT
HETATM    1  C3  UNL     1     -47.842 -30.494 -16.818  1.00  0.00     0.089 A 
HETATM    2  C4  UNL     1     -46.966 -29.322 -17.102  1.00  0.00     0.136 A 
HETATM    3  N1  UNL     1     -47.414 -29.447 -18.466  1.00  0.00    -0.380 N 
ATOM      4  H1  UNL     1     -47.198 -28.916 -19.311  1.00  0.00     0.160 HD
HETATM    5  C5  UNL     1     -48.171 -30.446 -18.254  1.00  0.00     0.098 A 
HETATM    6  N2  UNL     1     -49.015 -31.226 -19.082  1.00  0.00    -0.087 NA
ENDROOT
BRANCH   1   7
HETATM    7  C2  UNL     1     -48.965 -30.249 -15.899  1.00  0.00    -0.024 C 
HETATM    8  C1  UNL     1     -49.085 -29.104 -15.268  1.00  0.00     0.008 C 
ENDBRANCH   1   7
TORSDOF 1
ENDMDL
MODEL 5
REMARK VINA RESULT: -4.458467331      1.679      2.519
REMARK  1 active torsions:
REMARK  status: ('A' for Active; 'I' for Inactive)
REMARK    1  A    between atoms: C2_2  and  C3_3 
ROOT
HETATM    1  C3  UNL     1     -46.110 -28.502 -17.515  1.00  0.00     0.089 A 
HETATM    2  C4  UNL     1     -47.373 -28.685 -16.743  1.00  0.00     0.136 A 
HETATM    3  N1  UNL     1     -47.602 -29.832 -17.585  1.00  0.00    -0.380 N 
ATOM      4  H1  UNL     1     -48.361 -30.513 -17.625  1.00  0.00     0.160 HD
HETATM    5  C5  UNL     1     -46.531 -29.703 -18.259  1.00  0.00     0.098 A 
HETATM    6  N2  UNL     1     -45.955 -30.434 -19.325  1.00  0.00    -0.087 NA
ENDROOT
BRANCH   1   7
HETATM    7  C2  UNL     1     -44.863 -28.634 -16.746  1.00  0.00    -0.024 C 
HETATM    8  C1  UNL     1     -44.405 -27.638 -16.023  1.00  0.00     0.008 C 
ENDBRANCH   1   7
TORSDOF 1
ENDMDL
