MODEL 1
REMARK VINA RESULT: -4.336670375      0.000      0.000
REMARK  2 active torsions:
REMARK  status: ('A' for Active; 'I' for Inactive)
REMARK    1  A    between atoms: C3_3  and  N1_4 
REMARK    2  A    between atoms: N1_4  and  C4_7 
ROOT
HETATM    1  N1  UNL     1     -18.617  -8.323   8.822  1.00  0.00    -0.043 N 
ATOM      2  H11 UNL     1     -17.744  -8.018   8.392  1.00  0.00     0.280 HD
ATOM      3  H12 UNL     1     -18.268  -8.597   9.740  1.00  0.00     0.280 HD
ENDROOT
BRANCH   1   4
HETATM    4  C3  UNL     1     -19.159  -9.459   8.124  1.00  0.00     0.189 A 
HETATM    5  C1  UNL     1     -20.500  -9.382   7.511  1.00  0.00     0.035 A 
HETATM    6  C2  UNL     1     -20.261 -10.274   8.679  1.00  0.00     0.035 A 
ENDBRANCH   1   4
BRANCH   1   7
HETATM    7  C4  UNL     1     -19.538  -7.227   8.934  1.00  0.00     0.345 A 
HETATM    8  C5  UNL     1     -19.743  -6.485  10.124  1.00  0.00     0.231 A 
HETATM    9  O1  UNL     1     -18.915  -5.912   9.073  1.00  0.00    -0.353 OA
ENDBRANCH   1   7
TORSDOF 2
ENDMDL
MODEL 2
REMARK VINA RESULT: -4.066392665      1.379      1.729
REMARK  2 active torsions:
REMARK  status: ('A' for Active; 'I' for Inactive)
REMARK    1  A    between atoms: C3_3  and  N1_4 
REMARK    2  A    between atoms: N1_4  and  C4_7 
ROOT
HETATM    1  N1  UNL     1     -18.774  -8.370   9.857  1.00  0.00    -0.043 N 
ATOM      2  H11 UNL     1     -18.024  -8.926   9.445  1.00  0.00     0.280 HD
ATOM      3  H12 UNL     1     -18.243  -7.870  10.569  1.00  0.00     0.280 HD
ENDROOT
BRANCH   1   4
HETATM    4  C3  UNL     1     -19.764  -9.220  10.463  1.00  0.00     0.189 A 
HETATM    5  C1  UNL     1     -19.563 -10.682  10.503  1.00  0.00     0.035 A 
HETATM    6  C2  UNL     1     -20.647 -10.099   9.666  1.00  0.00     0.035 A 
ENDBRANCH   1   4
BRANCH   1   7
HETATM    7  C4  UNL     1     -19.317  -7.457   8.892  1.00  0.00     0.345 A 
HETATM    8  C5  UNL     1     -20.263  -6.448   9.204  1.00  0.00     0.231 A 
HETATM    9  O1  UNL     1     -18.866  -6.073   9.032  1.00  0.00    -0.353 OA
ENDBRANCH   1   7
TORSDOF 2
ENDMDL
MODEL 3
REMARK VINA RESULT: -4.039239760      1.599      2.089
REMARK  2 active torsions:
REMARK  status: ('A' for Active; 'I' for Inactive)
REMARK    1  A    between atoms: C3_3  and  N1_4 
REMARK    2  A    between atoms: N1_4  and  C4_7 
ROOT
HETATM    1  N1  UNL     1     -19.006  -9.627   9.088  1.00  0.00    -0.043 N 
ATOM      2  H11 UNL     1     -19.055 -10.346   8.365  1.00  0.00     0.280 HD
ATOM      3  H12 UNL     1     -18.004  -9.646   9.278  1.00  0.00     0.280 HD
ENDROOT
BRANCH   1   4
HETATM    4  C3  UNL     1     -19.752 -10.025  10.252  1.00  0.00     0.189 A 
HETATM    5  C1  UNL     1     -19.725 -11.429  10.708  1.00  0.00     0.035 A 
HETATM    6  C2  UNL     1     -20.980 -10.844  10.162  1.00  0.00     0.035 A 
ENDBRANCH   1   4
BRANCH   1   7
HETATM    7  C4  UNL     1     -19.401  -8.351   8.563  1.00  0.00     0.345 A 
HETATM    8  C5  UNL     1     -19.487  -7.169   9.341  1.00  0.00     0.231 A 
HETATM    9  O1  UNL     1     -18.328  -7.361   8.481  1.00  0.00    -0.353 OA
ENDBRANCH   1   7
TORSDOF 2
ENDMDL
MODEL 4
REMARK VINA RESULT: -3.994971124      1.064      1.064
REMARK  2 active torsions:
REMARK  status: ('A' for Active; 'I' for Inactive)
REMARK    1  A    between atoms: C3_3  and  N1_4 
REMARK    2  A    between atoms: N1_4  and  C4_7 
ROOT
HETATM    1  N1  UNL     1     -18.424  -8.446   8.961  1.00  0.00    -0.043 N 
ATOM      2  H11 UNL     1     -18.043  -7.687   8.397  1.00  0.00     0.280 HD
ATOM      3  H12 UNL     1     -17.556  -8.836   9.329  1.00  0.00     0.280 HD
ENDROOT
BRANCH   1   4
HETATM    4  C3  UNL     1     -19.102  -9.407   8.132  1.00  0.00     0.189 A 
HETATM    5  C1  UNL     1     -20.480  -9.147   7.670  1.00  0.00     0.035 A 
HETATM    6  C2  UNL     1     -20.210 -10.245   8.638  1.00  0.00     0.035 A 
ENDBRANCH   1   4
BRANCH   1   7
HETATM    7  C4  UNL     1     -19.240  -7.930  10.024  1.00  0.00     0.345 A 
HETATM    8  C5  UNL     1     -18.759  -7.660  11.330  1.00  0.00     0.231 A 
HETATM    9  O1  UNL     1     -18.950  -6.550  10.407  1.00  0.00    -0.353 OA
ENDBRANCH   1   7
TORSDOF 2
ENDMDL
MODEL 5
REMARK VINA RESULT: -3.911669550      1.786      3.155
REMARK  2 active torsions:
REMARK  status: ('A' for Active; 'I' for Inactive)
REMARK    1  A    between atoms: C3_3  and  N1_4 
REMARK    2  A    between atoms: N1_4  and  C4_7 
ROOT
HETATM    1  N1  UNL     1     -20.229  -7.129   9.266  1.00  0.00    -0.043 N 
ATOM      2  H11 UNL     1     -20.003  -6.232   8.837  1.00  0.00     0.280 HD
ATOM      3  H12 UNL     1     -20.930  -7.462   8.604  1.00  0.00     0.280 HD
ENDROOT
BRANCH   1   4
HETATM    4  C3  UNL     1     -20.811  -6.938  10.569  1.00  0.00     0.189 A 
HETATM    5  C1  UNL     1     -20.193  -7.562  11.756  1.00  0.00     0.035 A 
HETATM    6  C2  UNL     1     -21.528  -8.018  11.280  1.00  0.00     0.035 A 
ENDBRANCH   1   4
BRANCH   1   7
HETATM    7  C4  UNL     1     -19.083  -7.993   9.272  1.00  0.00     0.345 A 
HETATM    8  C5  UNL     1     -18.752  -8.874   8.212  1.00  0.00     0.231 A 
HETATM    9  O1  UNL     1     -18.025  -7.618   8.336  1.00  0.00    -0.353 OA
ENDBRANCH   1   7
TORSDOF 2
ENDMDL
