MODEL 1
REMARK VINA RESULT: -8.418541764      0.000      0.000
REMARK  6 active torsions:
REMARK  status: ('A' for Active; 'I' for Inactive)
REMARK    1  A    between atoms: C2_2  and  N1_4 
REMARK    2  A    between atoms: N1_4  and  C4_5 
REMARK    3  A    between atoms: C6_7  and  N2_8 
REMARK    4  A    between atoms: N3_11  and  C9_12 
REMARK    5  A    between atoms: C9_12  and  C10_13 
REMARK    6  A    between atoms: C10_13  and  O1_14 
ROOT
HETATM    1  C4  UNL     1     -46.260 -29.754  -7.203  1.00  0.00     0.128 A 
HETATM    2  C5  UNL     1     -47.507 -29.944  -6.586  1.00  0.00     0.094 A 
HETATM    3  C6  UNL     1     -48.558 -30.562  -7.204  1.00  0.00     0.107 A 
HETATM    4  N4  UNL     1     -48.386 -31.001  -8.447  1.00  0.00    -0.330 N 
ATOM      5  H4  UNL     1     -49.164 -31.463  -8.916  1.00  0.00     0.168 HD
HETATM    6  C13 UNL     1     -47.237 -30.860  -9.100  1.00  0.00     0.142 A 
HETATM    7  N5  UNL     1     -47.105 -31.354 -10.450  1.00  0.00    -0.081 NA
HETATM    8  C14 UNL     1     -46.168 -30.248  -8.515  1.00  0.00     0.126 A 
HETATM    9  C15 UNL     1     -44.918 -30.104  -9.234  1.00  0.00     0.106 C 
HETATM   10  N6  UNL     1     -43.906 -30.003  -9.799  1.00  0.00    -0.191 NA
ENDROOT
BRANCH   1  11
HETATM   11  N1  UNL     1     -45.313 -29.228  -6.710  1.00  0.00    -0.442 NA
BRANCH  11  12
HETATM   12  C2  UNL     1     -44.302 -28.703  -6.013  1.00  0.00     0.155 C 
HETATM   13  C1  UNL     1     -44.266 -29.117  -4.522  1.00  0.00     0.047 C 
HETATM   14  C3  UNL     1     -42.893 -29.005  -6.540  1.00  0.00     0.047 C 
ENDBRANCH  11  12
ENDBRANCH   1  11
BRANCH   3  15
HETATM   15  N2  UNL     1     -49.789 -30.716  -6.510  1.00  0.00    -0.364 N 
HETATM   16  C7  UNL     1     -51.064 -30.853  -7.166  1.00  0.00     0.143 C 
HETATM   17  C8  UNL     1     -52.219 -30.484  -6.270  1.00  0.00     0.136 C 
HETATM   18  N3  UNL     1     -52.135 -31.060  -4.967  1.00  0.00    -0.407 N 
HETATM   19  C11 UNL     1     -50.894 -31.639  -4.614  1.00  0.00     0.136 C 
HETATM   20  C12 UNL     1     -49.762 -30.734  -5.065  1.00  0.00     0.143 C 
BRANCH  18  21
HETATM   21  C9  UNL     1     -53.314 -31.680  -4.482  1.00  0.00     0.143 C 
BRANCH  21  22
HETATM   22  C10 UNL     1     -53.121 -32.846  -3.570  1.00  0.00     0.183 C 
BRANCH  22  23
HETATM   23  O1  UNL     1     -53.410 -32.594  -2.237  1.00  0.00    -0.399 OA
ATOM     24  H1  UNL     1     -53.049 -33.224  -1.626  1.00  0.00     0.209 HD
ENDBRANCH  22  23
ENDBRANCH  21  22
ENDBRANCH  18  21
ENDBRANCH   3  15
TORSDOF 6
ENDMDL
MODEL 2
REMARK VINA RESULT: -8.119127697      1.445      2.991
REMARK  6 active torsions:
REMARK  status: ('A' for Active; 'I' for Inactive)
REMARK    1  A    between atoms: C2_2  and  N1_4 
REMARK    2  A    between atoms: N1_4  and  C4_5 
REMARK    3  A    between atoms: C6_7  and  N2_8 
REMARK    4  A    between atoms: N3_11  and  C9_12 
REMARK    5  A    between atoms: C9_12  and  C10_13 
REMARK    6  A    between atoms: C10_13  and  O1_14 
ROOT
HETATM    1  C4  UNL     1     -45.784 -29.698  -7.422  1.00  0.00     0.128 A 
HETATM    2  C5  UNL     1     -47.122 -30.013  -7.133  1.00  0.00     0.094 A 
HETATM    3  C6  UNL     1     -47.639 -29.980  -5.868  1.00  0.00     0.107 A 
HETATM    4  N4  UNL     1     -46.834 -29.633  -4.870  1.00  0.00    -0.330 N 
ATOM      5  H4  UNL     1     -47.210 -29.606  -3.923  1.00  0.00     0.168 HD
HETATM    6  C13 UNL     1     -45.557 -29.320  -5.059  1.00  0.00     0.142 A 
HETATM    7  N5  UNL     1     -44.725 -28.951  -3.939  1.00  0.00    -0.081 NA
HETATM    8  C14 UNL     1     -45.006 -29.342  -6.307  1.00  0.00     0.126 A 
HETATM    9  C15 UNL     1     -43.614 -28.995  -6.505  1.00  0.00     0.106 C 
HETATM   10  N6  UNL     1     -42.502 -28.697  -6.673  1.00  0.00    -0.191 NA
ENDROOT
BRANCH   1  11
HETATM   11  N1  UNL     1     -45.286 -29.706  -8.503  1.00  0.00    -0.442 NA
BRANCH  11  12
HETATM   12  C2  UNL     1     -44.580 -29.707  -9.636  1.00  0.00     0.155 C 
HETATM   13  C1  UNL     1     -44.099 -28.309 -10.096  1.00  0.00     0.047 C 
HETATM   14  C3  UNL     1     -43.317 -30.579  -9.641  1.00  0.00     0.047 C 
ENDBRANCH  11  12
ENDBRANCH   1  11
BRANCH   3  15
HETATM   15  N2  UNL     1     -49.006 -30.314  -5.659  1.00  0.00    -0.364 N 
HETATM   16  C7  UNL     1     -49.758 -31.178  -6.531  1.00  0.00     0.143 C 
HETATM   17  C8  UNL     1     -51.245 -30.969  -6.412  1.00  0.00     0.136 C 
HETATM   18  N3  UNL     1     -51.706 -30.909  -5.062  1.00  0.00    -0.407 N 
HETATM   19  C11 UNL     1     -50.713 -30.774  -4.065  1.00  0.00     0.136 C 
HETATM   20  C12 UNL     1     -49.678 -29.756  -4.508  1.00  0.00     0.143 C 
BRANCH  18  21
HETATM   21  C9  UNL     1     -52.846 -31.694  -4.757  1.00  0.00     0.143 C 
BRANCH  21  22
HETATM   22  C10 UNL     1     -52.684 -32.699  -3.665  1.00  0.00     0.183 C 
BRANCH  22  23
HETATM   23  O1  UNL     1     -53.371 -32.404  -2.498  1.00  0.00    -0.399 OA
ATOM     24  H1  UNL     1     -53.604 -33.160  -1.972  1.00  0.00     0.209 HD
ENDBRANCH  22  23
ENDBRANCH  21  22
ENDBRANCH  18  21
ENDBRANCH   3  15
TORSDOF 6
ENDMDL
MODEL 3
REMARK VINA RESULT: -7.341503430      1.529      3.237
REMARK  6 active torsions:
REMARK  status: ('A' for Active; 'I' for Inactive)
REMARK    1  A    between atoms: C2_2  and  N1_4 
REMARK    2  A    between atoms: N1_4  and  C4_5 
REMARK    3  A    between atoms: C6_7  and  N2_8 
REMARK    4  A    between atoms: N3_11  and  C9_12 
REMARK    5  A    between atoms: C9_12  and  C10_13 
REMARK    6  A    between atoms: C10_13  and  O1_14 
ROOT
HETATM    1  C4  UNL     1     -45.450 -29.771  -7.621  1.00  0.00     0.128 A 
HETATM    2  C5  UNL     1     -46.780 -30.117  -7.331  1.00  0.00     0.094 A 
HETATM    3  C6  UNL     1     -47.312 -30.045  -6.074  1.00  0.00     0.107 A 
HETATM    4  N4  UNL     1     -46.530 -29.627  -5.085  1.00  0.00    -0.330 N 
ATOM      5  H4  UNL     1     -46.918 -29.570  -4.143  1.00  0.00     0.168 HD
HETATM    6  C13 UNL     1     -45.262 -29.280  -5.275  1.00  0.00     0.142 A 
HETATM    7  N5  UNL     1     -44.456 -28.834  -4.165  1.00  0.00    -0.081 NA
HETATM    8  C14 UNL     1     -44.697 -29.340  -6.516  1.00  0.00     0.126 A 
HETATM    9  C15 UNL     1     -43.314 -28.956  -6.714  1.00  0.00     0.106 C 
HETATM   10  N6  UNL     1     -42.211 -28.629  -6.884  1.00  0.00    -0.191 NA
ENDROOT
BRANCH   1  11
HETATM   11  N1  UNL     1     -44.939 -29.811  -8.695  1.00  0.00    -0.442 NA
BRANCH  11  12
HETATM   12  C2  UNL     1     -44.271 -29.730  -9.848  1.00  0.00     0.155 C 
HETATM   13  C1  UNL     1     -43.922 -28.287 -10.289  1.00  0.00     0.047 C 
HETATM   14  C3  UNL     1     -42.940 -30.492  -9.909  1.00  0.00     0.047 C 
ENDBRANCH  11  12
ENDBRANCH   1  11
BRANCH   3  15
HETATM   15  N2  UNL     1     -48.669 -30.414  -5.864  1.00  0.00    -0.364 N 
HETATM   16  C7  UNL     1     -49.439 -30.005  -4.718  1.00  0.00     0.143 C 
HETATM   17  C8  UNL     1     -50.618 -30.908  -4.460  1.00  0.00     0.136 C 
HETATM   18  N3  UNL     1     -51.375 -31.205  -5.633  1.00  0.00    -0.407 N 
HETATM   19  C11 UNL     1     -50.780 -30.862  -6.868  1.00  0.00     0.136 C 
HETATM   20  C12 UNL     1     -49.312 -31.248  -6.854  1.00  0.00     0.143 C 
BRANCH  18  21
HETATM   21  C9  UNL     1     -52.782 -31.072  -5.517  1.00  0.00     0.143 C 
BRANCH  21  22
HETATM   22  C10 UNL     1     -53.445 -31.927  -4.488  1.00  0.00     0.183 C 
BRANCH  22  23
HETATM   23  O1  UNL     1     -54.555 -31.354  -3.887  1.00  0.00    -0.399 OA
ATOM     24  H1  UNL     1     -54.897 -31.835  -3.143  1.00  0.00     0.209 HD
ENDBRANCH  22  23
ENDBRANCH  21  22
ENDBRANCH  18  21
ENDBRANCH   3  15
TORSDOF 6
ENDMDL
MODEL 4
REMARK VINA RESULT: -6.926163972      1.771      1.920
REMARK  6 active torsions:
REMARK  status: ('A' for Active; 'I' for Inactive)
REMARK    1  A    between atoms: C2_2  and  N1_4 
REMARK    2  A    between atoms: N1_4  and  C4_5 
REMARK    3  A    between atoms: C6_7  and  N2_8 
REMARK    4  A    between atoms: N3_11  and  C9_12 
REMARK    5  A    between atoms: C9_12  and  C10_13 
REMARK    6  A    between atoms: C10_13  and  O1_14 
ROOT
HETATM    1  C4  UNL     1     -46.240 -29.635  -6.453  1.00  0.00     0.128 A 
HETATM    2  C5  UNL     1     -47.514 -30.059  -6.040  1.00  0.00     0.094 A 
HETATM    3  C6  UNL     1     -48.672 -29.491  -6.492  1.00  0.00     0.107 A 
HETATM    4  N4  UNL     1     -48.582 -28.490  -7.362  1.00  0.00    -0.330 N 
ATOM      5  H4  UNL     1     -49.440 -28.060  -7.704  1.00  0.00     0.168 HD
HETATM    6  C13 UNL     1     -47.416 -28.030  -7.802  1.00  0.00     0.142 A 
HETATM    7  N5  UNL     1     -47.375 -26.940  -8.746  1.00  0.00    -0.081 NA
HETATM    8  C14 UNL     1     -46.240 -28.573  -7.372  1.00  0.00     0.126 A 
HETATM    9  C15 UNL     1     -44.974 -28.067  -7.862  1.00  0.00     0.106 C 
HETATM   10  N6  UNL     1     -43.954 -27.680  -8.266  1.00  0.00    -0.191 NA
ENDROOT
BRANCH   1  11
HETATM   11  N1  UNL     1     -45.203 -30.097  -6.096  1.00  0.00    -0.442 NA
BRANCH  11  12
HETATM   12  C2  UNL     1     -43.985 -30.459  -5.685  1.00  0.00     0.155 C 
HETATM   13  C1  UNL     1     -42.968 -30.704  -6.827  1.00  0.00     0.047 C 
HETATM   14  C3  UNL     1     -43.279 -29.484  -4.733  1.00  0.00     0.047 C 
ENDBRANCH  11  12
ENDBRANCH   1  11
BRANCH   3  15
HETATM   15  N2  UNL     1     -49.923 -29.979  -6.024  1.00  0.00    -0.364 N 
HETATM   16  C7  UNL     1     -50.859 -30.696  -6.851  1.00  0.00     0.143 C 
HETATM   17  C8  UNL     1     -52.265 -30.647  -6.311  1.00  0.00     0.136 C 
HETATM   18  N3  UNL     1     -52.348 -30.920  -4.913  1.00  0.00    -0.407 N 
HETATM   19  C11 UNL     1     -51.127 -30.919  -4.199  1.00  0.00     0.136 C 
HETATM   20  C12 UNL     1     -50.276 -29.743  -4.643  1.00  0.00     0.143 C 
BRANCH  18  21
HETATM   21  C9  UNL     1     -53.343 -31.849  -4.517  1.00  0.00     0.143 C 
BRANCH  21  22
HETATM   22  C10 UNL     1     -52.930 -32.872  -3.510  1.00  0.00     0.183 C 
BRANCH  22  23
HETATM   23  O1  UNL     1     -53.431 -32.665  -2.234  1.00  0.00    -0.399 OA
ATOM     24  H1  UNL     1     -54.327 -32.355  -2.204  1.00  0.00     0.209 HD
ENDBRANCH  22  23
ENDBRANCH  21  22
ENDBRANCH  18  21
ENDBRANCH   3  15
TORSDOF 6
ENDMDL
MODEL 5
REMARK VINA RESULT: -6.694861685      3.805      7.573
REMARK  6 active torsions:
REMARK  status: ('A' for Active; 'I' for Inactive)
REMARK    1  A    between atoms: C2_2  and  N1_4 
REMARK    2  A    between atoms: N1_4  and  C4_5 
REMARK    3  A    between atoms: C6_7  and  N2_8 
REMARK    4  A    between atoms: N3_11  and  C9_12 
REMARK    5  A    between atoms: C9_12  and  C10_13 
REMARK    6  A    between atoms: C10_13  and  O1_14 
ROOT
HETATM    1  C4  UNL     1     -49.999 -30.901  -8.503  1.00  0.00     0.128 A 
HETATM    2  C5  UNL     1     -48.749 -30.368  -8.148  1.00  0.00     0.094 A 
HETATM    3  C6  UNL     1     -47.607 -30.607  -8.860  1.00  0.00     0.107 A 
HETATM    4  N4  UNL     1     -47.689 -31.381  -9.936  1.00  0.00    -0.330 N 
ATOM      5  H4  UNL     1     -46.842 -31.565 -10.474  1.00  0.00     0.168 HD
HETATM    6  C13 UNL     1     -48.833 -31.924 -10.340  1.00  0.00     0.142 A 
HETATM    7  N5  UNL     1     -48.866 -32.758 -11.516  1.00  0.00    -0.081 NA
HETATM    8  C14 UNL     1     -49.992 -31.707  -9.654  1.00  0.00     0.126 A 
HETATM    9  C15 UNL     1     -51.235 -32.299 -10.104  1.00  0.00     0.106 C 
HETATM   10  N6  UNL     1     -52.240 -32.755 -10.471  1.00  0.00    -0.191 NA
ENDROOT
BRANCH   1  11
HETATM   11  N1  UNL     1     -51.022 -30.721  -7.923  1.00  0.00    -0.442 NA
BRANCH  11  12
HETATM   12  C2  UNL     1     -52.147 -30.358  -7.302  1.00  0.00     0.155 C 
HETATM   13  C1  UNL     1     -52.176 -30.673  -5.786  1.00  0.00     0.047 C 
HETATM   14  C3  UNL     1     -52.521 -28.873  -7.403  1.00  0.00     0.047 C 
ENDBRANCH  11  12
ENDBRANCH   1  11
BRANCH   3  15
HETATM   15  N2  UNL     1     -46.380 -30.029  -8.433  1.00  0.00    -0.364 N 
HETATM   16  C7  UNL     1     -45.204 -30.797  -8.115  1.00  0.00     0.143 C 
HETATM   17  C8  UNL     1     -44.247 -30.048  -7.224  1.00  0.00     0.136 C 
HETATM   18  N3  UNL     1     -44.007 -28.706  -7.645  1.00  0.00    -0.407 N 
HETATM   19  C11 UNL     1     -44.879 -28.192  -8.632  1.00  0.00     0.136 C 
HETATM   20  C12 UNL     1     -46.308 -28.590  -8.311  1.00  0.00     0.143 C 
BRANCH  18  21
HETATM   21  C9  UNL     1     -42.650 -28.297  -7.685  1.00  0.00     0.143 C 
BRANCH  21  22
HETATM   22  C10 UNL     1     -41.938 -28.497  -8.983  1.00  0.00     0.183 C 
BRANCH  22  23
HETATM   23  O1  UNL     1     -41.415 -27.341  -9.541  1.00  0.00    -0.399 OA
ATOM     24  H1  UNL     1     -40.488 -27.382  -9.745  1.00  0.00     0.209 HD
ENDBRANCH  22  23
ENDBRANCH  21  22
ENDBRANCH  18  21
ENDBRANCH   3  15
TORSDOF 6
ENDMDL
