MODEL 1
REMARK VINA RESULT: -8.869617033      0.000      0.000
REMARK  4 active torsions:
REMARK  status: ('A' for Active; 'I' for Inactive)
REMARK    1  A    between atoms: N3_4  and  C2_6 
REMARK    2  A    between atoms: C2_6  and  C3_7 
REMARK    3  A    between atoms: C4_8  and  N4_9 
REMARK    4  A    between atoms: C10_19  and  C11_20 
ROOT
HETATM    1  C3  UNL     1      23.438  49.090 -16.540  1.00  0.00     0.051 A 
HETATM    2  C4  UNL     1      24.660  49.015 -17.200  1.00  0.00     0.135 A 
HETATM    3  N5  UNL     1      25.408  48.218 -16.458  1.00  0.00    -0.284 N 
ATOM      4  H5  UNL     1      26.368  47.948 -16.672  1.00  0.00     0.188 HD
HETATM    5  N6  UNL     1      24.713  47.814 -15.376  1.00  0.00    -0.300 N 
ATOM      6  H6  UNL     1      25.070  47.190 -14.652  1.00  0.00     0.186 HD
HETATM    7  C10 UNL     1      23.482  48.352 -15.389  1.00  0.00     0.071 A 
ENDROOT
BRANCH   7   8
HETATM    8  C11 UNL     1      22.468  48.386 -14.278  1.00  0.00     0.199 C 
HETATM    9  C12 UNL     1      22.717  47.431 -13.174  1.00  0.00     0.270 C 
HETATM   10  N7  UNL     1      21.619  47.587 -12.215  1.00  0.00    -0.070 N 
HETATM   11  C13 UNL     1      21.615  48.957 -11.704  1.00  0.00     0.258 C 
ATOM     12  H72 UNL     1      20.718  47.320 -12.613  1.00  0.00     0.277 HD
ATOM     13  H71 UNL     1      21.657  46.896 -11.467  1.00  0.00     0.277 HD
HETATM   14  C14 UNL     1      22.828  49.625 -12.332  1.00  0.00     0.196 C 
HETATM   15  O1  UNL     1      22.620  49.723 -13.684  1.00  0.00    -0.376 OA
ENDBRANCH   7   8
BRANCH   1  16
HETATM   16  C2  UNL     1      22.207  49.520 -17.241  1.00  0.00     0.107 C 
BRANCH  16  17
HETATM   17  N3  UNL     1      21.349  50.469 -16.729  1.00  0.00    -0.342 N 
HETATM   18  C1  UNL     1      20.706  51.280 -17.489  1.00  0.00     0.200 C 
HETATM   19  N1  UNL     1      19.858  52.250 -16.832  1.00  0.00    -0.067 NA
HETATM   20  N2  UNL     1      20.705  51.210 -18.902  1.00  0.00    -0.067 NA
ATOM     21  H3  UNL     1      21.221  50.529 -15.720  1.00  0.00     0.167 HD
ENDBRANCH  16  17
ENDBRANCH   1  16
BRANCH   2  22
HETATM   22  N4  UNL     1      24.972  49.874 -18.325  1.00  0.00    -0.345 N 
HETATM   23  C5  UNL     1      24.063  50.530 -19.153  1.00  0.00     0.065 C 
HETATM   24  C6  UNL     1      24.552  50.865 -20.537  1.00  0.00     0.045 C 
HETATM   25  C7  UNL     1      26.028  50.959 -20.687  1.00  0.00     0.007 C 
HETATM   26  C8  UNL     1      26.757  49.869 -19.911  1.00  0.00     0.021 C 
HETATM   27  C9  UNL     1      26.433  50.084 -18.479  1.00  0.00     0.129 C 
ENDBRANCH   2  22
TORSDOF 4
ENDMDL
MODEL 2
REMARK VINA RESULT: -8.825598377      0.539      1.176
REMARK  4 active torsions:
REMARK  status: ('A' for Active; 'I' for Inactive)
REMARK    1  A    between atoms: N3_4  and  C2_6 
REMARK    2  A    between atoms: C2_6  and  C3_7 
REMARK    3  A    between atoms: C4_8  and  N4_9 
REMARK    4  A    between atoms: C10_19  and  C11_20 
ROOT
HETATM    1  C3  UNL     1      23.625  48.785 -16.788  1.00  0.00     0.051 A 
HETATM    2  C4  UNL     1      24.811  48.475 -17.445  1.00  0.00     0.135 A 
HETATM    3  N5  UNL     1      25.416  47.590 -16.673  1.00  0.00    -0.284 N 
ATOM      4  H5  UNL     1      26.313  47.151 -16.877  1.00  0.00     0.188 HD
HETATM    5  N6  UNL     1      24.670  47.353 -15.576  1.00  0.00    -0.300 N 
ATOM      6  H6  UNL     1      24.919  46.705 -14.829  1.00  0.00     0.186 HD
HETATM    7  C10 UNL     1      23.550  48.094 -15.609  1.00  0.00     0.071 A 
ENDROOT
BRANCH   7   8
HETATM    8  C11 UNL     1      22.564  48.344 -14.499  1.00  0.00     0.199 C 
HETATM    9  C12 UNL     1      22.635  47.386 -13.372  1.00  0.00     0.270 C 
HETATM   10  N7  UNL     1      21.589  47.769 -12.418  1.00  0.00    -0.070 N 
HETATM   11  C13 UNL     1      21.844  49.126 -11.940  1.00  0.00     0.258 C 
ATOM     12  H72 UNL     1      20.652  47.666 -12.810  1.00  0.00     0.277 HD
ATOM     13  H71 UNL     1      21.500  47.100 -11.654  1.00  0.00     0.277 HD
HETATM   14  C14 UNL     1      23.158  49.541 -12.584  1.00  0.00     0.196 C 
HETATM   15  O1  UNL     1      22.966  49.643 -13.938  1.00  0.00    -0.376 OA
ENDBRANCH   7   8
BRANCH   1  16
HETATM   16  C2  UNL     1      22.481  49.393 -17.504  1.00  0.00     0.107 C 
BRANCH  16  17
HETATM   17  N3  UNL     1      21.676  50.359 -16.941  1.00  0.00    -0.342 N 
HETATM   18  C1  UNL     1      20.928  51.119 -17.657  1.00  0.00     0.200 C 
HETATM   19  N1  UNL     1      20.151  52.114 -16.952  1.00  0.00    -0.067 NA
HETATM   20  N2  UNL     1      20.753  50.971 -19.052  1.00  0.00    -0.067 NA
ATOM     21  H3  UNL     1      21.673  50.474 -15.928  1.00  0.00     0.167 HD
ENDBRANCH  16  17
ENDBRANCH   1  16
BRANCH   2  22
HETATM   22  N4  UNL     1      25.258  49.225 -18.602  1.00  0.00    -0.345 N 
HETATM   23  C5  UNL     1      26.576  49.464 -18.986  1.00  0.00     0.065 C 
HETATM   24  C6  UNL     1      26.806  50.690 -19.828  1.00  0.00     0.045 C 
HETATM   25  C7  UNL     1      25.621  51.180 -20.581  1.00  0.00     0.007 C 
HETATM   26  C8  UNL     1      24.343  51.105 -19.756  1.00  0.00     0.021 C 
HETATM   27  C9  UNL     1      24.124  49.669 -19.450  1.00  0.00     0.129 C 
ENDBRANCH   2  22
TORSDOF 4
ENDMDL
MODEL 3
REMARK VINA RESULT: -8.212837121      2.020      4.021
REMARK  4 active torsions:
REMARK  status: ('A' for Active; 'I' for Inactive)
REMARK    1  A    between atoms: N3_4  and  C2_6 
REMARK    2  A    between atoms: C2_6  and  C3_7 
REMARK    3  A    between atoms: C4_8  and  N4_9 
REMARK    4  A    between atoms: C10_19  and  C11_20 
ROOT
HETATM    1  C3  UNL     1      23.994  48.859 -15.199  1.00  0.00     0.051 A 
HETATM    2  C4  UNL     1      23.613  49.186 -16.498  1.00  0.00     0.135 A 
HETATM    3  N5  UNL     1      22.299  49.313 -16.453  1.00  0.00    -0.284 N 
ATOM      4  H5  UNL     1      21.707  49.560 -17.245  1.00  0.00     0.188 HD
HETATM    5  N6  UNL     1      21.857  49.070 -15.202  1.00  0.00    -0.300 N 
ATOM      6  H6  UNL     1      20.880  49.108 -14.911  1.00  0.00     0.186 HD
HETATM    7  C10 UNL     1      22.889  48.769 -14.397  1.00  0.00     0.071 A 
ENDROOT
BRANCH   7   8
HETATM    8  C11 UNL     1      22.851  48.189 -13.009  1.00  0.00     0.199 C 
HETATM    9  C12 UNL     1      22.641  49.176 -11.924  1.00  0.00     0.270 C 
HETATM   10  N7  UNL     1      22.666  48.434 -10.660  1.00  0.00    -0.070 N 
HETATM   11  C13 UNL     1      21.589  47.446 -10.656  1.00  0.00     0.258 C 
ATOM     12  H72 UNL     1      23.578  48.012 -10.477  1.00  0.00     0.277 HD
ATOM     13  H71 UNL     1      22.628  49.051  -9.849  1.00  0.00     0.277 HD
HETATM   14  C14 UNL     1      20.832  47.671 -11.956  1.00  0.00     0.196 C 
HETATM   15  O1  UNL     1      21.654  47.335 -13.002  1.00  0.00    -0.376 OA
ENDBRANCH   7   8
BRANCH   1  16
HETATM   16  C2  UNL     1      25.386  49.051 -14.732  1.00  0.00     0.107 C 
BRANCH  16  17
HETATM   17  N3  UNL     1      25.868  48.485 -13.571  1.00  0.00    -0.342 N 
HETATM   18  C1  UNL     1      26.030  49.173 -12.499  1.00  0.00     0.200 C 
HETATM   19  N1  UNL     1      26.570  48.474 -11.355  1.00  0.00    -0.067 NA
HETATM   20  N2  UNL     1      25.622  50.520 -12.354  1.00  0.00    -0.067 NA
ATOM     21  H3  UNL     1      26.102  47.493 -13.564  1.00  0.00     0.167 HD
ENDBRANCH  16  17
ENDBRANCH   1  16
BRANCH   2  22
HETATM   22  N4  UNL     1      24.549  49.128 -17.602  1.00  0.00    -0.345 N 
HETATM   23  C5  UNL     1      25.762  48.441 -17.637  1.00  0.00     0.065 C 
HETATM   24  C6  UNL     1      26.793  48.970 -18.597  1.00  0.00     0.045 C 
HETATM   25  C7  UNL     1      26.258  49.766 -19.733  1.00  0.00     0.007 C 
HETATM   26  C8  UNL     1      25.132  50.698 -19.305  1.00  0.00     0.021 C 
HETATM   27  C9  UNL     1      24.037  49.830 -18.805  1.00  0.00     0.129 C 
ENDBRANCH   2  22
TORSDOF 4
ENDMDL
MODEL 4
REMARK VINA RESULT: -8.076396996      1.905      3.960
REMARK  4 active torsions:
REMARK  status: ('A' for Active; 'I' for Inactive)
REMARK    1  A    between atoms: N3_4  and  C2_6 
REMARK    2  A    between atoms: C2_6  and  C3_7 
REMARK    3  A    between atoms: C4_8  and  N4_9 
REMARK    4  A    between atoms: C10_19  and  C11_20 
ROOT
HETATM    1  C3  UNL     1      23.384  48.920 -15.084  1.00  0.00     0.051 A 
HETATM    2  C4  UNL     1      23.371  49.260 -16.433  1.00  0.00     0.135 A 
HETATM    3  N5  UNL     1      22.120  49.593 -16.696  1.00  0.00    -0.284 N 
ATOM      4  H5  UNL     1      21.774  49.904 -17.604  1.00  0.00     0.188 HD
HETATM    5  N6  UNL     1      21.367  49.462 -15.585  1.00  0.00    -0.300 N 
ATOM      6  H6  UNL     1      20.369  49.662 -15.529  1.00  0.00     0.186 HD
HETATM    7  C10 UNL     1      22.124  49.029 -14.562  1.00  0.00     0.071 A 
ENDROOT
BRANCH   7   8
HETATM    8  C11 UNL     1      21.673  48.507 -13.225  1.00  0.00     0.199 C 
HETATM    9  C12 UNL     1      22.644  47.625 -12.538  1.00  0.00     0.270 C 
HETATM   10  N7  UNL     1      22.019  47.195 -11.283  1.00  0.00    -0.070 N 
HETATM   11  C13 UNL     1      21.734  48.367 -10.458  1.00  0.00     0.258 C 
ATOM     12  H72 UNL     1      21.189  46.622 -11.441  1.00  0.00     0.277 HD
ATOM     13  H71 UNL     1      22.580  46.502 -10.789  1.00  0.00     0.277 HD
HETATM   14  C14 UNL     1      22.296  49.550 -11.231  1.00  0.00     0.196 C 
HETATM   15  O1  UNL     1      21.564  49.706 -12.381  1.00  0.00    -0.376 OA
ENDBRANCH   7   8
BRANCH   1  16
HETATM   16  C2  UNL     1      24.642  48.905 -14.303  1.00  0.00     0.107 C 
BRANCH  16  17
HETATM   17  N3  UNL     1      24.807  49.628 -13.141  1.00  0.00    -0.342 N 
HETATM   18  C1  UNL     1      25.654  49.278 -12.242  1.00  0.00     0.200 C 
HETATM   19  N1  UNL     1      25.715  50.100 -11.054  1.00  0.00    -0.067 NA
HETATM   20  N2  UNL     1      26.577  48.217 -12.393  1.00  0.00    -0.067 NA
ATOM     21  H3  UNL     1      24.242  50.463 -12.992  1.00  0.00     0.167 HD
ENDBRANCH  16  17
ENDBRANCH   1  16
BRANCH   2  22
HETATM   22  N4  UNL     1      24.515  49.021 -17.289  1.00  0.00    -0.345 N 
HETATM   23  C5  UNL     1      25.554  48.119 -17.065  1.00  0.00     0.065 C 
HETATM   24  C6  UNL     1      26.863  48.439 -17.736  1.00  0.00     0.045 C 
HETATM   25  C7  UNL     1      26.770  49.314 -18.933  1.00  0.00     0.007 C 
HETATM   26  C8  UNL     1      25.764  50.444 -18.745  1.00  0.00     0.021 C 
HETATM   27  C9  UNL     1      24.442  49.800 -18.550  1.00  0.00     0.129 C 
ENDBRANCH   2  22
TORSDOF 4
ENDMDL
MODEL 5
REMARK VINA RESULT: -7.942545608      2.218      6.861
REMARK  4 active torsions:
REMARK  status: ('A' for Active; 'I' for Inactive)
REMARK    1  A    between atoms: N3_4  and  C2_6 
REMARK    2  A    between atoms: C2_6  and  C3_7 
REMARK    3  A    between atoms: C4_8  and  N4_9 
REMARK    4  A    between atoms: C10_19  and  C11_20 
ROOT
HETATM    1  C3  UNL     1      23.596  48.360 -15.129  1.00  0.00     0.051 A 
HETATM    2  C4  UNL     1      22.490  48.901 -14.480  1.00  0.00     0.135 A 
HETATM    3  N5  UNL     1      21.757  49.441 -15.437  1.00  0.00    -0.284 N 
ATOM      4  H5  UNL     1      20.865  49.916 -15.295  1.00  0.00     0.188 HD
HETATM    5  N6  UNL     1      22.361  49.272 -16.630  1.00  0.00    -0.300 N 
ATOM      6  H6  UNL     1      21.992  49.598 -17.523  1.00  0.00     0.186 HD
HETATM    7  C10 UNL     1      23.520  48.612 -16.472  1.00  0.00     0.071 A 
ENDROOT
BRANCH   7   8
HETATM    8  C11 UNL     1      24.631  48.426 -17.470  1.00  0.00     0.199 C 
HETATM    9  C12 UNL     1      24.351  48.956 -18.824  1.00  0.00     0.270 C 
HETATM   10  N7  UNL     1      25.522  48.655 -19.653  1.00  0.00    -0.070 N 
HETATM   11  C13 UNL     1      26.697  49.316 -19.088  1.00  0.00     0.258 C 
ATOM     12  H72 UNL     1      25.663  47.652 -19.773  1.00  0.00     0.277 HD
ATOM     13  H71 UNL     1      25.375  48.898 -20.632  1.00  0.00     0.277 HD
HETATM   14  C14 UNL     1      26.178  50.120 -17.906  1.00  0.00     0.196 C 
HETATM   15  O1  UNL     1      25.734  49.246 -16.946  1.00  0.00    -0.376 OA
ENDBRANCH   7   8
BRANCH   1  16
HETATM   16  C2  UNL     1      24.427  47.312 -14.494  1.00  0.00     0.107 C 
BRANCH  16  17
HETATM   17  N3  UNL     1      25.029  47.479 -13.265  1.00  0.00    -0.342 N 
HETATM   18  C1  UNL     1      25.936  48.366 -13.070  1.00  0.00     0.200 C 
HETATM   19  N1  UNL     1      26.512  48.424 -11.746  1.00  0.00    -0.067 NA
HETATM   20  N2  UNL     1      26.318  49.332 -14.030  1.00  0.00    -0.067 NA
ATOM     21  H3  UNL     1      24.746  46.880 -12.490  1.00  0.00     0.167 HD
ENDBRANCH  16  17
ENDBRANCH   1  16
BRANCH   2  22
HETATM   22  N4  UNL     1      22.419  48.981 -13.036  1.00  0.00    -0.345 N 
HETATM   23  C5  UNL     1      23.056  49.910 -12.216  1.00  0.00     0.065 C 
HETATM   24  C6  UNL     1      23.313  49.475 -10.799  1.00  0.00     0.045 C 
HETATM   25  C7  UNL     1      22.428  48.394 -10.292  1.00  0.00     0.007 C 
HETATM   26  C8  UNL     1      22.176  47.316 -11.340  1.00  0.00     0.021 C 
HETATM   27  C9  UNL     1      21.479  47.983 -12.468  1.00  0.00     0.129 C 
ENDBRANCH   2  22
TORSDOF 4
ENDMDL
