MODEL 1
REMARK VINA RESULT: -7.318237196      0.000      0.000
REMARK  11 active torsions:
REMARK  status: ('A' for Active; 'I' for Inactive)
REMARK       I    between atoms: N1_2  and  C2_4 
REMARK       I    between atoms: C2_4  and  N3_19 
REMARK       I    between atoms: N2_5  and  C3_7 
REMARK    1  A    between atoms: C3_7  and  C4_9 
REMARK    2  A    between atoms: C4_9  and  C5_10 
REMARK    3  A    between atoms: C5_10  and  C6_11 
REMARK    4  A    between atoms: C6_11  and  C7_12 
REMARK    5  A    between atoms: C7_12  and  C8_13 
REMARK    6  A    between atoms: C8_13  and  C9_14 
REMARK    7  A    between atoms: C9_14  and  C10_15 
REMARK    8  A    between atoms: C10_15  and  C11_16 
REMARK    9  A    between atoms: C11_16  and  C12_17 
REMARK       I    between atoms: N3_19  and  C13_21 
REMARK       I    between atoms: C13_21  and  N4_23 
REMARK   10  A    between atoms: N4_23  and  C14_25 
REMARK   11  A    between atoms: C14_25  and  C15_26 
ROOT
HETATM    1  C1  UNL     1       5.013  17.260 -39.599  1.00  0.00     0.165 C 
HETATM    2  N1  UNL     1       5.201  15.816 -39.696  1.00  0.00    -0.230 N 
ATOM      3  H1  UNL     1       5.925  15.423 -40.297  1.00  0.00     0.177 HD
HETATM    4  C2  UNL     1       4.351  14.974 -38.937  1.00  0.00     0.684 C 
HETATM    5  N2  UNL     1       3.140  14.720 -39.253  1.00  0.00    -0.160 N 
ATOM      6  H2  UNL     1       2.585  14.106 -38.656  1.00  0.00     0.187 HD
HETATM    7  C3  UNL     1       2.553  15.271 -40.411  1.00  0.00     0.235 C 
HETATM    8  O1  UNL     1       3.295  15.483 -41.401  1.00  0.00    -0.273 OA
HETATM    9  N3  UNL     1       4.815  14.335 -37.728  1.00  0.00    -0.141 N 
ATOM     10  H3  UNL     1       4.198  13.737 -37.178  1.00  0.00     0.189 HD
HETATM   11  C13 UNL     1       6.152  14.563 -37.334  1.00  0.00     0.334 C 
HETATM   12  O2  UNL     1       6.928  15.297 -38.016  1.00  0.00    -0.246 OA
HETATM   13  N4  UNL     1       6.633  13.956 -36.146  1.00  0.00    -0.335 N 
ATOM     14  H4  UNL     1       6.016  13.374 -35.579  1.00  0.00     0.164 HD
ENDROOT
BRANCH   7  15
HETATM   15  C4  UNL     1       1.119  15.566 -40.410  1.00  0.00     0.103 C 
BRANCH  15  16
HETATM   16  C5  UNL     1       0.281  14.342 -40.691  1.00  0.00     0.009 C 
BRANCH  16  17
HETATM   17  C6  UNL     1      -0.961  14.357 -39.862  1.00  0.00     0.000 C 
BRANCH  17  18
HETATM   18  C7  UNL     1      -1.684  13.044 -39.897  1.00  0.00     0.000 C 
BRANCH  18  19
HETATM   19  C8  UNL     1      -1.904  12.510 -38.520  1.00  0.00     0.000 C 
BRANCH  19  20
HETATM   20  C9  UNL     1      -1.556  13.519 -37.484  1.00  0.00     0.000 C 
BRANCH  20  21
HETATM   21  C10 UNL     1      -2.358  13.318 -36.236  1.00  0.00     0.001 C 
BRANCH  21  22
HETATM   22  C11 UNL     1      -3.482  14.315 -36.202  1.00  0.00     0.015 C 
BRANCH  22  23
HETATM   23  C12 UNL     1      -3.160  15.555 -36.998  1.00  0.00     0.114 C 
HETATM   24 CL1  UNL     1      -4.389  15.679 -38.280  1.00  0.00    -0.130 Cl
ENDBRANCH  22  23
ENDBRANCH  21  22
ENDBRANCH  20  21
ENDBRANCH  19  20
ENDBRANCH  18  19
ENDBRANCH  17  18
ENDBRANCH  16  17
ENDBRANCH  15  16
ENDBRANCH   7  15
BRANCH  13  25
HETATM   25  C14 UNL     1       8.000  14.166 -35.749  1.00  0.00     0.215 C 
BRANCH  25  26
HETATM   26  C15 UNL     1       8.728  12.880 -35.783  1.00  0.00     0.212 C 
HETATM   27  O3  UNL     1       8.251  11.803 -36.078  1.00  0.00    -0.283 OA
HETATM   28 BR1  UNL     1      10.592  12.914 -35.322  1.00  0.00    -0.007 Br
ENDBRANCH  25  26
ENDBRANCH  13  25
TORSDOF 11
ENDMDL
MODEL 2
REMARK VINA RESULT: -7.149987285      1.080      1.436
REMARK  11 active torsions:
REMARK  status: ('A' for Active; 'I' for Inactive)
REMARK       I    between atoms: N1_2  and  C2_4 
REMARK       I    between atoms: C2_4  and  N3_19 
REMARK       I    between atoms: N2_5  and  C3_7 
REMARK    1  A    between atoms: C3_7  and  C4_9 
REMARK    2  A    between atoms: C4_9  and  C5_10 
REMARK    3  A    between atoms: C5_10  and  C6_11 
REMARK    4  A    between atoms: C6_11  and  C7_12 
REMARK    5  A    between atoms: C7_12  and  C8_13 
REMARK    6  A    between atoms: C8_13  and  C9_14 
REMARK    7  A    between atoms: C9_14  and  C10_15 
REMARK    8  A    between atoms: C10_15  and  C11_16 
REMARK    9  A    between atoms: C11_16  and  C12_17 
REMARK       I    between atoms: N3_19  and  C13_21 
REMARK       I    between atoms: C13_21  and  N4_23 
REMARK   10  A    between atoms: N4_23  and  C14_25 
REMARK   11  A    between atoms: C14_25  and  C15_26 
ROOT
HETATM    1  C1  UNL     1       5.123  17.285 -39.555  1.00  0.00     0.165 C 
HETATM    2  N1  UNL     1       5.304  15.842 -39.677  1.00  0.00    -0.230 N 
ATOM      3  H1  UNL     1       6.039  15.456 -40.269  1.00  0.00     0.177 HD
HETATM    4  C2  UNL     1       4.433  14.991 -38.951  1.00  0.00     0.684 C 
HETATM    5  N2  UNL     1       3.228  14.751 -39.298  1.00  0.00    -0.160 N 
ATOM      6  H2  UNL     1       2.657  14.129 -38.725  1.00  0.00     0.187 HD
HETATM    7  C3  UNL     1       2.669  15.327 -40.458  1.00  0.00     0.235 C 
HETATM    8  O1  UNL     1       3.433  15.553 -41.428  1.00  0.00    -0.273 OA
HETATM    9  N3  UNL     1       4.868  14.326 -37.746  1.00  0.00    -0.141 N 
ATOM     10  H3  UNL     1       4.236  13.722 -37.220  1.00  0.00     0.189 HD
HETATM   11  C13 UNL     1       6.197  14.539 -37.319  1.00  0.00     0.334 C 
HETATM   12  O2  UNL     1       6.992  15.280 -37.970  1.00  0.00    -0.246 OA
HETATM   13  N4  UNL     1       6.649  13.905 -36.133  1.00  0.00    -0.335 N 
ATOM     14  H4  UNL     1       6.016  13.317 -35.591  1.00  0.00     0.164 HD
ENDROOT
BRANCH   7  15
HETATM   15  C4  UNL     1       1.237  15.631 -40.481  1.00  0.00     0.103 C 
BRANCH  15  16
HETATM   16  C5  UNL     1       0.394  14.403 -40.723  1.00  0.00     0.009 C 
BRANCH  16  17
HETATM   17  C6  UNL     1      -0.729  14.338 -39.742  1.00  0.00     0.000 C 
BRANCH  17  18
HETATM   18  C7  UNL     1      -1.945  13.669 -40.311  1.00  0.00     0.000 C 
BRANCH  18  19
HETATM   19  C8  UNL     1      -3.139  14.563 -40.239  1.00  0.00     0.000 C 
BRANCH  19  20
HETATM   20  C9  UNL     1      -2.934  15.665 -39.262  1.00  0.00     0.000 C 
BRANCH  20  21
HETATM   21  C10 UNL     1      -3.955  15.623 -38.168  1.00  0.00     0.001 C 
BRANCH  21  22
HETATM   22  C11 UNL     1      -3.257  15.599 -36.837  1.00  0.00     0.015 C 
BRANCH  22  23
HETATM   23  C12 UNL     1      -3.475  14.297 -36.109  1.00  0.00     0.114 C 
HETATM   24 CL1  UNL     1      -2.141  13.215 -36.575  1.00  0.00    -0.130 Cl
ENDBRANCH  22  23
ENDBRANCH  21  22
ENDBRANCH  20  21
ENDBRANCH  19  20
ENDBRANCH  18  19
ENDBRANCH  17  18
ENDBRANCH  16  17
ENDBRANCH  15  16
ENDBRANCH   7  15
BRANCH  13  25
HETATM   25  C14 UNL     1       8.009  14.099 -35.703  1.00  0.00     0.215 C 
BRANCH  25  26
HETATM   26  C15 UNL     1       8.757  12.832 -35.845  1.00  0.00     0.212 C 
HETATM   27  O3  UNL     1       8.273  11.747 -36.094  1.00  0.00    -0.283 OA
HETATM   28 BR1  UNL     1      10.663  12.909 -35.615  1.00  0.00    -0.007 Br
ENDBRANCH  25  26
ENDBRANCH  13  25
TORSDOF 11
ENDMDL
MODEL 3
REMARK VINA RESULT: -6.963047106      1.278      1.636
REMARK  11 active torsions:
REMARK  status: ('A' for Active; 'I' for Inactive)
REMARK       I    between atoms: N1_2  and  C2_4 
REMARK       I    between atoms: C2_4  and  N3_19 
REMARK       I    between atoms: N2_5  and  C3_7 
REMARK    1  A    between atoms: C3_7  and  C4_9 
REMARK    2  A    between atoms: C4_9  and  C5_10 
REMARK    3  A    between atoms: C5_10  and  C6_11 
REMARK    4  A    between atoms: C6_11  and  C7_12 
REMARK    5  A    between atoms: C7_12  and  C8_13 
REMARK    6  A    between atoms: C8_13  and  C9_14 
REMARK    7  A    between atoms: C9_14  and  C10_15 
REMARK    8  A    between atoms: C10_15  and  C11_16 
REMARK    9  A    between atoms: C11_16  and  C12_17 
REMARK       I    between atoms: N3_19  and  C13_21 
REMARK       I    between atoms: C13_21  and  N4_23 
REMARK   10  A    between atoms: N4_23  and  C14_25 
REMARK   11  A    between atoms: C14_25  and  C15_26 
ROOT
HETATM    1  C1  UNL     1       3.019  17.075 -40.186  1.00  0.00     0.165 C 
HETATM    2  N1  UNL     1       3.741  15.905 -40.676  1.00  0.00    -0.230 N 
ATOM      3  H1  UNL     1       4.502  16.005 -41.349  1.00  0.00     0.177 HD
HETATM    4  C2  UNL     1       3.359  14.628 -40.195  1.00  0.00     0.684 C 
HETATM    5  N2  UNL     1       2.317  14.005 -40.592  1.00  0.00    -0.160 N 
ATOM      6  H2  UNL     1       2.102  13.089 -40.199  1.00  0.00     0.187 HD
HETATM    7  C3  UNL     1       1.456  14.559 -41.562  1.00  0.00     0.235 C 
HETATM    8  O1  UNL     1       1.962  15.299 -42.441  1.00  0.00    -0.273 OA
HETATM    9  N3  UNL     1       4.146  13.935 -39.203  1.00  0.00    -0.141 N 
ATOM     10  H3  UNL     1       3.864  13.020 -38.851  1.00  0.00     0.189 HD
HETATM   11  C13 UNL     1       5.321  14.565 -38.736  1.00  0.00     0.334 C 
HETATM   12  O2  UNL     1       5.684  15.697 -39.173  1.00  0.00    -0.246 OA
HETATM   13  N4  UNL     1       6.109  13.912 -37.755  1.00  0.00    -0.335 N 
ATOM     14  H4  UNL     1       5.821  13.007 -37.382  1.00  0.00     0.164 HD
ENDROOT
BRANCH   7  15
HETATM   15  C4  UNL     1       0.027  14.247 -41.506  1.00  0.00     0.103 C 
BRANCH  15  16
HETATM   16  C5  UNL     1      -0.448  13.986 -40.097  1.00  0.00     0.009 C 
BRANCH  16  17
HETATM   17  C6  UNL     1      -1.396  12.833 -40.070  1.00  0.00     0.000 C 
BRANCH  17  18
HETATM   18  C7  UNL     1      -1.752  12.422 -38.673  1.00  0.00     0.000 C 
BRANCH  18  19
HETATM   19  C8  UNL     1      -1.495  13.526 -37.701  1.00  0.00     0.000 C 
BRANCH  19  20
HETATM   20  C9  UNL     1      -2.234  13.313 -36.428  1.00  0.00     0.000 C 
BRANCH  20  21
HETATM   21  C10 UNL     1      -3.374  14.273 -36.291  1.00  0.00     0.001 C 
BRANCH  21  22
HETATM   22  C11 UNL     1      -3.135  15.457 -37.187  1.00  0.00     0.015 C 
BRANCH  22  23
HETATM   23  C12 UNL     1      -4.283  15.683 -38.138  1.00  0.00     0.114 C 
HETATM   24 CL1  UNL     1      -3.590  15.748 -39.777  1.00  0.00    -0.130 Cl
ENDBRANCH  22  23
ENDBRANCH  21  22
ENDBRANCH  20  21
ENDBRANCH  19  20
ENDBRANCH  18  19
ENDBRANCH  17  18
ENDBRANCH  16  17
ENDBRANCH  15  16
ENDBRANCH   7  15
BRANCH  13  25
HETATM   25  C14 UNL     1       7.319  14.537 -37.290  1.00  0.00     0.215 C 
BRANCH  25  26
HETATM   26  C15 UNL     1       8.048  13.605 -36.405  1.00  0.00     0.212 C 
HETATM   27  O3  UNL     1       8.277  12.437 -36.641  1.00  0.00    -0.283 OA
HETATM   28 BR1  UNL     1       8.691  14.303 -34.735  1.00  0.00    -0.007 Br
ENDBRANCH  25  26
ENDBRANCH  13  25
TORSDOF 11
ENDMDL
MODEL 4
REMARK VINA RESULT: -6.957523189      1.351      1.698
REMARK  11 active torsions:
REMARK  status: ('A' for Active; 'I' for Inactive)
REMARK       I    between atoms: N1_2  and  C2_4 
REMARK       I    between atoms: C2_4  and  N3_19 
REMARK       I    between atoms: N2_5  and  C3_7 
REMARK    1  A    between atoms: C3_7  and  C4_9 
REMARK    2  A    between atoms: C4_9  and  C5_10 
REMARK    3  A    between atoms: C5_10  and  C6_11 
REMARK    4  A    between atoms: C6_11  and  C7_12 
REMARK    5  A    between atoms: C7_12  and  C8_13 
REMARK    6  A    between atoms: C8_13  and  C9_14 
REMARK    7  A    between atoms: C9_14  and  C10_15 
REMARK    8  A    between atoms: C10_15  and  C11_16 
REMARK    9  A    between atoms: C11_16  and  C12_17 
REMARK       I    between atoms: N3_19  and  C13_21 
REMARK       I    between atoms: C13_21  and  N4_23 
REMARK   10  A    between atoms: N4_23  and  C14_25 
REMARK   11  A    between atoms: C14_25  and  C15_26 
ROOT
HETATM    1  C1  UNL     1       4.856  17.262 -39.593  1.00  0.00     0.165 C 
HETATM    2  N1  UNL     1       5.174  15.845 -39.734  1.00  0.00    -0.230 N 
ATOM      3  H1  UNL     1       5.931  15.538 -40.344  1.00  0.00     0.177 HD
HETATM    4  C2  UNL     1       4.403  14.908 -39.002  1.00  0.00     0.684 C 
HETATM    5  N2  UNL     1       3.220  14.554 -39.329  1.00  0.00    -0.160 N 
ATOM      6  H2  UNL     1       2.724  13.874 -38.752  1.00  0.00     0.187 HD
HETATM    7  C3  UNL     1       2.586  15.084 -40.471  1.00  0.00     0.235 C 
HETATM    8  O1  UNL     1       3.306  15.392 -41.453  1.00  0.00    -0.273 OA
HETATM    9  N3  UNL     1       4.924  14.277 -37.812  1.00  0.00    -0.141 N 
ATOM     10  H3  UNL     1       4.364  13.610 -37.281  1.00  0.00     0.189 HD
HETATM   11  C13 UNL     1       6.234  14.614 -37.407  1.00  0.00     0.334 C 
HETATM   12  O2  UNL     1       6.940  15.435 -38.065  1.00  0.00    -0.246 OA
HETATM   13  N4  UNL     1       6.769  14.017 -36.237  1.00  0.00    -0.335 N 
ATOM     14  H4  UNL     1       6.207  13.365 -35.689  1.00  0.00     0.164 HD
ENDROOT
BRANCH   7  15
HETATM   15  C4  UNL     1       1.132  15.248 -40.466  1.00  0.00     0.103 C 
BRANCH  15  16
HETATM   16  C5  UNL     1       0.469  14.537 -41.621  1.00  0.00     0.009 C 
BRANCH  16  17
HETATM   17  C6  UNL     1       0.522  13.058 -41.425  1.00  0.00     0.000 C 
BRANCH  17  18
HETATM   18  C7  UNL     1      -0.822  12.413 -41.592  1.00  0.00     0.000 C 
BRANCH  18  19
HETATM   19  C8  UNL     1      -1.077  11.404 -40.521  1.00  0.00     0.000 C 
BRANCH  19  20
HETATM   20  C9  UNL     1      -2.153  11.852 -39.598  1.00  0.00     0.000 C 
BRANCH  20  21
HETATM   21  C10 UNL     1      -1.590  12.351 -38.304  1.00  0.00     0.001 C 
BRANCH  21  22
HETATM   22  C11 UNL     1      -1.776  13.840 -38.222  1.00  0.00     0.015 C 
BRANCH  22  23
HETATM   23  C12 UNL     1      -2.474  14.253 -36.952  1.00  0.00     0.114 C 
HETATM   24 CL1  UNL     1      -2.215  12.945 -35.772  1.00  0.00    -0.130 Cl
ENDBRANCH  22  23
ENDBRANCH  21  22
ENDBRANCH  20  21
ENDBRANCH  19  20
ENDBRANCH  18  19
ENDBRANCH  17  18
ENDBRANCH  16  17
ENDBRANCH  15  16
ENDBRANCH   7  15
BRANCH  13  25
HETATM   25  C14 UNL     1       8.111  14.338 -35.830  1.00  0.00     0.215 C 
BRANCH  25  26
HETATM   26  C15 UNL     1       8.976  13.151 -35.998  1.00  0.00     0.212 C 
HETATM   27  O3  UNL     1       9.409  12.457 -35.101  1.00  0.00    -0.283 OA
HETATM   28 BR1  UNL     1       9.457  12.663 -37.792  1.00  0.00    -0.007 Br
ENDBRANCH  25  26
ENDBRANCH  13  25
TORSDOF 11
ENDMDL
MODEL 5
REMARK VINA RESULT: -6.892386294      6.484     10.306
REMARK  11 active torsions:
REMARK  status: ('A' for Active; 'I' for Inactive)
REMARK       I    between atoms: N1_2  and  C2_4 
REMARK       I    between atoms: C2_4  and  N3_19 
REMARK       I    between atoms: N2_5  and  C3_7 
REMARK    1  A    between atoms: C3_7  and  C4_9 
REMARK    2  A    between atoms: C4_9  and  C5_10 
REMARK    3  A    between atoms: C5_10  and  C6_11 
REMARK    4  A    between atoms: C6_11  and  C7_12 
REMARK    5  A    between atoms: C7_12  and  C8_13 
REMARK    6  A    between atoms: C8_13  and  C9_14 
REMARK    7  A    between atoms: C9_14  and  C10_15 
REMARK    8  A    between atoms: C10_15  and  C11_16 
REMARK    9  A    between atoms: C11_16  and  C12_17 
REMARK       I    between atoms: N3_19  and  C13_21 
REMARK       I    between atoms: C13_21  and  N4_23 
REMARK   10  A    between atoms: N4_23  and  C14_25 
REMARK   11  A    between atoms: C14_25  and  C15_26 
ROOT
HETATM    1  C1  UNL     1      -0.585  12.986 -43.043  1.00  0.00     0.165 C 
HETATM    2  N1  UNL     1       0.525  13.523 -43.823  1.00  0.00    -0.230 N 
ATOM      3  H1  UNL     1       1.140  12.904 -44.351  1.00  0.00     0.177 HD
HETATM    4  C2  UNL     1       0.728  14.925 -43.827  1.00  0.00     0.684 C 
HETATM    5  N2  UNL     1       1.253  15.568 -42.856  1.00  0.00    -0.160 N 
ATOM      6  H2  UNL     1       1.366  16.579 -42.928  1.00  0.00     0.187 HD
HETATM    7  C3  UNL     1       1.682  14.907 -41.686  1.00  0.00     0.235 C 
HETATM    8  O1  UNL     1       2.109  13.732 -41.798  1.00  0.00    -0.273 OA
HETATM    9  N3  UNL     1       0.344  15.734 -44.960  1.00  0.00    -0.141 N 
ATOM     10  H3  UNL     1       0.481  16.745 -44.956  1.00  0.00     0.189 HD
HETATM   11  C13 UNL     1      -0.228  15.080 -46.073  1.00  0.00     0.334 C 
HETATM   12  O2  UNL     1      -0.395  13.824 -46.089  1.00  0.00    -0.246 OA
HETATM   13  N4  UNL     1      -0.623  15.850 -47.196  1.00  0.00    -0.335 N 
ATOM     14  H4  UNL     1      -0.509  16.863 -47.191  1.00  0.00     0.164 HD
ENDROOT
BRANCH   7  15
HETATM   15  C4  UNL     1       1.614  15.613 -40.405  1.00  0.00     0.103 C 
BRANCH  15  16
HETATM   16  C5  UNL     1       2.558  16.790 -40.348  1.00  0.00     0.009 C 
BRANCH  16  17
HETATM   17  C6  UNL     1       3.939  16.336 -40.008  1.00  0.00     0.000 C 
BRANCH  17  18
HETATM   18  C7  UNL     1       3.939  15.174 -39.060  1.00  0.00     0.000 C 
BRANCH  18  19
HETATM   19  C8  UNL     1       4.887  14.110 -39.507  1.00  0.00     0.000 C 
BRANCH  19  20
HETATM   20  C9  UNL     1       6.153  14.693 -40.024  1.00  0.00     0.000 C 
BRANCH  20  21
HETATM   21  C10 UNL     1       7.156  14.879 -38.928  1.00  0.00     0.001 C 
BRANCH  21  22
HETATM   22  C11 UNL     1       7.934  13.606 -38.746  1.00  0.00     0.015 C 
BRANCH  22  23
HETATM   23  C12 UNL     1       7.801  13.059 -37.347  1.00  0.00     0.114 C 
HETATM   24 CL1  UNL     1       6.782  14.203 -36.441  1.00  0.00    -0.130 Cl
ENDBRANCH  22  23
ENDBRANCH  21  22
ENDBRANCH  20  21
ENDBRANCH  19  20
ENDBRANCH  18  19
ENDBRANCH  17  18
ENDBRANCH  16  17
ENDBRANCH  15  16
ENDBRANCH   7  15
BRANCH  13  25
HETATM   25  C14 UNL     1      -1.187  15.188 -48.343  1.00  0.00     0.215 C 
BRANCH  25  26
HETATM   26  C15 UNL     1      -2.660  15.293 -48.299  1.00  0.00     0.212 C 
HETATM   27  O3  UNL     1      -3.442  14.400 -48.554  1.00  0.00    -0.283 OA
HETATM   28 BR1  UNL     1      -3.405  16.990 -47.795  1.00  0.00    -0.007 Br
ENDBRANCH  25  26
ENDBRANCH  13  25
TORSDOF 11
ENDMDL
