MODEL 1
REMARK VINA RESULT: -6.318555883      0.000      0.000
REMARK  8 active torsions:
REMARK  status: ('A' for Active; 'I' for Inactive)
REMARK    1  A    between atoms: N1_1  and  C1_5 
REMARK    2  A    between atoms: C1_5  and  C2_6 
REMARK    3  A    between atoms: C2_6  and  C3_7 
REMARK    4  A    between atoms: C3_7  and  N2_8 
REMARK    5  A    between atoms: C6_13  and  S1_14 
REMARK    6  A    between atoms: S1_14  and  C7_16 
REMARK    7  A    between atoms: C11_20  and  C12_21 
REMARK    8  A    between atoms: C12_21  and  O2_22 
ROOT
HETATM    1  N2  UNL     1      24.493  22.308 -42.960  1.00  0.00    -0.334 N 
HETATM    2  C4  UNL     1      25.552  23.032 -42.504  1.00  0.00     0.110 A 
HETATM    3  C5  UNL     1      25.350  24.316 -42.943  1.00  0.00     0.107 A 
HETATM    4  N3  UNL     1      24.206  24.371 -43.643  1.00  0.00    -0.343 N 
ATOM      5  H3  UNL     1      23.807  25.197 -44.089  1.00  0.00     0.167 HD
HETATM    6  C6  UNL     1      23.684  23.126 -43.648  1.00  0.00     0.181 A 
ENDROOT
BRANCH   6   7
HETATM    7  S1  UNL     1      22.184  22.660 -44.433  1.00  0.00     0.119 S 
HETATM    8  O1  UNL     1      21.556  24.036 -45.163  1.00  0.00    -0.244 OA
BRANCH   7   9
HETATM    9  C7  UNL     1      21.019  22.066 -43.303  1.00  0.00     0.040 A 
HETATM   10  C8  UNL     1      20.173  21.005 -43.553  1.00  0.00     0.021 A 
HETATM   11  C9  UNL     1      19.276  20.603 -42.589  1.00  0.00     0.002 A 
HETATM   12  C10 UNL     1      19.179  21.220 -41.359  1.00  0.00     0.009 A 
HETATM   13  C11 UNL     1      20.027  22.287 -41.100  1.00  0.00    -0.034 A 
HETATM   14  C13 UNL     1      20.920  22.681 -42.072  1.00  0.00     0.030 A 
BRANCH  13  15
HETATM   15  C12 UNL     1      19.974  22.998 -39.792  1.00  0.00     0.202 C 
BRANCH  15  16
HETATM   16  O2  UNL     1      18.620  23.209 -39.499  1.00  0.00    -0.396 OA
ATOM     17  H2  UNL     1      18.372  24.028 -39.913  1.00  0.00     0.209 HD
ENDBRANCH  15  16
ENDBRANCH  13  15
ENDBRANCH   7   9
ENDBRANCH   6   7
BRANCH   1  18
HETATM   18  C3  UNL     1      24.240  20.909 -42.765  1.00  0.00     0.132 C 
BRANCH  18  19
HETATM   19  C2  UNL     1      24.410  20.442 -41.359  1.00  0.00     0.047 C 
BRANCH  19  20
HETATM   20  C1  UNL     1      23.067  19.837 -40.929  1.00  0.00     0.231 C 
BRANCH  20  21
HETATM   21  N1  UNL     1      22.941  19.793 -39.492  1.00  0.00    -0.079 N 
ATOM     22  H13 UNL     1      23.555  20.474 -39.044  1.00  0.00     0.274 HD
ATOM     23  H12 UNL     1      22.042  20.164 -39.186  1.00  0.00     0.274 HD
ATOM     24  H11 UNL     1      23.100  18.852 -39.130  1.00  0.00     0.274 HD
ENDBRANCH  20  21
ENDBRANCH  19  20
ENDBRANCH  18  19
ENDBRANCH   1  18
TORSDOF 8
ENDMDL
MODEL 2
REMARK VINA RESULT: -6.203221240      2.713      5.389
REMARK  8 active torsions:
REMARK  status: ('A' for Active; 'I' for Inactive)
REMARK    1  A    between atoms: N1_1  and  C1_5 
REMARK    2  A    between atoms: C1_5  and  C2_6 
REMARK    3  A    between atoms: C2_6  and  C3_7 
REMARK    4  A    between atoms: C3_7  and  N2_8 
REMARK    5  A    between atoms: C6_13  and  S1_14 
REMARK    6  A    between atoms: S1_14  and  C7_16 
REMARK    7  A    between atoms: C11_20  and  C12_21 
REMARK    8  A    between atoms: C12_21  and  O2_22 
ROOT
HETATM    1  N2  UNL     1      22.023  20.081 -41.505  1.00  0.00    -0.334 N 
HETATM    2  C4  UNL     1      20.985  19.859 -40.654  1.00  0.00     0.110 A 
HETATM    3  C5  UNL     1      21.544  19.669 -39.416  1.00  0.00     0.107 A 
HETATM    4  N3  UNL     1      22.879  19.772 -39.512  1.00  0.00    -0.343 N 
ATOM      5  H3  UNL     1      23.550  19.675 -38.750  1.00  0.00     0.167 HD
HETATM    6  C6  UNL     1      23.165  20.027 -40.806  1.00  0.00     0.181 A 
ENDROOT
BRANCH   6   7
HETATM    7  S1  UNL     1      24.778  20.249 -41.462  1.00  0.00     0.119 S 
HETATM    8  O1  UNL     1      25.868  19.887 -40.235  1.00  0.00    -0.244 OA
BRANCH   7   9
HETATM    9  C7  UNL     1      25.053  21.878 -41.968  1.00  0.00     0.040 A 
HETATM   10  C8  UNL     1      25.969  22.242 -42.933  1.00  0.00     0.021 A 
HETATM   11  C9  UNL     1      26.118  23.569 -43.271  1.00  0.00     0.002 A 
HETATM   12  C10 UNL     1      25.380  24.574 -42.680  1.00  0.00     0.009 A 
HETATM   13  C11 UNL     1      24.456  24.215 -41.709  1.00  0.00    -0.034 A 
HETATM   14  C13 UNL     1      24.317  22.886 -41.379  1.00  0.00     0.030 A 
BRANCH  13  15
HETATM   15  C12 UNL     1      23.628  25.252 -41.031  1.00  0.00     0.202 C 
BRANCH  15  16
HETATM   16  O2  UNL     1      22.320  25.107 -41.515  1.00  0.00    -0.396 OA
ATOM     17  H2  UNL     1      21.795  25.778 -41.095  1.00  0.00     0.209 HD
ENDBRANCH  15  16
ENDBRANCH  13  15
ENDBRANCH   7   9
ENDBRANCH   6   7
BRANCH   1  18
HETATM   18  C3  UNL     1      21.959  20.334 -42.917  1.00  0.00     0.132 C 
BRANCH  18  19
HETATM   19  C2  UNL     1      21.277  21.609 -43.284  1.00  0.00     0.047 C 
BRANCH  19  20
HETATM   20  C1  UNL     1      22.193  22.328 -44.283  1.00  0.00     0.231 C 
BRANCH  20  21
HETATM   21  N1  UNL     1      21.976  23.754 -44.270  1.00  0.00    -0.079 N 
ATOM     22  H13 UNL     1      21.410  24.037 -43.470  1.00  0.00     0.274 HD
ATOM     23  H12 UNL     1      22.834  24.259 -44.045  1.00  0.00     0.274 HD
ATOM     24  H11 UNL     1      21.570  24.079 -45.148  1.00  0.00     0.274 HD
ENDBRANCH  20  21
ENDBRANCH  19  20
ENDBRANCH  18  19
ENDBRANCH   1  18
TORSDOF 8
ENDMDL
MODEL 3
REMARK VINA RESULT: -6.141871558      2.462      4.961
REMARK  8 active torsions:
REMARK  status: ('A' for Active; 'I' for Inactive)
REMARK    1  A    between atoms: N1_1  and  C1_5 
REMARK    2  A    between atoms: C1_5  and  C2_6 
REMARK    3  A    between atoms: C2_6  and  C3_7 
REMARK    4  A    between atoms: C3_7  and  N2_8 
REMARK    5  A    between atoms: C6_13  and  S1_14 
REMARK    6  A    between atoms: S1_14  and  C7_16 
REMARK    7  A    between atoms: C11_20  and  C12_21 
REMARK    8  A    between atoms: C12_21  and  O2_22 
ROOT
HETATM    1  N2  UNL     1      21.266  20.750 -42.461  1.00  0.00    -0.334 N 
HETATM    2  C4  UNL     1      20.347  20.057 -41.735  1.00  0.00     0.110 A 
HETATM    3  C5  UNL     1      19.153  20.710 -41.913  1.00  0.00     0.107 A 
HETATM    4  N3  UNL     1      19.341  21.766 -42.720  1.00  0.00    -0.343 N 
ATOM      5  H3  UNL     1      18.630  22.431 -43.023  1.00  0.00     0.167 HD
HETATM    6  C6  UNL     1      20.649  21.782 -43.054  1.00  0.00     0.181 A 
ENDROOT
BRANCH   6   7
HETATM    7  S1  UNL     1      21.412  22.970 -44.097  1.00  0.00     0.119 S 
HETATM    8  O1  UNL     1      22.054  22.140 -45.410  1.00  0.00    -0.244 OA
BRANCH   7   9
HETATM    9  C7  UNL     1      22.700  23.800 -43.299  1.00  0.00     0.040 A 
HETATM   10  C8  UNL     1      22.561  24.470 -42.101  1.00  0.00     0.021 A 
HETATM   11  C9  UNL     1      23.648  25.104 -41.540  1.00  0.00     0.002 A 
HETATM   12  C10 UNL     1      24.895  25.102 -42.129  1.00  0.00     0.009 A 
HETATM   13  C11 UNL     1      25.043  24.429 -43.334  1.00  0.00    -0.034 A 
HETATM   14  C13 UNL     1      23.950  23.800 -43.885  1.00  0.00     0.030 A 
BRANCH  13  15
HETATM   15  C12 UNL     1      26.364  24.389 -44.022  1.00  0.00     0.202 C 
BRANCH  15  16
HETATM   16  O2  UNL     1      27.345  24.459 -43.024  1.00  0.00    -0.396 OA
ATOM     17  H2  UNL     1      27.982  23.779 -43.215  1.00  0.00     0.209 HD
ENDBRANCH  15  16
ENDBRANCH  13  15
ENDBRANCH   7   9
ENDBRANCH   6   7
BRANCH   1  18
HETATM   18  C3  UNL     1      22.666  20.467 -42.601  1.00  0.00     0.132 C 
BRANCH  18  19
HETATM   19  C2  UNL     1      23.498  20.880 -41.435  1.00  0.00     0.047 C 
BRANCH  19  20
HETATM   20  C1  UNL     1      23.719  19.622 -40.583  1.00  0.00     0.231 C 
BRANCH  20  21
HETATM   21  N1  UNL     1      23.043  19.717 -39.313  1.00  0.00    -0.079 N 
ATOM     22  H13 UNL     1      22.223  20.322 -39.371  1.00  0.00     0.274 HD
ATOM     23  H12 UNL     1      22.577  18.841 -39.073  1.00  0.00     0.274 HD
ATOM     24  H11 UNL     1      23.676  20.017 -38.572  1.00  0.00     0.274 HD
ENDBRANCH  20  21
ENDBRANCH  19  20
ENDBRANCH  18  19
ENDBRANCH   1  18
TORSDOF 8
ENDMDL
MODEL 4
REMARK VINA RESULT: -6.112298164      3.102      3.958
REMARK  8 active torsions:
REMARK  status: ('A' for Active; 'I' for Inactive)
REMARK    1  A    between atoms: N1_1  and  C1_5 
REMARK    2  A    between atoms: C1_5  and  C2_6 
REMARK    3  A    between atoms: C2_6  and  C3_7 
REMARK    4  A    between atoms: C3_7  and  N2_8 
REMARK    5  A    between atoms: C6_13  and  S1_14 
REMARK    6  A    between atoms: S1_14  and  C7_16 
REMARK    7  A    between atoms: C11_20  and  C12_21 
REMARK    8  A    between atoms: C12_21  and  O2_22 
ROOT
HETATM    1  N2  UNL     1      24.511  23.506 -43.565  1.00  0.00    -0.334 N 
HETATM    2  C4  UNL     1      25.281  23.632 -44.680  1.00  0.00     0.110 A 
HETATM    3  C5  UNL     1      25.885  22.415 -44.863  1.00  0.00     0.107 A 
HETATM    4  N3  UNL     1      25.495  21.576 -43.890  1.00  0.00    -0.343 N 
ATOM      5  H3  UNL     1      25.787  20.605 -43.775  1.00  0.00     0.167 HD
HETATM    6  C6  UNL     1      24.646  22.259 -43.094  1.00  0.00     0.181 A 
ENDROOT
BRANCH   6   7
HETATM    7  S1  UNL     1      23.852  21.610 -41.669  1.00  0.00     0.119 S 
HETATM    8  O1  UNL     1      24.913  20.517 -40.961  1.00  0.00    -0.244 OA
BRANCH   7   9
HETATM    9  C7  UNL     1      22.394  20.772 -42.065  1.00  0.00     0.040 A 
HETATM   10  C8  UNL     1      21.527  21.161 -43.066  1.00  0.00     0.021 A 
HETATM   11  C9  UNL     1      20.387  20.428 -43.310  1.00  0.00     0.002 A 
HETATM   12  C10 UNL     1      20.062  19.298 -42.587  1.00  0.00     0.009 A 
HETATM   13  C11 UNL     1      20.929  18.900 -41.579  1.00  0.00    -0.034 A 
HETATM   14  C13 UNL     1      22.065  19.642 -41.345  1.00  0.00     0.030 A 
BRANCH  13  15
HETATM   15  C12 UNL     1      20.636  17.690 -40.762  1.00  0.00     0.202 C 
BRANCH  15  16
HETATM   16  O2  UNL     1      21.423  16.651 -41.277  1.00  0.00    -0.396 OA
ATOM     17  H2  UNL     1      21.842  16.229 -40.535  1.00  0.00     0.209 HD
ENDBRANCH  15  16
ENDBRANCH  13  15
ENDBRANCH   7   9
ENDBRANCH   6   7
BRANCH   1  18
HETATM   18  C3  UNL     1      23.679  24.506 -42.957  1.00  0.00     0.132 C 
BRANCH  18  19
HETATM   19  C2  UNL     1      24.406  25.450 -42.060  1.00  0.00     0.047 C 
BRANCH  19  20
HETATM   20  C1  UNL     1      23.810  25.273 -40.657  1.00  0.00     0.231 C 
BRANCH  20  21
HETATM   21  N1  UNL     1      22.427  24.870 -40.715  1.00  0.00    -0.079 N 
ATOM     22  H13 UNL     1      22.095  24.813 -41.679  1.00  0.00     0.274 HD
ATOM     23  H12 UNL     1      22.312  23.892 -40.450  1.00  0.00     0.274 HD
ATOM     24  H11 UNL     1      21.834  25.481 -40.152  1.00  0.00     0.274 HD
ENDBRANCH  20  21
ENDBRANCH  19  20
ENDBRANCH  18  19
ENDBRANCH   1  18
TORSDOF 8
ENDMDL
MODEL 5
REMARK VINA RESULT: -6.079367007      2.402      2.757
REMARK  8 active torsions:
REMARK  status: ('A' for Active; 'I' for Inactive)
REMARK    1  A    between atoms: N1_1  and  C1_5 
REMARK    2  A    between atoms: C1_5  and  C2_6 
REMARK    3  A    between atoms: C2_6  and  C3_7 
REMARK    4  A    between atoms: C3_7  and  N2_8 
REMARK    5  A    between atoms: C6_13  and  S1_14 
REMARK    6  A    between atoms: S1_14  and  C7_16 
REMARK    7  A    between atoms: C11_20  and  C12_21 
REMARK    8  A    between atoms: C12_21  and  O2_22 
ROOT
HETATM    1  N2  UNL     1      24.226  23.228 -41.986  1.00  0.00    -0.334 N 
HETATM    2  C4  UNL     1      24.384  24.518 -41.585  1.00  0.00     0.110 A 
HETATM    3  C5  UNL     1      23.684  25.283 -42.483  1.00  0.00     0.107 A 
HETATM    4  N3  UNL     1      23.121  24.483 -43.401  1.00  0.00    -0.343 N 
ATOM      5  H3  UNL     1      22.544  24.777 -44.190  1.00  0.00     0.167 HD
HETATM    6  C6  UNL     1      23.460  23.215 -43.085  1.00  0.00     0.181 A 
ENDROOT
BRANCH   6   7
HETATM    7  S1  UNL     1      22.974  21.784 -43.978  1.00  0.00     0.119 S 
HETATM    8  O1  UNL     1      22.597  22.275 -45.540  1.00  0.00    -0.244 OA
BRANCH   7   9
HETATM    9  C7  UNL     1      21.575  21.037 -43.293  1.00  0.00     0.040 A 
HETATM   10  C8  UNL     1      20.286  21.485 -43.490  1.00  0.00     0.021 A 
HETATM   11  C9  UNL     1      19.231  20.823 -42.902  1.00  0.00     0.002 A 
HETATM   12  C10 UNL     1      19.405  19.708 -42.108  1.00  0.00     0.009 A 
HETATM   13  C11 UNL     1      20.699  19.250 -41.905  1.00  0.00    -0.034 A 
HETATM   14  C13 UNL     1      21.744  19.921 -42.498  1.00  0.00     0.030 A 
BRANCH  13  15
HETATM   15  C12 UNL     1      20.955  18.051 -41.059  1.00  0.00     0.202 C 
BRANCH  15  16
HETATM   16  O2  UNL     1      20.219  16.996 -41.614  1.00  0.00    -0.396 OA
ATOM     17  H2  UNL     1      20.372  16.235 -41.066  1.00  0.00     0.209 HD
ENDBRANCH  15  16
ENDBRANCH  13  15
ENDBRANCH   7   9
ENDBRANCH   6   7
BRANCH   1  18
HETATM   18  C3  UNL     1      24.766  22.047 -41.372  1.00  0.00     0.132 C 
BRANCH  18  19
HETATM   19  C2  UNL     1      26.183  21.757 -41.735  1.00  0.00     0.047 C 
BRANCH  19  20
HETATM   20  C1  UNL     1      26.211  20.330 -42.298  1.00  0.00     0.231 C 
BRANCH  20  21
HETATM   21  N1  UNL     1      25.205  19.498 -41.684  1.00  0.00    -0.079 N 
ATOM     22  H13 UNL     1      25.626  18.759 -41.120  1.00  0.00     0.274 HD
ATOM     23  H12 UNL     1      24.709  19.997 -40.945  1.00  0.00     0.274 HD
ATOM     24  H11 UNL     1      24.559  19.116 -42.376  1.00  0.00     0.274 HD
ENDBRANCH  20  21
ENDBRANCH  19  20
ENDBRANCH  18  19
ENDBRANCH   1  18
TORSDOF 8
ENDMDL
