MODEL 1
REMARK VINA RESULT: -7.091682281      0.000      0.000
REMARK  4 active torsions:
REMARK  status: ('A' for Active; 'I' for Inactive)
REMARK    1  A    between atoms: O1_2  and  C2_3 
REMARK    2  A    between atoms: C8_9  and  C10_11 
REMARK    3  A    between atoms: C10_11  and  C11_12 
REMARK    4  A    between atoms: C20_28  and  C21_29 
ROOT
HETATM    1  C2  UNL     1      -8.813  35.479  -4.915  1.00  0.00     0.122 C 
HETATM    2  C3  UNL     1      -7.491  35.434  -5.645  1.00  0.00     0.034 C 
HETATM    3  C4  UNL     1      -6.627  34.412  -4.981  1.00  0.00     0.035 C 
HETATM    4  C5  UNL     1      -6.111  34.913  -3.612  1.00  0.00     0.048 C 
HETATM    5  C6  UNL     1      -5.423  33.682  -3.015  1.00  0.00     0.035 C 
HETATM    6  C7  UNL     1      -4.294  33.985  -2.113  1.00  0.00     0.033 C 
HETATM    7  C8  UNL     1      -2.904  33.848  -2.691  1.00  0.00     0.034 C 
HETATM    8  C9  UNL     1      -2.427  32.457  -2.850  1.00  0.00     0.038 C 
HETATM    9  N1  UNL     1      -2.930  34.606  -3.941  1.00  0.00    -0.334 N 
ATOM     10  H1  UNL     1      -2.238  34.319  -4.633  1.00  0.00     0.165 HD
HETATM   11  C14 UNL     1      -3.770  35.680  -4.341  1.00  0.00     0.317 C 
HETATM   12  O3  UNL     1      -3.236  36.537  -5.129  1.00  0.00    -0.247 OA
HETATM   13  N2  UNL     1      -5.121  35.905  -3.967  1.00  0.00    -0.333 N 
ATOM     14  H2  UNL     1      -5.428  36.877  -3.946  1.00  0.00     0.165 HD
HETATM   15  C15 UNL     1      -7.292  35.397  -2.888  1.00  0.00     0.038 C 
HETATM   16  C16 UNL     1      -7.447  36.883  -2.745  1.00  0.00     0.024 C 
HETATM   17  C17 UNL     1      -6.696  37.191  -1.473  1.00  0.00     0.046 C 
HETATM   18  C18 UNL     1      -7.084  36.039  -0.632  1.00  0.00     0.023 A 
HETATM   19  C19 UNL     1      -7.433  34.979  -1.461  1.00  0.00     0.075 A 
HETATM   20  O4  UNL     1      -7.793  33.893  -0.842  1.00  0.00    -0.306 OA
HETATM   21  C20 UNL     1      -7.861  33.701   0.443  1.00  0.00     0.155 A 
HETATM   22  C22 UNL     1      -7.523  34.728   1.292  1.00  0.00     0.099 A 
HETATM   23  C23 UNL     1      -7.126  35.924   0.740  1.00  0.00     0.183 A 
HETATM   24  O7  UNL     1      -6.810  36.884   1.506  1.00  0.00    -0.288 OA
HETATM   25  C24 UNL     1      -8.606  34.913  -3.538  1.00  0.00     0.051 C 
ENDROOT
BRANCH   1  26
HETATM   26  O1  UNL     1      -9.385  36.721  -4.923  1.00  0.00    -0.391 OA
HETATM   27  C1  UNL     1     -10.737  36.612  -4.620  1.00  0.00     0.202 C 
ENDBRANCH   1  26
BRANCH   7  28
HETATM   28  C10 UNL     1      -2.012  34.642  -1.764  1.00  0.00     0.070 C 
BRANCH  28  29
HETATM   29  C11 UNL     1      -0.564  34.297  -1.828  1.00  0.00     0.081 A 
HETATM   30  C12 UNL     1       0.293  34.552  -3.013  1.00  0.00     0.048 C 
HETATM   31  C13 UNL     1       0.031  33.487  -0.672  1.00  0.00     0.206 A 
HETATM   32  O2  UNL     1       0.062  34.867  -0.622  1.00  0.00    -0.375 OA
ENDBRANCH  28  29
ENDBRANCH   7  28
BRANCH  21  33
HETATM   33  C21 UNL     1      -8.286  32.422   1.013  1.00  0.00     0.234 C 
HETATM   34  O5  UNL     1      -7.479  31.684   1.609  1.00  0.00    -0.642 OA
HETATM   35  O6  UNL     1      -9.599  32.028   0.887  1.00  0.00    -0.642 OA
ENDBRANCH  21  33
TORSDOF 4
ENDMDL
MODEL 2
REMARK VINA RESULT: -6.944944746      0.839      1.323
REMARK  4 active torsions:
REMARK  status: ('A' for Active; 'I' for Inactive)
REMARK    1  A    between atoms: O1_2  and  C2_3 
REMARK    2  A    between atoms: C8_9  and  C10_11 
REMARK    3  A    between atoms: C10_11  and  C11_12 
REMARK    4  A    between atoms: C20_28  and  C21_29 
ROOT
HETATM    1  C2  UNL     1      -8.857  35.773  -4.956  1.00  0.00     0.122 C 
HETATM    2  C3  UNL     1      -7.562  35.649  -5.725  1.00  0.00     0.034 C 
HETATM    3  C4  UNL     1      -6.742  34.577  -5.086  1.00  0.00     0.035 C 
HETATM    4  C5  UNL     1      -6.156  35.046  -3.734  1.00  0.00     0.048 C 
HETATM    5  C6  UNL     1      -5.525  33.776  -3.156  1.00  0.00     0.035 C 
HETATM    6  C7  UNL     1      -4.354  34.010  -2.289  1.00  0.00     0.033 C 
HETATM    7  C8  UNL     1      -2.993  33.790  -2.907  1.00  0.00     0.034 C 
HETATM    8  C9  UNL     1      -2.604  32.373  -3.079  1.00  0.00     0.038 C 
HETATM    9  N1  UNL     1      -3.011  34.549  -4.157  1.00  0.00    -0.334 N 
ATOM     10  H1  UNL     1      -2.358  34.222  -4.869  1.00  0.00     0.165 HD
HETATM   11  C14 UNL     1      -3.796  35.672  -4.534  1.00  0.00     0.317 C 
HETATM   12  O3  UNL     1      -3.235  36.496  -5.338  1.00  0.00    -0.247 OA
HETATM   13  N2  UNL     1      -5.119  35.976  -4.120  1.00  0.00    -0.333 N 
ATOM     14  H2  UNL     1      -5.367  36.966  -4.091  1.00  0.00     0.165 HD
HETATM   15  C15 UNL     1      -7.284  35.599  -2.976  1.00  0.00     0.038 C 
HETATM   16  C16 UNL     1      -7.345  37.091  -2.830  1.00  0.00     0.024 C 
HETATM   17  C17 UNL     1      -6.539  37.354  -1.582  1.00  0.00     0.046 C 
HETATM   18  C18 UNL     1      -6.970  36.227  -0.728  1.00  0.00     0.023 A 
HETATM   19  C19 UNL     1      -7.407  35.189  -1.545  1.00  0.00     0.075 A 
HETATM   20  O4  UNL     1      -7.812  34.127  -0.913  1.00  0.00    -0.306 OA
HETATM   21  C20 UNL     1      -7.854  33.938   0.373  1.00  0.00     0.155 A 
HETATM   22  C22 UNL     1      -7.430  34.944   1.210  1.00  0.00     0.099 A 
HETATM   23  C23 UNL     1      -6.978  36.114   0.645  1.00  0.00     0.183 A 
HETATM   24  O7  UNL     1      -6.583  37.053   1.400  1.00  0.00    -0.288 OA
HETATM   25  C24 UNL     1      -8.643  35.195  -3.585  1.00  0.00     0.051 C 
ENDROOT
BRANCH   1  26
HETATM   26  O1  UNL     1      -9.353  37.047  -4.949  1.00  0.00    -0.391 OA
HETATM   27  C1  UNL     1     -10.726  37.010  -4.732  1.00  0.00     0.202 C 
ENDBRANCH   1  26
BRANCH   7  28
HETATM   28  C10 UNL     1      -2.028  34.530  -2.009  1.00  0.00     0.070 C 
BRANCH  28  29
HETATM   29  C11 UNL     1      -2.661  35.436  -1.008  1.00  0.00     0.081 A 
HETATM   30  C12 UNL     1      -3.350  34.959   0.216  1.00  0.00     0.048 C 
HETATM   31  C13 UNL     1      -2.749  36.927  -1.348  1.00  0.00     0.206 A 
HETATM   32  O2  UNL     1      -1.652  36.449  -0.657  1.00  0.00    -0.375 OA
ENDBRANCH  28  29
ENDBRANCH   7  28
BRANCH  21  33
HETATM   33  C21 UNL     1      -8.338  32.687   0.957  1.00  0.00     0.234 C 
HETATM   34  O5  UNL     1      -7.543  31.826   1.380  1.00  0.00    -0.642 OA
HETATM   35  O6  UNL     1      -9.692  32.458   1.039  1.00  0.00    -0.642 OA
ENDBRANCH  21  33
TORSDOF 4
ENDMDL
MODEL 3
REMARK VINA RESULT: -6.596054748      1.700      2.203
REMARK  4 active torsions:
REMARK  status: ('A' for Active; 'I' for Inactive)
REMARK    1  A    between atoms: O1_2  and  C2_3 
REMARK    2  A    between atoms: C8_9  and  C10_11 
REMARK    3  A    between atoms: C10_11  and  C11_12 
REMARK    4  A    between atoms: C20_28  and  C21_29 
ROOT
HETATM    1  C2  UNL     1      -9.992  36.827  -4.958  1.00  0.00     0.122 C 
HETATM    2  C3  UNL     1      -9.111  36.528  -6.149  1.00  0.00     0.034 C 
HETATM    3  C4  UNL     1      -8.374  35.258  -5.875  1.00  0.00     0.035 C 
HETATM    4  C5  UNL     1      -7.263  35.467  -4.820  1.00  0.00     0.048 C 
HETATM    5  C6  UNL     1      -6.764  34.047  -4.538  1.00  0.00     0.035 C 
HETATM    6  C7  UNL     1      -5.342  33.960  -4.153  1.00  0.00     0.033 C 
HETATM    7  C8  UNL     1      -4.368  33.539  -5.230  1.00  0.00     0.034 C 
HETATM    8  C9  UNL     1      -4.385  32.097  -5.560  1.00  0.00     0.038 C 
HETATM    9  N1  UNL     1      -4.658  34.406  -6.371  1.00  0.00    -0.334 N 
ATOM     10  H1  UNL     1      -4.385  34.029  -7.278  1.00  0.00     0.165 HD
HETATM   11  C14 UNL     1      -5.259  35.693  -6.412  1.00  0.00     0.317 C 
HETATM   12  O3  UNL     1      -4.851  36.466  -7.348  1.00  0.00    -0.247 OA
HETATM   13  N2  UNL     1      -6.251  36.209  -5.538  1.00  0.00    -0.333 N 
ATOM     14  H2  UNL     1      -6.250  37.220  -5.400  1.00  0.00     0.165 HD
HETATM   15  C15 UNL     1      -7.902  36.154  -3.691  1.00  0.00     0.038 C 
HETATM   16  C16 UNL     1      -7.580  37.607  -3.502  1.00  0.00     0.024 C 
HETATM   17  C17 UNL     1      -6.350  37.582  -2.629  1.00  0.00     0.046 C 
HETATM   18  C18 UNL     1      -6.689  36.483  -1.700  1.00  0.00     0.023 A 
HETATM   19  C19 UNL     1      -7.601  35.637  -2.323  1.00  0.00     0.075 A 
HETATM   20  O4  UNL     1      -7.980  34.618  -1.609  1.00  0.00    -0.306 OA
HETATM   21  C20 UNL     1      -7.607  34.315  -0.401  1.00  0.00     0.155 A 
HETATM   22  C22 UNL     1      -6.707  35.130   0.245  1.00  0.00     0.099 A 
HETATM   23  C23 UNL     1      -6.238  36.238  -0.421  1.00  0.00     0.183 A 
HETATM   24  O7  UNL     1      -5.407  37.002   0.156  1.00  0.00    -0.288 OA
HETATM   25  C24 UNL     1      -9.442  36.086  -3.772  1.00  0.00     0.051 C 
ENDROOT
BRANCH   1  26
HETATM   26  O1  UNL     1     -10.162  38.167  -4.744  1.00  0.00    -0.391 OA
HETATM   27  C1  UNL     1      -9.916  38.862  -5.923  1.00  0.00     0.202 C 
ENDBRANCH   1  26
BRANCH   7  28
HETATM   28  C10 UNL     1      -3.012  33.982  -4.729  1.00  0.00     0.070 C 
BRANCH  28  29
HETATM   29  C11 UNL     1      -2.880  34.067  -3.247  1.00  0.00     0.081 A 
HETATM   30  C12 UNL     1      -2.885  32.886  -2.350  1.00  0.00     0.048 C 
HETATM   31  C13 UNL     1      -2.907  35.458  -2.604  1.00  0.00     0.206 A 
HETATM   32  O2  UNL     1      -1.698  34.902  -2.974  1.00  0.00    -0.375 OA
ENDBRANCH  28  29
ENDBRANCH   7  28
BRANCH  21  33
HETATM   33  C21 UNL     1      -8.116  33.131   0.293  1.00  0.00     0.234 C 
HETATM   34  O5  UNL     1      -7.364  32.181   0.578  1.00  0.00    -0.642 OA
HETATM   35  O6  UNL     1      -9.447  33.069   0.637  1.00  0.00    -0.642 OA
ENDBRANCH  21  33
TORSDOF 4
ENDMDL
MODEL 4
REMARK VINA RESULT: -6.487567408      2.783      6.523
REMARK  4 active torsions:
REMARK  status: ('A' for Active; 'I' for Inactive)
REMARK    1  A    between atoms: O1_2  and  C2_3 
REMARK    2  A    between atoms: C8_9  and  C10_11 
REMARK    3  A    between atoms: C10_11  and  C11_12 
REMARK    4  A    between atoms: C20_28  and  C21_29 
ROOT
HETATM    1  C2  UNL     1      -5.743  35.793  -0.689  1.00  0.00     0.122 C 
HETATM    2  C3  UNL     1      -4.711  35.052  -1.506  1.00  0.00     0.034 C 
HETATM    3  C4  UNL     1      -4.647  35.684  -2.858  1.00  0.00     0.035 C 
HETATM    4  C5  UNL     1      -5.894  35.337  -3.703  1.00  0.00     0.048 C 
HETATM    5  C6  UNL     1      -5.739  36.214  -4.949  1.00  0.00     0.035 C 
HETATM    6  C7  UNL     1      -6.327  35.646  -6.178  1.00  0.00     0.033 C 
HETATM    7  C8  UNL     1      -5.373  34.987  -7.149  1.00  0.00     0.034 C 
HETATM    8  C9  UNL     1      -4.553  35.921  -7.951  1.00  0.00     0.038 C 
HETATM    9  N1  UNL     1      -4.583  34.057  -6.342  1.00  0.00    -0.334 N 
ATOM     10  H1  UNL     1      -3.669  33.822  -6.727  1.00  0.00     0.165 HD
HETATM   11  C14 UNL     1      -4.893  33.431  -5.104  1.00  0.00     0.317 C 
HETATM   12  O3  UNL     1      -4.388  32.267  -4.931  1.00  0.00    -0.247 OA
HETATM   13  N2  UNL     1      -5.691  33.949  -4.052  1.00  0.00    -0.333 N 
ATOM     14  H2  UNL     1      -6.178  33.263  -3.475  1.00  0.00     0.165 HD
HETATM   15  C15 UNL     1      -7.053  35.637  -2.854  1.00  0.00     0.038 C 
HETATM   16  C16 UNL     1      -7.804  34.470  -2.284  1.00  0.00     0.024 C 
HETATM   17  C17 UNL     1      -8.825  34.157  -3.350  1.00  0.00     0.046 C 
HETATM   18  C18 UNL     1      -9.220  35.519  -3.768  1.00  0.00     0.023 A 
HETATM   19  C19 UNL     1      -8.177  36.394  -3.480  1.00  0.00     0.075 A 
HETATM   20  O4  UNL     1      -8.396  37.634  -3.806  1.00  0.00    -0.306 OA
HETATM   21  C20 UNL     1      -9.464  38.131  -4.358  1.00  0.00     0.155 A 
HETATM   22  C22 UNL     1     -10.514  37.294  -4.655  1.00  0.00     0.099 A 
HETATM   23  C23 UNL     1     -10.387  35.958  -4.353  1.00  0.00     0.183 A 
HETATM   24  O7  UNL     1     -11.344  35.170  -4.619  1.00  0.00    -0.288 OA
HETATM   25  C24 UNL     1      -6.667  36.504  -1.637  1.00  0.00     0.051 C 
ENDROOT
BRANCH   1  26
HETATM   26  O1  UNL     1      -6.385  34.991   0.214  1.00  0.00    -0.391 OA
HETATM   27  C1  UNL     1      -7.018  35.780   1.168  1.00  0.00     0.202 C 
ENDBRANCH   1  26
BRANCH   7  28
HETATM   28  C10 UNL     1      -6.242  34.113  -8.024  1.00  0.00     0.070 C 
BRANCH  28  29
HETATM   29  C11 UNL     1      -6.723  34.753  -9.281  1.00  0.00     0.081 A 
HETATM   30  C12 UNL     1      -5.960  34.744 -10.554  1.00  0.00     0.048 C 
HETATM   31  C13 UNL     1      -7.993  35.607  -9.210  1.00  0.00     0.206 A 
HETATM   32  O2  UNL     1      -8.092  34.262  -9.510  1.00  0.00    -0.375 OA
ENDBRANCH  28  29
ENDBRANCH   7  28
BRANCH  21  33
HETATM   33  C21 UNL     1      -9.582  39.555  -4.672  1.00  0.00     0.234 C 
HETATM   34  O5  UNL     1      -9.727  39.943  -5.846  1.00  0.00    -0.642 OA
HETATM   35  O6  UNL     1      -9.532  40.479  -3.654  1.00  0.00    -0.642 OA
ENDBRANCH  21  33
TORSDOF 4
ENDMDL
MODEL 5
REMARK VINA RESULT: -6.401570982      2.253      2.645
REMARK  4 active torsions:
REMARK  status: ('A' for Active; 'I' for Inactive)
REMARK    1  A    between atoms: O1_2  and  C2_3 
REMARK    2  A    between atoms: C8_9  and  C10_11 
REMARK    3  A    between atoms: C10_11  and  C11_12 
REMARK    4  A    between atoms: C20_28  and  C21_29 
ROOT
HETATM    1  C2  UNL     1     -10.054  36.938  -4.944  1.00  0.00     0.122 C 
HETATM    2  C3  UNL     1      -9.269  36.561  -6.179  1.00  0.00     0.034 C 
HETATM    3  C4  UNL     1      -8.607  35.246  -5.925  1.00  0.00     0.035 C 
HETATM    4  C5  UNL     1      -7.422  35.391  -4.943  1.00  0.00     0.048 C 
HETATM    5  C6  UNL     1      -7.007  33.944  -4.665  1.00  0.00     0.035 C 
HETATM    6  C7  UNL     1      -5.573  33.762  -4.362  1.00  0.00     0.033 C 
HETATM    7  C8  UNL     1      -4.697  33.259  -5.487  1.00  0.00     0.034 C 
HETATM    8  C9  UNL     1      -4.834  31.817  -5.789  1.00  0.00     0.038 C 
HETATM    9  N1  UNL     1      -4.995  34.128  -6.625  1.00  0.00    -0.334 N 
ATOM     10  H1  UNL     1      -4.805  33.720  -7.540  1.00  0.00     0.165 HD
HETATM   11  C14 UNL     1      -5.507  35.453  -6.653  1.00  0.00     0.317 C 
HETATM   12  O3  UNL     1      -5.104  36.182  -7.626  1.00  0.00    -0.247 OA
HETATM   13  N2  UNL     1      -6.407  36.050  -5.732  1.00  0.00    -0.333 N 
ATOM     14  H2  UNL     1      -6.327  37.060  -5.613  1.00  0.00     0.165 HD
HETATM   15  C15 UNL     1      -7.943  36.137  -3.790  1.00  0.00     0.038 C 
HETATM   16  C16 UNL     1      -7.511  37.567  -3.648  1.00  0.00     0.024 C 
HETATM   17  C17 UNL     1      -6.235  37.467  -2.848  1.00  0.00     0.046 C 
HETATM   18  C18 UNL     1      -6.593  36.408  -1.881  1.00  0.00     0.023 A 
HETATM   19  C19 UNL     1      -7.597  35.620  -2.433  1.00  0.00     0.075 A 
HETATM   20  O4  UNL     1      -8.002  34.641  -1.680  1.00  0.00    -0.306 OA
HETATM   21  C20 UNL     1      -7.578  34.329  -0.490  1.00  0.00     0.155 A 
HETATM   22  C22 UNL     1      -6.586  35.088   0.087  1.00  0.00     0.099 A 
HETATM   23  C23 UNL     1      -6.083  36.151  -0.627  1.00  0.00     0.183 A 
HETATM   24  O7  UNL     1      -5.168  36.863  -0.113  1.00  0.00    -0.288 OA
HETATM   25  C24 UNL     1      -9.486  36.177  -3.779  1.00  0.00     0.051 C 
ENDROOT
BRANCH   1  26
HETATM   26  O1  UNL     1     -10.118  38.290  -4.745  1.00  0.00    -0.391 OA
HETATM   27  C1  UNL     1      -9.884  38.948  -5.947  1.00  0.00     0.202 C 
ENDBRANCH   1  26
BRANCH   7  28
HETATM   28  C10 UNL     1      -3.286  33.613  -5.076  1.00  0.00     0.070 C 
BRANCH  28  29
HETATM   29  C11 UNL     1      -2.229  32.691  -5.581  1.00  0.00     0.081 A 
HETATM   30  C12 UNL     1      -1.823  32.604  -7.005  1.00  0.00     0.048 C 
HETATM   31  C13 UNL     1      -1.650  31.662  -4.604  1.00  0.00     0.206 A 
HETATM   32  O2  UNL     1      -1.045  32.897  -4.730  1.00  0.00    -0.375 OA
ENDBRANCH  28  29
ENDBRANCH   7  28
BRANCH  21  33
HETATM   33  C21 UNL     1      -8.125  33.194   0.255  1.00  0.00     0.234 C 
HETATM   34  O5  UNL     1      -7.403  32.237   0.588  1.00  0.00    -0.642 OA
HETATM   35  O6  UNL     1      -9.460  33.186   0.591  1.00  0.00    -0.642 OA
ENDBRANCH  21  33
TORSDOF 4
ENDMDL
