MODEL 1
REMARK VINA RESULT: -8.658398616      0.000      0.000
REMARK  11 active torsions:
REMARK  status: ('A' for Active; 'I' for Inactive)
REMARK    1  A    between atoms: C3_5  and  C4_6 
REMARK    2  A    between atoms: C4_6  and  N2_7 
REMARK    3  A    between atoms: N2_7  and  N3_9 
REMARK    4  A    between atoms: N3_9  and  C7_12 
REMARK    5  A    between atoms: C7_12  and  C8_13 
REMARK    6  A    between atoms: C10_18  and  C11_19 
REMARK       I    between atoms: C11_19  and  N5_21 
REMARK    7  A    between atoms: N5_21  and  C12_23 
REMARK    8  A    between atoms: C12_23  and  C13_24 
REMARK    9  A    between atoms: C12_23  and  C16_27 
REMARK   10  A    between atoms: C22_36  and  C23_37 
REMARK   11  A    between atoms: N7_38  and  N8_40 
ROOT
HETATM    1  C8  UNL     1      17.670 -12.657  20.531  1.00  0.00     0.240 C 
HETATM    2  C9  UNL     1      19.136 -12.547  20.056  1.00  0.00     0.268 C 
HETATM    3  N4  UNL     1      20.060 -12.785  21.129  1.00  0.00    -0.058 N 
ATOM      4  H41 UNL     1      20.125 -11.975  21.746  1.00  0.00     0.278 HD
ATOM      5  H42 UNL     1      21.021 -12.809  20.788  1.00  0.00     0.278 HD
HETATM    6  C10 UNL     1      19.741 -13.982  21.874  1.00  0.00     0.307 C 
HETATM    7  C19 UNL     1      18.330 -13.916  22.368  1.00  0.00     0.222 C 
HETATM    8  C20 UNL     1      17.574 -15.085  21.824  1.00  0.00     0.043 C 
HETATM    9  N6  UNL     1      17.733 -12.633  21.953  1.00  0.00    -0.061 N 
ATOM     10  H61 UNL     1      16.833 -12.446  22.394  1.00  0.00     0.278 HD
ATOM     11  H62 UNL     1      18.227 -11.820  22.320  1.00  0.00     0.278 HD
ENDROOT
BRANCH   1  12
HETATM   12  C7  UNL     1      16.942 -11.554  19.863  1.00  0.00     0.298 C 
BRANCH  12  13
HETATM   13  N3  UNL     1      15.927 -11.876  18.928  1.00  0.00     0.006 N 
HETATM   14  C5  UNL     1      16.160 -11.512  17.566  1.00  0.00     0.302 C 
HETATM   15  C6  UNL     1      15.608 -13.298  19.066  1.00  0.00     0.302 C 
BRANCH  13  16
HETATM   16  N2  UNL     1      14.754 -11.212  19.342  1.00  0.00    -0.227 N 
ATOM     17  H2  UNL     1      14.638 -10.219  19.143  1.00  0.00     0.193 HD
BRANCH  16  18
HETATM   18  C4  UNL     1      13.745 -11.908  20.024  1.00  0.00     0.143 C 
BRANCH  18  19
HETATM   19  C3  UNL     1      13.126 -11.343  21.074  1.00  0.00     0.050 A 
HETATM   20  N1  UNL     1      12.370 -11.992  21.945  1.00  0.00    -0.355 N 
HETATM   21  C2  UNL     1      11.908 -11.082  22.874  1.00  0.00     0.035 A 
ATOM     22  H1  UNL     1      12.165 -12.991  21.932  1.00  0.00     0.166 HD
HETATM   23  C1  UNL     1      11.134 -11.440  23.860  1.00  0.00     0.044 C 
HETATM   24  C22 UNL     1      12.385  -9.833  22.584  1.00  0.00     0.009 A 
HETATM   25  C21 UNL     1      13.162 -10.019  21.428  1.00  0.00     0.046 A 
BRANCH  24  26
HETATM   26  C23 UNL     1      12.235  -8.542  23.190  1.00  0.00     0.120 C 
HETATM   27  N7  UNL     1      12.766  -8.036  24.216  1.00  0.00    -0.318 N 
ATOM     28  H7  UNL     1      13.431  -8.579  24.766  1.00  0.00     0.185 HD
BRANCH  27  29
HETATM   29  N8  UNL     1      12.435  -6.697  24.612  1.00  0.00    -0.345 N 
ATOM     30  H82 UNL     1      12.980  -5.921  24.234  1.00  0.00     0.176 HD
ATOM     31  H81 UNL     1      11.666  -6.530  25.260  1.00  0.00     0.176 HD
ENDBRANCH  27  29
ENDBRANCH  24  26
ENDBRANCH  18  19
ENDBRANCH  16  18
ENDBRANCH  13  16
ENDBRANCH  12  13
ENDBRANCH   1  12
BRANCH   6  32
HETATM   32  C11 UNL     1      20.645 -14.115  23.040  1.00  0.00     0.251 C 
HETATM   33  O1  UNL     1      21.611 -13.332  23.164  1.00  0.00    -0.271 OA
HETATM   34  N5  UNL     1      20.435 -15.110  24.017  1.00  0.00    -0.354 N 
ATOM     35  H5  UNL     1      19.648 -15.754  23.924  1.00  0.00     0.162 HD
BRANCH  34  36
HETATM   36  C12 UNL     1      21.320 -15.223  25.139  1.00  0.00     0.091 C 
BRANCH  36  37
HETATM   37  C13 UNL     1      21.920 -16.592  25.140  1.00  0.00     0.001 C 
HETATM   38  C14 UNL     1      22.748 -16.899  23.900  1.00  0.00     0.011 C 
HETATM   39  C15 UNL     1      22.725 -16.955  26.337  1.00  0.00     0.011 C 
ENDBRANCH  36  37
BRANCH  36  40
HETATM   40  C16 UNL     1      20.587 -14.800  26.359  1.00  0.00     0.001 C 
HETATM   41  C17 UNL     1      20.748 -13.324  26.698  1.00  0.00     0.011 C 
HETATM   42  C18 UNL     1      19.179 -15.265  26.490  1.00  0.00     0.011 C 
ENDBRANCH  36  40
ENDBRANCH  34  36
ENDBRANCH   6  32
TORSDOF 11
ENDMDL
MODEL 2
REMARK VINA RESULT: -8.637316096      1.036      1.418
REMARK  11 active torsions:
REMARK  status: ('A' for Active; 'I' for Inactive)
REMARK    1  A    between atoms: C3_5  and  C4_6 
REMARK    2  A    between atoms: C4_6  and  N2_7 
REMARK    3  A    between atoms: N2_7  and  N3_9 
REMARK    4  A    between atoms: N3_9  and  C7_12 
REMARK    5  A    between atoms: C7_12  and  C8_13 
REMARK    6  A    between atoms: C10_18  and  C11_19 
REMARK       I    between atoms: C11_19  and  N5_21 
REMARK    7  A    between atoms: N5_21  and  C12_23 
REMARK    8  A    between atoms: C12_23  and  C13_24 
REMARK    9  A    between atoms: C12_23  and  C16_27 
REMARK   10  A    between atoms: C22_36  and  C23_37 
REMARK   11  A    between atoms: N7_38  and  N8_40 
ROOT
HETATM    1  C8  UNL     1      17.372 -12.911  20.434  1.00  0.00     0.240 C 
HETATM    2  C9  UNL     1      18.862 -12.634  20.133  1.00  0.00     0.268 C 
HETATM    3  N4  UNL     1      19.708 -13.047  21.218  1.00  0.00    -0.058 N 
ATOM      4  H41 UNL     1      19.668 -12.382  21.990  1.00  0.00     0.278 HD
ATOM      5  H42 UNL     1      20.693 -12.953  20.972  1.00  0.00     0.278 HD
HETATM    6  C10 UNL     1      19.408 -14.388  21.669  1.00  0.00     0.307 C 
HETATM    7  C19 UNL     1      17.960 -14.493  22.030  1.00  0.00     0.222 C 
HETATM    8  C20 UNL     1      17.330 -15.558  21.189  1.00  0.00     0.043 C 
HETATM    9  N6  UNL     1      17.316 -13.182  21.831  1.00  0.00    -0.061 N 
ATOM     10  H61 UNL     1      16.371 -13.134  22.213  1.00  0.00     0.278 HD
ATOM     11  H62 UNL     1      17.723 -12.442  22.402  1.00  0.00     0.278 HD
ENDROOT
BRANCH   1  12
HETATM   12  C7  UNL     1      16.631 -11.728  19.940  1.00  0.00     0.298 C 
BRANCH  12  13
HETATM   13  N3  UNL     1      15.656 -11.910  18.927  1.00  0.00     0.006 N 
HETATM   14  C5  UNL     1      15.969 -11.404  17.628  1.00  0.00     0.302 C 
HETATM   15  C6  UNL     1      15.292 -13.328  18.888  1.00  0.00     0.302 C 
BRANCH  13  16
HETATM   16  N2  UNL     1      14.483 -11.259  19.356  1.00  0.00    -0.227 N 
ATOM     17  H2  UNL     1      14.341 -10.273  19.133  1.00  0.00     0.193 HD
BRANCH  16  18
HETATM   18  C4  UNL     1      13.508 -11.954  20.086  1.00  0.00     0.143 C 
BRANCH  18  19
HETATM   19  C3  UNL     1      12.933 -11.386  21.159  1.00  0.00     0.050 A 
HETATM   20  N1  UNL     1      12.224 -12.034  22.069  1.00  0.00    -0.355 N 
HETATM   21  C2  UNL     1      11.798 -11.120  23.012  1.00  0.00     0.035 A 
ATOM     22  H1  UNL     1      12.026 -13.035  22.073  1.00  0.00     0.166 HD
HETATM   23  C1  UNL     1      11.073 -11.476  24.035  1.00  0.00     0.044 C 
HETATM   24  C22 UNL     1      12.251  -9.870  22.690  1.00  0.00     0.009 A 
HETATM   25  C21 UNL     1      12.975 -10.059  21.502  1.00  0.00     0.046 A 
BRANCH  24  26
HETATM   26  C23 UNL     1      12.118  -8.575  23.293  1.00  0.00     0.120 C 
HETATM   27  N7  UNL     1      12.767  -8.016  24.220  1.00  0.00    -0.318 N 
ATOM     28  H7  UNL     1      13.538  -8.509  24.671  1.00  0.00     0.185 HD
BRANCH  27  29
HETATM   29  N8  UNL     1      12.423  -6.689  24.641  1.00  0.00    -0.345 N 
ATOM     30  H82 UNL     1      12.154  -6.533  25.613  1.00  0.00     0.176 HD
ATOM     31  H81 UNL     1      12.448  -5.918  23.974  1.00  0.00     0.176 HD
ENDBRANCH  27  29
ENDBRANCH  24  26
ENDBRANCH  18  19
ENDBRANCH  16  18
ENDBRANCH  13  16
ENDBRANCH  12  13
ENDBRANCH   1  12
BRANCH   6  32
HETATM   32  C11 UNL     1      20.219 -14.718  22.863  1.00  0.00     0.251 C 
HETATM   33  O1  UNL     1      21.265 -15.388  22.733  1.00  0.00    -0.271 OA
HETATM   34  N5  UNL     1      19.832 -14.288  24.150  1.00  0.00    -0.354 N 
ATOM     35  H5  UNL     1      18.978 -13.740  24.266  1.00  0.00     0.162 HD
BRANCH  34  36
HETATM   36  C12 UNL     1      20.629 -14.616  25.295  1.00  0.00     0.091 C 
BRANCH  36  37
HETATM   37  C13 UNL     1      19.845 -15.531  26.179  1.00  0.00     0.001 C 
HETATM   38  C14 UNL     1      18.337 -15.394  26.018  1.00  0.00     0.011 C 
HETATM   39  C15 UNL     1      20.191 -16.975  26.102  1.00  0.00     0.011 C 
ENDBRANCH  36  37
BRANCH  36  40
HETATM   40  C16 UNL     1      21.132 -13.355  25.894  1.00  0.00     0.001 C 
HETATM   41  C17 UNL     1      20.845 -12.114  25.059  1.00  0.00     0.011 C 
HETATM   42  C18 UNL     1      20.855 -13.144  27.342  1.00  0.00     0.011 C 
ENDBRANCH  36  40
ENDBRANCH  34  36
ENDBRANCH   6  32
TORSDOF 11
ENDMDL
MODEL 3
REMARK VINA RESULT: -8.322252531      1.109      2.063
REMARK  11 active torsions:
REMARK  status: ('A' for Active; 'I' for Inactive)
REMARK    1  A    between atoms: C3_5  and  C4_6 
REMARK    2  A    between atoms: C4_6  and  N2_7 
REMARK    3  A    between atoms: N2_7  and  N3_9 
REMARK    4  A    between atoms: N3_9  and  C7_12 
REMARK    5  A    between atoms: C7_12  and  C8_13 
REMARK    6  A    between atoms: C10_18  and  C11_19 
REMARK       I    between atoms: C11_19  and  N5_21 
REMARK    7  A    between atoms: N5_21  and  C12_23 
REMARK    8  A    between atoms: C12_23  and  C13_24 
REMARK    9  A    between atoms: C12_23  and  C16_27 
REMARK   10  A    between atoms: C22_36  and  C23_37 
REMARK   11  A    between atoms: N7_38  and  N8_40 
ROOT
HETATM    1  C8  UNL     1      17.129 -12.976  20.479  1.00  0.00     0.240 C 
HETATM    2  C9  UNL     1      18.654 -12.779  20.328  1.00  0.00     0.268 C 
HETATM    3  N4  UNL     1      19.363 -13.216  21.498  1.00  0.00    -0.058 N 
ATOM      4  H41 UNL     1      19.280 -12.538  22.254  1.00  0.00     0.278 HD
ATOM      5  H42 UNL     1      20.372 -13.176  21.353  1.00  0.00     0.278 HD
HETATM    6  C10 UNL     1      18.951 -14.533  21.932  1.00  0.00     0.307 C 
HETATM    7  C19 UNL     1      17.470 -14.559  22.144  1.00  0.00     0.222 C 
HETATM    8  C20 UNL     1      16.874 -15.605  21.255  1.00  0.00     0.043 C 
HETATM    9  N6  UNL     1      16.918 -13.221  21.865  1.00  0.00    -0.061 N 
ATOM     10  H61 UNL     1      15.943 -13.119  22.148  1.00  0.00     0.278 HD
ATOM     11  H62 UNL     1      17.303 -12.492  22.466  1.00  0.00     0.278 HD
ENDROOT
BRANCH   1  12
HETATM   12  C7  UNL     1      16.504 -11.766  19.898  1.00  0.00     0.298 C 
BRANCH  12  13
HETATM   13  N3  UNL     1      15.552 -11.923  18.860  1.00  0.00     0.006 N 
HETATM   14  C5  UNL     1      15.877 -11.354  17.590  1.00  0.00     0.302 C 
HETATM   15  C6  UNL     1      15.219 -13.345  18.752  1.00  0.00     0.302 C 
BRANCH  13  16
HETATM   16  N2  UNL     1      14.357 -11.315  19.295  1.00  0.00    -0.227 N 
ATOM     17  H2  UNL     1      14.138 -10.363  19.002  1.00  0.00     0.193 HD
BRANCH  16  18
HETATM   18  C4  UNL     1      13.467 -12.009  20.127  1.00  0.00     0.143 C 
BRANCH  18  19
HETATM   19  C3  UNL     1      12.920 -11.398  21.191  1.00  0.00     0.050 A 
HETATM   20  N1  UNL     1      12.216 -12.006  22.133  1.00  0.00    -0.355 N 
HETATM   21  C2  UNL     1      11.822 -11.056  23.054  1.00  0.00     0.035 A 
ATOM     22  H1  UNL     1      12.002 -13.002  22.172  1.00  0.00     0.166 HD
HETATM   23  C1  UNL     1      11.109 -11.367  24.099  1.00  0.00     0.044 C 
HETATM   24  C22 UNL     1      12.290  -9.824  22.685  1.00  0.00     0.009 A 
HETATM   25  C21 UNL     1      12.990 -10.063  21.491  1.00  0.00     0.046 A 
BRANCH  24  26
HETATM   26  C23 UNL     1      12.189  -8.509  23.249  1.00  0.00     0.120 C 
HETATM   27  N7  UNL     1      12.674  -8.015  24.304  1.00  0.00    -0.318 N 
ATOM     28  H7  UNL     1      13.252  -8.589  24.917  1.00  0.00     0.185 HD
BRANCH  27  29
HETATM   29  N8  UNL     1      12.414  -6.645  24.642  1.00  0.00    -0.345 N 
ATOM     30  H82 UNL     1      11.496  -6.392  25.008  1.00  0.00     0.176 HD
ATOM     31  H81 UNL     1      13.141  -5.940  24.516  1.00  0.00     0.176 HD
ENDBRANCH  27  29
ENDBRANCH  24  26
ENDBRANCH  18  19
ENDBRANCH  16  18
ENDBRANCH  13  16
ENDBRANCH  12  13
ENDBRANCH   1  12
BRANCH   6  32
HETATM   32  C11 UNL     1      19.618 -14.883  23.206  1.00  0.00     0.251 C 
HETATM   33  O1  UNL     1      19.058 -15.668  24.001  1.00  0.00    -0.271 OA
HETATM   34  N5  UNL     1      20.879 -14.347  23.540  1.00  0.00    -0.354 N 
ATOM     35  H5  UNL     1      21.344 -13.706  22.897  1.00  0.00     0.162 HD
BRANCH  34  36
HETATM   36  C12 UNL     1      21.511 -14.699  24.779  1.00  0.00     0.091 C 
BRANCH  36  37
HETATM   37  C13 UNL     1      21.348 -13.564  25.738  1.00  0.00     0.001 C 
HETATM   38  C14 UNL     1      20.897 -12.266  25.082  1.00  0.00     0.011 C 
HETATM   39  C15 UNL     1      20.471 -13.819  26.913  1.00  0.00     0.011 C 
ENDBRANCH  36  37
BRANCH  36  40
HETATM   40  C16 UNL     1      22.894 -15.151  24.489  1.00  0.00     0.001 C 
HETATM   41  C17 UNL     1      22.971 -16.504  23.793  1.00  0.00     0.011 C 
HETATM   42  C18 UNL     1      23.815 -14.147  23.888  1.00  0.00     0.011 C 
ENDBRANCH  36  40
ENDBRANCH  34  36
ENDBRANCH   6  32
TORSDOF 11
ENDMDL
MODEL 4
REMARK VINA RESULT: -8.292215658      1.598      2.419
REMARK  11 active torsions:
REMARK  status: ('A' for Active; 'I' for Inactive)
REMARK    1  A    between atoms: C3_5  and  C4_6 
REMARK    2  A    between atoms: C4_6  and  N2_7 
REMARK    3  A    between atoms: N2_7  and  N3_9 
REMARK    4  A    between atoms: N3_9  and  C7_12 
REMARK    5  A    between atoms: C7_12  and  C8_13 
REMARK    6  A    between atoms: C10_18  and  C11_19 
REMARK       I    between atoms: C11_19  and  N5_21 
REMARK    7  A    between atoms: N5_21  and  C12_23 
REMARK    8  A    between atoms: C12_23  and  C13_24 
REMARK    9  A    between atoms: C12_23  and  C16_27 
REMARK   10  A    between atoms: C22_36  and  C23_37 
REMARK   11  A    between atoms: N7_38  and  N8_40 
ROOT
HETATM    1  C8  UNL     1      16.597 -13.183  20.969  1.00  0.00     0.240 C 
HETATM    2  C9  UNL     1      17.971 -12.574  20.610  1.00  0.00     0.268 C 
HETATM    3  N4  UNL     1      18.986 -12.966  21.548  1.00  0.00    -0.058 N 
ATOM      4  H41 UNL     1      18.904 -12.444  22.420  1.00  0.00     0.278 HD
ATOM      5  H42 UNL     1      19.906 -12.643  21.250  1.00  0.00     0.278 HD
HETATM    6  C10 UNL     1      18.987 -14.392  21.792  1.00  0.00     0.307 C 
HETATM    7  C19 UNL     1      17.629 -14.835  22.235  1.00  0.00     0.222 C 
HETATM    8  C20 UNL     1      17.123 -15.867  21.278  1.00  0.00     0.043 C 
HETATM    9  N6  UNL     1      16.736 -13.663  22.302  1.00  0.00    -0.061 N 
ATOM     10  H61 UNL     1      15.844 -13.861  22.754  1.00  0.00     0.278 HD
ATOM     11  H62 UNL     1      17.056 -12.949  22.956  1.00  0.00     0.278 HD
ENDROOT
BRANCH   1  12
HETATM   12  C7  UNL     1      15.603 -12.112  20.731  1.00  0.00     0.298 C 
BRANCH  12  13
HETATM   13  N3  UNL     1      14.663 -12.276  19.684  1.00  0.00     0.006 N 
HETATM   14  C5  UNL     1      14.955 -11.630  18.443  1.00  0.00     0.302 C 
HETATM   15  C6  UNL     1      14.413 -13.708  19.510  1.00  0.00     0.302 C 
BRANCH  13  16
HETATM   16  N2  UNL     1      13.434 -11.759  20.142  1.00  0.00    -0.227 N 
ATOM     17  H2  UNL     1      12.610 -12.360  20.165  1.00  0.00     0.193 HD
BRANCH  16  18
HETATM   18  C4  UNL     1      13.336 -10.426  20.567  1.00  0.00     0.143 C 
BRANCH  18  19
HETATM   19  C3  UNL     1      12.792 -10.135  21.760  1.00  0.00     0.050 A 
HETATM   20  N1  UNL     1      12.721  -8.922  22.283  1.00  0.00    -0.355 N 
HETATM   21  C2  UNL     1      12.101  -9.019  23.512  1.00  0.00     0.035 A 
ATOM     22  H1  UNL     1      13.065  -8.063  21.852  1.00  0.00     0.166 HD
HETATM   23  C1  UNL     1      11.893  -7.973  24.262  1.00  0.00     0.044 C 
HETATM   24  C22 UNL     1      11.772 -10.322  23.768  1.00  0.00     0.009 A 
HETATM   25  C21 UNL     1      12.222 -11.022  22.636  1.00  0.00     0.046 A 
BRANCH  24  26
HETATM   26  C23 UNL     1      11.130 -10.993  24.862  1.00  0.00     0.120 C 
HETATM   27  N7  UNL     1      11.070 -12.215  25.171  1.00  0.00    -0.318 N 
ATOM     28  H7  UNL     1      11.537 -12.911  24.589  1.00  0.00     0.185 HD
BRANCH  27  29
HETATM   29  N8  UNL     1      10.348 -12.627  26.340  1.00  0.00    -0.345 N 
ATOM     30  H82 UNL     1       9.728 -11.959  26.798  1.00  0.00     0.176 HD
ATOM     31  H81 UNL     1      10.457 -13.575  26.701  1.00  0.00     0.176 HD
ENDBRANCH  27  29
ENDBRANCH  24  26
ENDBRANCH  18  19
ENDBRANCH  16  18
ENDBRANCH  13  16
ENDBRANCH  12  13
ENDBRANCH   1  12
BRANCH   6  32
HETATM   32  C11 UNL     1      19.964 -14.726  22.854  1.00  0.00     0.251 C 
HETATM   33  O1  UNL     1      20.981 -15.394  22.569  1.00  0.00    -0.271 OA
HETATM   34  N5  UNL     1      19.768 -14.304  24.185  1.00  0.00    -0.354 N 
ATOM     35  H5  UNL     1      18.940 -13.758  24.427  1.00  0.00     0.162 HD
BRANCH  34  36
HETATM   36  C12 UNL     1      20.724 -14.637  25.200  1.00  0.00     0.091 C 
BRANCH  36  37
HETATM   37  C13 UNL     1      20.148 -15.709  26.068  1.00  0.00     0.001 C 
HETATM   38  C14 UNL     1      18.626 -15.744  26.070  1.00  0.00     0.011 C 
HETATM   39  C15 UNL     1      20.644 -17.090  25.823  1.00  0.00     0.011 C 
ENDBRANCH  36  37
BRANCH  36  40
HETATM   40  C16 UNL     1      21.159 -13.384  25.865  1.00  0.00     0.001 C 
HETATM   41  C17 UNL     1      20.845 -12.121  25.073  1.00  0.00     0.011 C 
HETATM   42  C18 UNL     1      20.836 -13.245  27.311  1.00  0.00     0.011 C 
ENDBRANCH  36  40
ENDBRANCH  34  36
ENDBRANCH   6  32
TORSDOF 11
ENDMDL
MODEL 5
REMARK VINA RESULT: -8.272396751      1.434      2.122
REMARK  11 active torsions:
REMARK  status: ('A' for Active; 'I' for Inactive)
REMARK    1  A    between atoms: C3_5  and  C4_6 
REMARK    2  A    between atoms: C4_6  and  N2_7 
REMARK    3  A    between atoms: N2_7  and  N3_9 
REMARK    4  A    between atoms: N3_9  and  C7_12 
REMARK    5  A    between atoms: C7_12  and  C8_13 
REMARK    6  A    between atoms: C10_18  and  C11_19 
REMARK       I    between atoms: C11_19  and  N5_21 
REMARK    7  A    between atoms: N5_21  and  C12_23 
REMARK    8  A    between atoms: C12_23  and  C13_24 
REMARK    9  A    between atoms: C12_23  and  C16_27 
REMARK   10  A    between atoms: C22_36  and  C23_37 
REMARK   11  A    between atoms: N7_38  and  N8_40 
ROOT
HETATM    1  C8  UNL     1      16.654 -12.927  21.009  1.00  0.00     0.240 C 
HETATM    2  C9  UNL     1      17.969 -12.298  20.495  1.00  0.00     0.268 C 
HETATM    3  N4  UNL     1      19.056 -12.524  21.407  1.00  0.00    -0.058 N 
ATOM      4  H41 UNL     1      18.994 -11.904  22.214  1.00  0.00     0.278 HD
ATOM      5  H42 UNL     1      19.938 -12.195  21.015  1.00  0.00     0.278 HD
HETATM    6  C10 UNL     1      19.151 -13.907  21.817  1.00  0.00     0.307 C 
HETATM    7  C19 UNL     1      17.847 -14.360  22.394  1.00  0.00     0.222 C 
HETATM    8  C20 UNL     1      17.347 -15.524  21.599  1.00  0.00     0.043 C 
HETATM    9  N6  UNL     1      16.895 -13.234  22.377  1.00  0.00    -0.061 N 
ATOM     10  H61 UNL     1      16.042 -13.419  22.906  1.00  0.00     0.278 HD
ATOM     11  H62 UNL     1      17.211 -12.431  22.922  1.00  0.00     0.278 HD
ENDROOT
BRANCH   1  12
HETATM   12  C7  UNL     1      15.590 -11.942  20.709  1.00  0.00     0.298 C 
BRANCH  12  13
HETATM   13  N3  UNL     1      14.641 -12.250  19.703  1.00  0.00     0.006 N 
HETATM   14  C5  UNL     1      14.923 -11.785  18.381  1.00  0.00     0.302 C 
HETATM   15  C6  UNL     1      14.390 -13.692  19.732  1.00  0.00     0.302 C 
BRANCH  13  16
HETATM   16  N2  UNL     1      13.416 -11.674  20.094  1.00  0.00    -0.227 N 
ATOM     17  H2  UNL     1      12.557 -12.219  20.029  1.00  0.00     0.193 HD
BRANCH  16  18
HETATM   18  C4  UNL     1      13.369 -10.355  20.571  1.00  0.00     0.143 C 
BRANCH  18  19
HETATM   19  C3  UNL     1      12.799 -10.085  21.756  1.00  0.00     0.050 A 
HETATM   20  N1  UNL     1      12.687  -8.877  22.284  1.00  0.00    -0.355 N 
HETATM   21  C2  UNL     1      12.051  -8.998  23.503  1.00  0.00     0.035 A 
ATOM     22  H1  UNL     1      13.015  -8.007  21.863  1.00  0.00     0.166 HD
HETATM   23  C1  UNL     1      11.804  -7.962  24.254  1.00  0.00     0.044 C 
HETATM   24  C22 UNL     1      11.754 -10.310  23.747  1.00  0.00     0.009 A 
HETATM   25  C21 UNL     1      12.240 -10.992  22.619  1.00  0.00     0.046 A 
BRANCH  24  26
HETATM   26  C23 UNL     1      11.113 -11.004  24.827  1.00  0.00     0.120 C 
HETATM   27  N7  UNL     1      11.132 -12.219  25.165  1.00  0.00    -0.318 N 
ATOM     28  H7  UNL     1      11.677 -12.890  24.624  1.00  0.00     0.185 HD
BRANCH  27  29
HETATM   29  N8  UNL     1      10.388 -12.660  26.310  1.00  0.00    -0.345 N 
ATOM     30  H82 UNL     1      10.882 -12.824  27.187  1.00  0.00     0.176 HD
ATOM     31  H81 UNL     1       9.380 -12.804  26.241  1.00  0.00     0.176 HD
ENDBRANCH  27  29
ENDBRANCH  24  26
ENDBRANCH  18  19
ENDBRANCH  16  18
ENDBRANCH  13  16
ENDBRANCH  12  13
ENDBRANCH   1  12
BRANCH   6  32
HETATM   32  C11 UNL     1      20.204 -14.063  22.847  1.00  0.00     0.251 C 
HETATM   33  O1  UNL     1      21.269 -13.417  22.745  1.00  0.00    -0.271 OA
HETATM   34  N5  UNL     1      20.026 -14.928  23.947  1.00  0.00    -0.354 N 
ATOM     35  H5  UNL     1      19.159 -15.459  24.040  1.00  0.00     0.162 HD
BRANCH  34  36
HETATM   36  C12 UNL     1      21.056 -15.065  24.935  1.00  0.00     0.091 C 
BRANCH  36  37
HETATM   37  C13 UNL     1      21.736 -16.382  24.739  1.00  0.00     0.001 C 
HETATM   38  C14 UNL     1      22.338 -16.956  26.013  1.00  0.00     0.011 C 
HETATM   39  C15 UNL     1      20.928 -17.447  24.086  1.00  0.00     0.011 C 
ENDBRANCH  36  37
BRANCH  36  40
HETATM   40  C16 UNL     1      20.464 -14.797  26.270  1.00  0.00     0.001 C 
HETATM   41  C17 UNL     1      20.757 -13.403  26.809  1.00  0.00     0.011 C 
HETATM   42  C18 UNL     1      19.044 -15.197  26.467  1.00  0.00     0.011 C 
ENDBRANCH  36  40
ENDBRANCH  34  36
ENDBRANCH   6  32
TORSDOF 11
ENDMDL
