MODEL 1
REMARK VINA RESULT: -7.331081819      0.000      0.000
REMARK  12 active torsions:
REMARK  status: ('A' for Active; 'I' for Inactive)
REMARK    1  A    between atoms: C3_3  and  N1_4 
REMARK    2  A    between atoms: N1_4  and  C4_5 
REMARK    3  A    between atoms: N1_4  and  C5_11 
REMARK    4  A    between atoms: N2_6  and  N3_8 
REMARK    5  A    between atoms: C5_11  and  C6_12 
REMARK    6  A    between atoms: C6_12  and  C7_13 
REMARK    7  A    between atoms: C9_17  and  N5_18 
REMARK    8  A    between atoms: N5_18  and  N6_19 
REMARK    9  A    between atoms: N6_19  and  N7_21 
REMARK   10  A    between atoms: N8_24  and  C10_25 
REMARK   11  A    between atoms: C10_25  and  C11_26 
REMARK   12  A    between atoms: N9_34  and  C19_35 
ROOT
HETATM    1  C1  UNL     1      20.167 -11.913  19.737  1.00  0.00     0.014 C 
HETATM    2  C2  UNL     1      18.973 -11.908  19.586  1.00  0.00    -0.098 C 
HETATM    3  C3  UNL     1      17.516 -11.896  19.373  1.00  0.00     0.216 C 
ENDROOT
BRANCH   3   4
HETATM    4  N1  UNL     1      16.818 -12.000  20.628  1.00  0.00    -0.365 N 
BRANCH   4   5
HETATM    5  C4  UNL     1      15.732 -11.139  20.890  1.00  0.00     0.195 C 
HETATM    6  N2  UNL     1      15.639 -10.018  20.290  1.00  0.00    -0.303 N 
ATOM      7  H2  UNL     1      16.365  -9.762  19.621  1.00  0.00     0.187 HD
BRANCH   6   8
HETATM    8  N3  UNL     1      14.576  -9.117  20.511  1.00  0.00    -0.344 N 
ATOM      9  H32 UNL     1      14.806  -8.125  20.585  1.00  0.00     0.176 HD
ATOM     10  H31 UNL     1      13.605  -9.417  20.597  1.00  0.00     0.176 HD
ENDBRANCH   6   8
ENDBRANCH   4   5
BRANCH   4  11
HETATM   11  C5  UNL     1      17.277 -13.007  21.575  1.00  0.00     0.130 C 
BRANCH  11  12
HETATM   12  C6  UNL     1      17.219 -14.383  20.948  1.00  0.00     0.079 C 
BRANCH  12  13
HETATM   13  C7  UNL     1      16.338 -15.309  21.743  1.00  0.00     0.037 A 
HETATM   14  C8  UNL     1      14.979 -15.159  21.718  1.00  0.00     0.118 A 
HETATM   15  N4  UNL     1      14.485 -16.134  22.442  1.00  0.00    -0.323 N 
HETATM   16  C9  UNL     1      15.484 -16.896  22.921  1.00  0.00     0.289 A 
ATOM     17  H4  UNL     1      13.492 -16.291  22.616  1.00  0.00     0.169 HD
HETATM   18  N8  UNL     1      16.681 -16.360  22.471  1.00  0.00    -0.286 N 
BRANCH  16  19
HETATM   19  N5  UNL     1      15.296 -17.888  23.590  1.00  0.00    -0.272 NA
BRANCH  19  20
HETATM   20  N6  UNL     1      15.146 -18.948  24.284  1.00  0.00    -0.179 N 
ATOM     21  H6  UNL     1      14.338 -19.544  24.101  1.00  0.00     0.223 HD
BRANCH  20  22
HETATM   22  N7  UNL     1      15.978 -19.298  25.212  1.00  0.00    -0.320 N 
ATOM     23  H72 UNL     1      15.958 -18.775  26.087  1.00  0.00     0.179 HD
ATOM     24  H71 UNL     1      16.638 -20.067  25.097  1.00  0.00     0.179 HD
ENDBRANCH  20  22
ENDBRANCH  19  20
ENDBRANCH  16  19
BRANCH  18  25
HETATM   25  C10 UNL     1      17.936 -16.939  22.756  1.00  0.00     0.087 C 
BRANCH  25  26
HETATM   26  C11 UNL     1      18.907 -16.576  23.743  1.00  0.00     0.032 C 
HETATM   27  C12 UNL     1      18.413 -16.548  25.211  1.00  0.00     0.019 C 
HETATM   28  C13 UNL     1      19.036 -15.264  25.819  1.00  0.00     0.012 C 
HETATM   29  C14 UNL     1      19.151 -14.494  24.582  1.00  0.00     0.041 C 
HETATM   30  C15 UNL     1      19.890 -13.298  24.386  1.00  0.00    -0.019 C 
HETATM   31  C18 UNL     1      19.911 -15.554  23.761  1.00  0.00     0.072 C 
HETATM   32  C16 UNL     1      20.410 -13.483  23.001  1.00  0.00    -0.005 C 
HETATM   33  C17 UNL     1      20.403 -14.777  22.685  1.00  0.00     0.006 C 
HETATM   34  N9  UNL     1      21.058 -16.058  24.562  1.00  0.00    -0.350 N 
HETATM   35  C22 UNL     1      20.750 -17.409  24.872  1.00  0.00     0.082 C 
HETATM   36  S1  UNL     1      21.226 -18.368  26.096  1.00  0.00    -0.065 SA
HETATM   37  C23 UNL     1      19.818 -17.881  23.816  1.00  0.00     0.059 C 
HETATM   38  C24 UNL     1      20.520 -18.139  22.548  1.00  0.00     0.018 C 
BRANCH  34  39
HETATM   39  C19 UNL     1      22.239 -15.390  24.972  1.00  0.00     0.218 C 
HETATM   40  C20 UNL     1      23.443 -15.696  24.206  1.00  0.00    -0.098 C 
HETATM   41  C21 UNL     1      24.450 -15.920  23.570  1.00  0.00     0.014 C 
ENDBRANCH  34  39
ENDBRANCH  25  26
ENDBRANCH  18  25
ENDBRANCH  12  13
ENDBRANCH  11  12
ENDBRANCH   4  11
ENDBRANCH   3   4
TORSDOF 12
ENDMDL
MODEL 2
REMARK VINA RESULT: -7.185022193      1.394      1.862
REMARK  12 active torsions:
REMARK  status: ('A' for Active; 'I' for Inactive)
REMARK    1  A    between atoms: C3_3  and  N1_4 
REMARK    2  A    between atoms: N1_4  and  C4_5 
REMARK    3  A    between atoms: N1_4  and  C5_11 
REMARK    4  A    between atoms: N2_6  and  N3_8 
REMARK    5  A    between atoms: C5_11  and  C6_12 
REMARK    6  A    between atoms: C6_12  and  C7_13 
REMARK    7  A    between atoms: C9_17  and  N5_18 
REMARK    8  A    between atoms: N5_18  and  N6_19 
REMARK    9  A    between atoms: N6_19  and  N7_21 
REMARK   10  A    between atoms: N8_24  and  C10_25 
REMARK   11  A    between atoms: C10_25  and  C11_26 
REMARK   12  A    between atoms: N9_34  and  C19_35 
ROOT
HETATM    1  C1  UNL     1      14.860 -14.937  18.282  1.00  0.00     0.014 C 
HETATM    2  C2  UNL     1      15.204 -13.786  18.213  1.00  0.00    -0.098 C 
HETATM    3  C3  UNL     1      15.624 -12.380  18.100  1.00  0.00     0.216 C 
ENDROOT
BRANCH   3   4
HETATM    4  N1  UNL     1      16.041 -11.868  19.380  1.00  0.00    -0.365 N 
BRANCH   4   5
HETATM    5  C4  UNL     1      15.389 -10.740  19.920  1.00  0.00     0.195 C 
HETATM    6  N2  UNL     1      14.242 -10.391  19.489  1.00  0.00    -0.303 N 
ATOM      7  H2  UNL     1      13.810 -10.943  18.749  1.00  0.00     0.187 HD
BRANCH   6   8
HETATM    8  N3  UNL     1      13.542  -9.273  19.991  1.00  0.00    -0.344 N 
ATOM      9  H32 UNL     1      13.804  -8.929  20.916  1.00  0.00     0.176 HD
ATOM     10  H31 UNL     1      12.800  -8.806  19.472  1.00  0.00     0.176 HD
ENDBRANCH   6   8
ENDBRANCH   4   5
BRANCH   4  11
HETATM   11  C5  UNL     1      17.130 -12.557  20.060  1.00  0.00     0.130 C 
BRANCH  11  12
HETATM   12  C6  UNL     1      16.846 -12.652  21.543  1.00  0.00     0.079 C 
BRANCH  12  13
HETATM   13  C7  UNL     1      15.982 -13.843  21.860  1.00  0.00     0.037 A 
HETATM   14  C8  UNL     1      14.623 -13.708  21.942  1.00  0.00     0.118 A 
HETATM   15  N4  UNL     1      14.144 -14.907  22.162  1.00  0.00    -0.323 N 
HETATM   16  C9  UNL     1      15.151 -15.796  22.220  1.00  0.00     0.289 A 
ATOM     17  H4  UNL     1      13.155 -15.133  22.274  1.00  0.00     0.169 HD
HETATM   18  N8  UNL     1      16.339 -15.107  22.027  1.00  0.00    -0.286 N 
BRANCH  16  19
HETATM   19  N5  UNL     1      14.976 -16.984  22.375  1.00  0.00    -0.272 NA
BRANCH  19  20
HETATM   20  N6  UNL     1      14.840 -18.241  22.554  1.00  0.00    -0.179 N 
ATOM     21  H6  UNL     1      13.906 -18.647  22.493  1.00  0.00     0.223 HD
BRANCH  20  22
HETATM   22  N7  UNL     1      15.841 -19.021  22.810  1.00  0.00    -0.320 N 
ATOM     23  H72 UNL     1      16.719 -18.587  23.094  1.00  0.00     0.179 HD
ATOM     24  H71 UNL     1      15.779 -20.037  22.736  1.00  0.00     0.179 HD
ENDBRANCH  20  22
ENDBRANCH  19  20
ENDBRANCH  16  19
BRANCH  18  25
HETATM   25  C10 UNL     1      17.597 -15.743  21.987  1.00  0.00     0.087 C 
BRANCH  25  26
HETATM   26  C11 UNL     1      18.564 -15.924  23.027  1.00  0.00     0.032 C 
HETATM   27  C12 UNL     1      18.022 -16.446  24.381  1.00  0.00     0.019 C 
HETATM   28  C13 UNL     1      18.751 -15.600  25.458  1.00  0.00     0.012 C 
HETATM   29  C14 UNL     1      18.989 -14.408  24.646  1.00  0.00     0.041 C 
HETATM   30  C15 UNL     1      19.853 -13.325  24.952  1.00  0.00    -0.019 C 
HETATM   31  C18 UNL     1      19.666 -15.115  23.454  1.00  0.00     0.072 C 
HETATM   32  C16 UNL     1      20.402 -12.982  23.609  1.00  0.00    -0.005 C 
HETATM   33  C17 UNL     1      20.275 -14.023  22.789  1.00  0.00     0.006 C 
HETATM   34  N9  UNL     1      20.725 -16.024  23.967  1.00  0.00    -0.350 N 
HETATM   35  C22 UNL     1      20.269 -17.341  23.698  1.00  0.00     0.082 C 
HETATM   36  S1  UNL     1      20.599 -18.763  24.414  1.00  0.00    -0.065 SA
HETATM   37  C23 UNL     1      19.333 -17.235  22.549  1.00  0.00     0.059 C 
HETATM   38  C24 UNL     1      20.050 -17.025  21.281  1.00  0.00     0.018 C 
BRANCH  34  39
HETATM   39  C19 UNL     1      21.952 -15.715  24.606  1.00  0.00     0.218 C 
HETATM   40  C20 UNL     1      23.161 -16.101  23.884  1.00  0.00    -0.098 C 
HETATM   41  C21 UNL     1      24.177 -16.395  23.292  1.00  0.00     0.014 C 
ENDBRANCH  34  39
ENDBRANCH  25  26
ENDBRANCH  18  25
ENDBRANCH  12  13
ENDBRANCH  11  12
ENDBRANCH   4  11
ENDBRANCH   3   4
TORSDOF 12
ENDMDL
MODEL 3
REMARK VINA RESULT: -7.143457565      4.276      7.441
REMARK  12 active torsions:
REMARK  status: ('A' for Active; 'I' for Inactive)
REMARK    1  A    between atoms: C3_3  and  N1_4 
REMARK    2  A    between atoms: N1_4  and  C4_5 
REMARK    3  A    between atoms: N1_4  and  C5_11 
REMARK    4  A    between atoms: N2_6  and  N3_8 
REMARK    5  A    between atoms: C5_11  and  C6_12 
REMARK    6  A    between atoms: C6_12  and  C7_13 
REMARK    7  A    between atoms: C9_17  and  N5_18 
REMARK    8  A    between atoms: N5_18  and  N6_19 
REMARK    9  A    between atoms: N6_19  and  N7_21 
REMARK   10  A    between atoms: N8_24  and  C10_25 
REMARK   11  A    between atoms: C10_25  and  C11_26 
REMARK   12  A    between atoms: N9_34  and  C19_35 
ROOT
HETATM    1  C1  UNL     1      12.314  -7.671  24.214  1.00  0.00     0.014 C 
HETATM    2  C2  UNL     1      12.175  -8.596  23.457  1.00  0.00    -0.098 C 
HETATM    3  C3  UNL     1      11.999  -9.709  22.509  1.00  0.00     0.216 C 
ENDROOT
BRANCH   3   4
HETATM    4  N1  UNL     1      11.975 -10.970  23.204  1.00  0.00    -0.365 N 
BRANCH   4   5
HETATM    5  C4  UNL     1      11.285 -11.072  24.430  1.00  0.00     0.195 C 
HETATM    6  N2  UNL     1      11.332 -12.149  25.109  1.00  0.00    -0.303 N 
ATOM      7  H2  UNL     1      11.877 -12.931  24.745  1.00  0.00     0.187 HD
BRANCH   6   8
HETATM    8  N3  UNL     1      10.663 -12.309  26.341  1.00  0.00    -0.344 N 
ATOM      9  H32 UNL     1       9.644 -12.258  26.334  1.00  0.00     0.176 HD
ATOM     10  H31 UNL     1      11.154 -12.470  27.220  1.00  0.00     0.176 HD
ENDBRANCH   6   8
ENDBRANCH   4   5
BRANCH   4  11
HETATM   11  C5  UNL     1      12.674 -12.092  22.591  1.00  0.00     0.130 C 
BRANCH  11  12
HETATM   12  C6  UNL     1      12.934 -11.813  21.128  1.00  0.00     0.079 C 
BRANCH  12  13
HETATM   13  C7  UNL     1      14.397 -11.574  20.868  1.00  0.00     0.037 A 
HETATM   14  C8  UNL     1      14.840 -10.329  20.510  1.00  0.00     0.118 A 
HETATM   15  N4  UNL     1      16.144 -10.413  20.416  1.00  0.00    -0.323 N 
HETATM   16  C9  UNL     1      16.541 -11.665  20.705  1.00  0.00     0.289 A 
ATOM     17  H4  UNL     1      16.765  -9.644  20.162  1.00  0.00     0.169 HD
HETATM   18  N8  UNL     1      15.411 -12.414  20.994  1.00  0.00    -0.286 N 
BRANCH  16  19
HETATM   19  N5  UNL     1      17.705 -11.999  20.729  1.00  0.00    -0.272 NA
BRANCH  19  20
HETATM   20  N6  UNL     1      18.925 -12.374  20.709  1.00  0.00    -0.179 N 
ATOM     21  H6  UNL     1      19.280 -12.929  21.488  1.00  0.00     0.223 HD
BRANCH  20  22
HETATM   22  N7  UNL     1      19.730 -12.079  19.739  1.00  0.00    -0.320 N 
ATOM     23  H72 UNL     1      19.383 -11.457  19.009  1.00  0.00     0.179 HD
ATOM     24  H71 UNL     1      20.681 -12.443  19.683  1.00  0.00     0.179 HD
ENDBRANCH  20  22
ENDBRANCH  19  20
ENDBRANCH  16  19
BRANCH  18  25
HETATM   25  C10 UNL     1      15.468 -13.770  21.379  1.00  0.00     0.087 C 
BRANCH  25  26
HETATM   26  C11 UNL     1      15.241 -14.952  20.605  1.00  0.00     0.032 C 
HETATM   27  C12 UNL     1      15.843 -14.960  19.178  1.00  0.00     0.019 C 
HETATM   28  C13 UNL     1      14.736 -15.572  18.279  1.00  0.00     0.012 C 
HETATM   29  C14 UNL     1      13.584 -15.178  19.087  1.00  0.00     0.041 C 
HETATM   30  C15 UNL     1      12.252 -15.649  18.960  1.00  0.00    -0.019 C 
HETATM   31  C18 UNL     1      14.074 -15.763  20.426  1.00  0.00     0.072 C 
HETATM   32  C16 UNL     1      11.813 -15.712  20.384  1.00  0.00    -0.005 C 
HETATM   33  C17 UNL     1      12.877 -15.774  21.182  1.00  0.00     0.006 C 
HETATM   34  N9  UNL     1      14.524 -17.164  20.207  1.00  0.00    -0.350 N 
HETATM   35  C22 UNL     1      15.930 -17.153  20.402  1.00  0.00     0.082 C 
HETATM   36  S1  UNL     1      17.104 -18.122  19.829  1.00  0.00    -0.065 SA
HETATM   37  C23 UNL     1      16.223 -16.001  21.292  1.00  0.00     0.059 C 
HETATM   38  C24 UNL     1      15.846 -16.282  22.687  1.00  0.00     0.018 C 
BRANCH  34  39
HETATM   39  C19 UNL     1      13.769 -18.315  19.869  1.00  0.00     0.218 C 
HETATM   40  C20 UNL     1      13.444 -19.211  20.974  1.00  0.00    -0.098 C 
HETATM   41  C21 UNL     1      13.145 -19.958  21.881  1.00  0.00     0.014 C 
ENDBRANCH  34  39
ENDBRANCH  25  26
ENDBRANCH  18  25
ENDBRANCH  12  13
ENDBRANCH  11  12
ENDBRANCH   4  11
ENDBRANCH   3   4
TORSDOF 12
ENDMDL
MODEL 4
REMARK VINA RESULT: -7.041813227      2.824      7.580
REMARK  12 active torsions:
REMARK  status: ('A' for Active; 'I' for Inactive)
REMARK    1  A    between atoms: C3_3  and  N1_4 
REMARK    2  A    between atoms: N1_4  and  C4_5 
REMARK    3  A    between atoms: N1_4  and  C5_11 
REMARK    4  A    between atoms: N2_6  and  N3_8 
REMARK    5  A    between atoms: C5_11  and  C6_12 
REMARK    6  A    between atoms: C6_12  and  C7_13 
REMARK    7  A    between atoms: C9_17  and  N5_18 
REMARK    8  A    between atoms: N5_18  and  N6_19 
REMARK    9  A    between atoms: N6_19  and  N7_21 
REMARK   10  A    between atoms: N8_24  and  C10_25 
REMARK   11  A    between atoms: C10_25  and  C11_26 
REMARK   12  A    between atoms: N9_34  and  C19_35 
ROOT
HETATM    1  C1  UNL     1      20.932 -12.924  27.013  1.00  0.00     0.014 C 
HETATM    2  C2  UNL     1      20.812 -13.865  26.273  1.00  0.00    -0.098 C 
HETATM    3  C3  UNL     1      20.667 -15.035  25.390  1.00  0.00     0.216 C 
ENDROOT
BRANCH   3   4
HETATM    4  N1  UNL     1      20.768 -14.644  24.008  1.00  0.00    -0.365 N 
BRANCH   4   5
HETATM    5  C4  UNL     1      21.954 -14.038  23.545  1.00  0.00     0.195 C 
HETATM    6  N2  UNL     1      23.080 -14.610  23.717  1.00  0.00    -0.303 N 
ATOM      7  H2  UNL     1      23.102 -15.510  24.194  1.00  0.00     0.187 HD
BRANCH   6   8
HETATM    8  N3  UNL     1      24.298 -14.051  23.275  1.00  0.00    -0.344 N 
ATOM      9  H32 UNL     1      24.250 -13.284  22.604  1.00  0.00     0.176 HD
ATOM     10  H31 UNL     1      25.208 -14.381  23.598  1.00  0.00     0.176 HD
ENDBRANCH   6   8
ENDBRANCH   4   5
BRANCH   4  11
HETATM   11  C5  UNL     1      19.621 -14.904  23.147  1.00  0.00     0.130 C 
BRANCH  11  12
HETATM   12  C6  UNL     1      19.994 -14.690  21.696  1.00  0.00     0.079 C 
BRANCH  12  13
HETATM   13  C7  UNL     1      19.379 -13.428  21.153  1.00  0.00     0.037 A 
HETATM   14  C8  UNL     1      20.169 -12.459  20.597  1.00  0.00     0.118 A 
HETATM   15  N4  UNL     1      19.359 -11.526  20.162  1.00  0.00    -0.323 N 
HETATM   16  C9  UNL     1      18.086 -11.871  20.421  1.00  0.00     0.289 A 
ATOM     17  H4  UNL     1      19.650 -10.666  19.697  1.00  0.00     0.169 HD
HETATM   18  N8  UNL     1      18.100 -13.100  21.064  1.00  0.00    -0.286 N 
BRANCH  16  19
HETATM   19  N5  UNL     1      17.137 -11.197  20.086  1.00  0.00    -0.272 NA
BRANCH  19  20
HETATM   20  N6  UNL     1      16.113 -10.530  19.718  1.00  0.00    -0.179 N 
ATOM     21  H6  UNL     1      15.953 -10.387  18.721  1.00  0.00     0.223 HD
BRANCH  20  22
HETATM   22  N7  UNL     1      15.268 -10.028  20.561  1.00  0.00    -0.320 N 
ATOM     23  H72 UNL     1      15.446 -10.175  21.554  1.00  0.00     0.179 HD
ATOM     24  H71 UNL     1      14.447  -9.499  20.268  1.00  0.00     0.179 HD
ENDBRANCH  20  22
ENDBRANCH  19  20
ENDBRANCH  16  19
BRANCH  18  25
HETATM   25  C10 UNL     1      16.925 -13.779  21.447  1.00  0.00     0.087 C 
BRANCH  25  26
HETATM   26  C11 UNL     1      15.987 -14.507  20.647  1.00  0.00     0.032 C 
HETATM   27  C12 UNL     1      16.098 -14.311  19.115  1.00  0.00     0.019 C 
HETATM   28  C13 UNL     1      14.634 -14.177  18.621  1.00  0.00     0.012 C 
HETATM   29  C14 UNL     1      14.056 -13.648  19.854  1.00  0.00     0.041 C 
HETATM   30  C15 UNL     1      12.677 -13.536  20.172  1.00  0.00    -0.019 C 
HETATM   31  C18 UNL     1      14.582 -14.741  20.804  1.00  0.00     0.072 C 
HETATM   32  C16 UNL     1      12.672 -13.855  21.629  1.00  0.00    -0.005 C 
HETATM   33  C17 UNL     1      13.771 -14.537  21.946  1.00  0.00     0.006 C 
HETATM   34  N9  UNL     1      14.277 -16.076  20.223  1.00  0.00    -0.350 N 
HETATM   35  C22 UNL     1      15.531 -16.640  19.870  1.00  0.00     0.082 C 
HETATM   36  S1  UNL     1      15.935 -17.755  18.756  1.00  0.00    -0.065 SA
HETATM   37  C23 UNL     1      16.544 -15.997  20.746  1.00  0.00     0.059 C 
HETATM   38  C24 UNL     1      16.486 -16.521  22.120  1.00  0.00     0.018 C 
BRANCH  34  39
HETATM   39  C19 UNL     1      13.026 -16.713  20.026  1.00  0.00     0.218 C 
HETATM   40  C20 UNL     1      12.840 -17.982  20.724  1.00  0.00    -0.098 C 
HETATM   41  C21 UNL     1      12.657 -19.026  21.312  1.00  0.00     0.014 C 
ENDBRANCH  34  39
ENDBRANCH  25  26
ENDBRANCH  18  25
ENDBRANCH  12  13
ENDBRANCH  11  12
ENDBRANCH   4  11
ENDBRANCH   3   4
TORSDOF 12
ENDMDL
MODEL 5
REMARK VINA RESULT: -7.023217498      3.046      7.414
REMARK  12 active torsions:
REMARK  status: ('A' for Active; 'I' for Inactive)
REMARK    1  A    between atoms: C3_3  and  N1_4 
REMARK    2  A    between atoms: N1_4  and  C4_5 
REMARK    3  A    between atoms: N1_4  and  C5_11 
REMARK    4  A    between atoms: N2_6  and  N3_8 
REMARK    5  A    between atoms: C5_11  and  C6_12 
REMARK    6  A    between atoms: C6_12  and  C7_13 
REMARK    7  A    between atoms: C9_17  and  N5_18 
REMARK    8  A    between atoms: N5_18  and  N6_19 
REMARK    9  A    between atoms: N6_19  and  N7_21 
REMARK   10  A    between atoms: N8_24  and  C10_25 
REMARK   11  A    between atoms: C10_25  and  C11_26 
REMARK   12  A    between atoms: N9_34  and  C19_35 
ROOT
HETATM    1  C1  UNL     1      18.666 -16.343  25.300  1.00  0.00     0.014 C 
HETATM    2  C2  UNL     1      18.784 -15.323  24.674  1.00  0.00    -0.098 C 
HETATM    3  C3  UNL     1      18.901 -14.066  23.915  1.00  0.00     0.216 C 
ENDROOT
BRANCH   3   4
HETATM    4  N1  UNL     1      20.110 -14.056  23.131  1.00  0.00    -0.365 N 
BRANCH   4   5
HETATM    5  C4  UNL     1      21.314 -14.508  23.709  1.00  0.00     0.195 C 
HETATM    6  N2  UNL     1      22.424 -13.967  23.393  1.00  0.00    -0.303 N 
ATOM      7  H2  UNL     1      22.419 -13.205  22.717  1.00  0.00     0.187 HD
BRANCH   6   8
HETATM    8  N3  UNL     1      23.659 -14.378  23.939  1.00  0.00    -0.344 N 
ATOM      9  H32 UNL     1      24.304 -14.875  23.325  1.00  0.00     0.176 HD
ATOM     10  H31 UNL     1      23.923 -14.197  24.907  1.00  0.00     0.176 HD
ENDBRANCH   6   8
ENDBRANCH   4   5
BRANCH   4  11
HETATM   11  C5  UNL     1      20.021 -13.573  21.759  1.00  0.00     0.130 C 
BRANCH  11  12
HETATM   12  C6  UNL     1      18.741 -14.057  21.114  1.00  0.00     0.079 C 
BRANCH  12  13
HETATM   13  C7  UNL     1      17.827 -12.908  20.781  1.00  0.00     0.037 A 
HETATM   14  C8  UNL     1      18.158 -11.634  21.153  1.00  0.00     0.118 A 
HETATM   15  N4  UNL     1      17.218 -10.854  20.677  1.00  0.00    -0.323 N 
HETATM   16  C9  UNL     1      16.308 -11.590  20.016  1.00  0.00     0.289 A 
ATOM     17  H4  UNL     1      17.183  -9.840  20.791  1.00  0.00     0.169 HD
HETATM   18  N8  UNL     1      16.701 -12.917  20.086  1.00  0.00    -0.286 N 
BRANCH  16  19
HETATM   19  N5  UNL     1      15.355 -11.105  19.446  1.00  0.00    -0.272 NA
BRANCH  19  20
HETATM   20  N6  UNL     1      14.320 -10.623  18.876  1.00  0.00    -0.179 N 
ATOM     21  H6  UNL     1      14.050 -10.985  17.961  1.00  0.00     0.223 HD
BRANCH  20  22
HETATM   22  N7  UNL     1      13.598  -9.691  19.412  1.00  0.00    -0.320 N 
ATOM     23  H72 UNL     1      13.739  -9.495  20.403  1.00  0.00     0.179 HD
ATOM     24  H71 UNL     1      12.908  -9.158  18.884  1.00  0.00     0.179 HD
ENDBRANCH  20  22
ENDBRANCH  19  20
ENDBRANCH  16  19
BRANCH  18  25
HETATM   25  C10 UNL     1      15.989 -13.962  19.461  1.00  0.00     0.087 C 
BRANCH  25  26
HETATM   26  C11 UNL     1      15.089 -14.923  20.025  1.00  0.00     0.032 C 
HETATM   27  C12 UNL     1      13.941 -14.354  20.895  1.00  0.00     0.019 C 
HETATM   28  C13 UNL     1      13.862 -15.300  22.123  1.00  0.00     0.012 C 
HETATM   29  C14 UNL     1      15.256 -15.740  22.123  1.00  0.00     0.041 C 
HETATM   30  C15 UNL     1      15.807 -16.827  22.850  1.00  0.00    -0.019 C 
HETATM   31  C18 UNL     1      15.320 -16.190  20.651  1.00  0.00     0.072 C 
HETATM   32  C16 UNL     1      16.808 -17.365  21.884  1.00  0.00    -0.005 C 
HETATM   33  C17 UNL     1      16.496 -16.979  20.649  1.00  0.00     0.006 C 
HETATM   34  N9  UNL     1      14.150 -17.061  20.358  1.00  0.00    -0.350 N 
HETATM   35  C22 UNL     1      13.336 -16.325  19.457  1.00  0.00     0.082 C 
HETATM   36  S1  UNL     1      11.740 -16.387  19.152  1.00  0.00    -0.065 SA
HETATM   37  C23 UNL     1      14.237 -15.374  18.757  1.00  0.00     0.059 C 
HETATM   38  C24 UNL     1      15.064 -16.052  17.746  1.00  0.00     0.018 C 
BRANCH  34  39
HETATM   39  C19 UNL     1      13.843 -18.357  20.842  1.00  0.00     0.218 C 
HETATM   40  C20 UNL     1      13.988 -19.447  19.881  1.00  0.00    -0.098 C 
HETATM   41  C21 UNL     1      14.121 -20.368  19.105  1.00  0.00     0.014 C 
ENDBRANCH  34  39
ENDBRANCH  25  26
ENDBRANCH  18  25
ENDBRANCH  12  13
ENDBRANCH  11  12
ENDBRANCH   4  11
ENDBRANCH   3   4
TORSDOF 12
ENDMDL
