MODEL 1
REMARK VINA RESULT: -8.379309619      0.000      0.000
REMARK  14 active torsions:
REMARK  status: ('A' for Active; 'I' for Inactive)
REMARK    1  A    between atoms: C2_4  and  N2_5 
REMARK    2  A    between atoms: C2_4  and  C17_41 
REMARK    3  A    between atoms: N2_5  and  C3_7 
REMARK    4  A    between atoms: C5_13  and  C6_14 
REMARK    5  A    between atoms: C6_14  and  C7_15 
REMARK    6  A    between atoms: C7_15  and  N5_16 
REMARK    7  A    between atoms: N6_20  and  N7_22 
REMARK    8  A    between atoms: C12_28  and  C13_29 
REMARK    9  A    between atoms: C13_29  and  C14_30 
REMARK   10  A    between atoms: C14_30  and  C15_31 
REMARK   11  A    between atoms: C15_31  and  C16_32 
REMARK   12  A    between atoms: C16_32  and  N9_33 
REMARK   13  A    between atoms: N9_33  and  S1_35 
REMARK   14  A    between atoms: S1_35  and  N10_36 
ROOT
HETATM    1  C3  UNL     1      19.424 -13.839  21.975  1.00  0.00     0.133 A 
HETATM    2  N3  UNL     1      20.302 -13.039  21.399  1.00  0.00    -0.284 N 
ATOM      3  H3  UNL     1      21.307 -13.067  21.569  1.00  0.00     0.188 HD
HETATM    4  N4  UNL     1      19.715 -12.209  20.587  1.00  0.00    -0.299 N 
ATOM      5  H4  UNL     1      20.176 -11.493  20.026  1.00  0.00     0.187 HD
HETATM    6  C4  UNL     1      18.343 -12.469  20.619  1.00  0.00     0.058 A 
HETATM    7  C5  UNL     1      17.581 -11.746  19.865  1.00  0.00     0.007 C 
HETATM    8  C12 UNL     1      18.114 -13.501  21.491  1.00  0.00     0.033 A 
ENDROOT
BRANCH   7   9
HETATM    9  C6  UNL     1      16.173 -11.628  19.556  1.00  0.00     0.059 C 
BRANCH   9  10
HETATM   10  C7  UNL     1      15.438 -10.973  20.749  1.00  0.00     0.276 C 
BRANCH  10  11
HETATM   11  N5  UNL     1      14.047 -10.779  20.485  1.00  0.00     0.094 N 
HETATM   12  C8  UNL     1      13.337 -11.997  20.330  1.00  0.00     0.278 C 
HETATM   13  C9  UNL     1      12.890 -12.307  21.767  1.00  0.00     0.086 C 
HETATM   14  C10 UNL     1      12.527 -10.957  22.257  1.00  0.00     0.035 C 
HETATM   15  N6  UNL     1      11.636 -10.651  23.129  1.00  0.00    -0.293 N 
HETATM   16  C11 UNL     1      13.414 -10.018  21.524  1.00  0.00     0.326 C 
ATOM     17  H6  UNL     1      11.511  -9.664  23.355  1.00  0.00     0.188 HD
BRANCH  15  18
HETATM   18  N7  UNL     1      10.838 -11.564  23.780  1.00  0.00    -0.249 N 
HETATM   19  N8  UNL     1      10.857 -11.603  25.056  1.00  0.00    -0.331 N 
ATOM     20  H82 UNL     1      11.459 -10.960  25.570  1.00  0.00     0.178 HD
ATOM     21  H81 UNL     1      10.265 -12.279  25.538  1.00  0.00     0.178 HD
ATOM     22  H7  UNL     1      10.241 -12.200  23.251  1.00  0.00     0.207 HD
ENDBRANCH  15  18
ENDBRANCH  10  11
ENDBRANCH   9  10
ENDBRANCH   7   9
BRANCH   8  23
HETATM   23  C13 UNL     1      17.074 -14.163  21.915  1.00  0.00    -0.009 C 
BRANCH  23  24
HETATM   24  C14 UNL     1      15.959 -14.781  21.262  1.00  0.00     0.030 C 
BRANCH  24  25
HETATM   25  C15 UNL     1      16.390 -16.013  20.408  1.00  0.00     0.024 C 
BRANCH  25  26
HETATM   26  C16 UNL     1      15.247 -16.977  20.426  1.00  0.00     0.134 C 
BRANCH  26  27
HETATM   27  N9  UNL     1      14.283 -16.678  19.357  1.00  0.00    -0.303 N 
ATOM     28  H9  UNL     1      14.504 -16.596  18.365  1.00  0.00     0.173 HD
BRANCH  27  29
HETATM   29  S1  UNL     1      12.735 -16.491  20.050  1.00  0.00     0.312 S 
HETATM   30  O1  UNL     1      11.861 -17.684  19.903  1.00  0.00    -0.183 OA
HETATM   31  O2  UNL     1      12.833 -16.151  21.510  1.00  0.00    -0.183 OA
BRANCH  29  32
HETATM   32  N10 UNL     1      11.944 -15.177  19.225  1.00  0.00    -0.312 N 
ATOM     33 2H10 UNL     1      11.475 -15.243  18.323  1.00  0.00     0.170 HD
ATOM     34 1H10 UNL     1      12.038 -14.346  19.808  1.00  0.00     0.170 HD
ENDBRANCH  29  32
ENDBRANCH  27  29
ENDBRANCH  26  27
ENDBRANCH  25  26
ENDBRANCH  24  25
ENDBRANCH  23  24
ENDBRANCH   8  23
BRANCH   1  35
HETATM   35  N2  UNL     1      19.647 -14.785  22.838  1.00  0.00    -0.330 N 
ATOM     36  H2  UNL     1      19.167 -15.682  22.772  1.00  0.00     0.168 HD
BRANCH  35  37
HETATM   37  C2  UNL     1      20.613 -14.516  23.911  1.00  0.00     0.081 C 
HETATM   38  N1  UNL     1      21.743 -14.986  23.772  1.00  0.00    -0.384 N 
HETATM   39  C1  UNL     1      22.969 -15.045  24.419  1.00  0.00     0.147 C 
ATOM     40  H1  UNL     1      21.795 -15.500  22.892  1.00  0.00     0.160 HD
BRANCH  37  41
HETATM   41  C17 UNL     1      20.160 -13.713  25.051  1.00  0.00     0.045 C 
HETATM   42  C18 UNL     1      20.234 -14.333  26.395  1.00  0.00     0.017 C 
HETATM   43  C19 UNL     1      20.966 -12.400  25.141  1.00  0.00     0.017 C 
ENDBRANCH  37  41
ENDBRANCH  35  37
ENDBRANCH   1  35
TORSDOF 14
ENDMDL
MODEL 2
REMARK VINA RESULT: -8.296632260      0.837      1.137
REMARK  14 active torsions:
REMARK  status: ('A' for Active; 'I' for Inactive)
REMARK    1  A    between atoms: C2_4  and  N2_5 
REMARK    2  A    between atoms: C2_4  and  C17_41 
REMARK    3  A    between atoms: N2_5  and  C3_7 
REMARK    4  A    between atoms: C5_13  and  C6_14 
REMARK    5  A    between atoms: C6_14  and  C7_15 
REMARK    6  A    between atoms: C7_15  and  N5_16 
REMARK    7  A    between atoms: N6_20  and  N7_22 
REMARK    8  A    between atoms: C12_28  and  C13_29 
REMARK    9  A    between atoms: C13_29  and  C14_30 
REMARK   10  A    between atoms: C14_30  and  C15_31 
REMARK   11  A    between atoms: C15_31  and  C16_32 
REMARK   12  A    between atoms: C16_32  and  N9_33 
REMARK   13  A    between atoms: N9_33  and  S1_35 
REMARK   14  A    between atoms: S1_35  and  N10_36 
ROOT
HETATM    1  C3  UNL     1      19.671 -13.765  21.283  1.00  0.00     0.133 A 
HETATM    2  N3  UNL     1      20.346 -12.728  20.824  1.00  0.00    -0.284 N 
ATOM      3  H3  UNL     1      21.358 -12.623  20.888  1.00  0.00     0.188 HD
HETATM    4  N4  UNL     1      19.548 -11.856  20.279  1.00  0.00    -0.299 N 
ATOM      5  H4  UNL     1      19.827 -10.972  19.853  1.00  0.00     0.187 HD
HETATM    6  C4  UNL     1      18.242 -12.341  20.380  1.00  0.00     0.058 A 
HETATM    7  C5  UNL     1      17.295 -11.615  19.884  1.00  0.00     0.007 C 
HETATM    8  C12 UNL     1      18.276 -13.556  21.014  1.00  0.00     0.033 A 
ENDROOT
BRANCH   7   9
HETATM    9  C6  UNL     1      15.856 -11.671  19.743  1.00  0.00     0.059 C 
BRANCH   9  10
HETATM   10  C7  UNL     1      15.197 -10.856  20.881  1.00  0.00     0.276 C 
BRANCH  10  11
HETATM   11  N5  UNL     1      13.797 -10.662  20.665  1.00  0.00     0.094 N 
HETATM   12  C8  UNL     1      13.097 -11.877  20.451  1.00  0.00     0.278 C 
HETATM   13  C9  UNL     1      12.690 -12.283  21.875  1.00  0.00     0.086 C 
HETATM   14  C10 UNL     1      12.326 -10.971  22.459  1.00  0.00     0.035 C 
HETATM   15  N6  UNL     1      11.454 -10.732  23.371  1.00  0.00    -0.293 N 
HETATM   16  C11 UNL     1      13.184  -9.977  21.765  1.00  0.00     0.326 C 
ATOM     17  H6  UNL     1      11.324  -9.763  23.662  1.00  0.00     0.188 HD
BRANCH  15  18
HETATM   18  N7  UNL     1      10.683 -11.694  23.982  1.00  0.00    -0.249 N 
HETATM   19  N8  UNL     1      10.867 -11.939  25.221  1.00  0.00    -0.331 N 
ATOM     20  H82 UNL     1      11.579 -11.421  25.736  1.00  0.00     0.178 HD
ATOM     21  H81 UNL     1      10.295 -12.652  25.674  1.00  0.00     0.178 HD
ATOM     22  H7  UNL     1       9.975 -12.204  23.452  1.00  0.00     0.207 HD
ENDBRANCH  15  18
ENDBRANCH  10  11
ENDBRANCH   9  10
ENDBRANCH   7   9
BRANCH   8  23
HETATM   23  C13 UNL     1      17.403 -14.456  21.374  1.00  0.00    -0.009 C 
BRANCH  23  24
HETATM   24  C14 UNL     1      16.429 -15.230  20.664  1.00  0.00     0.030 C 
BRANCH  24  25
HETATM   25  C15 UNL     1      16.609 -16.760  20.904  1.00  0.00     0.024 C 
BRANCH  25  26
HETATM   26  C16 UNL     1      15.329 -17.419  20.498  1.00  0.00     0.134 C 
BRANCH  26  27
HETATM   27  N9  UNL     1      14.526 -16.535  19.642  1.00  0.00    -0.303 N 
ATOM     28  H9  UNL     1      14.842 -16.098  18.777  1.00  0.00     0.173 HD
BRANCH  27  29
HETATM   29  S1  UNL     1      12.976 -16.360  20.335  1.00  0.00     0.312 S 
HETATM   30  O1  UNL     1      12.174 -17.611  20.343  1.00  0.00    -0.183 OA
HETATM   31  O2  UNL     1      13.068 -15.847  21.744  1.00  0.00    -0.183 OA
BRANCH  29  32
HETATM   32  N10 UNL     1      12.098 -15.200  19.378  1.00  0.00    -0.312 N 
ATOM     33 2H10 UNL     1      11.212 -14.769  19.639  1.00  0.00     0.170 HD
ATOM     34 1H10 UNL     1      12.630 -15.039  18.523  1.00  0.00     0.170 HD
ENDBRANCH  29  32
ENDBRANCH  27  29
ENDBRANCH  26  27
ENDBRANCH  25  26
ENDBRANCH  24  25
ENDBRANCH  23  24
ENDBRANCH   8  23
BRANCH   1  35
HETATM   35  N2  UNL     1      20.134 -14.819  21.886  1.00  0.00    -0.330 N 
ATOM     36  H2  UNL     1      20.185 -15.719  21.409  1.00  0.00     0.168 HD
BRANCH  35  37
HETATM   37  C2  UNL     1      20.583 -14.670  23.277  1.00  0.00     0.081 C 
HETATM   38  N1  UNL     1      21.623 -14.037  23.461  1.00  0.00    -0.384 N 
HETATM   39  C1  UNL     1      22.455 -13.612  24.487  1.00  0.00     0.147 C 
ATOM     40  H1  UNL     1      21.996 -13.722  22.564  1.00  0.00     0.160 HD
BRANCH  37  41
HETATM   41  C17 UNL     1      19.759 -15.276  24.327  1.00  0.00     0.045 C 
HETATM   42  C18 UNL     1      18.649 -14.464  24.878  1.00  0.00     0.017 C 
HETATM   43  C19 UNL     1      19.120 -16.588  23.823  1.00  0.00     0.017 C 
ENDBRANCH  37  41
ENDBRANCH  35  37
ENDBRANCH   1  35
TORSDOF 14
ENDMDL
MODEL 3
REMARK VINA RESULT: -8.266774191      0.859      1.063
REMARK  14 active torsions:
REMARK  status: ('A' for Active; 'I' for Inactive)
REMARK    1  A    between atoms: C2_4  and  N2_5 
REMARK    2  A    between atoms: C2_4  and  C17_41 
REMARK    3  A    between atoms: N2_5  and  C3_7 
REMARK    4  A    between atoms: C5_13  and  C6_14 
REMARK    5  A    between atoms: C6_14  and  C7_15 
REMARK    6  A    between atoms: C7_15  and  N5_16 
REMARK    7  A    between atoms: N6_20  and  N7_22 
REMARK    8  A    between atoms: C12_28  and  C13_29 
REMARK    9  A    between atoms: C13_29  and  C14_30 
REMARK   10  A    between atoms: C14_30  and  C15_31 
REMARK   11  A    between atoms: C15_31  and  C16_32 
REMARK   12  A    between atoms: C16_32  and  N9_33 
REMARK   13  A    between atoms: N9_33  and  S1_35 
REMARK   14  A    between atoms: S1_35  and  N10_36 
ROOT
HETATM    1  C3  UNL     1      19.635 -13.847  21.437  1.00  0.00     0.133 A 
HETATM    2  N3  UNL     1      20.354 -12.848  20.959  1.00  0.00    -0.284 N 
ATOM      3  H3  UNL     1      21.365 -12.766  21.056  1.00  0.00     0.188 HD
HETATM    4  N4  UNL     1      19.599 -11.982  20.347  1.00  0.00    -0.299 N 
ATOM      5  H4  UNL     1      19.917 -11.125  19.895  1.00  0.00     0.187 HD
HETATM    6  C4  UNL     1      18.279 -12.430  20.420  1.00  0.00     0.058 A 
HETATM    7  C5  UNL     1      17.370 -11.702  19.858  1.00  0.00     0.007 C 
HETATM    8  C12 UNL     1      18.256 -13.616  21.106  1.00  0.00     0.033 A 
ENDROOT
BRANCH   7   9
HETATM    9  C6  UNL     1      15.936 -11.728  19.665  1.00  0.00     0.059 C 
BRANCH   9  10
HETATM   10  C7  UNL     1      15.251 -10.920  20.793  1.00  0.00     0.276 C 
BRANCH  10  11
HETATM   11  N5  UNL     1      13.852 -10.747  20.560  1.00  0.00     0.094 N 
HETATM   12  C8  UNL     1      13.156 -11.976  20.436  1.00  0.00     0.278 C 
HETATM   13  C9  UNL     1      12.746 -12.275  21.886  1.00  0.00     0.086 C 
HETATM   14  C10 UNL     1      12.377 -10.924  22.369  1.00  0.00     0.035 C 
HETATM   15  N6  UNL     1      11.503 -10.620  23.258  1.00  0.00    -0.293 N 
HETATM   16  C11 UNL     1      13.234  -9.983  21.604  1.00  0.00     0.326 C 
ATOM     17  H6  UNL     1      11.370  -9.632  23.476  1.00  0.00     0.188 HD
BRANCH  15  18
HETATM   18  N7  UNL     1      10.733 -11.535  23.938  1.00  0.00    -0.249 N 
HETATM   19  N8  UNL     1      10.883 -11.652  25.201  1.00  0.00    -0.331 N 
ATOM     20  H82 UNL     1      11.567 -11.069  25.682  1.00  0.00     0.178 HD
ATOM     21  H81 UNL     1      10.312 -12.331  25.705  1.00  0.00     0.178 HD
ATOM     22  H7  UNL     1      10.053 -12.111  23.442  1.00  0.00     0.207 HD
ENDBRANCH  15  18
ENDBRANCH  10  11
ENDBRANCH   9  10
ENDBRANCH   7   9
BRANCH   8  23
HETATM   23  C13 UNL     1      17.347 -14.477  21.471  1.00  0.00    -0.009 C 
BRANCH  23  24
HETATM   24  C14 UNL     1      16.463 -15.346  20.755  1.00  0.00     0.030 C 
BRANCH  24  25
HETATM   25  C15 UNL     1      14.982 -15.184  21.215  1.00  0.00     0.024 C 
BRANCH  25  26
HETATM   26  C16 UNL     1      14.166 -16.137  20.401  1.00  0.00     0.134 C 
BRANCH  26  27
HETATM   27  N9  UNL     1      12.869 -15.547  20.036  1.00  0.00    -0.303 N 
ATOM     28  H9  UNL     1      12.503 -14.659  20.378  1.00  0.00     0.173 HD
BRANCH  27  29
HETATM   29  S1  UNL     1      12.077 -16.594  18.946  1.00  0.00     0.312 S 
HETATM   30  O1  UNL     1      11.872 -17.969  19.471  1.00  0.00    -0.183 OA
HETATM   31  O2  UNL     1      10.742 -16.039  18.536  1.00  0.00    -0.183 OA
BRANCH  29  32
HETATM   32  N10 UNL     1      13.079 -16.735  17.529  1.00  0.00    -0.312 N 
ATOM     33 2H10 UNL     1      13.874 -17.365  17.428  1.00  0.00     0.170 HD
ATOM     34 1H10 UNL     1      12.724 -16.080  16.833  1.00  0.00     0.170 HD
ENDBRANCH  29  32
ENDBRANCH  27  29
ENDBRANCH  26  27
ENDBRANCH  25  26
ENDBRANCH  24  25
ENDBRANCH  23  24
ENDBRANCH   8  23
BRANCH   1  35
HETATM   35  N2  UNL     1      20.048 -14.885  22.101  1.00  0.00    -0.330 N 
ATOM     36  H2  UNL     1      19.930 -15.828  21.732  1.00  0.00     0.168 HD
BRANCH  35  37
HETATM   37  C2  UNL     1      20.690 -14.653  23.402  1.00  0.00     0.081 C 
HETATM   38  N1  UNL     1      21.833 -15.089  23.543  1.00  0.00    -0.384 N 
HETATM   39  C1  UNL     1      22.848 -15.155  24.486  1.00  0.00     0.147 C 
ATOM     40  H1  UNL     1      22.131 -15.554  22.685  1.00  0.00     0.160 HD
BRANCH  37  41
HETATM   41  C17 UNL     1      19.927 -13.922  24.418  1.00  0.00     0.045 C 
HETATM   42  C18 UNL     1      19.581 -14.646  25.664  1.00  0.00     0.017 C 
HETATM   43  C19 UNL     1      20.688 -12.654  24.858  1.00  0.00     0.017 C 
ENDBRANCH  37  41
ENDBRANCH  35  37
ENDBRANCH   1  35
TORSDOF 14
ENDMDL
MODEL 4
REMARK VINA RESULT: -8.250585255      0.824      1.117
REMARK  14 active torsions:
REMARK  status: ('A' for Active; 'I' for Inactive)
REMARK    1  A    between atoms: C2_4  and  N2_5 
REMARK    2  A    between atoms: C2_4  and  C17_41 
REMARK    3  A    between atoms: N2_5  and  C3_7 
REMARK    4  A    between atoms: C5_13  and  C6_14 
REMARK    5  A    between atoms: C6_14  and  C7_15 
REMARK    6  A    between atoms: C7_15  and  N5_16 
REMARK    7  A    between atoms: N6_20  and  N7_22 
REMARK    8  A    between atoms: C12_28  and  C13_29 
REMARK    9  A    between atoms: C13_29  and  C14_30 
REMARK   10  A    between atoms: C14_30  and  C15_31 
REMARK   11  A    between atoms: C15_31  and  C16_32 
REMARK   12  A    between atoms: C16_32  and  N9_33 
REMARK   13  A    between atoms: N9_33  and  S1_35 
REMARK   14  A    between atoms: S1_35  and  N10_36 
ROOT
HETATM    1  C3  UNL     1      19.820 -13.728  22.050  1.00  0.00     0.133 A 
HETATM    2  N3  UNL     1      20.601 -12.899  21.382  1.00  0.00    -0.284 N 
ATOM      3  H3  UNL     1      21.612 -12.840  21.496  1.00  0.00     0.188 HD
HETATM    4  N4  UNL     1      19.908 -12.165  20.561  1.00  0.00    -0.299 N 
ATOM      5  H4  UNL     1      20.280 -11.451  19.935  1.00  0.00     0.187 HD
HETATM    6  C4  UNL     1      18.564 -12.526  20.685  1.00  0.00     0.058 A 
HETATM    7  C5  UNL     1      17.709 -11.910  19.937  1.00  0.00     0.007 C 
HETATM    8  C12 UNL     1      18.464 -13.519  21.625  1.00  0.00     0.033 A 
ENDROOT
BRANCH   7   9
HETATM    9  C6  UNL     1      16.281 -11.918  19.703  1.00  0.00     0.059 C 
BRANCH   9  10
HETATM   10  C7  UNL     1      15.566 -11.189  20.866  1.00  0.00     0.276 C 
BRANCH  10  11
HETATM   11  N5  UNL     1      14.209 -10.872  20.550  1.00  0.00     0.094 N 
HETATM   12  C8  UNL     1      13.409 -12.021  20.327  1.00  0.00     0.278 C 
HETATM   13  C9  UNL     1      12.873 -12.333  21.732  1.00  0.00     0.086 C 
HETATM   14  C10 UNL     1      12.602 -10.972  22.249  1.00  0.00     0.035 C 
HETATM   15  N6  UNL     1      11.701 -10.617  23.092  1.00  0.00    -0.293 N 
HETATM   16  C11 UNL     1      13.596 -10.091  21.584  1.00  0.00     0.326 C 
ATOM     17  H6  UNL     1      11.648  -9.629  23.344  1.00  0.00     0.188 HD
BRANCH  15  18
HETATM   18  N7  UNL     1      10.802 -11.478  23.679  1.00  0.00    -0.249 N 
HETATM   19  N8  UNL     1      10.831 -11.631  24.947  1.00  0.00    -0.331 N 
ATOM     20  H82 UNL     1      11.516 -11.116  25.500  1.00  0.00     0.178 HD
ATOM     21  H81 UNL     1      10.165 -12.269  25.382  1.00  0.00     0.178 HD
ATOM     22  H7  UNL     1      10.124 -11.985  23.111  1.00  0.00     0.207 HD
ENDBRANCH  15  18
ENDBRANCH  10  11
ENDBRANCH   9  10
ENDBRANCH   7   9
BRANCH   8  23
HETATM   23  C13 UNL     1      17.503 -14.232  22.144  1.00  0.00    -0.009 C 
BRANCH  23  24
HETATM   24  C14 UNL     1      16.940 -15.511  21.832  1.00  0.00     0.030 C 
BRANCH  24  25
HETATM   25  C15 UNL     1      16.126 -15.485  20.503  1.00  0.00     0.024 C 
BRANCH  25  26
HETATM   26  C16 UNL     1      15.293 -16.727  20.476  1.00  0.00     0.134 C 
BRANCH  26  27
HETATM   27  N9  UNL     1      14.199 -16.612  19.500  1.00  0.00    -0.303 N 
ATOM     28  H9  UNL     1      14.288 -16.731  18.492  1.00  0.00     0.173 HD
BRANCH  27  29
HETATM   29  S1  UNL     1      12.756 -16.246  20.335  1.00  0.00     0.312 S 
HETATM   30  O1  UNL     1      12.967 -15.785  21.731  1.00  0.00    -0.183 OA
HETATM   31  O2  UNL     1      11.959 -15.202  19.605  1.00  0.00    -0.183 OA
BRANCH  29  32
HETATM   32  N10 UNL     1      11.812 -17.707  20.419  1.00  0.00    -0.312 N 
ATOM     33 2H10 UNL     1      11.533 -18.181  21.278  1.00  0.00     0.170 HD
ATOM     34 1H10 UNL     1      11.595 -17.990  19.465  1.00  0.00     0.170 HD
ENDBRANCH  29  32
ENDBRANCH  27  29
ENDBRANCH  26  27
ENDBRANCH  25  26
ENDBRANCH  24  25
ENDBRANCH  23  24
ENDBRANCH   8  23
BRANCH   1  35
HETATM   35  N2  UNL     1      20.162 -14.600  22.950  1.00  0.00    -0.330 N 
ATOM     36  H2  UNL     1      19.713 -15.515  22.996  1.00  0.00     0.168 HD
BRANCH  35  37
HETATM   37  C2  UNL     1      21.217 -14.224  23.900  1.00  0.00     0.081 C 
HETATM   38  N1  UNL     1      22.381 -14.350  23.517  1.00  0.00    -0.384 N 
HETATM   39  C1  UNL     1      23.683 -14.161  23.957  1.00  0.00     0.147 C 
ATOM     40  H1  UNL     1      22.391 -14.712  22.563  1.00  0.00     0.160 HD
BRANCH  37  41
HETATM   41  C17 UNL     1      20.804 -13.729  25.217  1.00  0.00     0.045 C 
HETATM   42  C18 UNL     1      20.834 -12.263  25.434  1.00  0.00     0.017 C 
HETATM   43  C19 UNL     1      19.363 -14.179  25.536  1.00  0.00     0.017 C 
ENDBRANCH  37  41
ENDBRANCH  35  37
ENDBRANCH   1  35
TORSDOF 14
ENDMDL
MODEL 5
REMARK VINA RESULT: -8.182847053      2.923      3.416
REMARK  14 active torsions:
REMARK  status: ('A' for Active; 'I' for Inactive)
REMARK    1  A    between atoms: C2_4  and  N2_5 
REMARK    2  A    between atoms: C2_4  and  C17_41 
REMARK    3  A    between atoms: N2_5  and  C3_7 
REMARK    4  A    between atoms: C5_13  and  C6_14 
REMARK    5  A    between atoms: C6_14  and  C7_15 
REMARK    6  A    between atoms: C7_15  and  N5_16 
REMARK    7  A    between atoms: N6_20  and  N7_22 
REMARK    8  A    between atoms: C12_28  and  C13_29 
REMARK    9  A    between atoms: C13_29  and  C14_30 
REMARK   10  A    between atoms: C14_30  and  C15_31 
REMARK   11  A    between atoms: C15_31  and  C16_32 
REMARK   12  A    between atoms: C16_32  and  N9_33 
REMARK   13  A    between atoms: N9_33  and  S1_35 
REMARK   14  A    between atoms: S1_35  and  N10_36 
ROOT
HETATM    1  C3  UNL     1      19.660 -13.898  22.520  1.00  0.00     0.133 A 
HETATM    2  N3  UNL     1      20.530 -13.139  21.881  1.00  0.00    -0.284 N 
ATOM      3  H3  UNL     1      21.530 -13.112  22.079  1.00  0.00     0.188 HD
HETATM    4  N4  UNL     1      19.942 -12.426  20.964  1.00  0.00    -0.299 N 
ATOM      5  H4  UNL     1      20.397 -11.763  20.337  1.00  0.00     0.187 HD
HETATM    6  C4  UNL     1      18.578 -12.728  20.989  1.00  0.00     0.058 A 
HETATM    7  C5  UNL     1      17.817 -12.122  20.138  1.00  0.00     0.007 C 
HETATM    8  C12 UNL     1      18.356 -13.662  21.967  1.00  0.00     0.033 A 
ENDROOT
BRANCH   7   9
HETATM    9  C6  UNL     1      16.416 -12.089  19.781  1.00  0.00     0.059 C 
BRANCH   9  10
HETATM   10  C7  UNL     1      15.620 -11.358  20.889  1.00  0.00     0.276 C 
BRANCH  10  11
HETATM   11  N5  UNL     1      14.258 -11.134  20.517  1.00  0.00     0.094 N 
HETATM   12  C8  UNL     1      13.511 -12.334  20.404  1.00  0.00     0.278 C 
HETATM   13  C9  UNL     1      12.958 -12.518  21.825  1.00  0.00     0.086 C 
HETATM   14  C10 UNL     1      12.620 -11.122  22.189  1.00  0.00     0.035 C 
HETATM   15  N6  UNL     1      11.687 -10.719  22.973  1.00  0.00    -0.293 N 
HETATM   16  C11 UNL     1      13.591 -10.275  21.451  1.00  0.00     0.326 C 
ATOM     17  H6  UNL     1      11.588  -9.714  23.117  1.00  0.00     0.188 HD
BRANCH  15  18
HETATM   18  N7  UNL     1      10.812 -11.551  23.633  1.00  0.00    -0.249 N 
HETATM   19  N8  UNL     1      10.827 -11.576  24.910  1.00  0.00    -0.331 N 
ATOM     20  H82 UNL     1      11.484 -10.984  25.417  1.00  0.00     0.178 HD
ATOM     21  H81 UNL     1      10.178 -12.192  25.399  1.00  0.00     0.178 HD
ATOM     22  H7  UNL     1      10.161 -12.137  23.111  1.00  0.00     0.207 HD
ENDBRANCH  15  18
ENDBRANCH  10  11
ENDBRANCH   9  10
ENDBRANCH   7   9
BRANCH   8  23
HETATM   23  C13 UNL     1      17.324 -14.308  22.437  1.00  0.00    -0.009 C 
BRANCH  23  24
HETATM   24  C14 UNL     1      16.461 -15.317  21.902  1.00  0.00     0.030 C 
BRANCH  24  25
HETATM   25  C15 UNL     1      17.196 -16.232  20.875  1.00  0.00     0.024 C 
BRANCH  25  26
HETATM   26  C16 UNL     1      17.934 -17.268  21.662  1.00  0.00     0.134 C 
BRANCH  26  27
HETATM   27  N9  UNL     1      18.896 -17.990  20.818  1.00  0.00    -0.303 N 
ATOM     28  H9  UNL     1      18.658 -18.620  20.052  1.00  0.00     0.173 HD
BRANCH  27  29
HETATM   29  S1  UNL     1      20.477 -17.600  21.330  1.00  0.00     0.312 S 
HETATM   30  O1  UNL     1      20.924 -16.243  20.924  1.00  0.00    -0.183 OA
HETATM   31  O2  UNL     1      20.606 -17.717  22.822  1.00  0.00    -0.183 OA
BRANCH  29  32
HETATM   32  N10 UNL     1      21.567 -18.737  20.588  1.00  0.00    -0.312 N 
ATOM     33 2H10 UNL     1      21.960 -18.653  19.651  1.00  0.00     0.170 HD
ATOM     34 1H10 UNL     1      21.732 -19.488  21.257  1.00  0.00     0.170 HD
ENDBRANCH  29  32
ENDBRANCH  27  29
ENDBRANCH  26  27
ENDBRANCH  25  26
ENDBRANCH  24  25
ENDBRANCH  23  24
ENDBRANCH   8  23
BRANCH   1  35
HETATM   35  N2  UNL     1      19.887 -14.732  23.491  1.00  0.00    -0.330 N 
ATOM     36  H2  UNL     1      19.209 -15.453  23.736  1.00  0.00     0.168 HD
BRANCH  35  37
HETATM   37  C2  UNL     1      21.153 -14.600  24.224  1.00  0.00     0.081 C 
HETATM   38  N1  UNL     1      22.135 -15.166  23.743  1.00  0.00    -0.384 N 
HETATM   39  C1  UNL     1      23.486 -15.366  23.987  1.00  0.00     0.147 C 
ATOM     40  H1  UNL     1      21.868 -15.646  22.883  1.00  0.00     0.160 HD
BRANCH  37  41
HETATM   41  C17 UNL     1      21.147 -13.806  25.457  1.00  0.00     0.045 C 
HETATM   42  C18 UNL     1      20.939 -12.345  25.327  1.00  0.00     0.017 C 
HETATM   43  C19 UNL     1      20.051 -14.310  26.419  1.00  0.00     0.017 C 
ENDBRANCH  37  41
ENDBRANCH  35  37
ENDBRANCH   1  35
TORSDOF 14
ENDMDL
