MODEL 1
REMARK VINA RESULT: -7.846093305      0.000      0.000
REMARK  15 active torsions:
REMARK  status: ('A' for Active; 'I' for Inactive)
REMARK    1  A    between atoms: C4_7  and  C5_8 
REMARK    2  A    between atoms: C5_8  and  C6_9 
REMARK    3  A    between atoms: C6_9  and  C7_10 
REMARK    4  A    between atoms: C7_10  and  C8_11 
REMARK    5  A    between atoms: C9_12  and  C10_13 
REMARK    6  A    between atoms: C10_13  and  N3_14 
REMARK    7  A    between atoms: N3_14  and  C12_16 
REMARK    8  A    between atoms: N3_14  and  N7_26 
REMARK    9  A    between atoms: C12_16  and  C13_17 
REMARK   10  A    between atoms: C13_17  and  N4_18 
REMARK   11  A    between atoms: N4_18  and  C14_20 
REMARK   12  A    between atoms: C14_20  and  N5_22 
REMARK   13  A    between atoms: N7_26  and  C16_28 
REMARK   14  A    between atoms: C16_28  and  C17_29 
REMARK   15  A    between atoms: C18_30  and  O1_31 
ROOT
HETATM    1  N5  UNL     1      15.526 -11.881  14.629  1.00  0.00    -0.270 N 
ATOM      2  H5  UNL     1      14.578 -12.255  14.584  1.00  0.00     0.180 HD
HETATM    3  C15 UNL     1      16.505 -12.425  13.798  1.00  0.00     0.184 C 
HETATM    4  N6  UNL     1      17.312 -12.866  13.097  1.00  0.00    -0.172 NA
ENDROOT
BRANCH   1   5
HETATM    5  C14 UNL     1      15.798 -10.838  15.524  1.00  0.00     0.180 C 
HETATM    6  S1  UNL     1      16.413  -9.444  14.959  1.00  0.00    -0.040 SA
BRANCH   5   7
HETATM    7  N4  UNL     1      15.520 -11.037  16.925  1.00  0.00    -0.365 N 
ATOM      8  H4  UNL     1      14.644 -10.735  17.351  1.00  0.00     0.161 HD
BRANCH   7   9
HETATM    9  C13 UNL     1      16.554 -11.690  17.688  1.00  0.00     0.152 C 
BRANCH   9  10
HETATM   10  C12 UNL     1      16.084 -12.455  18.874  1.00  0.00     0.285 C 
BRANCH  10  11
HETATM   11  N3  UNL     1      16.693 -12.109  20.133  1.00  0.00     0.019 N 
HETATM   12  C11 UNL     1      16.664 -13.157  21.124  1.00  0.00     0.303 C 
BRANCH  11  13
HETATM   13  C10 UNL     1      18.056 -11.656  20.028  1.00  0.00     0.358 C 
BRANCH  13  14
HETATM   14  C9  UNL     1      18.878 -12.383  20.982  1.00  0.00    -0.076 C 
HETATM   15  C8  UNL     1      19.587 -12.989  21.774  1.00  0.00    -0.105 C 
BRANCH  15  16
HETATM   16  C7  UNL     1      20.448 -13.726  22.699  1.00  0.00     0.094 C 
BRANCH  16  17
HETATM   17  C6  UNL     1      20.214 -13.190  24.095  1.00  0.00     0.020 C 
BRANCH  17  18
HETATM   18  C5  UNL     1      21.608 -12.998  24.693  1.00  0.00     0.077 C 
BRANCH  18  19
HETATM   19  C4  UNL     1      22.488 -14.152  24.496  1.00  0.00     0.082 A 
HETATM   20  N1  UNL     1      22.268 -15.404  24.988  1.00  0.00    -0.350 N 
HETATM   21  C1  UNL     1      21.153 -15.852  25.781  1.00  0.00     0.156 C 
HETATM   22  C2  UNL     1      23.287 -16.187  24.605  1.00  0.00     0.108 A 
HETATM   23  C3  UNL     1      24.151 -15.410  23.866  1.00  0.00     0.106 A 
HETATM   24  N2  UNL     1      23.631 -14.161  23.817  1.00  0.00    -0.354 N 
ATOM     25  H2  UNL     1      24.046 -13.361  23.339  1.00  0.00     0.166 HD
ENDBRANCH  18  19
ENDBRANCH  17  18
ENDBRANCH  16  17
ENDBRANCH  15  16
ENDBRANCH  13  14
ENDBRANCH  11  13
BRANCH  11  26
HETATM   26  N7  UNL     1      15.873 -11.051  20.665  1.00  0.00    -0.225 N 
ATOM     27  H7  UNL     1      16.234 -10.254  21.189  1.00  0.00     0.193 HD
BRANCH  26  28
HETATM   28  C16 UNL     1      14.517 -11.252  20.372  1.00  0.00     0.146 C 
BRANCH  28  29
HETATM   29  C17 UNL     1      13.576 -10.923  21.442  1.00  0.00     0.084 A 
HETATM   30  C18 UNL     1      13.427  -9.553  21.802  1.00  0.00     0.093 A 
HETATM   31  C19 UNL     1      12.579  -9.108  22.754  1.00  0.00     0.040 A 
HETATM   32  C20 UNL     1      11.811 -10.029  23.418  1.00  0.00     0.020 A 
HETATM   33  C21 UNL     1      11.952 -11.338  23.072  1.00  0.00     0.091 A 
HETATM   34  N8  UNL     1      12.813 -11.798  22.104  1.00  0.00    -0.358 N 
HETATM   35  C22 UNL     1      12.760 -13.209  21.886  1.00  0.00     0.156 C 
BRANCH  30  36
HETATM   36  O1  UNL     1      14.233  -8.665  21.097  1.00  0.00    -0.358 OA
ATOM     37  H1  UNL     1      14.881  -8.207  21.617  1.00  0.00     0.217 HD
ENDBRANCH  30  36
ENDBRANCH  28  29
ENDBRANCH  26  28
ENDBRANCH  11  26
ENDBRANCH  10  11
ENDBRANCH   9  10
ENDBRANCH   7   9
ENDBRANCH   5   7
ENDBRANCH   1   5
TORSDOF 15
ENDMDL
MODEL 2
REMARK VINA RESULT: -7.712261563      3.839      4.952
REMARK  15 active torsions:
REMARK  status: ('A' for Active; 'I' for Inactive)
REMARK    1  A    between atoms: C4_7  and  C5_8 
REMARK    2  A    between atoms: C5_8  and  C6_9 
REMARK    3  A    between atoms: C6_9  and  C7_10 
REMARK    4  A    between atoms: C7_10  and  C8_11 
REMARK    5  A    between atoms: C9_12  and  C10_13 
REMARK    6  A    between atoms: C10_13  and  N3_14 
REMARK    7  A    between atoms: N3_14  and  C12_16 
REMARK    8  A    between atoms: N3_14  and  N7_26 
REMARK    9  A    between atoms: C12_16  and  C13_17 
REMARK   10  A    between atoms: C13_17  and  N4_18 
REMARK   11  A    between atoms: N4_18  and  C14_20 
REMARK   12  A    between atoms: C14_20  and  N5_22 
REMARK   13  A    between atoms: N7_26  and  C16_28 
REMARK   14  A    between atoms: C16_28  and  C17_29 
REMARK   15  A    between atoms: C18_30  and  O1_31 
ROOT
HETATM    1  N5  UNL     1      14.786 -17.026  20.543  1.00  0.00    -0.270 N 
ATOM      2  H5  UNL     1      14.887 -16.359  19.777  1.00  0.00     0.180 HD
HETATM    3  C15 UNL     1      13.565 -17.680  20.708  1.00  0.00     0.184 C 
HETATM    4  N6  UNL     1      12.558 -18.235  20.835  1.00  0.00    -0.172 NA
ENDROOT
BRANCH   1   5
HETATM    5  C14 UNL     1      15.878 -17.251  21.391  1.00  0.00     0.180 C 
HETATM    6  S1  UNL     1      15.621 -17.464  22.981  1.00  0.00    -0.040 SA
BRANCH   5   7
HETATM    7  N4  UNL     1      17.202 -17.286  20.820  1.00  0.00    -0.365 N 
ATOM      8  H4  UNL     1      17.468 -17.972  20.113  1.00  0.00     0.161 HD
BRANCH   7   9
HETATM    9  C13 UNL     1      18.128 -16.295  21.308  1.00  0.00     0.152 C 
BRANCH   9  10
HETATM   10  C12 UNL     1      17.755 -14.882  21.029  1.00  0.00     0.285 C 
BRANCH  10  11
HETATM   11  N3  UNL     1      18.176 -13.911  22.006  1.00  0.00     0.019 N 
HETATM   12  C11 UNL     1      18.008 -14.326  23.377  1.00  0.00     0.303 C 
BRANCH  11  13
HETATM   13  C10 UNL     1      19.540 -13.472  21.856  1.00  0.00     0.358 C 
BRANCH  13  14
HETATM   14  C9  UNL     1      20.104 -13.204  23.168  1.00  0.00    -0.076 C 
HETATM   15  C8  UNL     1      20.569 -12.959  24.274  1.00  0.00    -0.105 C 
BRANCH  15  16
HETATM   16  C7  UNL     1      21.134 -12.641  25.585  1.00  0.00     0.094 C 
BRANCH  16  17
HETATM   17  C6  UNL     1      20.619 -13.656  26.583  1.00  0.00     0.020 C 
BRANCH  17  18
HETATM   18  C5  UNL     1      21.337 -14.961  26.239  1.00  0.00     0.077 C 
BRANCH  18  19
HETATM   19  C4  UNL     1      20.431 -16.024  25.798  1.00  0.00     0.082 A 
HETATM   20  N1  UNL     1      20.536 -16.714  24.628  1.00  0.00    -0.350 N 
HETATM   21  C1  UNL     1      21.533 -16.555  23.602  1.00  0.00     0.156 C 
HETATM   22  C2  UNL     1      19.530 -17.598  24.574  1.00  0.00     0.108 A 
HETATM   23  C3  UNL     1      18.791 -17.455  25.727  1.00  0.00     0.106 A 
HETATM   24  N2  UNL     1      19.371 -16.477  26.461  1.00  0.00    -0.354 N 
ATOM     25  H2  UNL     1      19.050 -16.144  27.370  1.00  0.00     0.166 HD
ENDBRANCH  18  19
ENDBRANCH  17  18
ENDBRANCH  16  17
ENDBRANCH  15  16
ENDBRANCH  13  14
ENDBRANCH  11  13
BRANCH  11  26
HETATM   26  N7  UNL     1      17.287 -12.792  21.827  1.00  0.00    -0.225 N 
ATOM     27  H7  UNL     1      17.426 -11.876  22.253  1.00  0.00     0.193 HD
BRANCH  26  28
HETATM   28  C16 UNL     1      16.208 -13.119  20.994  1.00  0.00     0.146 C 
BRANCH  28  29
HETATM   29  C17 UNL     1      15.005 -12.303  21.156  1.00  0.00     0.084 A 
HETATM   30  C18 UNL     1      15.077 -10.927  20.791  1.00  0.00     0.093 A 
HETATM   31  C19 UNL     1      14.038 -10.069  20.868  1.00  0.00     0.040 A 
HETATM   32  C20 UNL     1      12.837 -10.545  21.325  1.00  0.00     0.020 A 
HETATM   33  C21 UNL     1      12.769 -11.860  21.672  1.00  0.00     0.091 A 
HETATM   34  N8  UNL     1      13.822 -12.740  21.596  1.00  0.00    -0.358 N 
HETATM   35  C22 UNL     1      13.503 -14.080  21.977  1.00  0.00     0.156 C 
BRANCH  30  36
HETATM   36  O1  UNL     1      16.320 -10.500  20.336  1.00  0.00    -0.358 OA
ATOM     37  H1  UNL     1      17.065 -10.848  20.810  1.00  0.00     0.217 HD
ENDBRANCH  30  36
ENDBRANCH  28  29
ENDBRANCH  26  28
ENDBRANCH  11  26
ENDBRANCH  10  11
ENDBRANCH   9  10
ENDBRANCH   7   9
ENDBRANCH   5   7
ENDBRANCH   1   5
TORSDOF 15
ENDMDL
MODEL 3
REMARK VINA RESULT: -7.529390630      1.723      2.379
REMARK  15 active torsions:
REMARK  status: ('A' for Active; 'I' for Inactive)
REMARK    1  A    between atoms: C4_7  and  C5_8 
REMARK    2  A    between atoms: C5_8  and  C6_9 
REMARK    3  A    between atoms: C6_9  and  C7_10 
REMARK    4  A    between atoms: C7_10  and  C8_11 
REMARK    5  A    between atoms: C9_12  and  C10_13 
REMARK    6  A    between atoms: C10_13  and  N3_14 
REMARK    7  A    between atoms: N3_14  and  C12_16 
REMARK    8  A    between atoms: N3_14  and  N7_26 
REMARK    9  A    between atoms: C12_16  and  C13_17 
REMARK   10  A    between atoms: C13_17  and  N4_18 
REMARK   11  A    between atoms: N4_18  and  C14_20 
REMARK   12  A    between atoms: C14_20  and  N5_22 
REMARK   13  A    between atoms: N7_26  and  C16_28 
REMARK   14  A    between atoms: C16_28  and  C17_29 
REMARK   15  A    between atoms: C18_30  and  O1_31 
ROOT
HETATM    1  N5  UNL     1      15.662 -12.217  15.051  1.00  0.00    -0.270 N 
ATOM      2  H5  UNL     1      16.184 -13.093  15.095  1.00  0.00     0.180 HD
HETATM    3  C15 UNL     1      14.663 -12.077  14.088  1.00  0.00     0.184 C 
HETATM    4  N6  UNL     1      13.823 -11.967  13.300  1.00  0.00    -0.172 NA
ENDROOT
BRANCH   1   5
HETATM    5  C14 UNL     1      15.976 -11.198  15.960  1.00  0.00     0.180 C 
HETATM    6  S1  UNL     1      16.748  -9.870  15.432  1.00  0.00    -0.040 SA
BRANCH   5   7
HETATM    7  N4  UNL     1      15.599 -11.364  17.342  1.00  0.00    -0.365 N 
ATOM      8  H4  UNL     1      14.644 -11.209  17.665  1.00  0.00     0.161 HD
BRANCH   7   9
HETATM    9  C13 UNL     1      16.653 -11.762  18.242  1.00  0.00     0.152 C 
BRANCH   9  10
HETATM   10  C12 UNL     1      16.434 -11.417  19.672  1.00  0.00     0.285 C 
BRANCH  10  11
HETATM   11  N3  UNL     1      16.679 -12.472  20.622  1.00  0.00     0.019 N 
HETATM   12  C11 UNL     1      16.612 -13.804  20.071  1.00  0.00     0.303 C 
BRANCH  11  13
HETATM   13  C10 UNL     1      17.933 -12.362  21.323  1.00  0.00     0.358 C 
BRANCH  13  14
HETATM   14  C9  UNL     1      18.083 -13.496  22.218  1.00  0.00    -0.076 C 
HETATM   15  C8  UNL     1      18.225 -14.460  22.960  1.00  0.00    -0.105 C 
BRANCH  15  16
HETATM   16  C7  UNL     1      18.393 -15.629  23.824  1.00  0.00     0.094 C 
BRANCH  16  17
HETATM   17  C6  UNL     1      18.288 -15.175  25.263  1.00  0.00     0.020 C 
BRANCH  17  18
HETATM   18  C5  UNL     1      19.684 -15.378  25.854  1.00  0.00     0.077 C 
BRANCH  18  19
HETATM   19  C4  UNL     1      20.665 -14.400  25.376  1.00  0.00     0.082 A 
HETATM   20  N1  UNL     1      21.758 -14.689  24.615  1.00  0.00    -0.350 N 
HETATM   21  C1  UNL     1      22.172 -15.979  24.126  1.00  0.00     0.156 C 
HETATM   22  C2  UNL     1      22.415 -13.545  24.380  1.00  0.00     0.108 A 
HETATM   23  C3  UNL     1      21.720 -12.533  25.004  1.00  0.00     0.106 A 
HETATM   24  N2  UNL     1      20.647 -13.092  25.609  1.00  0.00    -0.354 N 
ATOM     25  H2  UNL     1      19.942 -12.594  26.153  1.00  0.00     0.166 HD
ENDBRANCH  18  19
ENDBRANCH  17  18
ENDBRANCH  16  17
ENDBRANCH  15  16
ENDBRANCH  13  14
ENDBRANCH  11  13
BRANCH  11  26
HETATM   26  N7  UNL     1      15.591 -12.387  21.563  1.00  0.00    -0.225 N 
ATOM     27  H7  UNL     1      15.684 -12.563  22.563  1.00  0.00     0.193 HD
BRANCH  26  28
HETATM   28  C16 UNL     1      14.391 -12.032  20.932  1.00  0.00     0.146 C 
BRANCH  28  29
HETATM   29  C17 UNL     1      13.421 -11.315  21.760  1.00  0.00     0.084 A 
HETATM   30  C18 UNL     1      12.543 -12.085  22.577  1.00  0.00     0.093 A 
HETATM   31  C19 UNL     1      11.618 -11.553  23.404  1.00  0.00     0.040 A 
HETATM   32  C20 UNL     1      11.514 -10.187  23.465  1.00  0.00     0.020 A 
HETATM   33  C21 UNL     1      12.354  -9.453  22.685  1.00  0.00     0.091 A 
HETATM   34  N8  UNL     1      13.298  -9.987  21.841  1.00  0.00    -0.358 N 
HETATM   35  C22 UNL     1      14.092  -9.020  21.152  1.00  0.00     0.156 C 
BRANCH  30  36
HETATM   36  O1  UNL     1      12.695 -13.464  22.472  1.00  0.00    -0.358 OA
ATOM     37  H1  UNL     1      13.588 -13.777  22.534  1.00  0.00     0.217 HD
ENDBRANCH  30  36
ENDBRANCH  28  29
ENDBRANCH  26  28
ENDBRANCH  11  26
ENDBRANCH  10  11
ENDBRANCH   9  10
ENDBRANCH   7   9
ENDBRANCH   5   7
ENDBRANCH   1   5
TORSDOF 15
ENDMDL
MODEL 4
REMARK VINA RESULT: -7.524298795      3.582      5.861
REMARK  15 active torsions:
REMARK  status: ('A' for Active; 'I' for Inactive)
REMARK    1  A    between atoms: C4_7  and  C5_8 
REMARK    2  A    between atoms: C5_8  and  C6_9 
REMARK    3  A    between atoms: C6_9  and  C7_10 
REMARK    4  A    between atoms: C7_10  and  C8_11 
REMARK    5  A    between atoms: C9_12  and  C10_13 
REMARK    6  A    between atoms: C10_13  and  N3_14 
REMARK    7  A    between atoms: N3_14  and  C12_16 
REMARK    8  A    between atoms: N3_14  and  N7_26 
REMARK    9  A    between atoms: C12_16  and  C13_17 
REMARK   10  A    between atoms: C13_17  and  N4_18 
REMARK   11  A    between atoms: N4_18  and  C14_20 
REMARK   12  A    between atoms: C14_20  and  N5_22 
REMARK   13  A    between atoms: N7_26  and  C16_28 
REMARK   14  A    between atoms: C16_28  and  C17_29 
REMARK   15  A    between atoms: C18_30  and  O1_31 
ROOT
HETATM    1  N5  UNL     1      12.252 -11.816  22.532  1.00  0.00    -0.270 N 
ATOM      2  H5  UNL     1      11.715 -12.683  22.543  1.00  0.00     0.180 HD
HETATM    3  C15 UNL     1      11.820 -10.748  23.319  1.00  0.00     0.184 C 
HETATM    4  N6  UNL     1      11.472  -9.868  23.984  1.00  0.00    -0.172 NA
ENDROOT
BRANCH   1   5
HETATM    5  C14 UNL     1      13.397 -11.740  21.728  1.00  0.00     0.180 C 
HETATM    6  S1  UNL     1      13.753 -10.342  20.980  1.00  0.00    -0.040 SA
BRANCH   5   7
HETATM    7  N4  UNL     1      14.225 -12.912  21.590  1.00  0.00    -0.365 N 
ATOM      8  H4  UNL     1      13.874 -13.849  21.787  1.00  0.00     0.161 HD
BRANCH   7   9
HETATM    9  C13 UNL     1      15.581 -12.681  21.159  1.00  0.00     0.152 C 
BRANCH   9  10
HETATM   10  C12 UNL     1      16.637 -13.179  22.081  1.00  0.00     0.285 C 
BRANCH  10  11
HETATM   11  N3  UNL     1      17.568 -14.126  21.524  1.00  0.00     0.019 N 
HETATM   12  C11 UNL     1      18.571 -13.549  20.663  1.00  0.00     0.303 C 
BRANCH  11  13
HETATM   13  C10 UNL     1      18.256 -14.929  22.504  1.00  0.00     0.358 C 
BRANCH  13  14
HETATM   14  C9  UNL     1      19.117 -14.075  23.304  1.00  0.00    -0.076 C 
HETATM   15  C8  UNL     1      19.829 -13.358  23.996  1.00  0.00    -0.105 C 
BRANCH  15  16
HETATM   16  C7  UNL     1      20.658 -12.486  24.829  1.00  0.00     0.094 C 
BRANCH  16  17
HETATM   17  C6  UNL     1      21.843 -13.286  25.321  1.00  0.00     0.020 C 
BRANCH  17  18
HETATM   18  C5  UNL     1      21.285 -14.214  26.401  1.00  0.00     0.077 C 
BRANCH  18  19
HETATM   19  C4  UNL     1      21.568 -15.629  26.154  1.00  0.00     0.082 A 
HETATM   20  N1  UNL     1      20.631 -16.613  26.050  1.00  0.00    -0.350 N 
HETATM   21  C1  UNL     1      19.201 -16.479  26.152  1.00  0.00     0.156 C 
HETATM   22  C2  UNL     1      21.267 -17.772  25.827  1.00  0.00     0.108 A 
HETATM   23  C3  UNL     1      22.618 -17.503  25.794  1.00  0.00     0.106 A 
HETATM   24  N2  UNL     1      22.770 -16.174  25.999  1.00  0.00    -0.354 N 
ATOM     25  H2  UNL     1      23.659 -15.674  26.028  1.00  0.00     0.166 HD
ENDBRANCH  18  19
ENDBRANCH  17  18
ENDBRANCH  16  17
ENDBRANCH  15  16
ENDBRANCH  13  14
ENDBRANCH  11  13
BRANCH  11  26
HETATM   26  N7  UNL     1      16.773 -14.977  20.677  1.00  0.00    -0.225 N 
ATOM     27  H7  UNL     1      16.406 -14.698  19.767  1.00  0.00     0.193 HD
BRANCH  26  28
HETATM   28  C16 UNL     1      16.567 -16.236  21.258  1.00  0.00     0.146 C 
BRANCH  28  29
HETATM   29  C17 UNL     1      15.405 -16.981  20.776  1.00  0.00     0.084 A 
HETATM   30  C18 UNL     1      14.140 -16.703  21.370  1.00  0.00     0.093 A 
HETATM   31  C19 UNL     1      12.985 -17.300  21.005  1.00  0.00     0.040 A 
HETATM   32  C20 UNL     1      13.027 -18.232  20.000  1.00  0.00     0.020 A 
HETATM   33  C21 UNL     1      14.236 -18.496  19.433  1.00  0.00     0.091 A 
HETATM   34  N8  UNL     1      15.416 -17.893  19.798  1.00  0.00    -0.358 N 
HETATM   35  C22 UNL     1      16.552 -18.300  19.034  1.00  0.00     0.156 C 
BRANCH  30  36
HETATM   36  O1  UNL     1      14.158 -15.751  22.383  1.00  0.00    -0.358 OA
ATOM     37  H1  UNL     1      13.484 -15.085  22.323  1.00  0.00     0.217 HD
ENDBRANCH  30  36
ENDBRANCH  28  29
ENDBRANCH  26  28
ENDBRANCH  11  26
ENDBRANCH  10  11
ENDBRANCH   9  10
ENDBRANCH   7   9
ENDBRANCH   5   7
ENDBRANCH   1   5
TORSDOF 15
ENDMDL
MODEL 5
REMARK VINA RESULT: -7.476863715      3.826      7.264
REMARK  15 active torsions:
REMARK  status: ('A' for Active; 'I' for Inactive)
REMARK    1  A    between atoms: C4_7  and  C5_8 
REMARK    2  A    between atoms: C5_8  and  C6_9 
REMARK    3  A    between atoms: C6_9  and  C7_10 
REMARK    4  A    between atoms: C7_10  and  C8_11 
REMARK    5  A    between atoms: C9_12  and  C10_13 
REMARK    6  A    between atoms: C10_13  and  N3_14 
REMARK    7  A    between atoms: N3_14  and  C12_16 
REMARK    8  A    between atoms: N3_14  and  N7_26 
REMARK    9  A    between atoms: C12_16  and  C13_17 
REMARK   10  A    between atoms: C13_17  and  N4_18 
REMARK   11  A    between atoms: N4_18  and  C14_20 
REMARK   12  A    between atoms: C14_20  and  N5_22 
REMARK   13  A    between atoms: N7_26  and  C16_28 
REMARK   14  A    between atoms: C16_28  and  C17_29 
REMARK   15  A    between atoms: C18_30  and  O1_31 
ROOT
HETATM    1  N5  UNL     1      21.402 -13.322  23.579  1.00  0.00    -0.270 N 
ATOM      2  H5  UNL     1      22.070 -12.773  23.038  1.00  0.00     0.180 HD
HETATM    3  C15 UNL     1      21.195 -12.999  24.920  1.00  0.00     0.184 C 
HETATM    4  N6  UNL     1      21.011 -12.720  26.027  1.00  0.00    -0.172 NA
ENDROOT
BRANCH   1   5
HETATM    5  C14 UNL     1      20.725 -14.374  22.948  1.00  0.00     0.180 C 
HETATM    6  S1  UNL     1      20.579 -15.799  23.714  1.00  0.00    -0.040 SA
BRANCH   5   7
HETATM    7  N4  UNL     1      20.178 -14.155  21.632  1.00  0.00    -0.365 N 
ATOM      8  H4  UNL     1      20.202 -14.873  20.909  1.00  0.00     0.161 HD
BRANCH   7   9
HETATM    9  C13 UNL     1      19.593 -12.857  21.399  1.00  0.00     0.152 C 
BRANCH   9  10
HETATM   10  C12 UNL     1      18.134 -12.758  21.671  1.00  0.00     0.285 C 
BRANCH  10  11
HETATM   11  N3  UNL     1      17.295 -12.483  20.533  1.00  0.00     0.019 N 
HETATM   12  C11 UNL     1      17.996 -11.980  19.377  1.00  0.00     0.303 C 
BRANCH  11  13
HETATM   13  C10 UNL     1      16.500 -13.603  20.098  1.00  0.00     0.358 C 
BRANCH  13  14
HETATM   14  C9  UNL     1      16.701 -14.717  21.009  1.00  0.00    -0.076 C 
HETATM   15  C8  UNL     1      16.860 -15.668  21.763  1.00  0.00    -0.105 C 
BRANCH  15  16
HETATM   16  C7  UNL     1      17.022 -16.810  22.663  1.00  0.00     0.094 C 
BRANCH  16  17
HETATM   17  C6  UNL     1      15.683 -17.499  22.803  1.00  0.00     0.020 C 
BRANCH  17  18
HETATM   18  C5  UNL     1      15.385 -18.088  21.424  1.00  0.00     0.077 C 
BRANCH  18  19
HETATM   19  C4  UNL     1      13.956 -18.115  21.100  1.00  0.00     0.082 A 
HETATM   20  N1  UNL     1      13.119 -19.168  21.316  1.00  0.00    -0.350 N 
HETATM   21  C1  UNL     1      13.446 -20.445  21.896  1.00  0.00     0.156 C 
HETATM   22  C2  UNL     1      11.896 -18.822  20.891  1.00  0.00     0.108 A 
HETATM   23  C3  UNL     1      11.976 -17.536  20.403  1.00  0.00     0.106 A 
HETATM   24  N2  UNL     1      13.259 -17.128  20.547  1.00  0.00    -0.354 N 
ATOM     25  H2  UNL     1      13.628 -16.217  20.276  1.00  0.00     0.166 HD
ENDBRANCH  18  19
ENDBRANCH  17  18
ENDBRANCH  16  17
ENDBRANCH  15  16
ENDBRANCH  13  14
ENDBRANCH  11  13
BRANCH  11  26
HETATM   26  N7  UNL     1      16.429 -11.413  20.957  1.00  0.00    -0.225 N 
ATOM     27  H7  UNL     1      16.711 -10.663  21.588  1.00  0.00     0.193 HD
BRANCH  26  28
HETATM   28  C16 UNL     1      15.151 -11.531  20.394  1.00  0.00     0.146 C 
BRANCH  28  29
HETATM   29  C17 UNL     1      14.029 -11.232  21.284  1.00  0.00     0.084 A 
HETATM   30  C18 UNL     1      13.696  -9.864  21.501  1.00  0.00     0.093 A 
HETATM   31  C19 UNL     1      12.673  -9.448  22.278  1.00  0.00     0.040 A 
HETATM   32  C20 UNL     1      11.905 -10.398  22.899  1.00  0.00     0.020 A 
HETATM   33  C21 UNL     1      12.223 -11.705  22.690  1.00  0.00     0.091 A 
HETATM   34  N8  UNL     1      13.262 -12.136  21.900  1.00  0.00    -0.358 N 
HETATM   35  C22 UNL     1      13.380 -13.556  21.797  1.00  0.00     0.156 C 
BRANCH  30  36
HETATM   36  O1  UNL     1      14.510  -8.945  20.847  1.00  0.00    -0.358 OA
ATOM     37  H1  UNL     1      14.066  -8.384  20.223  1.00  0.00     0.217 HD
ENDBRANCH  30  36
ENDBRANCH  28  29
ENDBRANCH  26  28
ENDBRANCH  11  26
ENDBRANCH  10  11
ENDBRANCH   9  10
ENDBRANCH   7   9
ENDBRANCH   5   7
ENDBRANCH   1   5
TORSDOF 15
ENDMDL
