MODEL 1
REMARK VINA RESULT: -6.887735024      0.000      0.000
REMARK  11 active torsions:
REMARK  status: ('A' for Active; 'I' for Inactive)
REMARK    1  A    between atoms: C2_2  and  O1_3 
REMARK    2  A    between atoms: O1_3  and  C3_4 
REMARK    3  A    between atoms: C3_4  and  C4_6 
REMARK    4  A    between atoms: C4_6  and  C5_7 
REMARK    5  A    between atoms: C8_11  and  O3_12 
REMARK    6  A    between atoms: C11_16  and  O4_17 
REMARK    7  A    between atoms: N1_19  and  C12_20 
REMARK    8  A    between atoms: C12_20  and  C13_21 
REMARK    9  A    between atoms: C13_21  and  O6_23 
REMARK   10  A    between atoms: O6_23  and  C14_24 
REMARK   11  A    between atoms: C18_28  and  O7_29 
ROOT
HETATM    1  C4  UNL     1       6.776  20.290  21.902  1.00  0.00     0.088 C 
HETATM    2  C7  UNL     1       7.312  20.436  20.516  1.00  0.00     0.101 C 
HETATM    3  S1  UNL     1       9.069  20.209  20.372  1.00  0.00    -0.131 SA
HETATM    4  C8  UNL     1       9.839  20.783  21.869  1.00  0.00     0.217 C 
HETATM    5  C9  UNL     1       8.875  21.327  22.856  1.00  0.00     0.043 A 
HETATM    6  C10 UNL     1       7.531  21.111  22.869  1.00  0.00     0.026 A 
HETATM    7  C11 UNL     1       7.077  21.832  23.985  1.00  0.00     0.153 A 
HETATM    8  N1  UNL     1       8.100  22.432  24.586  1.00  0.00    -0.298 N 
HETATM    9  C18 UNL     1       9.228  22.154  23.931  1.00  0.00     0.155 A 
ENDROOT
BRANCH   8  10
HETATM   10  C12 UNL     1       8.032  23.268  25.772  1.00  0.00     0.244 C 
BRANCH  10  11
HETATM   11  C13 UNL     1       8.385  24.675  25.483  1.00  0.00     0.278 C 
HETATM   12  O5  UNL     1       9.480  25.206  25.738  1.00  0.00    -0.263 OA
BRANCH  11  13
HETATM   13  O6  UNL     1       7.436  25.470  24.882  1.00  0.00    -0.310 OA
BRANCH  13  14
HETATM   14  C14 UNL     1       6.313  25.978  25.538  1.00  0.00     0.060 C 
HETATM   15  C15 UNL     1       5.087  25.294  24.968  1.00  0.00     0.045 C 
HETATM   16  C16 UNL     1       6.184  27.468  25.262  1.00  0.00     0.045 C 
HETATM   17  C17 UNL     1       6.309  25.789  27.019  1.00  0.00     0.045 C 
ENDBRANCH  13  14
ENDBRANCH  11  13
ENDBRANCH  10  11
ENDBRANCH   8  10
BRANCH   7  18
HETATM   18  O4  UNL     1       5.755  21.930  24.433  1.00  0.00    -0.345 OA
ATOM     19  H4  UNL     1       5.396  21.548  25.225  1.00  0.00     0.219 HD
ENDBRANCH   7  18
BRANCH   9  20
HETATM   20  O7  UNL     1      10.496  22.611  24.272  1.00  0.00    -0.345 OA
ATOM     21  H7  UNL     1      11.290  22.099  24.373  1.00  0.00     0.219 HD
ENDBRANCH   9  20
BRANCH   1  22
HETATM   22  C3  UNL     1       5.399  20.891  21.839  1.00  0.00     0.273 C 
HETATM   23  O2  UNL     1       5.210  21.993  21.279  1.00  0.00    -0.264 OA
BRANCH  22  24
HETATM   24  O1  UNL     1       4.282  20.277  22.385  1.00  0.00    -0.321 OA
BRANCH  24  25
HETATM   25  C2  UNL     1       2.971  20.721  22.211  1.00  0.00     0.174 C 
HETATM   26  C1  UNL     1       2.417  21.012  23.612  1.00  0.00     0.034 C 
ENDBRANCH  24  25
ENDBRANCH  22  24
ENDBRANCH   1  22
BRANCH   1  27
HETATM   27  C5  UNL     1       6.602  18.875  22.359  1.00  0.00     0.021 C 
HETATM   28  C6  UNL     1       7.449  18.437  23.494  1.00  0.00     0.006 C 
ENDBRANCH   1  27
BRANCH   4  29
HETATM   29  O3  UNL     1      10.827  21.732  21.563  1.00  0.00    -0.380 OA
ATOM     30  H3  UNL     1      11.173  22.107  22.364  1.00  0.00     0.211 HD
ENDBRANCH   4  29
TORSDOF 11
ENDMDL
MODEL 2
REMARK VINA RESULT: -6.578627986      2.614      6.153
REMARK  11 active torsions:
REMARK  status: ('A' for Active; 'I' for Inactive)
REMARK    1  A    between atoms: C2_2  and  O1_3 
REMARK    2  A    between atoms: O1_3  and  C3_4 
REMARK    3  A    between atoms: C3_4  and  C4_6 
REMARK    4  A    between atoms: C4_6  and  C5_7 
REMARK    5  A    between atoms: C8_11  and  O3_12 
REMARK    6  A    between atoms: C11_16  and  O4_17 
REMARK    7  A    between atoms: N1_19  and  C12_20 
REMARK    8  A    between atoms: C12_20  and  C13_21 
REMARK    9  A    between atoms: C13_21  and  O6_23 
REMARK   10  A    between atoms: O6_23  and  C14_24 
REMARK   11  A    between atoms: C18_28  and  O7_29 
ROOT
HETATM    1  C4  UNL     1       3.936  23.033  22.741  1.00  0.00     0.088 C 
HETATM    2  C7  UNL     1       3.434  23.900  21.633  1.00  0.00     0.101 C 
HETATM    3  S1  UNL     1       2.318  23.096  20.508  1.00  0.00    -0.131 SA
HETATM    4  C8  UNL     1       2.776  21.382  20.384  1.00  0.00     0.217 C 
HETATM    5  C9  UNL     1       3.963  21.028  21.200  1.00  0.00     0.043 A 
HETATM    6  C10 UNL     1       4.471  21.755  22.233  1.00  0.00     0.026 A 
HETATM    7  C11 UNL     1       5.576  21.007  22.669  1.00  0.00     0.153 A 
HETATM    8  N1  UNL     1       5.703  19.908  21.931  1.00  0.00    -0.298 N 
HETATM    9  C18 UNL     1       4.735  19.874  21.013  1.00  0.00     0.155 A 
ENDROOT
BRANCH   8  10
HETATM   10  C12 UNL     1       6.724  18.885  22.074  1.00  0.00     0.244 C 
BRANCH  10  11
HETATM   11  C13 UNL     1       7.812  19.042  21.086  1.00  0.00     0.278 C 
HETATM   12  O5  UNL     1       7.743  18.720  19.887  1.00  0.00    -0.263 OA
BRANCH  11  13
HETATM   13  O6  UNL     1       9.002  19.587  21.514  1.00  0.00    -0.310 OA
BRANCH  13  14
HETATM   14  C14 UNL     1       9.448  20.863  21.164  1.00  0.00     0.060 C 
HETATM   15  C15 UNL     1      10.407  20.720  19.999  1.00  0.00     0.045 C 
HETATM   16  C16 UNL     1      10.216  21.477  22.325  1.00  0.00     0.045 C 
HETATM   17  C17 UNL     1       8.373  21.821  20.772  1.00  0.00     0.045 C 
ENDBRANCH  13  14
ENDBRANCH  11  13
ENDBRANCH  10  11
ENDBRANCH   8  10
BRANCH   7  18
HETATM   18  O4  UNL     1       6.443  21.331  23.719  1.00  0.00    -0.345 OA
ATOM     19  H4  UNL     1       7.392  21.300  23.701  1.00  0.00     0.219 HD
ENDBRANCH   7  18
BRANCH   9  20
HETATM   20  O7  UNL     1       4.553  18.873  20.066  1.00  0.00    -0.345 OA
ATOM     21  H7  UNL     1       4.216  18.964  19.182  1.00  0.00     0.219 HD
ENDBRANCH   9  20
BRANCH   1  22
HETATM   22  C3  UNL     1       5.114  23.780  23.300  1.00  0.00     0.273 C 
HETATM   23  O2  UNL     1       5.988  24.253  22.540  1.00  0.00    -0.264 OA
BRANCH  22  24
HETATM   24  O1  UNL     1       5.302  23.986  24.658  1.00  0.00    -0.321 OA
BRANCH  24  25
HETATM   25  C2  UNL     1       6.207  24.898  25.203  1.00  0.00     0.174 C 
HETATM   26  C1  UNL     1       7.389  24.078  25.738  1.00  0.00     0.034 C 
ENDBRANCH  24  25
ENDBRANCH  22  24
ENDBRANCH   1  22
BRANCH   1  27
HETATM   27  C5  UNL     1       2.974  22.847  23.872  1.00  0.00     0.021 C 
HETATM   28  C6  UNL     1       2.680  21.449  24.269  1.00  0.00     0.006 C 
ENDBRANCH   1  27
BRANCH   4  29
HETATM   29  O3  UNL     1       2.978  21.039  19.038  1.00  0.00    -0.380 OA
ATOM     30  H3  UNL     1       2.624  20.174  18.869  1.00  0.00     0.211 HD
ENDBRANCH   4  29
TORSDOF 11
ENDMDL
MODEL 3
REMARK VINA RESULT: -6.557062859      3.187      5.417
REMARK  11 active torsions:
REMARK  status: ('A' for Active; 'I' for Inactive)
REMARK    1  A    between atoms: C2_2  and  O1_3 
REMARK    2  A    between atoms: O1_3  and  C3_4 
REMARK    3  A    between atoms: C3_4  and  C4_6 
REMARK    4  A    between atoms: C4_6  and  C5_7 
REMARK    5  A    between atoms: C8_11  and  O3_12 
REMARK    6  A    between atoms: C11_16  and  O4_17 
REMARK    7  A    between atoms: N1_19  and  C12_20 
REMARK    8  A    between atoms: C12_20  and  C13_21 
REMARK    9  A    between atoms: C13_21  and  O6_23 
REMARK   10  A    between atoms: O6_23  and  C14_24 
REMARK   11  A    between atoms: C18_28  and  O7_29 
ROOT
HETATM    1  C4  UNL     1       5.619  23.420  23.004  1.00  0.00     0.088 C 
HETATM    2  C7  UNL     1       4.345  22.710  22.682  1.00  0.00     0.101 C 
HETATM    3  S1  UNL     1       3.115  23.716  21.886  1.00  0.00    -0.131 SA
HETATM    4  C8  UNL     1       3.274  25.384  22.484  1.00  0.00     0.217 C 
HETATM    5  C9  UNL     1       4.345  25.547  23.497  1.00  0.00     0.043 A 
HETATM    6  C10 UNL     1       5.372  24.684  23.724  1.00  0.00     0.026 A 
HETATM    7  C11 UNL     1       6.099  25.281  24.767  1.00  0.00     0.153 A 
HETATM    8  N1  UNL     1       5.527  26.427  25.124  1.00  0.00    -0.298 N 
HETATM    9  C18 UNL     1       4.443  26.637  24.374  1.00  0.00     0.155 A 
ENDROOT
BRANCH   8  10
HETATM   10  C12 UNL     1       5.983  27.332  26.164  1.00  0.00     0.244 C 
BRANCH  10  11
HETATM   11  C13 UNL     1       5.539  26.904  27.508  1.00  0.00     0.278 C 
HETATM   12  O5  UNL     1       6.198  27.033  28.554  1.00  0.00    -0.263 OA
BRANCH  11  13
HETATM   13  O6  UNL     1       4.301  26.315  27.624  1.00  0.00    -0.310 OA
BRANCH  13  14
HETATM   14  C14 UNL     1       3.192  26.933  28.206  1.00  0.00     0.060 C 
HETATM   15  C15 UNL     1       2.943  26.280  29.550  1.00  0.00     0.045 C 
HETATM   16  C16 UNL     1       1.961  26.703  27.343  1.00  0.00     0.045 C 
HETATM   17  C17 UNL     1       3.330  28.404  28.417  1.00  0.00     0.045 C 
ENDBRANCH  13  14
ENDBRANCH  11  13
ENDBRANCH  10  11
ENDBRANCH   8  10
BRANCH   7  18
HETATM   18  O4  UNL     1       7.260  24.781  25.369  1.00  0.00    -0.345 OA
ATOM     19  H4  UNL     1       7.990  24.361  24.929  1.00  0.00     0.219 HD
ENDBRANCH   7  18
BRANCH   9  20
HETATM   20  O7  UNL     1       3.594  27.733  24.466  1.00  0.00    -0.345 OA
ATOM     21  H7  UNL     1       3.667  28.476  25.054  1.00  0.00     0.219 HD
ENDBRANCH   9  20
BRANCH   1  22
HETATM   22  C3  UNL     1       6.317  22.517  23.982  1.00  0.00     0.273 C 
HETATM   23  O2  UNL     1       5.689  22.001  24.933  1.00  0.00    -0.264 OA
BRANCH  22  24
HETATM   24  O1  UNL     1       7.666  22.209  23.895  1.00  0.00    -0.321 OA
BRANCH  24  25
HETATM   25  C2  UNL     1       8.182  20.912  23.884  1.00  0.00     0.174 C 
HETATM   26  C1  UNL     1       9.362  20.917  22.903  1.00  0.00     0.034 C 
ENDBRANCH  24  25
ENDBRANCH  22  24
ENDBRANCH   1  22
BRANCH   1  27
HETATM   27  C5  UNL     1       6.549  23.589  21.843  1.00  0.00     0.021 C 
HETATM   28  C6  UNL     1       6.441  22.587  20.756  1.00  0.00     0.006 C 
ENDBRANCH   1  27
BRANCH   4  29
HETATM   29  O3  UNL     1       2.041  25.829  22.987  1.00  0.00    -0.380 OA
ATOM     30  H3  UNL     1       2.164  26.637  23.472  1.00  0.00     0.211 HD
ENDBRANCH   4  29
TORSDOF 11
ENDMDL
MODEL 4
REMARK VINA RESULT: -6.472276088      2.471      5.341
REMARK  11 active torsions:
REMARK  status: ('A' for Active; 'I' for Inactive)
REMARK    1  A    between atoms: C2_2  and  O1_3 
REMARK    2  A    between atoms: O1_3  and  C3_4 
REMARK    3  A    between atoms: C3_4  and  C4_6 
REMARK    4  A    between atoms: C4_6  and  C5_7 
REMARK    5  A    between atoms: C8_11  and  O3_12 
REMARK    6  A    between atoms: C11_16  and  O4_17 
REMARK    7  A    between atoms: N1_19  and  C12_20 
REMARK    8  A    between atoms: C12_20  and  C13_21 
REMARK    9  A    between atoms: C13_21  and  O6_23 
REMARK   10  A    between atoms: O6_23  and  C14_24 
REMARK   11  A    between atoms: C18_28  and  O7_29 
ROOT
HETATM    1  C4  UNL     1       4.397  23.942  23.225  1.00  0.00     0.088 C 
HETATM    2  C7  UNL     1       3.838  24.883  24.242  1.00  0.00     0.101 C 
HETATM    3  S1  UNL     1       4.978  26.121  24.813  1.00  0.00    -0.131 SA
HETATM    4  C8  UNL     1       6.618  25.430  24.800  1.00  0.00     0.217 C 
HETATM    5  C9  UNL     1       6.658  24.016  24.355  1.00  0.00     0.043 A 
HETATM    6  C10 UNL     1       5.682  23.365  23.665  1.00  0.00     0.026 A 
HETATM    7  C11 UNL     1       6.193  22.069  23.487  1.00  0.00     0.153 A 
HETATM    8  N1  UNL     1       7.397  21.974  24.042  1.00  0.00    -0.298 N 
HETATM    9  C18 UNL     1       7.730  23.144  24.589  1.00  0.00     0.155 A 
ENDROOT
BRANCH   8  10
HETATM   10  C12 UNL     1       8.245  20.794  24.066  1.00  0.00     0.244 C 
BRANCH  10  11
HETATM   11  C13 UNL     1       9.304  20.848  23.036  1.00  0.00     0.278 C 
HETATM   12  O5  UNL     1      10.237  21.668  23.009  1.00  0.00    -0.263 OA
BRANCH  11  13
HETATM   13  O6  UNL     1       9.265  19.920  22.020  1.00  0.00    -0.310 OA
BRANCH  13  14
HETATM   14  C14 UNL     1       9.011  20.234  20.683  1.00  0.00     0.060 C 
HETATM   15  C15 UNL     1       8.459  18.994  20.008  1.00  0.00     0.045 C 
HETATM   16  C16 UNL     1      10.309  20.605  19.984  1.00  0.00     0.045 C 
HETATM   17  C17 UNL     1       8.045  21.352  20.472  1.00  0.00     0.045 C 
ENDBRANCH  13  14
ENDBRANCH  11  13
ENDBRANCH  10  11
ENDBRANCH   8  10
BRANCH   7  18
HETATM   18  O4  UNL     1       5.563  21.006  22.830  1.00  0.00    -0.345 OA
ATOM     19  H4  UNL     1       5.154  20.251  23.237  1.00  0.00     0.219 HD
ENDBRANCH   7  18
BRANCH   9  20
HETATM   20  O7  UNL     1       8.917  23.417  25.258  1.00  0.00    -0.345 OA
ATOM     21  H7  UNL     1       9.804  23.322  24.930  1.00  0.00     0.219 HD
ENDBRANCH   9  20
BRANCH   1  22
HETATM   22  C3  UNL     1       3.421  22.799  23.193  1.00  0.00     0.273 C 
HETATM   23  O2  UNL     1       3.019  22.274  24.255  1.00  0.00    -0.264 OA
BRANCH  22  24
HETATM   24  O1  UNL     1       2.918  22.269  22.015  1.00  0.00    -0.321 OA
BRANCH  24  25
HETATM   25  C2  UNL     1       2.156  21.102  21.934  1.00  0.00     0.174 C 
HETATM   26  C1  UNL     1       2.745  20.273  20.785  1.00  0.00     0.034 C 
ENDBRANCH  24  25
ENDBRANCH  22  24
ENDBRANCH   1  22
BRANCH   1  27
HETATM   27  C5  UNL     1       4.456  24.490  21.834  1.00  0.00     0.021 C 
HETATM   28  C6  UNL     1       5.613  24.072  21.006  1.00  0.00     0.006 C 
ENDBRANCH   1  27
BRANCH   4  29
HETATM   29  O3  UNL     1       7.203  25.569  26.068  1.00  0.00    -0.380 OA
ATOM     30  H3  UNL     1       7.026  24.796  26.592  1.00  0.00     0.211 HD
ENDBRANCH   4  29
TORSDOF 11
ENDMDL
MODEL 5
REMARK VINA RESULT: -6.406153201      2.485      5.590
REMARK  11 active torsions:
REMARK  status: ('A' for Active; 'I' for Inactive)
REMARK    1  A    between atoms: C2_2  and  O1_3 
REMARK    2  A    between atoms: O1_3  and  C3_4 
REMARK    3  A    between atoms: C3_4  and  C4_6 
REMARK    4  A    between atoms: C4_6  and  C5_7 
REMARK    5  A    between atoms: C8_11  and  O3_12 
REMARK    6  A    between atoms: C11_16  and  O4_17 
REMARK    7  A    between atoms: N1_19  and  C12_20 
REMARK    8  A    between atoms: C12_20  and  C13_21 
REMARK    9  A    between atoms: C13_21  and  O6_23 
REMARK   10  A    between atoms: O6_23  and  C14_24 
REMARK   11  A    between atoms: C18_28  and  O7_29 
ROOT
HETATM    1  C4  UNL     1       3.822  22.769  22.894  1.00  0.00     0.088 C 
HETATM    2  C7  UNL     1       3.131  22.622  21.578  1.00  0.00     0.101 C 
HETATM    3  S1  UNL     1       2.656  20.958  21.171  1.00  0.00    -0.131 SA
HETATM    4  C8  UNL     1       3.852  19.841  21.868  1.00  0.00     0.217 C 
HETATM    5  C9  UNL     1       4.953  20.529  22.585  1.00  0.00     0.043 A 
HETATM    6  C10 UNL     1       4.939  21.814  23.034  1.00  0.00     0.026 A 
HETATM    7  C11 UNL     1       6.196  21.982  23.635  1.00  0.00     0.153 A 
HETATM    8  N1  UNL     1       6.901  20.859  23.542  1.00  0.00    -0.298 N 
HETATM    9  C18 UNL     1       6.181  19.933  22.904  1.00  0.00     0.155 A 
ENDROOT
BRANCH   8  10
HETATM   10  C12 UNL     1       8.246  20.639  24.044  1.00  0.00     0.244 C 
BRANCH  10  11
HETATM   11  C13 UNL     1       9.272  20.862  23.003  1.00  0.00     0.278 C 
HETATM   12  O5  UNL     1      10.091  21.797  22.992  1.00  0.00    -0.263 OA
BRANCH  11  13
HETATM   13  O6  UNL     1       9.337  19.969  21.957  1.00  0.00    -0.310 OA
BRANCH  13  14
HETATM   14  C14 UNL     1       9.120  20.312  20.621  1.00  0.00     0.060 C 
HETATM   15  C15 UNL     1       8.655  19.069  19.889  1.00  0.00     0.045 C 
HETATM   16  C16 UNL     1      10.426  20.764  19.986  1.00  0.00     0.045 C 
HETATM   17  C17 UNL     1       8.112  21.390  20.403  1.00  0.00     0.045 C 
ENDBRANCH  13  14
ENDBRANCH  11  13
ENDBRANCH  10  11
ENDBRANCH   8  10
BRANCH   7  18
HETATM   18  O4  UNL     1       6.678  23.143  24.253  1.00  0.00    -0.345 OA
ATOM     19  H4  UNL     1       7.402  23.199  24.865  1.00  0.00     0.219 HD
ENDBRANCH   7  18
BRANCH   9  20
HETATM   20  O7  UNL     1       6.596  18.637  22.624  1.00  0.00    -0.345 OA
ATOM     21  H7  UNL     1       7.338  18.365  22.097  1.00  0.00     0.219 HD
ENDBRANCH   9  20
BRANCH   1  22
HETATM   22  C3  UNL     1       4.452  24.133  22.839  1.00  0.00     0.273 C 
HETATM   23  O2  UNL     1       4.976  24.551  21.782  1.00  0.00    -0.264 OA
BRANCH  22  24
HETATM   24  O1  UNL     1       4.490  24.992  23.926  1.00  0.00    -0.321 OA
BRANCH  24  25
HETATM   25  C2  UNL     1       4.149  26.344  23.880  1.00  0.00     0.174 C 
HETATM   26  C1  UNL     1       3.055  26.557  24.936  1.00  0.00     0.034 C 
ENDBRANCH  24  25
ENDBRANCH  22  24
ENDBRANCH   1  22
BRANCH   1  27
HETATM   27  C5  UNL     1       2.911  22.769  24.081  1.00  0.00     0.021 C 
HETATM   28  C6  UNL     1       1.537  23.282  23.862  1.00  0.00     0.006 C 
ENDBRANCH   1  27
BRANCH   4  29
HETATM   29  O3  UNL     1       4.360  19.001  20.865  1.00  0.00    -0.380 OA
ATOM     30  H3  UNL     1       5.310  19.027  20.873  1.00  0.00     0.211 HD
ENDBRANCH   4  29
TORSDOF 11
ENDMDL
