MODEL 1
REMARK VINA RESULT: -6.912477197      0.000      0.000
REMARK  9 active torsions:
REMARK  status: ('A' for Active; 'I' for Inactive)
REMARK    1  A    between atoms: O1_2  and  C2_3 
REMARK    2  A    between atoms: C2_3  and  C3_5 
REMARK    3  A    between atoms: C3_5  and  N1_6 
REMARK    4  A    between atoms: N1_6  and  C4_9 
REMARK    5  A    between atoms: C4_9  and  C6_11 
REMARK    6  A    between atoms: C8_14  and  O4_15 
REMARK    7  A    between atoms: C9_17  and  N2_18 
REMARK    8  A    between atoms: N2_18  and  N3_19 
REMARK    9  A    between atoms: C12_26  and  C13_27 
ROOT
HETATM    1  C6  UNL     1       1.902  23.730  20.352  1.00  0.00     0.113 C 
HETATM    2  C7  UNL     1       2.889  23.445  21.474  1.00  0.00     0.196 C 
HETATM    3  O3  UNL     1       3.127  24.606  22.266  1.00  0.00    -0.327 OA
HETATM    4  C8  UNL     1       4.201  24.949  23.025  1.00  0.00     0.219 C 
HETATM    5  C9  UNL     1       5.160  24.138  23.735  1.00  0.00     0.175 C 
HETATM    6  C10 UNL     1       5.739  22.917  23.076  1.00  0.00     0.166 C 
HETATM    7  S1  UNL     1       7.159  22.214  23.965  1.00  0.00    -0.090 SA
HETATM    8  S2  UNL     1       7.716  20.473  22.879  1.00  0.00    -0.096 SA
HETATM    9  C11 UNL     1       6.234  19.734  22.081  1.00  0.00     0.103 C 
HETATM   10  C12 UNL     1       5.978  20.351  20.747  1.00  0.00     0.115 C 
HETATM   11  C14 UNL     1       4.551  20.140  20.250  1.00  0.00     0.025 C 
HETATM   12  C15 UNL     1       4.600  18.860  19.413  1.00  0.00     0.028 C 
HETATM   13  C16 UNL     1       3.615  19.798  21.405  1.00  0.00     0.028 C 
HETATM   14  S3  UNL     1       4.102  21.584  19.338  1.00  0.00    -0.087 SA
HETATM   15  S4  UNL     1       2.131  22.190  19.266  1.00  0.00    -0.088 SA
ENDROOT
BRANCH   1  16
HETATM   16  C4  UNL     1       0.478  23.671  20.790  1.00  0.00     0.199 C 
HETATM   17  C5  UNL     1      -0.353  24.084  19.521  1.00  0.00     0.041 C 
BRANCH  16  18
HETATM   18  N1  UNL     1       0.223  24.834  21.702  1.00  0.00    -0.061 N 
ATOM     19  H12 UNL     1      -0.262  25.607  21.245  1.00  0.00     0.278 HD
ATOM     20  H11 UNL     1       1.069  25.345  21.951  1.00  0.00     0.278 HD
BRANCH  18  21
HETATM   21  C3  UNL     1      -0.491  24.306  22.852  1.00  0.00     0.343 C 
BRANCH  21  22
HETATM   22  C2  UNL     1       0.228  24.033  24.086  1.00  0.00     0.284 C 
HETATM   23  O2  UNL     1       0.842  22.931  24.196  1.00  0.00    -0.263 OA
BRANCH  22  24
HETATM   24  O1  UNL     1       0.322  24.892  25.186  1.00  0.00    -0.325 OA
HETATM   25  C1  UNL     1       1.571  25.360  25.614  1.00  0.00     0.213 C 
ENDBRANCH  22  24
ENDBRANCH  21  22
ENDBRANCH  18  21
ENDBRANCH  16  18
ENDBRANCH   1  16
BRANCH   4  26
HETATM   26  O4  UNL     1       4.392  26.267  23.116  1.00  0.00    -0.339 OA
ATOM     27  H4  UNL     1       5.271  26.541  22.881  1.00  0.00     0.220 HD
ENDBRANCH   4  26
BRANCH   5  28
HETATM   28  N2  UNL     1       5.570  24.402  24.919  1.00  0.00    -0.332 NA
BRANCH  28  29
HETATM   29  N3  UNL     1       5.976  24.784  25.984  1.00  0.00    -0.280 N 
ATOM     30  H32 UNL     1       5.927  25.707  25.553  1.00  0.00     0.191 HD
ATOM     31  H31 UNL     1       6.320  24.990  26.922  1.00  0.00     0.191 HD
ENDBRANCH  28  29
ENDBRANCH   5  28
BRANCH  10  32
HETATM   32  C13 UNL     1       6.996  19.873  19.765  1.00  0.00     0.179 C 
HETATM   33  O5  UNL     1       7.419  20.699  18.928  1.00  0.00    -0.648 OA
HETATM   34  O6  UNL     1       7.479  18.564  19.748  1.00  0.00    -0.648 OA
ENDBRANCH  10  32
TORSDOF 9
ENDMDL
MODEL 2
REMARK VINA RESULT: -6.703488773      0.887      1.412
REMARK  9 active torsions:
REMARK  status: ('A' for Active; 'I' for Inactive)
REMARK    1  A    between atoms: O1_2  and  C2_3 
REMARK    2  A    between atoms: C2_3  and  C3_5 
REMARK    3  A    between atoms: C3_5  and  N1_6 
REMARK    4  A    between atoms: N1_6  and  C4_9 
REMARK    5  A    between atoms: C4_9  and  C6_11 
REMARK    6  A    between atoms: C8_14  and  O4_15 
REMARK    7  A    between atoms: C9_17  and  N2_18 
REMARK    8  A    between atoms: N2_18  and  N3_19 
REMARK    9  A    between atoms: C12_26  and  C13_27 
ROOT
HETATM    1  C6  UNL     1       1.893  23.834  20.353  1.00  0.00     0.113 C 
HETATM    2  C7  UNL     1       2.871  23.528  21.477  1.00  0.00     0.196 C 
HETATM    3  O3  UNL     1       3.126  24.682  22.274  1.00  0.00    -0.327 OA
HETATM    4  C8  UNL     1       4.202  25.005  23.038  1.00  0.00     0.219 C 
HETATM    5  C9  UNL     1       5.146  24.176  23.749  1.00  0.00     0.175 C 
HETATM    6  C10 UNL     1       5.707  22.947  23.086  1.00  0.00     0.166 C 
HETATM    7  S1  UNL     1       7.112  22.218  23.978  1.00  0.00    -0.090 SA
HETATM    8  S2  UNL     1       7.644  20.472  22.888  1.00  0.00    -0.096 SA
HETATM    9  C11 UNL     1       6.153  19.761  22.082  1.00  0.00     0.103 C 
HETATM   10  C12 UNL     1       5.912  20.387  20.749  1.00  0.00     0.115 C 
HETATM   11  C14 UNL     1       4.483  20.201  20.247  1.00  0.00     0.025 C 
HETATM   12  C15 UNL     1       4.514  18.923  19.405  1.00  0.00     0.028 C 
HETATM   13  C16 UNL     1       3.538  19.871  21.398  1.00  0.00     0.028 C 
HETATM   14  S3  UNL     1       4.061  21.655  19.339  1.00  0.00    -0.087 SA
HETATM   15  S4  UNL     1       2.101  22.294  19.262  1.00  0.00    -0.088 SA
ENDROOT
BRANCH   1  16
HETATM   16  C4  UNL     1       0.467  23.797  20.786  1.00  0.00     0.199 C 
HETATM   17  C5  UNL     1      -0.324  24.519  19.636  1.00  0.00     0.041 C 
BRANCH  16  18
HETATM   18  N1  UNL     1       0.298  24.768  21.916  1.00  0.00    -0.061 N 
ATOM     19  H12 UNL     1      -0.088  25.666  21.623  1.00  0.00     0.278 HD
ATOM     20  H11 UNL     1       1.182  25.123  22.280  1.00  0.00     0.278 HD
BRANCH  18  21
HETATM   21  C3  UNL     1      -0.509  24.095  22.920  1.00  0.00     0.343 C 
BRANCH  21  22
HETATM   22  C2  UNL     1      -0.182  22.735  23.316  1.00  0.00     0.284 C 
HETATM   23  O2  UNL     1       0.840  22.547  24.040  1.00  0.00    -0.263 OA
BRANCH  22  24
HETATM   24  O1  UNL     1      -0.908  21.587  22.981  1.00  0.00    -0.325 OA
HETATM   25  C1  UNL     1      -2.227  21.693  22.522  1.00  0.00     0.213 C 
ENDBRANCH  22  24
ENDBRANCH  21  22
ENDBRANCH  18  21
ENDBRANCH  16  18
ENDBRANCH   1  16
BRANCH   4  26
HETATM   26  O4  UNL     1       4.415  26.319  23.135  1.00  0.00    -0.339 OA
ATOM     27  H4  UNL     1       5.293  26.543  23.422  1.00  0.00     0.220 HD
ENDBRANCH   4  26
BRANCH   5  28
HETATM   28  N2  UNL     1       5.556  24.428  24.935  1.00  0.00    -0.332 NA
BRANCH  28  29
HETATM   29  N3  UNL     1       5.965  24.800  26.003  1.00  0.00    -0.280 N 
ATOM     30  H32 UNL     1       5.435  25.646  25.793  1.00  0.00     0.191 HD
ATOM     31  H31 UNL     1       6.368  25.007  26.917  1.00  0.00     0.191 HD
ENDBRANCH  28  29
ENDBRANCH   5  28
BRANCH  10  32
HETATM   32  C13 UNL     1       6.925  19.895  19.769  1.00  0.00     0.179 C 
HETATM   33  O5  UNL     1       7.364  20.717  18.936  1.00  0.00    -0.648 OA
HETATM   34  O6  UNL     1       7.387  18.579  19.750  1.00  0.00    -0.648 OA
ENDBRANCH  10  32
TORSDOF 9
ENDMDL
MODEL 3
REMARK VINA RESULT: -6.697805384      1.960      2.334
REMARK  9 active torsions:
REMARK  status: ('A' for Active; 'I' for Inactive)
REMARK    1  A    between atoms: O1_2  and  C2_3 
REMARK    2  A    between atoms: C2_3  and  C3_5 
REMARK    3  A    between atoms: C3_5  and  N1_6 
REMARK    4  A    between atoms: N1_6  and  C4_9 
REMARK    5  A    between atoms: C4_9  and  C6_11 
REMARK    6  A    between atoms: C8_14  and  O4_15 
REMARK    7  A    between atoms: C9_17  and  N2_18 
REMARK    8  A    between atoms: N2_18  and  N3_19 
REMARK    9  A    between atoms: C12_26  and  C13_27 
ROOT
HETATM    1  C6  UNL     1       1.685  23.921  20.564  1.00  0.00     0.113 C 
HETATM    2  C7  UNL     1       2.711  23.609  21.643  1.00  0.00     0.196 C 
HETATM    3  O3  UNL     1       3.002  24.759  22.433  1.00  0.00    -0.327 OA
HETATM    4  C8  UNL     1       4.111  25.077  23.150  1.00  0.00     0.219 C 
HETATM    5  C9  UNL     1       5.084  24.244  23.815  1.00  0.00     0.175 C 
HETATM    6  C10 UNL     1       5.613  23.017  23.124  1.00  0.00     0.166 C 
HETATM    7  S1  UNL     1       7.055  22.282  23.951  1.00  0.00    -0.090 SA
HETATM    8  S2  UNL     1       7.536  20.539  22.831  1.00  0.00    -0.096 SA
HETATM    9  C11 UNL     1       6.009  19.834  22.088  1.00  0.00     0.103 C 
HETATM   10  C12 UNL     1       5.711  20.465  20.770  1.00  0.00     0.115 C 
HETATM   11  C14 UNL     1       4.262  20.284  20.330  1.00  0.00     0.025 C 
HETATM   12  C15 UNL     1       4.253  19.010  19.483  1.00  0.00     0.028 C 
HETATM   13  C16 UNL     1       3.367  19.950  21.520  1.00  0.00     0.028 C 
HETATM   14  S3  UNL     1       3.803  21.742  19.447  1.00  0.00    -0.087 SA
HETATM   15  S4  UNL     1       1.842  22.384  19.459  1.00  0.00    -0.088 SA
ENDROOT
BRANCH   1  16
HETATM   16  C4  UNL     1       0.279  23.884  21.059  1.00  0.00     0.199 C 
HETATM   17  C5  UNL     1      -0.600  23.702  19.768  1.00  0.00     0.041 C 
BRANCH  16  18
HETATM   18  N1  UNL     1      -0.102  25.271  21.483  1.00  0.00    -0.061 N 
ATOM     19  H12 UNL     1       0.669  25.937  21.426  1.00  0.00     0.278 HD
ATOM     20  H11 UNL     1      -0.268  25.356  22.485  1.00  0.00     0.278 HD
BRANCH  18  21
HETATM   21  C3  UNL     1      -1.250  25.647  20.675  1.00  0.00     0.343 C 
BRANCH  21  22
HETATM   22  C2  UNL     1      -1.868  26.950  20.860  1.00  0.00     0.284 C 
HETATM   23  O2  UNL     1      -1.530  27.894  20.085  1.00  0.00    -0.263 OA
BRANCH  22  24
HETATM   24  O1  UNL     1      -2.831  27.271  21.823  1.00  0.00    -0.325 OA
HETATM   25  C1  UNL     1      -3.563  28.461  21.723  1.00  0.00     0.213 C 
ENDBRANCH  22  24
ENDBRANCH  21  22
ENDBRANCH  18  21
ENDBRANCH  16  18
ENDBRANCH   1  16
BRANCH   4  26
HETATM   26  O4  UNL     1       4.331  26.390  23.243  1.00  0.00    -0.339 OA
ATOM     27  H4  UNL     1       5.227  26.612  23.467  1.00  0.00     0.220 HD
ENDBRANCH   4  26
BRANCH   5  28
HETATM   28  N2  UNL     1       5.545  24.490  24.984  1.00  0.00    -0.332 NA
BRANCH  28  29
HETATM   29  N3  UNL     1       5.980  24.861  26.041  1.00  0.00    -0.280 N 
ATOM     30  H32 UNL     1       6.404  25.605  25.487  1.00  0.00     0.191 HD
ATOM     31  H31 UNL     1       6.290  25.080  26.989  1.00  0.00     0.191 HD
ENDBRANCH  28  29
ENDBRANCH   5  28
BRANCH  10  32
HETATM   32  C13 UNL     1       6.680  19.977  19.745  1.00  0.00     0.179 C 
HETATM   33  O5  UNL     1       7.094  20.804  18.904  1.00  0.00    -0.648 OA
HETATM   34  O6  UNL     1       7.127  18.656  19.691  1.00  0.00    -0.648 OA
ENDBRANCH  10  32
TORSDOF 9
ENDMDL
MODEL 4
REMARK VINA RESULT: -6.566331337      2.223      5.170
REMARK  9 active torsions:
REMARK  status: ('A' for Active; 'I' for Inactive)
REMARK    1  A    between atoms: O1_2  and  C2_3 
REMARK    2  A    between atoms: C2_3  and  C3_5 
REMARK    3  A    between atoms: C3_5  and  N1_6 
REMARK    4  A    between atoms: N1_6  and  C4_9 
REMARK    5  A    between atoms: C4_9  and  C6_11 
REMARK    6  A    between atoms: C8_14  and  O4_15 
REMARK    7  A    between atoms: C9_17  and  N2_18 
REMARK    8  A    between atoms: N2_18  and  N3_19 
REMARK    9  A    between atoms: C12_26  and  C13_27 
ROOT
HETATM    1  C6  UNL     1       5.921  23.047  24.066  1.00  0.00     0.113 C 
HETATM    2  C7  UNL     1       4.784  23.275  23.081  1.00  0.00     0.196 C 
HETATM    3  O3  UNL     1       3.747  24.065  23.656  1.00  0.00    -0.327 OA
HETATM    4  C8  UNL     1       2.423  24.131  23.359  1.00  0.00     0.219 C 
HETATM    5  C9  UNL     1       1.714  23.915  22.121  1.00  0.00     0.175 C 
HETATM    6  C10 UNL     1       2.077  22.743  21.249  1.00  0.00     0.166 C 
HETATM    7  S1  UNL     1       0.881  22.431  19.917  1.00  0.00    -0.090 SA
HETATM    8  S2  UNL     1       1.671  20.802  18.802  1.00  0.00    -0.096 SA
HETATM    9  C11 UNL     1       3.508  20.833  18.869  1.00  0.00     0.103 C 
HETATM   10  C12 UNL     1       4.014  20.112  20.074  1.00  0.00     0.115 C 
HETATM   11  C14 UNL     1       5.446  20.486  20.442  1.00  0.00     0.025 C 
HETATM   12  C15 UNL     1       6.329  19.465  19.720  1.00  0.00     0.028 C 
HETATM   13  C16 UNL     1       5.838  21.825  19.823  1.00  0.00     0.028 C 
HETATM   14  S3  UNL     1       5.561  20.425  22.202  1.00  0.00    -0.087 SA
HETATM   15  S4  UNL     1       6.882  21.659  23.196  1.00  0.00    -0.088 SA
ENDROOT
BRANCH   1  16
HETATM   16  C4  UNL     1       6.882  24.185  24.131  1.00  0.00     0.199 C 
HETATM   17  C5  UNL     1       7.941  23.759  25.212  1.00  0.00     0.041 C 
BRANCH  16  18
HETATM   18  N1  UNL     1       6.202  25.331  24.818  1.00  0.00    -0.061 N 
ATOM     19  H12 UNL     1       5.365  25.655  24.332  1.00  0.00     0.278 HD
ATOM     20  H11 UNL     1       6.726  26.204  24.764  1.00  0.00     0.278 HD
BRANCH  18  21
HETATM   21  C3  UNL     1       5.944  24.898  26.181  1.00  0.00     0.343 C 
BRANCH  21  22
HETATM   22  C2  UNL     1       4.892  25.535  26.956  1.00  0.00     0.284 C 
HETATM   23  O2  UNL     1       5.158  25.920  28.133  1.00  0.00    -0.263 OA
BRANCH  22  24
HETATM   24  O1  UNL     1       3.588  25.784  26.516  1.00  0.00    -0.325 OA
HETATM   25  C1  UNL     1       3.184  27.088  26.201  1.00  0.00     0.213 C 
ENDBRANCH  22  24
ENDBRANCH  21  22
ENDBRANCH  18  21
ENDBRANCH  16  18
ENDBRANCH   1  16
BRANCH   4  26
HETATM   26  O4  UNL     1       1.655  24.447  24.405  1.00  0.00    -0.339 OA
ATOM     27  H4  UNL     1       1.398  23.698  24.929  1.00  0.00     0.220 HD
ENDBRANCH   4  26
BRANCH   5  28
HETATM   28  N2  UNL     1       0.767  24.669  21.707  1.00  0.00    -0.332 NA
BRANCH  28  29
HETATM   29  N3  UNL     1      -0.174  25.374  21.454  1.00  0.00    -0.280 N 
ATOM     30  H32 UNL     1       0.519  26.122  21.464  1.00  0.00     0.191 HD
ATOM     31  H31 UNL     1      -1.040  25.870  21.241  1.00  0.00     0.191 HD
ENDBRANCH  28  29
ENDBRANCH   5  28
BRANCH  10  32
HETATM   32  C13 UNL     1       3.842  18.640  19.890  1.00  0.00     0.179 C 
HETATM   33  O5  UNL     1       3.274  18.009  20.807  1.00  0.00    -0.648 OA
HETATM   34  O6  UNL     1       4.288  17.959  18.757  1.00  0.00    -0.648 OA
ENDBRANCH  10  32
TORSDOF 9
ENDMDL
MODEL 5
REMARK VINA RESULT: -6.519551448      2.955      6.610
REMARK  9 active torsions:
REMARK  status: ('A' for Active; 'I' for Inactive)
REMARK    1  A    between atoms: O1_2  and  C2_3 
REMARK    2  A    between atoms: C2_3  and  C3_5 
REMARK    3  A    between atoms: C3_5  and  N1_6 
REMARK    4  A    between atoms: N1_6  and  C4_9 
REMARK    5  A    between atoms: C4_9  and  C6_11 
REMARK    6  A    between atoms: C8_14  and  O4_15 
REMARK    7  A    between atoms: C9_17  and  N2_18 
REMARK    8  A    between atoms: N2_18  and  N3_19 
REMARK    9  A    between atoms: C12_26  and  C13_27 
ROOT
HETATM    1  C6  UNL     1       5.724  20.150  20.472  1.00  0.00     0.113 C 
HETATM    2  C7  UNL     1       5.374  21.485  21.113  1.00  0.00     0.196 C 
HETATM    3  O3  UNL     1       6.333  21.856  22.100  1.00  0.00    -0.327 OA
HETATM    4  C8  UNL     1       6.211  22.660  23.188  1.00  0.00     0.219 C 
HETATM    5  C9  UNL     1       5.356  23.795  23.440  1.00  0.00     0.175 C 
HETATM    6  C10 UNL     1       3.906  23.740  23.044  1.00  0.00     0.166 C 
HETATM    7  S1  UNL     1       2.914  25.100  23.727  1.00  0.00    -0.090 SA
HETATM    8  S2  UNL     1       0.953  24.832  22.948  1.00  0.00    -0.096 SA
HETATM    9  C11 UNL     1       1.043  24.042  21.290  1.00  0.00     0.103 C 
HETATM   10  C12 UNL     1       1.083  22.555  21.404  1.00  0.00     0.115 C 
HETATM   11  C14 UNL     1       1.618  21.870  20.151  1.00  0.00     0.025 C 
HETATM   12  C15 UNL     1       0.383  21.560  19.302  1.00  0.00     0.028 C 
HETATM   13  C16 UNL     1       2.426  22.843  19.298  1.00  0.00     0.028 C 
HETATM   14  S3  UNL     1       2.507  20.440  20.682  1.00  0.00    -0.087 SA
HETATM   15  S4  UNL     1       4.101  19.742  19.574  1.00  0.00    -0.088 SA
ENDROOT
BRANCH   1  16
HETATM   16  C4  UNL     1       6.736  20.266  19.383  1.00  0.00     0.199 C 
HETATM   17  C5  UNL     1       7.414  18.850  19.309  1.00  0.00     0.041 C 
BRANCH  16  18
HETATM   18  N1  UNL     1       7.868  21.111  19.887  1.00  0.00    -0.061 N 
ATOM     19  H12 UNL     1       7.561  21.893  20.466  1.00  0.00     0.278 HD
ATOM     20  H11 UNL     1       8.317  21.662  19.156  1.00  0.00     0.278 HD
BRANCH  18  21
HETATM   21  C3  UNL     1       8.779  20.210  20.572  1.00  0.00     0.343 C 
BRANCH  21  22
HETATM   22  C2  UNL     1       9.201  20.504  21.932  1.00  0.00     0.284 C 
HETATM   23  O2  UNL     1      10.094  21.385  22.109  1.00  0.00    -0.263 OA
BRANCH  22  24
HETATM   24  O1  UNL     1       8.698  19.908  23.093  1.00  0.00    -0.325 OA
HETATM   25  C1  UNL     1       7.851  18.796  23.008  1.00  0.00     0.213 C 
ENDBRANCH  22  24
ENDBRANCH  21  22
ENDBRANCH  18  21
ENDBRANCH  16  18
ENDBRANCH   1  16
BRANCH   4  26
HETATM   26  O4  UNL     1       7.023  22.327  24.193  1.00  0.00    -0.339 OA
ATOM     27  H4  UNL     1       6.609  22.365  25.048  1.00  0.00     0.220 HD
ENDBRANCH   4  26
BRANCH   5  28
HETATM   28  N2  UNL     1       5.759  24.872  24.003  1.00  0.00    -0.332 NA
BRANCH  28  29
HETATM   29  N3  UNL     1       6.268  25.824  24.531  1.00  0.00    -0.280 N 
ATOM     30  H32 UNL     1       5.405  26.300  24.268  1.00  0.00     0.191 HD
ATOM     31  H31 UNL     1       6.796  26.559  25.003  1.00  0.00     0.191 HD
ENDBRANCH  28  29
ENDBRANCH   5  28
BRANCH  10  32
HETATM   32  C13 UNL     1      -0.262  22.043  21.800  1.00  0.00     0.179 C 
HETATM   33  O5  UNL     1      -0.299  21.070  22.584  1.00  0.00    -0.648 OA
HETATM   34  O6  UNL     1      -1.454  22.597  21.333  1.00  0.00    -0.648 OA
ENDBRANCH  10  32
TORSDOF 9
ENDMDL
