MODEL 1
REMARK VINA RESULT: -9.677463831      0.000      0.000
REMARK  6 active torsions:
REMARK  status: ('A' for Active; 'I' for Inactive)
REMARK    1  A    between atoms: O1_2  and  C2_3 
REMARK    2  A    between atoms: C11_13  and  O3_14 
REMARK    3  A    between atoms: C12_16  and  C13_17 
REMARK    4  A    between atoms: C13_17  and  O4_18 
REMARK    5  A    between atoms: C13_17  and  C14_20 
REMARK    6  A    between atoms: C14_20  and  N1_22 
ROOT
HETATM    1  C2  UNL     1      -8.909  19.125 -19.844  1.00  0.00     0.280 C 
HETATM    2  C3  UNL     1     -10.243  19.761 -19.480  1.00  0.00     0.115 C 
HETATM    3  O2  UNL     1      -7.950  20.150 -19.662  1.00  0.00    -0.323 OA
HETATM    4  C4  UNL     1      -8.066  20.820 -20.882  1.00  0.00     0.183 C 
HETATM    5  C5  UNL     1      -6.937  21.736 -21.173  1.00  0.00     0.049 C 
HETATM    6  C6  UNL     1      -6.216  21.416 -22.469  1.00  0.00     0.057 C 
HETATM    7  C7  UNL     1      -5.498  22.598 -22.897  1.00  0.00    -0.026 A 
HETATM    8  C8  UNL     1      -6.155  23.535 -23.679  1.00  0.00    -0.014 A 
HETATM    9  C9  UNL     1      -5.543  24.746 -24.055  1.00  0.00     0.114 A 
HETATM   10  C10 UNL     1      -4.272  24.959 -23.620  1.00  0.00     0.139 A 
HETATM   11  C11 UNL     1      -3.620  24.012 -22.839  1.00  0.00     0.115 A 
HETATM   12  C12 UNL     1      -4.197  22.822 -22.460  1.00  0.00     0.038 A 
HETATM   13  O5  UNL     1      -3.884  26.222 -24.118  1.00  0.00    -0.320 OA
HETATM   14  C19 UNL     1      -4.781  26.556 -25.189  1.00  0.00     0.352 C 
HETATM   15  O6  UNL     1      -5.938  25.848 -24.810  1.00  0.00    -0.322 OA
HETATM   16  C20 UNL     1      -7.506  23.399 -24.258  1.00  0.00     0.045 C 
HETATM   17  C21 UNL     1      -8.290  22.323 -23.595  1.00  0.00     0.043 C 
HETATM   18  C22 UNL     1      -7.406  21.148 -23.443  1.00  0.00     0.068 C 
HETATM   19  C23 UNL     1      -6.760  20.823 -24.769  1.00  0.00     0.047 C 
HETATM   20  O7  UNL     1      -8.084  20.001 -23.057  1.00  0.00    -0.347 OA
HETATM   21  C24 UNL     1      -7.881  19.592 -21.785  1.00  0.00     0.295 C 
HETATM   22  O8  UNL     1      -8.872  18.800 -21.220  1.00  0.00    -0.299 OA
ENDROOT
BRANCH  12  23
HETATM   23  C13 UNL     1      -3.454  21.825 -21.780  1.00  0.00     0.079 C 
BRANCH  23  24
HETATM   24  O4  UNL     1      -3.556  20.499 -22.052  1.00  0.00    -0.362 OA
ATOM     25  H4  UNL     1      -4.147  19.914 -21.594  1.00  0.00     0.217 HD
ENDBRANCH  23  24
BRANCH  23  26
HETATM   26  C14 UNL     1      -3.285  21.814 -20.282  1.00  0.00     0.135 C 
HETATM   27  C15 UNL     1      -3.888  20.547 -19.684  1.00  0.00     0.039 C 
BRANCH  26  28
HETATM   28  N1  UNL     1      -1.873  21.705 -20.059  1.00  0.00    -0.387 N 
HETATM   29  C16 UNL     1      -0.977  22.491 -19.802  1.00  0.00    -0.025 C 
HETATM   30  C17 UNL     1      -1.075  23.983 -19.620  1.00  0.00     0.062 C 
HETATM   31  C18 UNL     1       0.423  21.913 -19.658  1.00  0.00     0.062 C 
ATOM     32  H1  UNL     1      -1.540  20.744 -20.132  1.00  0.00     0.159 HD
ENDBRANCH  26  28
ENDBRANCH  23  26
ENDBRANCH  12  23
BRANCH  11  33
HETATM   33  O3  UNL     1      -2.352  24.393 -22.494  1.00  0.00    -0.357 OA
ATOM     34  H3  UNL     1      -1.849  23.687 -22.106  1.00  0.00     0.217 HD
ENDBRANCH  11  33
BRANCH   1  35
HETATM   35  O1  UNL     1      -8.599  18.015 -19.099  1.00  0.00    -0.338 OA
HETATM   36  C1  UNL     1      -7.240  17.868 -19.003  1.00  0.00     0.208 C 
ENDBRANCH   1  35
TORSDOF 6
ENDMDL
MODEL 2
REMARK VINA RESULT: -9.037007285      2.221      6.558
REMARK  6 active torsions:
REMARK  status: ('A' for Active; 'I' for Inactive)
REMARK    1  A    between atoms: O1_2  and  C2_3 
REMARK    2  A    between atoms: C11_13  and  O3_14 
REMARK    3  A    between atoms: C12_16  and  C13_17 
REMARK    4  A    between atoms: C13_17  and  O4_18 
REMARK    5  A    between atoms: C13_17  and  C14_20 
REMARK    6  A    between atoms: C14_20  and  N1_22 
ROOT
HETATM    1  C2  UNL     1       0.449  21.965 -21.695  1.00  0.00     0.280 C 
HETATM    2  C3  UNL     1       1.180  22.339 -22.978  1.00  0.00     0.115 C 
HETATM    3  O2  UNL     1      -0.616  21.130 -22.107  1.00  0.00    -0.323 OA
HETATM    4  C4  UNL     1      -1.560  22.092 -22.472  1.00  0.00     0.183 C 
HETATM    5  C5  UNL     1      -2.937  21.559 -22.608  1.00  0.00     0.049 C 
HETATM    6  C6  UNL     1      -3.944  22.244 -21.704  1.00  0.00     0.057 C 
HETATM    7  C7  UNL     1      -5.270  22.019 -22.241  1.00  0.00    -0.026 A 
HETATM    8  C8  UNL     1      -5.765  22.896 -23.194  1.00  0.00    -0.014 A 
HETATM    9  C9  UNL     1      -7.009  22.684 -23.820  1.00  0.00     0.114 A 
HETATM   10  C10 UNL     1      -7.710  21.579 -23.448  1.00  0.00     0.139 A 
HETATM   11  C11 UNL     1      -7.206  20.707 -22.490  1.00  0.00     0.115 A 
HETATM   12  C12 UNL     1      -5.995  20.894 -21.864  1.00  0.00     0.038 A 
HETATM   13  O5  UNL     1      -8.901  21.586 -24.205  1.00  0.00    -0.320 OA
HETATM   14  C19 UNL     1      -9.079  22.918 -24.713  1.00  0.00     0.352 C 
HETATM   15  O6  UNL     1      -7.747  23.367 -24.784  1.00  0.00    -0.322 OA
HETATM   16  C20 UNL     1      -5.132  24.152 -23.641  1.00  0.00     0.045 C 
HETATM   17  C21 UNL     1      -3.692  24.210 -23.274  1.00  0.00     0.043 C 
HETATM   18  C22 UNL     1      -3.562  23.748 -21.876  1.00  0.00     0.068 C 
HETATM   19  C23 UNL     1      -4.534  24.502 -21.000  1.00  0.00     0.047 C 
HETATM   20  O7  UNL     1      -2.305  23.980 -21.339  1.00  0.00    -0.347 OA
HETATM   21  C24 UNL     1      -1.525  22.890 -21.160  1.00  0.00     0.295 C 
HETATM   22  O8  UNL     1      -0.154  23.105 -21.116  1.00  0.00    -0.299 OA
ENDROOT
BRANCH  12  23
HETATM   23  C13 UNL     1      -5.579  20.060 -20.797  1.00  0.00     0.079 C 
BRANCH  23  24
HETATM   24  O4  UNL     1      -5.473  18.710 -20.898  1.00  0.00    -0.362 OA
ATOM     25  H4  UNL     1      -5.909  18.105 -20.310  1.00  0.00     0.217 HD
ENDBRANCH  23  24
BRANCH  23  26
HETATM   26  C14 UNL     1      -6.097  20.216 -19.390  1.00  0.00     0.135 C 
HETATM   27  C15 UNL     1      -5.803  21.617 -18.863  1.00  0.00     0.039 C 
BRANCH  26  28
HETATM   28  N1  UNL     1      -7.525  20.143 -19.498  1.00  0.00    -0.387 N 
HETATM   29  C16 UNL     1      -8.359  19.268 -19.336  1.00  0.00    -0.025 C 
HETATM   30  C17 UNL     1      -8.134  17.835 -18.929  1.00  0.00     0.062 C 
HETATM   31  C18 UNL     1      -9.810  19.649 -19.584  1.00  0.00     0.062 C 
ATOM     32  H1  UNL     1      -7.940  21.032 -19.777  1.00  0.00     0.159 HD
ENDBRANCH  26  28
ENDBRANCH  23  26
ENDBRANCH  12  23
BRANCH  11  33
HETATM   33  O3  UNL     1      -8.043  19.654 -22.241  1.00  0.00    -0.357 OA
ATOM     34  H3  UNL     1      -8.926  19.929 -22.026  1.00  0.00     0.217 HD
ENDBRANCH  11  33
BRANCH   1  35
HETATM   35  O1  UNL     1       1.242  21.340 -20.765  1.00  0.00    -0.338 OA
HETATM   36  C1  UNL     1       2.314  20.744 -21.375  1.00  0.00     0.208 C 
ENDBRANCH   1  35
TORSDOF 6
ENDMDL
MODEL 3
REMARK VINA RESULT: -9.033230885      2.654      6.394
REMARK  6 active torsions:
REMARK  status: ('A' for Active; 'I' for Inactive)
REMARK    1  A    between atoms: O1_2  and  C2_3 
REMARK    2  A    between atoms: C11_13  and  O3_14 
REMARK    3  A    between atoms: C12_16  and  C13_17 
REMARK    4  A    between atoms: C13_17  and  O4_18 
REMARK    5  A    between atoms: C13_17  and  C14_20 
REMARK    6  A    between atoms: C14_20  and  N1_22 
ROOT
HETATM    1  C2  UNL     1      -0.473  23.158 -19.470  1.00  0.00     0.280 C 
HETATM    2  C3  UNL     1      -0.866  22.726 -18.063  1.00  0.00     0.115 C 
HETATM    3  O2  UNL     1      -1.523  24.002 -19.903  1.00  0.00    -0.323 OA
HETATM    4  C4  UNL     1      -2.439  23.049 -20.354  1.00  0.00     0.183 C 
HETATM    5  C5  UNL     1      -3.510  23.607 -21.215  1.00  0.00     0.049 C 
HETATM    6  C6  UNL     1      -3.571  22.974 -22.592  1.00  0.00     0.057 C 
HETATM    7  C7  UNL     1      -4.888  23.210 -23.146  1.00  0.00    -0.026 A 
HETATM    8  C8  UNL     1      -5.906  22.312 -22.861  1.00  0.00    -0.014 A 
HETATM    9  C9  UNL     1      -7.228  22.529 -23.294  1.00  0.00     0.114 A 
HETATM   10  C10 UNL     1      -7.467  23.661 -24.010  1.00  0.00     0.139 A 
HETATM   11  C11 UNL     1      -6.440  24.554 -24.293  1.00  0.00     0.115 A 
HETATM   12  C12 UNL     1      -5.141  24.362 -23.882  1.00  0.00     0.038 A 
HETATM   13  O5  UNL     1      -8.844  23.654 -24.323  1.00  0.00    -0.320 OA
HETATM   14  C19 UNL     1      -9.319  22.310 -24.144  1.00  0.00     0.352 C 
HETATM   15  O6  UNL     1      -8.427  21.831 -23.166  1.00  0.00    -0.322 OA
HETATM   16  C20 UNL     1      -5.766  21.028 -22.146  1.00  0.00     0.045 C 
HETATM   17  C21 UNL     1      -4.491  20.952 -21.384  1.00  0.00     0.043 C 
HETATM   18  C22 UNL     1      -3.411  21.457 -22.258  1.00  0.00     0.068 C 
HETATM   19  C23 UNL     1      -3.468  20.754 -23.594  1.00  0.00     0.047 C 
HETATM   20  O7  UNL     1      -2.142  21.217 -21.753  1.00  0.00    -0.347 OA
HETATM   21  C24 UNL     1      -1.476  22.295 -21.283  1.00  0.00     0.295 C 
HETATM   22  O8  UNL     1      -0.476  22.052 -20.350  1.00  0.00    -0.299 OA
ENDROOT
BRANCH  12  23
HETATM   23  C13 UNL     1      -4.098  25.223 -24.305  1.00  0.00     0.079 C 
BRANCH  23  24
HETATM   24  O4  UNL     1      -3.882  26.454 -23.777  1.00  0.00    -0.362 OA
ATOM     25  H4  UNL     1      -4.438  27.204 -23.953  1.00  0.00     0.217 HD
ENDBRANCH  23  24
BRANCH  23  26
HETATM   26  C14 UNL     1      -3.773  25.456 -25.758  1.00  0.00     0.135 C 
HETATM   27  C15 UNL     1      -4.049  26.906 -26.143  1.00  0.00     0.039 C 
BRANCH  26  28
HETATM   28  N1  UNL     1      -2.352  25.298 -25.862  1.00  0.00    -0.387 N 
HETATM   29  C16 UNL     1      -1.578  25.016 -26.760  1.00  0.00    -0.025 C 
HETATM   30  C17 UNL     1      -1.899  24.709 -28.200  1.00  0.00     0.062 C 
HETATM   31  C18 UNL     1      -0.102  24.946 -26.399  1.00  0.00     0.062 C 
ATOM     32  H1  UNL     1      -1.877  25.460 -24.973  1.00  0.00     0.159 HD
ENDBRANCH  26  28
ENDBRANCH  23  26
ENDBRANCH  12  23
BRANCH  11  33
HETATM   33  O3  UNL     1      -6.862  25.633 -25.021  1.00  0.00    -0.357 OA
ATOM     34  H3  UNL     1      -6.679  26.460 -24.592  1.00  0.00     0.217 HD
ENDBRANCH  11  33
BRANCH   1  35
HETATM   35  O1  UNL     1       0.740  23.797 -19.537  1.00  0.00    -0.338 OA
HETATM   36  C1  UNL     1       0.618  24.984 -20.210  1.00  0.00     0.208 C 
ENDBRANCH   1  35
TORSDOF 6
ENDMDL
MODEL 4
REMARK VINA RESULT: -8.607579515      2.131      6.068
REMARK  6 active torsions:
REMARK  status: ('A' for Active; 'I' for Inactive)
REMARK    1  A    between atoms: O1_2  and  C2_3 
REMARK    2  A    between atoms: C11_13  and  O3_14 
REMARK    3  A    between atoms: C12_16  and  C13_17 
REMARK    4  A    between atoms: C13_17  and  O4_18 
REMARK    5  A    between atoms: C13_17  and  C14_20 
REMARK    6  A    between atoms: C14_20  and  N1_22 
ROOT
HETATM    1  C2  UNL     1       0.425  22.673 -22.535  1.00  0.00     0.280 C 
HETATM    2  C3  UNL     1       0.919  22.680 -23.975  1.00  0.00     0.115 C 
HETATM    3  O2  UNL     1      -0.586  21.684 -22.496  1.00  0.00    -0.323 OA
HETATM    4  C4  UNL     1      -1.676  22.424 -22.961  1.00  0.00     0.183 C 
HETATM    5  C5  UNL     1      -2.989  21.787 -22.698  1.00  0.00     0.049 C 
HETATM    6  C6  UNL     1      -3.928  22.651 -21.878  1.00  0.00     0.057 C 
HETATM    7  C7  UNL     1      -5.282  22.186 -22.091  1.00  0.00    -0.026 A 
HETATM    8  C8  UNL     1      -6.004  22.693 -23.161  1.00  0.00    -0.014 A 
HETATM    9  C9  UNL     1      -7.292  22.218 -23.477  1.00  0.00     0.114 A 
HETATM   10  C10 UNL     1      -7.803  21.238 -22.683  1.00  0.00     0.139 A 
HETATM   11  C11 UNL     1      -7.073  20.739 -21.611  1.00  0.00     0.115 A 
HETATM   12  C12 UNL     1      -5.814  21.187 -21.283  1.00  0.00     0.038 A 
HETATM   13  O5  UNL     1      -9.083  20.935 -23.195  1.00  0.00    -0.320 OA
HETATM   14  C19 UNL     1      -9.482  22.031 -24.033  1.00  0.00     0.352 C 
HETATM   15  O6  UNL     1      -8.233  22.521 -24.459  1.00  0.00    -0.322 OA
HETATM   16  C20 UNL     1      -5.587  23.788 -24.058  1.00  0.00     0.045 C 
HETATM   17  C21 UNL     1      -4.126  24.049 -23.975  1.00  0.00     0.043 C 
HETATM   18  C22 UNL     1      -3.746  24.050 -22.546  1.00  0.00     0.068 C 
HETATM   19  C23 UNL     1      -4.663  24.972 -21.778  1.00  0.00     0.047 C 
HETATM   20  O7  UNL     1      -2.460  24.517 -22.323  1.00  0.00    -0.347 OA
HETATM   21  C24 UNL     1      -1.545  23.588 -21.967  1.00  0.00     0.295 C 
HETATM   22  O8  UNL     1      -0.214  23.895 -22.222  1.00  0.00    -0.299 OA
ENDROOT
BRANCH  12  23
HETATM   23  C13 UNL     1      -5.159  20.751 -20.105  1.00  0.00     0.079 C 
BRANCH  23  24
HETATM   24  O4  UNL     1      -5.456  19.589 -19.469  1.00  0.00    -0.362 OA
ATOM     25  H4  UNL     1      -5.741  18.803 -19.920  1.00  0.00     0.217 HD
ENDBRANCH  23  24
BRANCH  23  26
HETATM   26  C14 UNL     1      -4.877  21.667 -18.942  1.00  0.00     0.135 C 
HETATM   27  C15 UNL     1      -6.057  21.686 -17.975  1.00  0.00     0.039 C 
BRANCH  26  28
HETATM   28  N1  UNL     1      -3.804  21.049 -18.220  1.00  0.00    -0.387 N 
HETATM   29  C16 UNL     1      -2.607  21.254 -18.107  1.00  0.00    -0.025 C 
HETATM   30  C17 UNL     1      -1.787  22.336 -18.760  1.00  0.00     0.062 C 
HETATM   31  C18 UNL     1      -1.828  20.303 -17.214  1.00  0.00     0.062 C 
ATOM     32  H1  UNL     1      -4.115  20.247 -17.672  1.00  0.00     0.159 HD
ENDBRANCH  26  28
ENDBRANCH  23  26
ENDBRANCH  12  23
BRANCH  11  33
HETATM   33  O3  UNL     1      -7.741  19.761 -20.925  1.00  0.00    -0.357 OA
ATOM     34  H3  UNL     1      -8.214  19.169 -21.497  1.00  0.00     0.217 HD
ENDBRANCH  11  33
BRANCH   1  35
HETATM   35  O1  UNL     1       1.408  22.418 -21.611  1.00  0.00    -0.338 OA
HETATM   36  C1  UNL     1       1.873  21.136 -21.750  1.00  0.00     0.208 C 
ENDBRANCH   1  35
TORSDOF 6
ENDMDL
MODEL 5
REMARK VINA RESULT: -8.498224135      2.026      5.297
REMARK  6 active torsions:
REMARK  status: ('A' for Active; 'I' for Inactive)
REMARK    1  A    between atoms: O1_2  and  C2_3 
REMARK    2  A    between atoms: C11_13  and  O3_14 
REMARK    3  A    between atoms: C12_16  and  C13_17 
REMARK    4  A    between atoms: C13_17  and  O4_18 
REMARK    5  A    between atoms: C13_17  and  C14_20 
REMARK    6  A    between atoms: C14_20  and  N1_22 
ROOT
HETATM    1  C2  UNL     1      -8.181  19.530 -22.038  1.00  0.00     0.280 C 
HETATM    2  C3  UNL     1      -8.159  18.081 -21.570  1.00  0.00     0.115 C 
HETATM    3  O2  UNL     1      -6.890  19.768 -22.566  1.00  0.00    -0.323 OA
HETATM    4  C4  UNL     1      -6.192  20.062 -21.392  1.00  0.00     0.183 C 
HETATM    5  C5  UNL     1      -4.882  20.720 -21.622  1.00  0.00     0.049 C 
HETATM    6  C6  UNL     1      -4.756  22.071 -20.945  1.00  0.00     0.057 C 
HETATM    7  C7  UNL     1      -3.349  22.387 -20.811  1.00  0.00    -0.026 A 
HETATM    8  C8  UNL     1      -2.665  21.938 -19.692  1.00  0.00    -0.014 A 
HETATM    9  C9  UNL     1      -1.278  22.134 -19.544  1.00  0.00     0.114 A 
HETATM   10  C10 UNL     1      -0.634  22.788 -20.549  1.00  0.00     0.139 A 
HETATM   11  C11 UNL     1      -1.329  23.236 -21.665  1.00  0.00     0.115 A 
HETATM   12  C12 UNL     1      -2.684  23.058 -21.832  1.00  0.00     0.038 A 
HETATM   13  O5  UNL     1       0.725  22.858 -20.175  1.00  0.00    -0.320 OA
HETATM   14  C19 UNL     1       0.796  22.612 -18.761  1.00  0.00     0.352 C 
HETATM   15  O6  UNL     1      -0.343  21.807 -18.565  1.00  0.00    -0.322 OA
HETATM   16  C20 UNL     1      -3.253  21.269 -18.515  1.00  0.00     0.045 C 
HETATM   17  C21 UNL     1      -4.614  20.741 -18.799  1.00  0.00     0.043 C 
HETATM   18  C22 UNL     1      -5.361  21.784 -19.534  1.00  0.00     0.068 C 
HETATM   19  C23 UNL     1      -5.264  23.096 -18.792  1.00  0.00     0.047 C 
HETATM   20  O7  UNL     1      -6.715  21.508 -19.648  1.00  0.00    -0.347 OA
HETATM   21  C24 UNL     1      -7.146  21.151 -20.878  1.00  0.00     0.295 C 
HETATM   22  O8  UNL     1      -8.318  20.406 -20.937  1.00  0.00    -0.299 OA
ENDROOT
BRANCH  12  23
HETATM   23  C13 UNL     1      -3.378  23.647 -22.916  1.00  0.00     0.079 C 
BRANCH  23  24
HETATM   24  O4  UNL     1      -2.760  24.264 -23.956  1.00  0.00    -0.362 OA
ATOM     25  H4  UNL     1      -3.148  24.978 -24.446  1.00  0.00     0.217 HD
ENDBRANCH  23  24
BRANCH  23  26
HETATM   26  C14 UNL     1      -4.594  24.518 -22.729  1.00  0.00     0.135 C 
HETATM   27  C15 UNL     1      -4.458  25.809 -23.531  1.00  0.00     0.039 C 
BRANCH  26  28
HETATM   28  N1  UNL     1      -5.675  23.802 -23.341  1.00  0.00    -0.387 N 
HETATM   29  C16 UNL     1      -6.788  24.096 -23.743  1.00  0.00    -0.025 C 
HETATM   30  C17 UNL     1      -7.454  25.447 -23.722  1.00  0.00     0.062 C 
HETATM   31  C18 UNL     1      -7.626  22.970 -24.328  1.00  0.00     0.062 C 
ATOM     32  H1  UNL     1      -5.462  22.813 -23.469  1.00  0.00     0.159 HD
ENDBRANCH  26  28
ENDBRANCH  23  26
ENDBRANCH  12  23
BRANCH  11  33
HETATM   33  O3  UNL     1      -0.524  23.871 -22.571  1.00  0.00    -0.357 OA
ATOM     34  H3  UNL     1      -0.234  24.724 -22.271  1.00  0.00     0.217 HD
ENDBRANCH  11  33
BRANCH   1  35
HETATM   35  O1  UNL     1      -9.156  19.801 -22.966  1.00  0.00    -0.338 OA
HETATM   36  C1  UNL     1     -10.128  20.597 -22.419  1.00  0.00     0.208 C 
ENDBRANCH   1  35
TORSDOF 6
ENDMDL
