MODEL 1
REMARK VINA RESULT: -8.784197544      0.000      0.000
REMARK  7 active torsions:
REMARK  status: ('A' for Active; 'I' for Inactive)
REMARK    1  A    between atoms: C2_2  and  O1_3 
REMARK    2  A    between atoms: O1_3  and  C3_4 
REMARK    3  A    between atoms: C5_6  and  C6_7 
REMARK    4  A    between atoms: C12_16  and  O5_17 
REMARK    5  A    between atoms: C14_20  and  O6_21 
REMARK    6  A    between atoms: C18_26  and  C19_27 
REMARK    7  A    between atoms: C26_36  and  O8_37 
ROOT
HETATM    1  C6  UNL     1      -5.068  22.209 -20.620  1.00  0.00     0.180 C 
HETATM    2  O2  UNL     1      -4.420  22.318 -19.394  1.00  0.00    -0.306 OA
HETATM    3  C7  UNL     1      -3.050  22.312 -19.182  1.00  0.00     0.300 C 
HETATM    4  O3  UNL     1      -2.521  22.278 -18.044  1.00  0.00    -0.259 OA
HETATM    5  C8  UNL     1      -2.187  22.350 -20.356  1.00  0.00     0.121 A 
HETATM    6  C9  UNL     1      -2.771  22.387 -21.579  1.00  0.00     0.085 A 
HETATM    7  O4  UNL     1      -1.992  22.420 -22.638  1.00  0.00    -0.312 OA
HETATM    8  C10 UNL     1      -0.681  22.422 -22.568  1.00  0.00     0.095 A 
HETATM    9  C11 UNL     1       0.089  22.459 -23.737  1.00  0.00     0.075 A 
HETATM   10  C12 UNL     1       1.465  22.460 -23.652  1.00  0.00     0.071 A 
HETATM   11  C13 UNL     1       2.099  22.423 -22.438  1.00  0.00     0.074 A 
HETATM   12  C14 UNL     1       1.347  22.385 -21.261  1.00  0.00     0.087 A 
HETATM   13  C16 UNL     1      -0.017  22.385 -21.354  1.00  0.00     0.082 A 
HETATM   14  C17 UNL     1      -0.807  22.349 -20.219  1.00  0.00     0.206 A 
HETATM   15  O7  UNL     1      -0.303  22.315 -19.081  1.00  0.00    -0.286 OA
HETATM   16  C18 UNL     1      -4.231  22.391 -21.835  1.00  0.00     0.111 C 
ENDROOT
BRANCH   1  17
HETATM   17  C5  UNL     1      -5.777  20.887 -20.623  1.00  0.00    -0.025 A 
HETATM   18  C4  UNL     1      -6.898  20.668 -21.397  1.00  0.00     0.049 A 
HETATM   19  C3  UNL     1      -7.562  19.456 -21.412  1.00  0.00     0.102 A 
HETATM   20  C26 UNL     1      -7.110  18.393 -20.629  1.00  0.00     0.099 A 
HETATM   21  C25 UNL     1      -5.993  18.621 -19.862  1.00  0.00     0.040 A 
HETATM   22  C24 UNL     1      -5.328  19.839 -19.849  1.00  0.00     0.013 A 
BRANCH  19  23
HETATM   23  O1  UNL     1      -8.670  19.259 -22.184  1.00  0.00    -0.349 OA
BRANCH  23  24
HETATM   24  C2  UNL     1      -9.846  19.996 -22.226  1.00  0.00     0.171 C 
HETATM   25  C1  UNL     1     -10.430  20.365 -20.897  1.00  0.00     0.034 C 
ENDBRANCH  23  24
ENDBRANCH  19  23
BRANCH  20  26
HETATM   26  O8  UNL     1      -7.774  17.170 -20.640  1.00  0.00    -0.358 OA
ATOM     27  H8  UNL     1      -8.244  16.867 -19.872  1.00  0.00     0.217 HD
ENDBRANCH  20  26
ENDBRANCH   1  17
BRANCH  16  28
HETATM   28  C19 UNL     1      -4.630  23.579 -22.640  1.00  0.00    -0.042 A 
HETATM   29  C20 UNL     1      -5.855  23.623 -23.272  1.00  0.00     0.025 A 
HETATM   30  C21 UNL     1      -6.274  24.694 -24.027  1.00  0.00     0.088 A 
HETATM   31  N1  UNL     1      -5.451  25.742 -24.152  1.00  0.00    -0.375 N 
HETATM   32  C22 UNL     1      -4.244  25.744 -23.553  1.00  0.00     0.088 A 
ATOM     33  H1  UNL     1      -5.740  26.547 -24.707  1.00  0.00     0.164 HD
HETATM   34  C23 UNL     1      -3.798  24.670 -22.782  1.00  0.00     0.025 A 
ENDBRANCH  16  28
BRANCH  12  35
HETATM   35  O6  UNL     1       1.951  22.348 -20.026  1.00  0.00    -0.355 OA
HETATM   36  C15 UNL     1       3.127  23.061 -19.777  1.00  0.00     0.210 C 
ENDBRANCH  12  35
BRANCH  10  37
HETATM   37  O5  UNL     1       2.160  22.498 -24.856  1.00  0.00    -0.361 OA
ATOM     38  H5  UNL     1       3.081  22.266 -24.820  1.00  0.00     0.217 HD
ENDBRANCH  10  37
TORSDOF 7
ENDMDL
MODEL 2
REMARK VINA RESULT: -8.505901922      0.935      1.272
REMARK  7 active torsions:
REMARK  status: ('A' for Active; 'I' for Inactive)
REMARK    1  A    between atoms: C2_2  and  O1_3 
REMARK    2  A    between atoms: O1_3  and  C3_4 
REMARK    3  A    between atoms: C5_6  and  C6_7 
REMARK    4  A    between atoms: C12_16  and  O5_17 
REMARK    5  A    between atoms: C14_20  and  O6_21 
REMARK    6  A    between atoms: C18_26  and  C19_27 
REMARK    7  A    between atoms: C26_36  and  O8_37 
ROOT
HETATM    1  C6  UNL     1      -4.908  22.248 -20.073  1.00  0.00     0.180 C 
HETATM    2  O2  UNL     1      -4.189  22.467 -18.903  1.00  0.00    -0.306 OA
HETATM    3  C7  UNL     1      -2.809  22.460 -18.771  1.00  0.00     0.300 C 
HETATM    4  O3  UNL     1      -2.215  22.530 -17.666  1.00  0.00    -0.259 OA
HETATM    5  C8  UNL     1      -2.016  22.367 -19.990  1.00  0.00     0.121 A 
HETATM    6  C9  UNL     1      -2.670  22.293 -21.175  1.00  0.00     0.085 A 
HETATM    7  O4  UNL     1      -1.953  22.209 -22.274  1.00  0.00    -0.312 OA
HETATM    8  C10 UNL     1      -0.641  22.196 -22.280  1.00  0.00     0.095 A 
HETATM    9  C11 UNL     1       0.060  22.105 -23.489  1.00  0.00     0.075 A 
HETATM   10  C12 UNL     1       1.439  22.092 -23.483  1.00  0.00     0.071 A 
HETATM   11  C13 UNL     1       2.142  22.165 -22.310  1.00  0.00     0.074 A 
HETATM   12  C14 UNL     1       1.459  22.256 -21.094  1.00  0.00     0.087 A 
HETATM   13  C16 UNL     1       0.092  22.269 -21.109  1.00  0.00     0.082 A 
HETATM   14  C17 UNL     1      -0.630  22.357 -19.932  1.00  0.00     0.206 A 
HETATM   15  O7  UNL     1      -0.060  22.428 -18.827  1.00  0.00    -0.286 OA
HETATM   16  C18 UNL     1      -4.142  22.296 -21.346  1.00  0.00     0.111 C 
ENDROOT
BRANCH   1  17
HETATM   17  C5  UNL     1      -5.630  20.944 -19.905  1.00  0.00    -0.025 A 
HETATM   18  C4  UNL     1      -6.958  20.893 -19.533  1.00  0.00     0.049 A 
HETATM   19  C3  UNL     1      -7.637  19.700 -19.375  1.00  0.00     0.102 A 
HETATM   20  C26 UNL     1      -6.989  18.484 -19.590  1.00  0.00     0.099 A 
HETATM   21  C25 UNL     1      -5.667  18.545 -19.960  1.00  0.00     0.040 A 
HETATM   22  C24 UNL     1      -4.986  19.744 -20.118  1.00  0.00     0.013 A 
BRANCH  19  23
HETATM   23  O1  UNL     1      -8.951  19.671 -19.006  1.00  0.00    -0.349 OA
BRANCH  23  24
HETATM   24  C2  UNL     1     -10.071  19.418 -19.787  1.00  0.00     0.171 C 
HETATM   25  C1  UNL     1     -10.370  20.437 -20.844  1.00  0.00     0.034 C 
ENDBRANCH  23  24
ENDBRANCH  19  23
BRANCH  20  26
HETATM   26  O8  UNL     1      -7.667  17.279 -19.432  1.00  0.00    -0.358 OA
ATOM     27  H8  UNL     1      -7.209  16.500 -19.139  1.00  0.00     0.217 HD
ENDBRANCH  20  26
ENDBRANCH   1  17
BRANCH  16  28
HETATM   28  C19 UNL     1      -4.575  23.405 -22.241  1.00  0.00    -0.042 A 
HETATM   29  C20 UNL     1      -3.766  24.503 -22.445  1.00  0.00     0.025 A 
HETATM   30  C21 UNL     1      -4.116  25.554 -23.260  1.00  0.00     0.088 A 
HETATM   31  N1  UNL     1      -5.299  25.506 -23.885  1.00  0.00    -0.375 N 
HETATM   32  C22 UNL     1      -6.123  24.453 -23.716  1.00  0.00     0.088 A 
ATOM     33  H1  UNL     1      -5.580  26.274 -24.494  1.00  0.00     0.164 HD
HETATM   34  C23 UNL     1      -5.790  23.375 -22.895  1.00  0.00     0.025 A 
ENDBRANCH  16  28
BRANCH  12  35
HETATM   35  O6  UNL     1       2.134  22.331 -19.898  1.00  0.00    -0.355 OA
HETATM   36  C15 UNL     1       3.248  21.524 -19.646  1.00  0.00     0.210 C 
ENDBRANCH  12  35
BRANCH  10  37
HETATM   37  O5  UNL     1       2.063  21.999 -24.723  1.00  0.00    -0.361 OA
ATOM     38  H5  UNL     1       2.177  22.812 -25.200  1.00  0.00     0.217 HD
ENDBRANCH  10  37
TORSDOF 7
ENDMDL
MODEL 3
REMARK VINA RESULT: -8.483253687      1.190      1.812
REMARK  7 active torsions:
REMARK  status: ('A' for Active; 'I' for Inactive)
REMARK    1  A    between atoms: C2_2  and  O1_3 
REMARK    2  A    between atoms: O1_3  and  C3_4 
REMARK    3  A    between atoms: C5_6  and  C6_7 
REMARK    4  A    between atoms: C12_16  and  O5_17 
REMARK    5  A    between atoms: C14_20  and  O6_21 
REMARK    6  A    between atoms: C18_26  and  C19_27 
REMARK    7  A    between atoms: C26_36  and  O8_37 
ROOT
HETATM    1  C6  UNL     1      -5.983  22.475 -21.661  1.00  0.00     0.180 C 
HETATM    2  O2  UNL     1      -5.688  22.481 -20.302  1.00  0.00    -0.306 OA
HETATM    3  C7  UNL     1      -4.431  22.358 -19.731  1.00  0.00     0.300 C 
HETATM    4  O3  UNL     1      -4.235  22.235 -18.496  1.00  0.00    -0.259 OA
HETATM    5  C8  UNL     1      -3.280  22.373 -20.625  1.00  0.00     0.121 A 
HETATM    6  C9  UNL     1      -3.505  22.506 -21.956  1.00  0.00     0.085 A 
HETATM    7  O4  UNL     1      -2.466  22.520 -22.762  1.00  0.00    -0.312 OA
HETATM    8  C10 UNL     1      -1.227  22.414 -22.343  1.00  0.00     0.095 A 
HETATM    9  C11 UNL     1      -0.167  22.436 -23.258  1.00  0.00     0.075 A 
HETATM   10  C12 UNL     1       1.131  22.323 -22.806  1.00  0.00     0.071 A 
HETATM   11  C13 UNL     1       1.407  22.186 -21.470  1.00  0.00     0.074 A 
HETATM   12  C14 UNL     1       0.361  22.161 -20.543  1.00  0.00     0.087 A 
HETATM   13  C16 UNL     1      -0.923  22.275 -21.000  1.00  0.00     0.082 A 
HETATM   14  C17 UNL     1      -1.993  22.256 -20.123  1.00  0.00     0.206 A 
HETATM   15  O7  UNL     1      -1.821  22.135 -18.895  1.00  0.00    -0.286 OA
HETATM   16  C18 UNL     1      -4.836  22.639 -22.593  1.00  0.00     0.111 C 
ENDROOT
BRANCH   1  17
HETATM   17  C5  UNL     1      -6.750  21.215 -21.935  1.00  0.00    -0.025 A 
HETATM   18  C4  UNL     1      -6.750  20.159 -21.048  1.00  0.00     0.049 A 
HETATM   19  C3  UNL     1      -7.452  18.992 -21.286  1.00  0.00     0.102 A 
HETATM   20  C26 UNL     1      -8.199  18.843 -22.455  1.00  0.00     0.099 A 
HETATM   21  C25 UNL     1      -8.192  19.900 -23.332  1.00  0.00     0.040 A 
HETATM   22  C24 UNL     1      -7.487  21.071 -23.092  1.00  0.00     0.013 A 
BRANCH  19  23
HETATM   23  O1  UNL     1      -7.439  17.958 -20.396  1.00  0.00    -0.349 OA
BRANCH  23  24
HETATM   24  C2  UNL     1      -8.119  17.835 -19.192  1.00  0.00     0.171 C 
HETATM   25  C1  UNL     1      -9.382  18.633 -19.073  1.00  0.00     0.034 C 
ENDBRANCH  23  24
ENDBRANCH  19  23
BRANCH  20  26
HETATM   26  O8  UNL     1      -8.908  17.671 -22.700  1.00  0.00    -0.358 OA
ATOM     27  H8  UNL     1      -9.584  17.644 -23.366  1.00  0.00     0.217 HD
ENDBRANCH  20  26
ENDBRANCH   1  17
BRANCH  16  28
HETATM   28  C19 UNL     1      -4.921  23.886 -23.402  1.00  0.00    -0.042 A 
HETATM   29  C20 UNL     1      -5.857  24.012 -24.407  1.00  0.00     0.025 A 
HETATM   30  C21 UNL     1      -5.979  25.141 -25.184  1.00  0.00     0.088 A 
HETATM   31  N1  UNL     1      -5.149  26.164 -24.950  1.00  0.00    -0.375 N 
HETATM   32  C22 UNL     1      -4.219  26.087 -23.979  1.00  0.00     0.088 A 
ATOM     33  H1  UNL     1      -5.221  27.011 -25.514  1.00  0.00     0.164 HD
HETATM   34  C23 UNL     1      -4.076  24.953 -23.178  1.00  0.00     0.025 A 
ENDBRANCH  16  28
BRANCH  12  35
HETATM   35  O6  UNL     1       0.602  22.026 -19.197  1.00  0.00    -0.355 OA
HETATM   36  C15 UNL     1       1.665  22.696 -18.583  1.00  0.00     0.210 C 
ENDBRANCH  12  35
BRANCH  10  37
HETATM   37  O5  UNL     1       2.129  22.354 -23.774  1.00  0.00    -0.361 OA
ATOM     38  H5  UNL     1       2.827  21.717 -23.682  1.00  0.00     0.217 HD
ENDBRANCH  10  37
TORSDOF 7
ENDMDL
MODEL 4
REMARK VINA RESULT: -7.535600186      2.564      8.279
REMARK  7 active torsions:
REMARK  status: ('A' for Active; 'I' for Inactive)
REMARK    1  A    between atoms: C2_2  and  O1_3 
REMARK    2  A    between atoms: O1_3  and  C3_4 
REMARK    3  A    between atoms: C5_6  and  C6_7 
REMARK    4  A    between atoms: C12_16  and  O5_17 
REMARK    5  A    between atoms: C14_20  and  O6_21 
REMARK    6  A    between atoms: C18_26  and  C19_27 
REMARK    7  A    between atoms: C26_36  and  O8_37 
ROOT
HETATM    1  C6  UNL     1      -0.782  23.061 -21.267  1.00  0.00     0.180 C 
HETATM    2  O2  UNL     1      -1.464  24.097 -21.895  1.00  0.00    -0.306 OA
HETATM    3  C7  UNL     1      -2.768  24.060 -22.365  1.00  0.00     0.300 C 
HETATM    4  O3  UNL     1      -3.290  24.978 -23.044  1.00  0.00    -0.259 OA
HETATM    5  C8  UNL     1      -3.566  22.883 -22.045  1.00  0.00     0.121 A 
HETATM    6  C9  UNL     1      -2.990  21.900 -21.311  1.00  0.00     0.085 A 
HETATM    7  O4  UNL     1      -3.711  20.838 -21.022  1.00  0.00    -0.312 OA
HETATM    8  C10 UNL     1      -4.957  20.686 -21.408  1.00  0.00     0.095 A 
HETATM    9  C11 UNL     1      -5.666  19.529 -21.065  1.00  0.00     0.075 A 
HETATM   10  C12 UNL     1      -6.974  19.380 -21.476  1.00  0.00     0.071 A 
HETATM   11  C13 UNL     1      -7.597  20.348 -22.219  1.00  0.00     0.074 A 
HETATM   12  C14 UNL     1      -6.904  21.509 -22.571  1.00  0.00     0.087 A 
HETATM   13  C16 UNL     1      -5.608  21.649 -22.159  1.00  0.00     0.082 A 
HETATM   14  C17 UNL     1      -4.878  22.779 -22.482  1.00  0.00     0.206 A 
HETATM   15  O7  UNL     1      -5.377  23.702 -23.154  1.00  0.00    -0.286 OA
HETATM   16  C18 UNL     1      -1.600  21.912 -20.797  1.00  0.00     0.111 C 
ENDROOT
BRANCH   1  17
HETATM   17  C5  UNL     1       0.308  22.626 -22.201  1.00  0.00    -0.025 A 
HETATM   18  C4  UNL     1       1.048  21.484 -21.970  1.00  0.00     0.049 A 
HETATM   19  C3  UNL     1       2.054  21.069 -22.821  1.00  0.00     0.102 A 
HETATM   20  C26 UNL     1       2.361  21.807 -23.965  1.00  0.00     0.099 A 
HETATM   21  C25 UNL     1       1.619  22.942 -24.186  1.00  0.00     0.040 A 
HETATM   22  C24 UNL     1       0.608  23.357 -23.330  1.00  0.00     0.013 A 
BRANCH  19  23
HETATM   23  O1  UNL     1       2.776  19.938 -22.574  1.00  0.00    -0.349 OA
BRANCH  23  24
HETATM   24  C2  UNL     1       3.787  19.733 -21.646  1.00  0.00     0.171 C 
HETATM   25  C1  UNL     1       3.344  19.271 -20.291  1.00  0.00     0.034 C 
ENDBRANCH  23  24
ENDBRANCH  19  23
BRANCH  20  26
HETATM   26  O8  UNL     1       3.374  21.395 -24.825  1.00  0.00    -0.358 OA
ATOM     27  H8  UNL     1       3.731  21.990 -25.474  1.00  0.00     0.217 HD
ENDBRANCH  20  26
ENDBRANCH   1  17
BRANCH  16  28
HETATM   28  C19 UNL     1      -1.575  21.749 -19.317  1.00  0.00    -0.042 A 
HETATM   29  C20 UNL     1      -0.663  22.441 -18.547  1.00  0.00     0.025 A 
HETATM   30  C21 UNL     1      -0.595  22.328 -17.178  1.00  0.00     0.088 A 
HETATM   31  N1  UNL     1      -1.458  21.507 -16.566  1.00  0.00    -0.375 N 
HETATM   32  C22 UNL     1      -2.367  20.811 -17.277  1.00  0.00     0.088 A 
ATOM     33  H1  UNL     1      -1.427  21.407 -15.552  1.00  0.00     0.164 HD
HETATM   34  C23 UNL     1      -2.454  20.909 -18.666  1.00  0.00     0.025 A 
ENDBRANCH  16  28
BRANCH  12  35
HETATM   35  O6  UNL     1      -7.499  22.500 -23.316  1.00  0.00    -0.355 OA
HETATM   36  C15 UNL     1      -8.116  22.212 -24.537  1.00  0.00     0.210 C 
ENDBRANCH  12  35
BRANCH  10  37
HETATM   37  O5  UNL     1      -7.613  18.204 -21.096  1.00  0.00    -0.361 OA
ATOM     38  H5  UNL     1      -8.461  18.299 -20.680  1.00  0.00     0.217 HD
ENDBRANCH  10  37
TORSDOF 7
ENDMDL
MODEL 5
REMARK VINA RESULT: -7.373388044      2.579      8.331
REMARK  7 active torsions:
REMARK  status: ('A' for Active; 'I' for Inactive)
REMARK    1  A    between atoms: C2_2  and  O1_3 
REMARK    2  A    between atoms: O1_3  and  C3_4 
REMARK    3  A    between atoms: C5_6  and  C6_7 
REMARK    4  A    between atoms: C12_16  and  O5_17 
REMARK    5  A    between atoms: C14_20  and  O6_21 
REMARK    6  A    between atoms: C18_26  and  C19_27 
REMARK    7  A    between atoms: C26_36  and  O8_37 
ROOT
HETATM    1  C6  UNL     1      -0.292  23.257 -21.517  1.00  0.00     0.180 C 
HETATM    2  O2  UNL     1      -1.149  24.137 -22.167  1.00  0.00    -0.306 OA
HETATM    3  C7  UNL     1      -2.492  23.929 -22.443  1.00  0.00     0.300 C 
HETATM    4  O3  UNL     1      -3.186  24.700 -23.151  1.00  0.00    -0.259 OA
HETATM    5  C8  UNL     1      -3.121  22.745 -21.871  1.00  0.00     0.121 A 
HETATM    6  C9  UNL     1      -2.360  21.922 -21.108  1.00  0.00     0.085 A 
HETATM    7  O4  UNL     1      -2.929  20.854 -20.593  1.00  0.00    -0.312 OA
HETATM    8  C10 UNL     1      -4.191  20.548 -20.779  1.00  0.00     0.095 A 
HETATM    9  C11 UNL     1      -4.732  19.394 -20.199  1.00  0.00     0.075 A 
HETATM   10  C12 UNL     1      -6.060  19.083 -20.402  1.00  0.00     0.071 A 
HETATM   11  C13 UNL     1      -6.867  19.885 -21.165  1.00  0.00     0.074 A 
HETATM   12  C14 UNL     1      -6.344  21.041 -21.751  1.00  0.00     0.087 A 
HETATM   13  C16 UNL     1      -5.026  21.342 -21.545  1.00  0.00     0.082 A 
HETATM   14  C17 UNL     1      -4.461  22.474 -22.104  1.00  0.00     0.206 A 
HETATM   15  O7  UNL     1      -5.131  23.252 -22.809  1.00  0.00    -0.286 OA
HETATM   16  C18 UNL     1      -0.924  22.119 -20.799  1.00  0.00     0.111 C 
ENDROOT
BRANCH   1  17
HETATM   17  C5  UNL     1       0.708  22.790 -22.533  1.00  0.00    -0.025 A 
HETATM   18  C4  UNL     1       0.982  23.522 -23.669  1.00  0.00     0.049 A 
HETATM   19  C3  UNL     1       1.901  23.106 -24.614  1.00  0.00     0.102 A 
HETATM   20  C26 UNL     1       2.595  21.907 -24.445  1.00  0.00     0.099 A 
HETATM   21  C25 UNL     1       2.315  21.186 -23.310  1.00  0.00     0.040 A 
HETATM   22  C24 UNL     1       1.392  21.605 -22.362  1.00  0.00     0.013 A 
BRANCH  19  23
HETATM   23  O1  UNL     1       2.158  23.844 -25.733  1.00  0.00    -0.349 OA
BRANCH  23  24
HETATM   24  C2  UNL     1       1.455  24.928 -26.243  1.00  0.00     0.171 C 
HETATM   25  C1  UNL     1       2.056  26.275 -25.981  1.00  0.00     0.034 C 
ENDBRANCH  23  24
ENDBRANCH  19  23
BRANCH  20  26
HETATM   26  O8  UNL     1       3.521  21.483 -25.393  1.00  0.00    -0.358 OA
ATOM     27  H8  UNL     1       3.753  20.565 -25.467  1.00  0.00     0.217 HD
ENDBRANCH  20  26
ENDBRANCH   1  17
BRANCH  16  28
HETATM   28  C19 UNL     1      -0.694  22.162 -19.328  1.00  0.00    -0.042 A 
HETATM   29  C20 UNL     1       0.586  22.159 -18.814  1.00  0.00     0.025 A 
HETATM   30  C21 UNL     1       0.856  22.198 -17.466  1.00  0.00     0.088 A 
HETATM   31  N1  UNL     1      -0.176  22.240 -16.614  1.00  0.00    -0.375 N 
HETATM   32  C22 UNL     1      -1.444  22.245 -17.070  1.00  0.00     0.088 A 
ATOM     33  H1  UNL     1      -0.001  22.269 -15.610  1.00  0.00     0.164 HD
HETATM   34  C23 UNL     1      -1.743  22.206 -18.432  1.00  0.00     0.025 A 
ENDBRANCH  16  28
BRANCH  12  35
HETATM   35  O6  UNL     1      -7.125  21.868 -22.523  1.00  0.00    -0.355 OA
HETATM   36  C15 UNL     1      -8.181  21.359 -23.285  1.00  0.00     0.210 C 
ENDBRANCH  12  35
BRANCH  10  37
HETATM   37  O5  UNL     1      -6.524  17.921 -19.794  1.00  0.00    -0.361 OA
ATOM     38  H5  UNL     1      -6.077  17.651 -19.001  1.00  0.00     0.217 HD
ENDBRANCH  10  37
TORSDOF 7
ENDMDL
