MODEL 1
REMARK VINA RESULT: -7.716794810      0.000      0.000
REMARK  7 active torsions:
REMARK  status: ('A' for Active; 'I' for Inactive)
REMARK    1  A    between atoms: C2_2  and  C4_6 
REMARK    2  A    between atoms: C3_3  and  O1_4 
REMARK    3  A    between atoms: C8_12  and  C9_13 
REMARK    4  A    between atoms: C10_15  and  C11_16 
REMARK    5  A    between atoms: C11_16  and  O5_17 
REMARK    6  A    between atoms: C12_19  and  N1_20 
REMARK       I    between atoms: N1_20  and  C13_22 
REMARK    7  A    between atoms: C13_22  and  C14_24 
ROOT
HETATM    1  C9  UNL     1       4.654  21.550  21.398  1.00  0.00     0.182 C 
HETATM    2  O4  UNL     1       4.261  22.858  21.555  1.00  0.00    -0.369 OA
HETATM    3  C10 UNL     1       3.288  23.094  20.596  1.00  0.00     0.194 C 
HETATM    4  C12 UNL     1       2.175  22.088  20.744  1.00  0.00     0.255 C 
HETATM    5  O7  UNL     1       2.368  21.233  21.773  1.00  0.00    -0.356 OA
HETATM    6  C19 UNL     1       3.602  20.683  22.000  1.00  0.00     0.151 C 
HETATM    7  C20 UNL     1       3.732  20.551  23.508  1.00  0.00     0.042 C 
ENDROOT
BRANCH   1   8
HETATM    8  C8  UNL     1       6.060  21.217  21.615  1.00  0.00     0.190 C 
HETATM    9  C4  UNL     1       6.650  21.016  22.921  1.00  0.00     0.187 C 
HETATM   10  O2  UNL     1       7.795  20.218  22.635  1.00  0.00    -0.344 OA
HETATM   11  C5  UNL     1       7.548  19.590  21.441  1.00  0.00     0.158 C 
HETATM   12  C6  UNL     1       8.634  19.899  20.420  1.00  0.00     0.078 C 
HETATM   13  C7  UNL     1       7.545  18.075  21.632  1.00  0.00     0.078 C 
HETATM   14  O3  UNL     1       6.352  20.042  20.917  1.00  0.00    -0.345 OA
BRANCH   9  15
HETATM   15  C2  UNL     1       7.210  22.202  23.608  1.00  0.00    -0.031 C 
HETATM   16  C1  UNL     1       6.239  23.232  24.093  1.00  0.00     0.048 C 
HETATM   17  C3  UNL     1       8.481  22.434  23.837  1.00  0.00     0.136 C 
BRANCH  17  18
HETATM   18  O1  UNL     1       8.924  23.583  24.502  1.00  0.00    -0.372 OA
ATOM     19  H1  UNL     1       8.995  23.626  25.448  1.00  0.00     0.216 HD
ENDBRANCH  17  18
ENDBRANCH   9  15
ENDBRANCH   1   8
BRANCH   3  20
HETATM   20  C11 UNL     1       2.793  24.516  20.587  1.00  0.00     0.200 C 
BRANCH  20  21
HETATM   21  O5  UNL     1       1.571  24.680  19.956  1.00  0.00    -0.398 OA
ATOM     22  H5  UNL     1       0.875  24.966  20.536  1.00  0.00     0.209 HD
ENDBRANCH  20  21
ENDBRANCH   3  20
BRANCH   4  23
HETATM   23  N1  UNL     1       1.936  21.358  19.520  1.00  0.00    -0.328 N 
HETATM   24  C13 UNL     1       0.786  21.530  18.708  1.00  0.00     0.260 C 
HETATM   25  O6  UNL     1      -0.083  22.369  19.075  1.00  0.00    -0.267 OA
ATOM     26  H1  UNL     1       2.636  20.678  19.222  1.00  0.00     0.165 HD
BRANCH  24  27
HETATM   27  C14 UNL     1       0.576  20.781  17.472  1.00  0.00     0.073 A 
HETATM   28  C15 UNL     1       1.382  20.759  16.360  1.00  0.00     0.025 A 
HETATM   29  C16 UNL     1       0.997  19.997  15.336  1.00  0.00     0.015 A 
HETATM   30  C17 UNL     1      -0.173  19.294  15.469  1.00  0.00    -0.020 A 
HETATM   31  C18 UNL     1      -0.818  18.377  14.459  1.00  0.00     0.056 C 
HETATM   32  S1  UNL     1      -0.690  19.731  17.036  1.00  0.00    -0.090 SA
ENDBRANCH  24  27
ENDBRANCH   4  23
TORSDOF 7
ENDMDL
MODEL 2
REMARK VINA RESULT: -7.591409931      4.083      6.533
REMARK  7 active torsions:
REMARK  status: ('A' for Active; 'I' for Inactive)
REMARK    1  A    between atoms: C2_2  and  C4_6 
REMARK    2  A    between atoms: C3_3  and  O1_4 
REMARK    3  A    between atoms: C8_12  and  C9_13 
REMARK    4  A    between atoms: C10_15  and  C11_16 
REMARK    5  A    between atoms: C11_16  and  O5_17 
REMARK    6  A    between atoms: C12_19  and  N1_20 
REMARK       I    between atoms: N1_20  and  C13_22 
REMARK    7  A    between atoms: C13_22  and  C14_24 
ROOT
HETATM    1  C9  UNL     1       5.972  21.567  21.499  1.00  0.00     0.182 C 
HETATM    2  O4  UNL     1       4.812  20.832  21.427  1.00  0.00    -0.369 OA
HETATM    3  C10 UNL     1       3.916  21.425  22.303  1.00  0.00     0.194 C 
HETATM    4  C12 UNL     1       3.752  22.882  21.951  1.00  0.00     0.255 C 
HETATM    5  O7  UNL     1       4.477  23.250  20.871  1.00  0.00    -0.356 OA
HETATM    6  C19 UNL     1       5.767  22.818  20.717  1.00  0.00     0.151 C 
HETATM    7  C20 UNL     1       5.971  22.626  19.223  1.00  0.00     0.042 C 
ENDROOT
BRANCH   1   8
HETATM    8  C8  UNL     1       7.247  20.862  21.394  1.00  0.00     0.190 C 
HETATM    9  C4  UNL     1       8.023  20.421  22.534  1.00  0.00     0.187 C 
HETATM   10  O2  UNL     1       8.820  19.372  21.991  1.00  0.00    -0.344 OA
HETATM   11  C5  UNL     1       8.164  18.917  20.876  1.00  0.00     0.158 C 
HETATM   12  C6  UNL     1       9.051  18.999  19.642  1.00  0.00     0.078 C 
HETATM   13  C7  UNL     1       7.790  17.446  21.048  1.00  0.00     0.078 C 
HETATM   14  O3  UNL     1       7.054  19.702  20.636  1.00  0.00    -0.345 OA
BRANCH   9  15
HETATM   15  C2  UNL     1       9.016  21.367  23.090  1.00  0.00    -0.031 C 
HETATM   16  C1  UNL     1      10.434  21.216  22.635  1.00  0.00     0.048 C 
HETATM   17  C3  UNL     1       8.770  22.332  23.944  1.00  0.00     0.136 C 
BRANCH  17  18
HETATM   18  O1  UNL     1       9.772  23.189  24.415  1.00  0.00    -0.372 OA
ATOM     19  H1  UNL     1      10.539  23.406  23.898  1.00  0.00     0.216 HD
ENDBRANCH  17  18
ENDBRANCH   9  15
ENDBRANCH   1   8
BRANCH   3  20
HETATM   20  C11 UNL     1       2.601  20.695  22.395  1.00  0.00     0.200 C 
BRANCH  20  21
HETATM   21  O5  UNL     1       1.506  21.530  22.537  1.00  0.00    -0.398 OA
ATOM     22  H5  UNL     1       0.988  21.624  21.746  1.00  0.00     0.209 HD
ENDBRANCH  20  21
ENDBRANCH   3  20
BRANCH   4  23
HETATM   23  N1  UNL     1       4.042  23.747  23.071  1.00  0.00    -0.328 N 
HETATM   24  C13 UNL     1       3.052  24.454  23.802  1.00  0.00     0.260 C 
HETATM   25  O6  UNL     1       1.847  24.323  23.454  1.00  0.00    -0.267 OA
ATOM     26  H1  UNL     1       5.016  23.857  23.353  1.00  0.00     0.165 HD
BRANCH  24  27
HETATM   27  C14 UNL     1       3.378  25.317  24.934  1.00  0.00     0.073 A 
HETATM   28  C15 UNL     1       4.288  26.345  24.968  1.00  0.00     0.025 A 
HETATM   29  C16 UNL     1       4.426  27.008  26.117  1.00  0.00     0.015 A 
HETATM   30  C17 UNL     1       3.650  26.614  27.177  1.00  0.00    -0.020 A 
HETATM   31  C18 UNL     1       3.627  27.196  28.569  1.00  0.00     0.056 C 
HETATM   32  S1  UNL     1       2.752  25.323  26.516  1.00  0.00    -0.090 SA
ENDBRANCH  24  27
ENDBRANCH   4  23
TORSDOF 7
ENDMDL
MODEL 3
REMARK VINA RESULT: -7.254579078      3.160      8.429
REMARK  7 active torsions:
REMARK  status: ('A' for Active; 'I' for Inactive)
REMARK    1  A    between atoms: C2_2  and  C4_6 
REMARK    2  A    between atoms: C3_3  and  O1_4 
REMARK    3  A    between atoms: C8_12  and  C9_13 
REMARK    4  A    between atoms: C10_15  and  C11_16 
REMARK    5  A    between atoms: C11_16  and  O5_17 
REMARK    6  A    between atoms: C12_19  and  N1_20 
REMARK       I    between atoms: N1_20  and  C13_22 
REMARK    7  A    between atoms: C13_22  and  C14_24 
ROOT
HETATM    1  C9  UNL     1      -0.859  21.230  18.495  1.00  0.00     0.182 C 
HETATM    2  O4  UNL     1      -1.618  21.526  19.602  1.00  0.00    -0.369 OA
HETATM    3  C10 UNL     1      -0.727  21.819  20.623  1.00  0.00     0.194 C 
HETATM    4  C12 UNL     1       0.196  22.928  20.187  1.00  0.00     0.255 C 
HETATM    5  O7  UNL     1      -0.078  23.387  18.945  1.00  0.00    -0.356 OA
HETATM    6  C19 UNL     1      -0.363  22.516  17.928  1.00  0.00     0.151 C 
HETATM    7  C20 UNL     1      -1.388  23.214  17.050  1.00  0.00     0.042 C 
ENDROOT
BRANCH   1   8
HETATM    8  C8  UNL     1      -1.332  20.188  17.587  1.00  0.00     0.190 C 
HETATM    9  C4  UNL     1      -0.481  19.163  17.021  1.00  0.00     0.187 C 
HETATM   10  O2  UNL     1      -1.403  18.128  16.693  1.00  0.00    -0.344 OA
HETATM   11  C5  UNL     1      -2.504  18.315  17.490  1.00  0.00     0.158 C 
HETATM   12  C6  UNL     1      -3.770  18.460  16.657  1.00  0.00     0.078 C 
HETATM   13  C7  UNL     1      -2.713  17.102  18.395  1.00  0.00     0.078 C 
HETATM   14  O3  UNL     1      -2.357  19.478  18.220  1.00  0.00    -0.345 OA
BRANCH   9  15
HETATM   15  C2  UNL     1       0.185  19.462  15.733  1.00  0.00    -0.031 C 
HETATM   16  C1  UNL     1      -0.457  18.928  14.491  1.00  0.00     0.048 C 
HETATM   17  C3  UNL     1       1.286  20.158  15.577  1.00  0.00     0.136 C 
BRANCH  17  18
HETATM   18  O1  UNL     1       1.845  20.400  14.317  1.00  0.00    -0.372 OA
ATOM     19  H1  UNL     1       2.505  21.068  14.174  1.00  0.00     0.216 HD
ENDBRANCH  17  18
ENDBRANCH   9  15
ENDBRANCH   1   8
BRANCH   3  20
HETATM   20  C11 UNL     1      -1.401  22.102  21.939  1.00  0.00     0.200 C 
BRANCH  20  21
HETATM   21  O5  UNL     1      -0.551  22.614  22.906  1.00  0.00    -0.398 OA
ATOM     22  H5  UNL     1       0.241  23.003  22.553  1.00  0.00     0.209 HD
ENDBRANCH  20  21
ENDBRANCH   3  20
BRANCH   4  23
HETATM   23  N1  UNL     1       1.586  22.552  20.290  1.00  0.00    -0.328 N 
HETATM   24  C13 UNL     1       2.475  23.066  21.269  1.00  0.00     0.260 C 
HETATM   25  O6  UNL     1       2.028  23.905  22.098  1.00  0.00    -0.267 OA
ATOM     26  H1  UNL     1       1.951  21.875  19.619  1.00  0.00     0.165 HD
BRANCH  24  27
HETATM   27  C14 UNL     1       3.876  22.660  21.350  1.00  0.00     0.073 A 
HETATM   28  C15 UNL     1       4.823  22.721  20.358  1.00  0.00     0.025 A 
HETATM   29  C16 UNL     1       6.052  22.293  20.652  1.00  0.00     0.015 A 
HETATM   30  C17 UNL     1       6.276  21.826  21.922  1.00  0.00    -0.020 A 
HETATM   31  C18 UNL     1       7.566  21.288  22.491  1.00  0.00     0.056 C 
HETATM   32  S1  UNL     1       4.747  22.007  22.658  1.00  0.00    -0.090 SA
ENDBRANCH  24  27
ENDBRANCH   4  23
TORSDOF 7
ENDMDL
MODEL 4
REMARK VINA RESULT: -7.186589819      4.092      8.591
REMARK  7 active torsions:
REMARK  status: ('A' for Active; 'I' for Inactive)
REMARK    1  A    between atoms: C2_2  and  C4_6 
REMARK    2  A    between atoms: C3_3  and  O1_4 
REMARK    3  A    between atoms: C8_12  and  C9_13 
REMARK    4  A    between atoms: C10_15  and  C11_16 
REMARK    5  A    between atoms: C11_16  and  O5_17 
REMARK    6  A    between atoms: C12_19  and  N1_20 
REMARK       I    between atoms: N1_20  and  C13_22 
REMARK    7  A    between atoms: C13_22  and  C14_24 
ROOT
HETATM    1  C9  UNL     1      -0.162  23.453  21.288  1.00  0.00     0.182 C 
HETATM    2  O4  UNL     1       0.083  23.039  20.000  1.00  0.00    -0.369 OA
HETATM    3  C10 UNL     1       1.442  22.776  19.924  1.00  0.00     0.194 C 
HETATM    4  C12 UNL     1       1.824  21.773  20.982  1.00  0.00     0.255 C 
HETATM    5  O7  UNL     1       0.770  21.353  21.718  1.00  0.00    -0.356 OA
HETATM    6  C19 UNL     1      -0.170  22.245  22.160  1.00  0.00     0.151 C 
HETATM    7  C20 UNL     1      -1.497  21.504  22.137  1.00  0.00     0.042 C 
ENDROOT
BRANCH   1   8
HETATM    8  C8  UNL     1      -1.165  24.493  21.503  1.00  0.00     0.190 C 
HETATM    9  C4  UNL     1      -1.144  25.417  22.618  1.00  0.00     0.187 C 
HETATM   10  O2  UNL     1      -1.917  26.513  22.139  1.00  0.00    -0.344 OA
HETATM   11  C5  UNL     1      -1.876  26.455  20.768  1.00  0.00     0.158 C 
HETATM   12  C6  UNL     1      -3.276  26.384  20.177  1.00  0.00     0.078 C 
HETATM   13  C7  UNL     1      -1.227  27.718  20.206  1.00  0.00     0.078 C 
HETATM   14  O3  UNL     1      -1.205  25.315  20.372  1.00  0.00    -0.345 OA
BRANCH   9  15
HETATM   15  C2  UNL     1      -1.842  25.008  23.857  1.00  0.00    -0.031 C 
HETATM   16  C1  UNL     1      -3.335  25.107  23.865  1.00  0.00     0.048 C 
HETATM   17  C3  UNL     1      -1.273  24.561  24.952  1.00  0.00     0.136 C 
BRANCH  17  18
HETATM   18  O1  UNL     1      -2.013  24.188  26.080  1.00  0.00    -0.372 OA
ATOM     19  H1  UNL     1      -2.743  23.583  26.032  1.00  0.00     0.216 HD
ENDBRANCH  17  18
ENDBRANCH   9  15
ENDBRANCH   1   8
BRANCH   3  20
HETATM   20  C11 UNL     1       1.893  22.371  18.545  1.00  0.00     0.200 C 
BRANCH  20  21
HETATM   21  O5  UNL     1       3.269  22.279  18.410  1.00  0.00    -0.398 OA
ATOM     22  H5  UNL     1       3.559  21.494  17.959  1.00  0.00     0.209 HD
ENDBRANCH  20  21
ENDBRANCH   3  20
BRANCH   4  23
HETATM   23  N1  UNL     1       2.876  22.264  21.842  1.00  0.00    -0.328 N 
HETATM   24  C13 UNL     1       4.232  21.860  21.743  1.00  0.00     0.260 C 
HETATM   25  O6  UNL     1       4.540  21.020  20.854  1.00  0.00    -0.267 OA
ATOM     26  H1  UNL     1       2.629  22.942  22.563  1.00  0.00     0.165 HD
BRANCH  24  27
HETATM   27  C14 UNL     1       5.274  22.380  22.624  1.00  0.00     0.073 A 
HETATM   28  C15 UNL     1       5.320  23.613  23.227  1.00  0.00     0.025 A 
HETATM   29  C16 UNL     1       6.374  23.882  24.000  1.00  0.00     0.015 A 
HETATM   30  C17 UNL     1       7.330  22.909  24.133  1.00  0.00    -0.020 A 
HETATM   31  C18 UNL     1       8.605  22.973  24.938  1.00  0.00     0.056 C 
HETATM   32  S1  UNL     1       6.711  21.647  23.166  1.00  0.00    -0.090 SA
ENDBRANCH  24  27
ENDBRANCH   4  23
TORSDOF 7
ENDMDL
MODEL 5
REMARK VINA RESULT: -7.157190792      2.058      2.423
REMARK  7 active torsions:
REMARK  status: ('A' for Active; 'I' for Inactive)
REMARK    1  A    between atoms: C2_2  and  C4_6 
REMARK    2  A    between atoms: C3_3  and  O1_4 
REMARK    3  A    between atoms: C8_12  and  C9_13 
REMARK    4  A    between atoms: C10_15  and  C11_16 
REMARK    5  A    between atoms: C11_16  and  O5_17 
REMARK    6  A    between atoms: C12_19  and  N1_20 
REMARK       I    between atoms: N1_20  and  C13_22 
REMARK    7  A    between atoms: C13_22  and  C14_24 
ROOT
HETATM    1  C9  UNL     1       5.380  22.183  22.021  1.00  0.00     0.182 C 
HETATM    2  O4  UNL     1       5.413  23.372  22.711  1.00  0.00    -0.369 OA
HETATM    3  C10 UNL     1       4.418  24.170  22.167  1.00  0.00     0.194 C 
HETATM    4  C12 UNL     1       3.096  23.449  22.233  1.00  0.00     0.255 C 
HETATM    5  O7  UNL     1       3.185  22.235  22.823  1.00  0.00    -0.356 OA
HETATM    6  C19 UNL     1       4.224  21.393  22.532  1.00  0.00     0.151 C 
HETATM    7  C20 UNL     1       4.536  20.648  23.819  1.00  0.00     0.042 C 
ENDROOT
BRANCH   1   8
HETATM    8  C8  UNL     1       6.644  21.503  21.751  1.00  0.00     0.190 C 
HETATM    9  C4  UNL     1       7.462  20.883  22.773  1.00  0.00     0.187 C 
HETATM   10  O2  UNL     1       8.228  19.934  22.037  1.00  0.00    -0.344 OA
HETATM   11  C5  UNL     1       7.524  19.665  20.890  1.00  0.00     0.158 C 
HETATM   12  C6  UNL     1       8.362  19.945  19.651  1.00  0.00     0.078 C 
HETATM   13  C7  UNL     1       7.145  18.187  20.838  1.00  0.00     0.078 C 
HETATM   14  O3  UNL     1       6.411  20.481  20.826  1.00  0.00    -0.345 OA
BRANCH   9  15
HETATM   15  C2  UNL     1       8.484  21.725  23.433  1.00  0.00    -0.031 C 
HETATM   16  C1  UNL     1       9.908  21.523  23.019  1.00  0.00     0.048 C 
HETATM   17  C3  UNL     1       8.259  22.639  24.348  1.00  0.00     0.136 C 
BRANCH  17  18
HETATM   18  O1  UNL     1       9.288  23.397  24.917  1.00  0.00    -0.372 OA
ATOM     19  H1  UNL     1      10.089  23.004  25.242  1.00  0.00     0.216 HD
ENDBRANCH  17  18
ENDBRANCH   9  15
ENDBRANCH   1   8
BRANCH   3  20
HETATM   20  C11 UNL     1       4.363  25.548  22.771  1.00  0.00     0.200 C 
BRANCH  20  21
HETATM   21  O5  UNL     1       3.171  25.829  23.418  1.00  0.00    -0.398 OA
ATOM     22  H5  UNL     1       3.211  25.723  24.361  1.00  0.00     0.209 HD
ENDBRANCH  20  21
ENDBRANCH   3  20
BRANCH   4  23
HETATM   23  N1  UNL     1       2.473  23.334  20.935  1.00  0.00    -0.328 N 
HETATM   24  C13 UNL     1       1.106  23.011  20.739  1.00  0.00     0.260 C 
HETATM   25  O6  UNL     1       0.390  22.809  21.757  1.00  0.00    -0.267 OA
ATOM     26  H1  UNL     1       3.052  23.495  20.110  1.00  0.00     0.165 HD
BRANCH  24  27
HETATM   27  C14 UNL     1       0.505  22.908  19.412  1.00  0.00     0.073 A 
HETATM   28  C15 UNL     1       1.085  22.420  18.267  1.00  0.00     0.025 A 
HETATM   29  C16 UNL     1       0.347  22.419  17.155  1.00  0.00     0.015 A 
HETATM   30  C17 UNL     1      -0.933  22.904  17.240  1.00  0.00    -0.020 A 
HETATM   31  C18 UNL     1      -1.952  23.013  16.133  1.00  0.00     0.056 C 
HETATM   32  S1  UNL     1      -1.053  23.345  18.884  1.00  0.00    -0.090 SA
ENDBRANCH  24  27
ENDBRANCH   4  23
TORSDOF 7
ENDMDL
