MODEL 1
REMARK VINA RESULT: -8.428338480      0.000      0.000
REMARK  7 active torsions:
REMARK  status: ('A' for Active; 'I' for Inactive)
REMARK    1  A    between atoms: C6_7  and  C7_8 
REMARK    2  A    between atoms: C7_8  and  C12_15 
REMARK    3  A    between atoms: N1_9  and  C8_11 
REMARK       I    between atoms: C12_15  and  N2_17 
REMARK    4  A    between atoms: N3_19  and  C13_21 
REMARK    5  A    between atoms: C14_22  and  O3_23 
REMARK    6  A    between atoms: C15_27  and  O4_28 
REMARK    7  A    between atoms: C16_30  and  C17_31 
ROOT
HETATM    1  C12 UNL     1       3.295  21.538  18.808  1.00  0.00     0.283 C 
HETATM    2  O2  UNL     1       3.073  22.804  18.720  1.00  0.00    -0.265 OA
HETATM    3  N2  UNL     1       2.627  20.784  17.820  1.00  0.00    -0.264 N 
ATOM      4  H2  UNL     1       3.111  19.983  17.416  1.00  0.00     0.190 HD
HETATM    5  N3  UNL     1       1.459  21.049  17.408  1.00  0.00    -0.293 N 
ATOM      6  H3  UNL     1       0.974  21.850  17.812  1.00  0.00     0.187 HD
ENDROOT
BRANCH   1   7
HETATM    7  C7  UNL     1       4.159  21.036  19.852  1.00  0.00     0.094 C 
HETATM    8  N1  UNL     1       3.909  21.044  21.058  1.00  0.00    -0.380 N 
ATOM      9  H1  UNL     1       4.700  20.627  21.548  1.00  0.00     0.160 HD
BRANCH   7  10
HETATM   10  C6  UNL     1       5.486  20.451  19.444  1.00  0.00     0.180 C 
HETATM   11  C5  UNL     1       6.630  21.251  19.952  1.00  0.00     0.144 C 
HETATM   12  C4  UNL     1       7.979  20.670  19.739  1.00  0.00     0.088 C 
HETATM   13  O1  UNL     1       6.546  22.320  20.514  1.00  0.00    -0.297 OA
HETATM   14  C2  UNL     1       8.140  19.270  20.177  1.00  0.00    -0.035 C 
HETATM   15  C1  UNL     1       8.767  19.303  21.580  1.00  0.00     0.015 C 
HETATM   16  C3  UNL     1       9.215  18.626  19.292  1.00  0.00     0.015 C 
HETATM   17  C19 UNL     1       6.936  18.427  20.232  1.00  0.00     0.088 C 
HETATM   18  C18 UNL     1       5.653  19.082  19.959  1.00  0.00     0.144 C 
HETATM   19  O7  UNL     1       4.636  18.437  20.178  1.00  0.00    -0.297 OA
ENDBRANCH   7  10
BRANCH   8  20
HETATM   20  C8  UNL     1       2.958  21.404  22.003  1.00  0.00     0.019 C 
HETATM   21  C9  UNL     1       1.546  21.509  21.533  1.00  0.00     0.037 C 
HETATM   22  C10 UNL     1       3.335  22.841  22.489  1.00  0.00     0.037 C 
HETATM   23  C11 UNL     1       2.990  20.575  23.279  1.00  0.00     0.037 C 
ENDBRANCH   8  20
ENDBRANCH   1   7
BRANCH   5  24
HETATM   24  C13 UNL     1       0.792  20.288  16.415  1.00  0.00     0.120 A 
HETATM   25  C14 UNL     1       1.256  19.947  15.174  1.00  0.00     0.172 A 
HETATM   26  N4  UNL     1       0.313  19.225  14.550  1.00  0.00    -0.315 N 
HETATM   27  C15 UNL     1      -0.765  19.077  15.339  1.00  0.00     0.161 A 
ATOM     28  H4  UNL     1       0.402  18.842  13.609  1.00  0.00     0.170 HD
HETATM   29  C16 UNL     1      -0.476  19.744  16.522  1.00  0.00     0.123 A 
BRANCH  25  30
HETATM   30  O3  UNL     1       2.491  20.260  14.587  1.00  0.00    -0.344 OA
ATOM     31  H3  UNL     1       2.767  21.078  14.189  1.00  0.00     0.219 HD
ENDBRANCH  25  30
BRANCH  27  32
HETATM   32  O4  UNL     1      -1.902  18.386  14.985  1.00  0.00    -0.345 OA
ATOM     33  H4  UNL     1      -1.925  17.461  14.770  1.00  0.00     0.219 HD
ENDBRANCH  27  32
BRANCH  29  34
HETATM   34  C17 UNL     1      -1.390  19.827  17.657  1.00  0.00     0.216 C 
HETATM   35  O5  UNL     1      -2.173  18.887  17.861  1.00  0.00    -0.644 OA
HETATM   36  O6  UNL     1      -1.387  20.927  18.489  1.00  0.00    -0.644 OA
ENDBRANCH  29  34
ENDBRANCH   5  24
TORSDOF 7
ENDMDL
MODEL 2
REMARK VINA RESULT: -8.295951859      3.923      8.051
REMARK  7 active torsions:
REMARK  status: ('A' for Active; 'I' for Inactive)
REMARK    1  A    between atoms: C6_7  and  C7_8 
REMARK    2  A    between atoms: C7_8  and  C12_15 
REMARK    3  A    between atoms: N1_9  and  C8_11 
REMARK       I    between atoms: C12_15  and  N2_17 
REMARK    4  A    between atoms: N3_19  and  C13_21 
REMARK    5  A    between atoms: C14_22  and  O3_23 
REMARK    6  A    between atoms: C15_27  and  O4_28 
REMARK    7  A    between atoms: C16_30  and  C17_31 
ROOT
HETATM    1  C12 UNL     1       4.571  23.519  21.589  1.00  0.00     0.283 C 
HETATM    2  O2  UNL     1       3.961  24.545  21.107  1.00  0.00    -0.265 OA
HETATM    3  N2  UNL     1       4.923  23.665  22.947  1.00  0.00    -0.264 N 
ATOM      4  H2  UNL     1       4.851  22.849  23.555  1.00  0.00     0.190 HD
HETATM    5  N3  UNL     1       5.325  24.754  23.452  1.00  0.00    -0.293 N 
ATOM      6  H3  UNL     1       5.398  25.571  22.846  1.00  0.00     0.187 HD
ENDROOT
BRANCH   1   7
HETATM    7  C7  UNL     1       4.824  22.376  20.740  1.00  0.00     0.094 C 
HETATM    8  N1  UNL     1       3.984  21.788  20.058  1.00  0.00    -0.380 N 
ATOM      9  H1  UNL     1       4.453  21.025  19.568  1.00  0.00     0.160 HD
BRANCH   7  10
HETATM   10  C6  UNL     1       6.233  21.846  20.678  1.00  0.00     0.180 C 
HETATM   11  C5  UNL     1       6.503  20.847  21.745  1.00  0.00     0.144 C 
HETATM   12  C4  UNL     1       7.811  20.151  21.670  1.00  0.00     0.088 C 
HETATM   13  O1  UNL     1       5.752  20.568  22.652  1.00  0.00    -0.297 OA
HETATM   14  C2  UNL     1       8.135  19.553  20.360  1.00  0.00    -0.035 C 
HETATM   15  C1  UNL     1       7.750  18.067  20.431  1.00  0.00     0.015 C 
HETATM   16  C3  UNL     1       9.662  19.547  20.216  1.00  0.00     0.015 C 
HETATM   17  C19 UNL     1       7.501  20.135  19.167  1.00  0.00     0.088 C 
HETATM   18  C18 UNL     1       6.505  21.188  19.390  1.00  0.00     0.144 C 
HETATM   19  O7  UNL     1       5.845  21.549  18.425  1.00  0.00    -0.297 OA
ENDBRANCH   7  10
BRANCH   8  20
HETATM   20  C8  UNL     1       2.643  21.770  19.701  1.00  0.00     0.019 C 
HETATM   21  C9  UNL     1       1.655  21.568  20.802  1.00  0.00     0.037 C 
HETATM   22  C10 UNL     1       2.451  20.545  18.750  1.00  0.00     0.037 C 
HETATM   23  C11 UNL     1       2.199  22.954  18.854  1.00  0.00     0.037 C 
ENDBRANCH   8  20
ENDBRANCH   1   7
BRANCH   5  24
HETATM   24  C13 UNL     1       5.678  24.897  24.819  1.00  0.00     0.120 A 
HETATM   25  C14 UNL     1       6.589  24.161  25.525  1.00  0.00     0.172 A 
HETATM   26  N4  UNL     1       6.621  24.618  26.786  1.00  0.00    -0.315 N 
HETATM   27  C15 UNL     1       5.757  25.636  26.938  1.00  0.00     0.161 A 
ATOM     28  H4  UNL     1       7.218  24.246  27.524  1.00  0.00     0.170 HD
HETATM   29  C16 UNL     1       5.154  25.824  25.702  1.00  0.00     0.123 A 
BRANCH  25  30
HETATM   30  O3  UNL     1       7.389  23.098  25.077  1.00  0.00    -0.344 OA
ATOM     31  H3  UNL     1       8.115  22.676  25.522  1.00  0.00     0.219 HD
ENDBRANCH  25  30
BRANCH  27  32
HETATM   32  O4  UNL     1       5.556  26.319  28.117  1.00  0.00    -0.345 OA
ATOM     33  H4  UNL     1       4.877  26.969  28.253  1.00  0.00     0.219 HD
ENDBRANCH  27  32
BRANCH  29  34
HETATM   34  C17 UNL     1       4.143  26.841  25.432  1.00  0.00     0.216 C 
HETATM   35  O5  UNL     1       3.623  27.432  26.391  1.00  0.00    -0.644 OA
HETATM   36  O6  UNL     1       3.769  27.143  24.139  1.00  0.00    -0.644 OA
ENDBRANCH  29  34
ENDBRANCH   5  24
TORSDOF 7
ENDMDL
MODEL 3
REMARK VINA RESULT: -8.269057788      3.673      5.101
REMARK  7 active torsions:
REMARK  status: ('A' for Active; 'I' for Inactive)
REMARK    1  A    between atoms: C6_7  and  C7_8 
REMARK    2  A    between atoms: C7_8  and  C12_15 
REMARK    3  A    between atoms: N1_9  and  C8_11 
REMARK       I    between atoms: C12_15  and  N2_17 
REMARK    4  A    between atoms: N3_19  and  C13_21 
REMARK    5  A    between atoms: C14_22  and  O3_23 
REMARK    6  A    between atoms: C15_27  and  O4_28 
REMARK    7  A    between atoms: C16_30  and  C17_31 
ROOT
HETATM    1  C12 UNL     1       4.832  21.663  22.750  1.00  0.00     0.283 C 
HETATM    2  O2  UNL     1       4.196  21.068  23.699  1.00  0.00    -0.265 OA
HETATM    3  N2  UNL     1       4.014  22.515  21.978  1.00  0.00    -0.264 N 
ATOM      4  H2  UNL     1       4.408  23.396  21.651  1.00  0.00     0.190 HD
HETATM    5  N3  UNL     1       2.816  22.244  21.669  1.00  0.00    -0.293 N 
ATOM      6  H3  UNL     1       2.420  21.362  21.996  1.00  0.00     0.187 HD
ENDROOT
BRANCH   1   7
HETATM    7  C7  UNL     1       6.245  21.417  22.575  1.00  0.00     0.094 C 
HETATM    8  N1  UNL     1       7.155  22.000  23.165  1.00  0.00    -0.380 N 
ATOM      9  H1  UNL     1       8.042  21.616  22.837  1.00  0.00     0.160 HD
BRANCH   7  10
HETATM   10  C6  UNL     1       6.655  20.357  21.585  1.00  0.00     0.180 C 
HETATM   11  C5  UNL     1       7.082  20.940  20.286  1.00  0.00     0.144 C 
HETATM   12  C4  UNL     1       7.655  19.990  19.301  1.00  0.00     0.088 C 
HETATM   13  O1  UNL     1       6.998  22.108  19.978  1.00  0.00    -0.297 OA
HETATM   14  C2  UNL     1       8.732  19.121  19.814  1.00  0.00    -0.035 C 
HETATM   15  C1  UNL     1      10.067  19.774  19.425  1.00  0.00     0.015 C 
HETATM   16  C3  UNL     1       8.698  17.814  19.011  1.00  0.00     0.015 C 
HETATM   17  C19 UNL     1       8.760  18.845  21.259  1.00  0.00     0.088 C 
HETATM   18  C18 UNL     1       7.781  19.554  22.089  1.00  0.00     0.144 C 
HETATM   19  O7  UNL     1       7.911  19.472  23.303  1.00  0.00    -0.297 OA
ENDBRANCH   7  10
BRANCH   8  20
HETATM   20  C8  UNL     1       7.432  22.980  24.107  1.00  0.00     0.019 C 
HETATM   21  C9  UNL     1       6.879  24.342  23.846  1.00  0.00     0.037 C 
HETATM   22  C10 UNL     1       8.983  23.164  24.117  1.00  0.00     0.037 C 
HETATM   23  C11 UNL     1       7.109  22.587  25.541  1.00  0.00     0.037 C 
ENDBRANCH   8  20
ENDBRANCH   1   7
BRANCH   5  24
HETATM   24  C13 UNL     1       1.997  23.102  20.893  1.00  0.00     0.120 A 
HETATM   25  C14 UNL     1       1.890  23.143  19.530  1.00  0.00     0.172 A 
HETATM   26  N4  UNL     1       1.008  24.099  19.200  1.00  0.00    -0.315 N 
HETATM   27  C15 UNL     1       0.527  24.695  20.305  1.00  0.00     0.161 A 
ATOM     28  H4  UNL     1       0.739  24.339  18.246  1.00  0.00     0.170 HD
HETATM   29  C16 UNL     1       1.143  24.075  21.383  1.00  0.00     0.123 A 
BRANCH  25  30
HETATM   30  O3  UNL     1       2.552  22.355  18.577  1.00  0.00    -0.344 OA
ATOM     31  H3  UNL     1       2.479  21.419  18.430  1.00  0.00     0.219 HD
ENDBRANCH  25  30
BRANCH  27  32
HETATM   32  O4  UNL     1      -0.397  25.717  20.301  1.00  0.00    -0.345 OA
ATOM     33  H4  UNL     1      -0.229  26.595  20.621  1.00  0.00     0.219 HD
ENDBRANCH  27  32
BRANCH  29  34
HETATM   34  C17 UNL     1       0.898  24.426  22.777  1.00  0.00     0.216 C 
HETATM   35  O5  UNL     1      -0.191  24.937  23.080  1.00  0.00    -0.644 OA
HETATM   36  O6  UNL     1       1.855  24.198  23.744  1.00  0.00    -0.644 OA
ENDBRANCH  29  34
ENDBRANCH   5  24
TORSDOF 7
ENDMDL
MODEL 4
REMARK VINA RESULT: -8.112034540      2.688      3.783
REMARK  7 active torsions:
REMARK  status: ('A' for Active; 'I' for Inactive)
REMARK    1  A    between atoms: C6_7  and  C7_8 
REMARK    2  A    between atoms: C7_8  and  C12_15 
REMARK    3  A    between atoms: N1_9  and  C8_11 
REMARK       I    between atoms: C12_15  and  N2_17 
REMARK    4  A    between atoms: N3_19  and  C13_21 
REMARK    5  A    between atoms: C14_22  and  O3_23 
REMARK    6  A    between atoms: C15_27  and  O4_28 
REMARK    7  A    between atoms: C16_30  and  C17_31 
ROOT
HETATM    1  C12 UNL     1       3.691  22.986  22.138  1.00  0.00     0.283 C 
HETATM    2  O2  UNL     1       2.773  23.315  22.979  1.00  0.00    -0.265 OA
HETATM    3  N2  UNL     1       3.215  22.851  20.816  1.00  0.00    -0.264 N 
ATOM      4  H2  UNL     1       3.813  23.168  20.053  1.00  0.00     0.190 HD
HETATM    5  N3  UNL     1       2.086  22.357  20.527  1.00  0.00    -0.293 N 
ATOM      6  H3  UNL     1       1.487  22.039  21.289  1.00  0.00     0.187 HD
ENDROOT
BRANCH   1   7
HETATM    7  C7  UNL     1       5.047  22.797  22.600  1.00  0.00     0.094 C 
HETATM    8  N1  UNL     1       5.688  23.587  23.294  1.00  0.00    -0.380 N 
ATOM      9  H1  UNL     1       6.611  23.186  23.460  1.00  0.00     0.160 HD
BRANCH   7  10
HETATM   10  C6  UNL     1       5.753  21.525  22.203  1.00  0.00     0.180 C 
HETATM   11  C5  UNL     1       6.408  21.640  20.874  1.00  0.00     0.144 C 
HETATM   12  C4  UNL     1       7.261  20.497  20.467  1.00  0.00     0.088 C 
HETATM   13  O1  UNL     1       6.298  22.576  20.115  1.00  0.00    -0.297 OA
HETATM   14  C2  UNL     1       8.265  20.071  21.461  1.00  0.00    -0.035 C 
HETATM   15  C1  UNL     1       9.595  20.739  21.079  1.00  0.00     0.015 C 
HETATM   16  C3  UNL     1       8.517  18.572  21.256  1.00  0.00     0.015 C 
HETATM   17  C19 UNL     1       7.994  20.365  22.877  1.00  0.00     0.088 C 
HETATM   18  C18 UNL     1       6.800  21.165  23.172  1.00  0.00     0.144 C 
HETATM   19  O7  UNL     1       6.664  21.566  24.320  1.00  0.00    -0.297 OA
ENDBRANCH   7  10
BRANCH   8  20
HETATM   20  C8  UNL     1       5.629  24.816  23.935  1.00  0.00     0.019 C 
HETATM   21  C9  UNL     1       4.667  25.818  23.389  1.00  0.00     0.037 C 
HETATM   22  C10 UNL     1       7.038  25.472  23.771  1.00  0.00     0.037 C 
HETATM   23  C11 UNL     1       5.447  24.733  25.444  1.00  0.00     0.037 C 
ENDBRANCH   8  20
ENDBRANCH   1   7
BRANCH   5  24
HETATM   24  C13 UNL     1       1.611  22.222  19.197  1.00  0.00     0.120 A 
HETATM   25  C14 UNL     1       2.215  21.567  18.159  1.00  0.00     0.172 A 
HETATM   26  N4  UNL     1       1.435  21.680  17.073  1.00  0.00    -0.315 N 
HETATM   27  C15 UNL     1       0.331  22.392  17.359  1.00  0.00     0.161 A 
ATOM     28  H4  UNL     1       1.650  21.281  16.159  1.00  0.00     0.170 HD
HETATM   29  C16 UNL     1       0.429  22.740  18.699  1.00  0.00     0.123 A 
BRANCH  25  30
HETATM   30  O3  UNL     1       3.435  20.874  18.155  1.00  0.00    -0.344 OA
ATOM     31  H3  UNL     1       4.051  20.757  18.868  1.00  0.00     0.219 HD
ENDBRANCH  25  30
BRANCH  27  32
HETATM   32  O4  UNL     1      -0.665  22.683  16.454  1.00  0.00    -0.345 OA
ATOM     33  H4  UNL     1      -0.930  22.111  15.743  1.00  0.00     0.219 HD
ENDBRANCH  27  32
BRANCH  29  34
HETATM   34  C17 UNL     1      -0.573  23.524  19.414  1.00  0.00     0.216 C 
HETATM   35  O5  UNL     1      -1.769  23.368  19.123  1.00  0.00    -0.644 OA
HETATM   36  O6  UNL     1      -0.203  24.421  20.394  1.00  0.00    -0.644 OA
ENDBRANCH  29  34
ENDBRANCH   5  24
TORSDOF 7
ENDMDL
MODEL 5
REMARK VINA RESULT: -8.033583408      3.121      4.334
REMARK  7 active torsions:
REMARK  status: ('A' for Active; 'I' for Inactive)
REMARK    1  A    between atoms: C6_7  and  C7_8 
REMARK    2  A    between atoms: C7_8  and  C12_15 
REMARK    3  A    between atoms: N1_9  and  C8_11 
REMARK       I    between atoms: C12_15  and  N2_17 
REMARK    4  A    between atoms: N3_19  and  C13_21 
REMARK    5  A    between atoms: C14_22  and  O3_23 
REMARK    6  A    between atoms: C15_27  and  O4_28 
REMARK    7  A    between atoms: C16_30  and  C17_31 
ROOT
HETATM    1  C12 UNL     1       4.908  21.929  22.431  1.00  0.00     0.283 C 
HETATM    2  O2  UNL     1       4.665  20.847  23.084  1.00  0.00    -0.265 OA
HETATM    3  N2  UNL     1       3.799  22.399  21.695  1.00  0.00    -0.264 N 
ATOM      4  H2  UNL     1       3.646  23.406  21.645  1.00  0.00     0.190 HD
HETATM    5  N3  UNL     1       2.984  21.638  21.096  1.00  0.00    -0.293 N 
ATOM      6  H3  UNL     1       3.136  20.631  21.146  1.00  0.00     0.187 HD
ENDROOT
BRANCH   1   7
HETATM    7  C7  UNL     1       6.221  22.528  22.506  1.00  0.00     0.094 C 
HETATM    8  N1  UNL     1       6.520  23.523  23.168  1.00  0.00    -0.380 N 
ATOM      9  H1  UNL     1       7.513  23.711  23.025  1.00  0.00     0.160 HD
BRANCH   7  10
HETATM   10  C6  UNL     1       7.330  21.892  21.710  1.00  0.00     0.180 C 
HETATM   11  C5  UNL     1       7.958  20.756  22.434  1.00  0.00     0.144 C 
HETATM   12  C4  UNL     1       8.952  19.964  21.668  1.00  0.00     0.088 C 
HETATM   13  O1  UNL     1       7.725  20.437  23.578  1.00  0.00    -0.297 OA
HETATM   14  C2  UNL     1       8.503  19.498  20.342  1.00  0.00    -0.035 C 
HETATM   15  C1  UNL     1       8.012  18.052  20.511  1.00  0.00     0.015 C 
HETATM   16  C3  UNL     1       9.743  19.378  19.446  1.00  0.00     0.015 C 
HETATM   17  C19 UNL     1       7.446  20.267  19.668  1.00  0.00     0.088 C 
HETATM   18  C18 UNL     1       6.840  21.368  20.425  1.00  0.00     0.144 C 
HETATM   19  O7  UNL     1       5.843  21.894  19.948  1.00  0.00    -0.297 OA
ENDBRANCH   7  10
BRANCH   8  20
HETATM   20  C8  UNL     1       6.019  24.484  24.034  1.00  0.00     0.019 C 
HETATM   21  C9  UNL     1       4.620  24.945  23.795  1.00  0.00     0.037 C 
HETATM   22  C10 UNL     1       6.907  25.757  23.848  1.00  0.00     0.037 C 
HETATM   23  C11 UNL     1       6.179  24.149  25.510  1.00  0.00     0.037 C 
ENDBRANCH   8  20
ENDBRANCH   1   7
BRANCH   5  24
HETATM   24  C13 UNL     1       1.870  22.114  20.358  1.00  0.00     0.120 A 
HETATM   25  C14 UNL     1       1.840  22.486  19.042  1.00  0.00     0.172 A 
HETATM   26  N4  UNL     1       0.593  22.876  18.738  1.00  0.00    -0.315 N 
HETATM   27  C15 UNL     1      -0.206  22.776  19.814  1.00  0.00     0.161 A 
ATOM     28  H4  UNL     1       0.293  23.203  17.820  1.00  0.00     0.170 HD
HETATM   29  C16 UNL     1       0.588  22.294  20.846  1.00  0.00     0.123 A 
BRANCH  25  30
HETATM   30  O3  UNL     1       2.889  22.486  18.110  1.00  0.00    -0.344 OA
ATOM     31  H3  UNL     1       3.178  21.779  17.545  1.00  0.00     0.219 HD
ENDBRANCH  25  30
BRANCH  27  32
HETATM   32  O4  UNL     1      -1.544  23.102  19.825  1.00  0.00    -0.345 OA
ATOM     33  H4  UNL     1      -2.216  22.601  20.273  1.00  0.00     0.219 HD
ENDBRANCH  27  32
BRANCH  29  34
HETATM   34  C17 UNL     1       0.104  22.039  22.199  1.00  0.00     0.216 C 
HETATM   35  O5  UNL     1       0.848  22.301  23.157  1.00  0.00    -0.644 OA
HETATM   36  O6  UNL     1      -1.155  21.518  22.414  1.00  0.00    -0.644 OA
ENDBRANCH  29  34
ENDBRANCH   5  24
TORSDOF 7
ENDMDL
