MODEL 1
REMARK VINA RESULT: -8.009246554      0.000      0.000
REMARK  13 active torsions:
REMARK  status: ('A' for Active; 'I' for Inactive)
REMARK    1  A    between atoms: O1_2  and  C2_3 
REMARK    2  A    between atoms: C2_3  and  C3_5 
REMARK    3  A    between atoms: C3_5  and  C4_6 
REMARK    4  A    between atoms: C4_6  and  C5_7 
REMARK    5  A    between atoms: C5_7  and  C6_8 
REMARK    6  A    between atoms: C7_9  and  C8_10 
REMARK    7  A    between atoms: C8_10  and  C9_11 
REMARK    8  A    between atoms: C10_12  and  O3_13 
REMARK    9  A    between atoms: O3_13  and  C11_14 
REMARK   10  A    between atoms: C11_14  and  C14_17 
REMARK   11  A    between atoms: C14_17  and  C15_18 
REMARK   12  A    between atoms: C15_18  and  C16_19 
REMARK   13  A    between atoms: C20_31  and  C21_32 
ROOT
HETATM    1  C9  UNL     1     -69.984 -11.211  19.389  1.00  0.00     0.065 C 
HETATM    2  C10 UNL     1     -71.073 -10.231  19.036  1.00  0.00     0.230 C 
HETATM    3  N1  UNL     1     -70.499  -9.019  18.545  1.00  0.00    -0.335 N 
ATOM      4  H1  UNL     1     -71.127  -8.408  18.022  1.00  0.00     0.165 HD
HETATM    5  C17 UNL     1     -69.308  -8.605  18.677  1.00  0.00     0.176 C 
HETATM    6  N2  UNL     1     -68.648  -7.393  18.212  1.00  0.00    -0.361 N 
ATOM      7  H2  UNL     1     -69.034  -6.704  17.566  1.00  0.00     0.162 HD
HETATM    8  C18 UNL     1     -67.334  -7.348  18.841  1.00  0.00     0.142 C 
HETATM    9  C19 UNL     1     -67.052  -8.814  19.135  1.00  0.00     0.146 C 
HETATM   10  N3  UNL     1     -68.362  -9.389  19.388  1.00  0.00    -0.343 N 
HETATM   11  C20 UNL     1     -68.873 -10.494  20.149  1.00  0.00     0.129 C 
ENDROOT
BRANCH   1  12
HETATM   12  C8  UNL     1     -69.453 -11.930  18.177  1.00  0.00     0.038 C 
BRANCH  12  13
HETATM   13  C7  UNL     1     -70.054 -13.272  17.969  1.00  0.00    -0.030 C 
HETATM   14  C6  UNL     1     -69.778 -14.306  18.742  1.00  0.00    -0.031 C 
BRANCH  14  15
HETATM   15  C5  UNL     1     -70.404 -15.612  18.487  1.00  0.00     0.027 C 
BRANCH  15  16
HETATM   16  C4  UNL     1     -69.479 -16.772  18.804  1.00  0.00     0.013 C 
BRANCH  16  17
HETATM   17  C3  UNL     1     -68.034 -16.378  18.714  1.00  0.00     0.111 C 
BRANCH  17  18
HETATM   18  C2  UNL     1     -67.389 -17.258  17.708  1.00  0.00     0.258 C 
HETATM   19  O2  UNL     1     -68.116 -17.827  16.858  1.00  0.00    -0.265 OA
BRANCH  18  20
HETATM   20  O1  UNL     1     -66.031 -17.439  17.717  1.00  0.00    -0.326 OA
HETATM   21  C1  UNL     1     -65.329 -17.766  18.913  1.00  0.00     0.213 C 
ENDBRANCH  18  20
ENDBRANCH  17  18
ENDBRANCH  16  17
ENDBRANCH  15  16
ENDBRANCH  14  15
ENDBRANCH  12  13
ENDBRANCH   1  12
BRANCH   2  22
HETATM   22  O3  UNL     1     -71.790  -9.907  20.182  1.00  0.00    -0.356 OA
BRANCH  22  23
HETATM   23  C11 UNL     1     -73.129 -10.144  20.151  1.00  0.00     0.056 C 
HETATM   24  C12 UNL     1     -73.464 -10.851  18.852  1.00  0.00     0.045 C 
HETATM   25  C13 UNL     1     -73.991  -8.915  20.206  1.00  0.00     0.045 C 
BRANCH  23  26
HETATM   26  C14 UNL     1     -73.489 -11.145  21.230  1.00  0.00     0.046 C 
BRANCH  26  27
HETATM   27  C15 UNL     1     -72.345 -11.548  22.085  1.00  0.00     0.120 C 
BRANCH  27  28
HETATM   28  C16 UNL     1     -71.929 -12.987  21.873  1.00  0.00     0.388 C 
HETATM   29  F1  UNL     1     -72.405 -13.471  20.655  1.00  0.00    -0.171 F 
HETATM   30  F2  UNL     1     -70.562 -13.137  21.840  1.00  0.00    -0.171 F 
HETATM   31  F3  UNL     1     -72.424 -13.819  22.855  1.00  0.00    -0.171 F 
ENDBRANCH  27  28
ENDBRANCH  26  27
ENDBRANCH  23  26
ENDBRANCH  22  23
ENDBRANCH   2  22
BRANCH  11  32
HETATM   32  C21 UNL     1     -67.870 -11.367  20.744  1.00  0.00    -0.033 A 
HETATM   33  C22 UNL     1     -67.602 -11.391  22.099  1.00  0.00     0.011 A 
HETATM   34  C23 UNL     1     -66.658 -12.213  22.678  1.00  0.00     0.026 A 
HETATM   35  C24 UNL     1     -65.951 -13.049  21.837  1.00  0.00     0.055 A 
HETATM   36 CL1  UNL     1     -64.744 -14.114  22.484  1.00  0.00    -0.083 Cl
HETATM   37  C25 UNL     1     -66.175 -13.069  20.476  1.00  0.00     0.056 A 
HETATM   38 CL2  UNL     1     -65.248 -14.155  19.450  1.00  0.00    -0.083 Cl
HETATM   39  C26 UNL     1     -67.123 -12.238  19.931  1.00  0.00     0.034 A 
ENDBRANCH  11  32
TORSDOF 13
ENDMDL
MODEL 2
REMARK VINA RESULT: -7.937442356      1.926      2.576
REMARK  13 active torsions:
REMARK  status: ('A' for Active; 'I' for Inactive)
REMARK    1  A    between atoms: O1_2  and  C2_3 
REMARK    2  A    between atoms: C2_3  and  C3_5 
REMARK    3  A    between atoms: C3_5  and  C4_6 
REMARK    4  A    between atoms: C4_6  and  C5_7 
REMARK    5  A    between atoms: C5_7  and  C6_8 
REMARK    6  A    between atoms: C7_9  and  C8_10 
REMARK    7  A    between atoms: C8_10  and  C9_11 
REMARK    8  A    between atoms: C10_12  and  O3_13 
REMARK    9  A    between atoms: O3_13  and  C11_14 
REMARK   10  A    between atoms: C11_14  and  C14_17 
REMARK   11  A    between atoms: C14_17  and  C15_18 
REMARK   12  A    between atoms: C15_18  and  C16_19 
REMARK   13  A    between atoms: C20_31  and  C21_32 
ROOT
HETATM    1  C9  UNL     1     -69.228 -11.659  19.798  1.00  0.00     0.065 C 
HETATM    2  C10 UNL     1     -70.527 -10.903  19.690  1.00  0.00     0.230 C 
HETATM    3  N1  UNL     1     -70.289  -9.597  19.165  1.00  0.00    -0.335 N 
ATOM      4  H1  UNL     1     -71.105  -9.112  18.791  1.00  0.00     0.165 HD
HETATM    5  C17 UNL     1     -69.193  -8.962  19.103  1.00  0.00     0.176 C 
HETATM    6  N2  UNL     1     -68.868  -7.640  18.588  1.00  0.00    -0.361 N 
ATOM      7  H2  UNL     1     -69.487  -7.030  18.055  1.00  0.00     0.162 HD
HETATM    8  C18 UNL     1     -67.493  -7.351  18.977  1.00  0.00     0.142 C 
HETATM    9  C19 UNL     1     -66.892  -8.739  19.146  1.00  0.00     0.146 C 
HETATM   10  N3  UNL     1     -68.004  -9.559  19.598  1.00  0.00    -0.343 N 
HETATM   11  C20 UNL     1     -68.151 -10.753  20.382  1.00  0.00     0.129 C 
ENDROOT
BRANCH   1  12
HETATM   12  C8  UNL     1     -68.802 -12.247  18.477  1.00  0.00     0.038 C 
BRANCH  12  13
HETATM   13  C7  UNL     1     -69.482 -13.524  18.146  1.00  0.00    -0.030 C 
HETATM   14  C6  UNL     1     -69.394 -14.599  18.907  1.00  0.00    -0.031 C 
BRANCH  14  15
HETATM   15  C5  UNL     1     -70.088 -15.838  18.528  1.00  0.00     0.027 C 
BRANCH  15  16
HETATM   16  C4  UNL     1     -69.223 -17.070  18.711  1.00  0.00     0.013 C 
BRANCH  16  17
HETATM   17  C3  UNL     1     -67.761 -16.731  18.733  1.00  0.00     0.111 C 
BRANCH  17  18
HETATM   18  C2  UNL     1     -67.111 -17.465  17.620  1.00  0.00     0.258 C 
HETATM   19  O2  UNL     1     -65.890 -17.271  17.408  1.00  0.00    -0.265 OA
BRANCH  18  20
HETATM   20  O1  UNL     1     -67.838 -18.333  16.847  1.00  0.00    -0.326 OA
HETATM   21  C1  UNL     1     -67.402 -19.670  16.615  1.00  0.00     0.213 C 
ENDBRANCH  18  20
ENDBRANCH  17  18
ENDBRANCH  16  17
ENDBRANCH  15  16
ENDBRANCH  14  15
ENDBRANCH  12  13
ENDBRANCH   1  12
BRANCH   2  22
HETATM   22  O3  UNL     1     -71.071 -10.739  20.959  1.00  0.00    -0.356 OA
BRANCH  22  23
HETATM   23  C11 UNL     1     -72.230 -11.401  21.216  1.00  0.00     0.056 C 
HETATM   24  C12 UNL     1     -72.186 -11.918  22.641  1.00  0.00     0.045 C 
HETATM   25  C13 UNL     1     -72.490 -12.590  20.335  1.00  0.00     0.045 C 
BRANCH  23  26
HETATM   26  C14 UNL     1     -73.384 -10.419  21.207  1.00  0.00     0.046 C 
BRANCH  26  27
HETATM   27  C15 UNL     1     -73.870 -10.072  19.849  1.00  0.00     0.120 C 
BRANCH  27  28
HETATM   28  C16 UNL     1     -73.759  -8.594  19.543  1.00  0.00     0.388 C 
HETATM   29  F1  UNL     1     -74.957  -7.936  19.817  1.00  0.00    -0.171 F 
HETATM   30  F2  UNL     1     -72.795  -7.973  20.304  1.00  0.00    -0.171 F 
HETATM   31  F3  UNL     1     -73.468  -8.359  18.216  1.00  0.00    -0.171 F 
ENDBRANCH  27  28
ENDBRANCH  26  27
ENDBRANCH  23  26
ENDBRANCH  22  23
ENDBRANCH   2  22
BRANCH  11  32
HETATM   32  C21 UNL     1     -66.912 -11.423  20.749  1.00  0.00    -0.033 A 
HETATM   33  C22 UNL     1     -66.051 -10.941  21.717  1.00  0.00     0.011 A 
HETATM   34  C23 UNL     1     -64.875 -11.566  22.076  1.00  0.00     0.026 A 
HETATM   35  C24 UNL     1     -64.559 -12.737  21.418  1.00  0.00     0.055 A 
HETATM   36 CL1  UNL     1     -63.097 -13.585  21.809  1.00  0.00    -0.083 Cl
HETATM   37  C25 UNL     1     -65.378 -13.267  20.443  1.00  0.00     0.056 A 
HETATM   38 CL2  UNL     1     -64.928 -14.763  19.636  1.00  0.00    -0.083 Cl
HETATM   39  C26 UNL     1     -66.543 -12.620  20.108  1.00  0.00     0.034 A 
ENDBRANCH  11  32
TORSDOF 13
ENDMDL
MODEL 3
REMARK VINA RESULT: -7.862673245      2.616      3.666
REMARK  13 active torsions:
REMARK  status: ('A' for Active; 'I' for Inactive)
REMARK    1  A    between atoms: O1_2  and  C2_3 
REMARK    2  A    between atoms: C2_3  and  C3_5 
REMARK    3  A    between atoms: C3_5  and  C4_6 
REMARK    4  A    between atoms: C4_6  and  C5_7 
REMARK    5  A    between atoms: C5_7  and  C6_8 
REMARK    6  A    between atoms: C7_9  and  C8_10 
REMARK    7  A    between atoms: C8_10  and  C9_11 
REMARK    8  A    between atoms: C10_12  and  O3_13 
REMARK    9  A    between atoms: O3_13  and  C11_14 
REMARK   10  A    between atoms: C11_14  and  C14_17 
REMARK   11  A    between atoms: C14_17  and  C15_18 
REMARK   12  A    between atoms: C15_18  and  C16_19 
REMARK   13  A    between atoms: C20_31  and  C21_32 
ROOT
HETATM    1  C9  UNL     1     -69.162 -11.608  19.794  1.00  0.00     0.065 C 
HETATM    2  C10 UNL     1     -70.460 -10.848  19.703  1.00  0.00     0.230 C 
HETATM    3  N1  UNL     1     -70.221  -9.533  19.199  1.00  0.00    -0.335 N 
ATOM      4  H1  UNL     1     -71.038  -9.041  18.836  1.00  0.00     0.165 HD
HETATM    5  C17 UNL     1     -69.124  -8.900  19.145  1.00  0.00     0.176 C 
HETATM    6  N2  UNL     1     -68.798  -7.570  18.651  1.00  0.00    -0.361 N 
ATOM      7  H2  UNL     1     -69.418  -6.950  18.130  1.00  0.00     0.162 HD
HETATM    8  C18 UNL     1     -67.422  -7.290  19.040  1.00  0.00     0.142 C 
HETATM    9  C19 UNL     1     -66.823  -8.681  19.184  1.00  0.00     0.146 C 
HETATM   10  N3  UNL     1     -67.935  -9.507  19.626  1.00  0.00    -0.343 N 
HETATM   11  C20 UNL     1     -68.081 -10.713  20.390  1.00  0.00     0.129 C 
ENDROOT
BRANCH   1  12
HETATM   12  C8  UNL     1     -68.741 -12.174  18.462  1.00  0.00     0.038 C 
BRANCH  12  13
HETATM   13  C7  UNL     1     -69.408 -13.456  18.121  1.00  0.00    -0.030 C 
HETATM   14  C6  UNL     1     -69.494 -14.464  18.969  1.00  0.00    -0.031 C 
BRANCH  14  15
HETATM   15  C5  UNL     1     -70.167 -15.711  18.576  1.00  0.00     0.027 C 
BRANCH  15  16
HETATM   16  C4  UNL     1     -70.898 -15.586  17.254  1.00  0.00     0.013 C 
BRANCH  16  17
HETATM   17  C3  UNL     1     -72.351 -15.261  17.444  1.00  0.00     0.111 C 
BRANCH  17  18
HETATM   18  C2  UNL     1     -72.895 -14.842  16.129  1.00  0.00     0.258 C 
HETATM   19  O2  UNL     1     -72.410 -15.352  15.091  1.00  0.00    -0.265 OA
BRANCH  18  20
HETATM   20  O1  UNL     1     -73.905 -13.918  16.062  1.00  0.00    -0.326 OA
HETATM   21  C1  UNL     1     -73.985 -12.831  16.980  1.00  0.00     0.213 C 
ENDBRANCH  18  20
ENDBRANCH  17  18
ENDBRANCH  16  17
ENDBRANCH  15  16
ENDBRANCH  14  15
ENDBRANCH  12  13
ENDBRANCH   1  12
BRANCH   2  22
HETATM   22  O3  UNL     1     -70.999 -10.704  20.976  1.00  0.00    -0.356 OA
BRANCH  22  23
HETATM   23  C11 UNL     1     -72.156 -11.373  21.228  1.00  0.00     0.056 C 
HETATM   24  C12 UNL     1     -72.112 -11.897  22.650  1.00  0.00     0.045 C 
HETATM   25  C13 UNL     1     -72.408 -12.559  20.340  1.00  0.00     0.045 C 
BRANCH  23  26
HETATM   26  C14 UNL     1     -73.315 -10.396  21.221  1.00  0.00     0.046 C 
BRANCH  26  27
HETATM   27  C15 UNL     1     -73.833 -10.085  19.866  1.00  0.00     0.120 C 
BRANCH  27  28
HETATM   28  C16 UNL     1     -73.759  -8.612  19.531  1.00  0.00     0.388 C 
HETATM   29  F1  UNL     1     -74.972  -7.978  19.791  1.00  0.00    -0.171 F 
HETATM   30  F2  UNL     1     -72.811  -7.952  20.279  1.00  0.00    -0.171 F 
HETATM   31  F3  UNL     1     -73.472  -8.397  18.199  1.00  0.00    -0.171 F 
ENDBRANCH  27  28
ENDBRANCH  26  27
ENDBRANCH  23  26
ENDBRANCH  22  23
ENDBRANCH   2  22
BRANCH  11  32
HETATM   32  C21 UNL     1     -66.842 -11.392  20.741  1.00  0.00    -0.033 A 
HETATM   33  C22 UNL     1     -65.943 -10.891  21.664  1.00  0.00     0.011 A 
HETATM   34  C23 UNL     1     -64.767 -11.523  22.008  1.00  0.00     0.026 A 
HETATM   35  C24 UNL     1     -64.491 -12.722  21.383  1.00  0.00     0.055 A 
HETATM   36 CL1  UNL     1     -63.031 -13.581  21.757  1.00  0.00    -0.083 Cl
HETATM   37  C25 UNL     1     -65.350 -13.272  20.454  1.00  0.00     0.056 A 
HETATM   38 CL2  UNL     1     -64.950 -14.803  19.687  1.00  0.00    -0.083 Cl
HETATM   39  C26 UNL     1     -66.513 -12.617  20.132  1.00  0.00     0.034 A 
ENDBRANCH  11  32
TORSDOF 13
ENDMDL
MODEL 4
REMARK VINA RESULT: -7.827216820      5.603      8.605
REMARK  13 active torsions:
REMARK  status: ('A' for Active; 'I' for Inactive)
REMARK    1  A    between atoms: O1_2  and  C2_3 
REMARK    2  A    between atoms: C2_3  and  C3_5 
REMARK    3  A    between atoms: C3_5  and  C4_6 
REMARK    4  A    between atoms: C4_6  and  C5_7 
REMARK    5  A    between atoms: C5_7  and  C6_8 
REMARK    6  A    between atoms: C7_9  and  C8_10 
REMARK    7  A    between atoms: C8_10  and  C9_11 
REMARK    8  A    between atoms: C10_12  and  O3_13 
REMARK    9  A    between atoms: O3_13  and  C11_14 
REMARK   10  A    between atoms: C11_14  and  C14_17 
REMARK   11  A    between atoms: C14_17  and  C15_18 
REMARK   12  A    between atoms: C15_18  and  C16_19 
REMARK   13  A    between atoms: C20_31  and  C21_32 
ROOT
HETATM    1  C9  UNL     1     -70.959  -5.402  19.153  1.00  0.00     0.065 C 
HETATM    2  C10 UNL     1     -70.180  -6.220  20.150  1.00  0.00     0.230 C 
HETATM    3  N1  UNL     1     -70.051  -5.500  21.377  1.00  0.00    -0.335 N 
ATOM      4  H1  UNL     1     -69.798  -6.056  22.194  1.00  0.00     0.165 HD
HETATM    5  C17 UNL     1     -70.211  -4.259  21.580  1.00  0.00     0.176 C 
HETATM    6  N2  UNL     1     -70.100  -3.454  22.787  1.00  0.00    -0.361 N 
ATOM      7  H2  UNL     1     -69.987  -3.803  23.739  1.00  0.00     0.162 HD
HETATM    8  C18 UNL     1     -70.180  -2.056  22.383  1.00  0.00     0.142 C 
HETATM    9  C19 UNL     1     -70.950  -2.128  21.073  1.00  0.00     0.146 C 
HETATM   10  N3  UNL     1     -70.566  -3.408  20.501  1.00  0.00    -0.343 N 
HETATM   11  C20 UNL     1     -70.472  -3.958  19.178  1.00  0.00     0.129 C 
ENDROOT
BRANCH   1  12
HETATM   12  C8  UNL     1     -72.445  -5.490  19.383  1.00  0.00     0.038 C 
BRANCH  12  13
HETATM   13  C7  UNL     1     -72.920  -6.862  19.695  1.00  0.00    -0.030 C 
HETATM   14  C6  UNL     1     -74.193  -7.208  19.636  1.00  0.00    -0.031 C 
BRANCH  14  15
HETATM   15  C5  UNL     1     -74.605  -8.582  19.957  1.00  0.00     0.027 C 
BRANCH  15  16
HETATM   16  C4  UNL     1     -73.431  -9.477  20.302  1.00  0.00     0.013 C 
BRANCH  16  17
HETATM   17  C3  UNL     1     -73.505 -10.799  19.593  1.00  0.00     0.111 C 
BRANCH  17  18
HETATM   18  C2  UNL     1     -73.119 -11.852  20.564  1.00  0.00     0.258 C 
HETATM   19  O2  UNL     1     -72.772 -12.974  20.122  1.00  0.00    -0.265 OA
BRANCH  18  20
HETATM   20  O1  UNL     1     -73.144 -11.596  21.909  1.00  0.00    -0.326 OA
HETATM   21  C1  UNL     1     -72.086 -12.011  22.769  1.00  0.00     0.213 C 
ENDBRANCH  18  20
ENDBRANCH  17  18
ENDBRANCH  16  17
ENDBRANCH  15  16
ENDBRANCH  14  15
ENDBRANCH  12  13
ENDBRANCH   1  12
BRANCH   2  22
HETATM   22  O3  UNL     1     -68.894  -6.434  19.667  1.00  0.00    -0.356 OA
BRANCH  22  23
HETATM   23  C11 UNL     1     -68.640  -7.658  19.130  1.00  0.00     0.056 C 
HETATM   24  C12 UNL     1     -67.415  -8.238  19.809  1.00  0.00     0.045 C 
HETATM   25  C13 UNL     1     -68.354  -7.655  17.655  1.00  0.00     0.045 C 
BRANCH  23  26
HETATM   26  C14 UNL     1     -69.760  -8.611  19.494  1.00  0.00     0.046 C 
BRANCH  26  27
HETATM   27  C15 UNL     1     -70.210  -9.469  18.371  1.00  0.00     0.120 C 
BRANCH  27  28
HETATM   28  C16 UNL     1     -69.873 -10.930  18.575  1.00  0.00     0.388 C 
HETATM   29  F1  UNL     1     -69.938 -11.275  19.924  1.00  0.00    -0.171 F 
HETATM   30  F2  UNL     1     -70.750 -11.765  17.921  1.00  0.00    -0.171 F 
HETATM   31  F3  UNL     1     -68.599 -11.233  18.145  1.00  0.00    -0.171 F 
ENDBRANCH  27  28
ENDBRANCH  26  27
ENDBRANCH  23  26
ENDBRANCH  22  23
ENDBRANCH   2  22
BRANCH  11  32
HETATM   32  C21 UNL     1     -70.983  -3.115  18.107  1.00  0.00    -0.033 A 
HETATM   33  C22 UNL     1     -70.252  -2.809  16.974  1.00  0.00     0.011 A 
HETATM   34  C23 UNL     1     -70.723  -2.014  15.951  1.00  0.00     0.026 A 
HETATM   35  C24 UNL     1     -71.999  -1.505  16.085  1.00  0.00     0.055 A 
HETATM   36 CL1  UNL     1     -72.667  -0.495  14.843  1.00  0.00    -0.083 Cl
HETATM   37  C25 UNL     1     -72.776  -1.776  17.192  1.00  0.00     0.056 A 
HETATM   38 CL2  UNL     1     -74.396  -1.103  17.313  1.00  0.00    -0.083 Cl
HETATM   39  C26 UNL     1     -72.277  -2.571  18.195  1.00  0.00     0.034 A 
ENDBRANCH  11  32
TORSDOF 13
ENDMDL
MODEL 5
REMARK VINA RESULT: -7.797462672      1.574      2.223
REMARK  13 active torsions:
REMARK  status: ('A' for Active; 'I' for Inactive)
REMARK    1  A    between atoms: O1_2  and  C2_3 
REMARK    2  A    between atoms: C2_3  and  C3_5 
REMARK    3  A    between atoms: C3_5  and  C4_6 
REMARK    4  A    between atoms: C4_6  and  C5_7 
REMARK    5  A    between atoms: C5_7  and  C6_8 
REMARK    6  A    between atoms: C7_9  and  C8_10 
REMARK    7  A    between atoms: C8_10  and  C9_11 
REMARK    8  A    between atoms: C10_12  and  O3_13 
REMARK    9  A    between atoms: O3_13  and  C11_14 
REMARK   10  A    between atoms: C11_14  and  C14_17 
REMARK   11  A    between atoms: C14_17  and  C15_18 
REMARK   12  A    between atoms: C15_18  and  C16_19 
REMARK   13  A    between atoms: C20_31  and  C21_32 
ROOT
HETATM    1  C9  UNL     1     -69.179 -11.614  19.848  1.00  0.00     0.065 C 
HETATM    2  C10 UNL     1     -70.481 -10.858  19.787  1.00  0.00     0.230 C 
HETATM    3  N1  UNL     1     -70.259  -9.542  19.279  1.00  0.00    -0.335 N 
ATOM      4  H1  UNL     1     -71.085  -9.052  18.934  1.00  0.00     0.165 HD
HETATM    5  C17 UNL     1     -69.165  -8.905  19.201  1.00  0.00     0.176 C 
HETATM    6  N2  UNL     1     -68.854  -7.574  18.702  1.00  0.00    -0.361 N 
ATOM      7  H2  UNL     1     -69.488  -6.955  18.195  1.00  0.00     0.162 HD
HETATM    8  C18 UNL     1     -67.471  -7.289  19.061  1.00  0.00     0.142 C 
HETATM    9  C19 UNL     1     -66.865  -8.678  19.190  1.00  0.00     0.146 C 
HETATM   10  N3  UNL     1     -67.963  -9.509  19.655  1.00  0.00    -0.343 N 
HETATM   11  C20 UNL     1     -68.089 -10.716  20.422  1.00  0.00     0.129 C 
ENDROOT
BRANCH   1  12
HETATM   12  C8  UNL     1     -68.786 -12.177  18.507  1.00  0.00     0.038 C 
BRANCH  12  13
HETATM   13  C7  UNL     1     -69.490 -13.437  18.159  1.00  0.00    -0.030 C 
HETATM   14  C6  UNL     1     -69.372 -14.542  18.872  1.00  0.00    -0.031 C 
BRANCH  14  15
HETATM   15  C5  UNL     1     -70.094 -15.761  18.479  1.00  0.00     0.027 C 
BRANCH  15  16
HETATM   16  C4  UNL     1     -69.261 -17.015  18.662  1.00  0.00     0.013 C 
BRANCH  16  17
HETATM   17  C3  UNL     1     -67.792 -16.710  18.718  1.00  0.00     0.111 C 
BRANCH  17  18
HETATM   18  C2  UNL     1     -67.134 -17.458  17.618  1.00  0.00     0.258 C 
HETATM   19  O2  UNL     1     -65.910 -17.271  17.418  1.00  0.00    -0.265 OA
BRANCH  18  20
HETATM   20  O1  UNL     1     -67.856 -18.330  16.847  1.00  0.00    -0.326 OA
HETATM   21  C1  UNL     1     -67.431 -19.675  16.644  1.00  0.00     0.213 C 
ENDBRANCH  18  20
ENDBRANCH  17  18
ENDBRANCH  16  17
ENDBRANCH  15  16
ENDBRANCH  14  15
ENDBRANCH  12  13
ENDBRANCH   1  12
BRANCH   2  22
HETATM   22  O3  UNL     1     -70.993 -10.718  21.071  1.00  0.00    -0.356 OA
BRANCH  22  23
HETATM   23  C11 UNL     1     -72.180 -11.332  21.326  1.00  0.00     0.056 C 
HETATM   24  C12 UNL     1     -73.302 -10.359  21.020  1.00  0.00     0.045 C 
HETATM   25  C13 UNL     1     -72.371 -11.775  22.749  1.00  0.00     0.045 C 
BRANCH  23  26
HETATM   26  C14 UNL     1     -72.383 -12.464  20.341  1.00  0.00     0.046 C 
BRANCH  26  27
HETATM   27  C15 UNL     1     -73.616 -12.339  19.524  1.00  0.00     0.120 C 
BRANCH  27  28
HETATM   28  C16 UNL     1     -73.389 -12.658  18.063  1.00  0.00     0.388 C 
HETATM   29  F1  UNL     1     -72.763 -13.894  17.912  1.00  0.00    -0.171 F 
HETATM   30  F2  UNL     1     -74.567 -12.734  17.355  1.00  0.00    -0.171 F 
HETATM   31  F3  UNL     1     -72.584 -11.724  17.447  1.00  0.00    -0.171 F 
ENDBRANCH  27  28
ENDBRANCH  26  27
ENDBRANCH  23  26
ENDBRANCH  22  23
ENDBRANCH   2  22
BRANCH  11  32
HETATM   32  C21 UNL     1     -66.840 -11.391  20.744  1.00  0.00    -0.033 A 
HETATM   33  C22 UNL     1     -65.920 -10.885  21.643  1.00  0.00     0.011 A 
HETATM   34  C23 UNL     1     -64.734 -11.513  21.961  1.00  0.00     0.026 A 
HETATM   35  C24 UNL     1     -64.471 -12.714  21.333  1.00  0.00     0.055 A 
HETATM   36 CL1  UNL     1     -63.001 -13.569  21.675  1.00  0.00    -0.083 Cl
HETATM   37  C25 UNL     1     -65.351 -13.269  20.427  1.00  0.00     0.056 A 
HETATM   38 CL2  UNL     1     -64.966 -14.801  19.656  1.00  0.00    -0.083 Cl
HETATM   39  C26 UNL     1     -66.524 -12.617  20.132  1.00  0.00     0.034 A 
ENDBRANCH  11  32
TORSDOF 13
ENDMDL
