MODEL 1
REMARK VINA RESULT: -4.402741942      0.000      0.000
REMARK  5 active torsions:
REMARK  status: ('A' for Active; 'I' for Inactive)
REMARK    1  A    between atoms: C2_2  and  N1_3 
REMARK    2  A    between atoms: C2_2  and  O1_7 
REMARK    3  A    between atoms: C2_2  and  C3_9 
REMARK    4  A    between atoms: C3_9  and  N2_10 
REMARK    5  A    between atoms: C3_9  and  C4_14 
ROOT
HETATM    1  C3  UNL     1      -1.057 -23.526 -21.495  1.00  0.00     0.297 C 
ENDROOT
BRANCH   1   2
HETATM    2  C2  UNL     1      -0.903 -24.853 -22.203  1.00  0.00     0.252 C 
HETATM    3  C1  UNL     1      -1.938 -25.791 -21.618  1.00  0.00     0.081 C 
BRANCH   2   4
HETATM    4  N1  UNL     1      -1.160 -24.681 -23.619  1.00  0.00    -0.045 N 
ATOM      5  H13 UNL     1      -2.158 -24.684 -23.835  1.00  0.00     0.278 HD
ATOM      6  H12 UNL     1      -0.946 -23.737 -23.940  1.00  0.00     0.278 HD
ATOM      7  H11 UNL     1      -0.649 -25.393 -24.142  1.00  0.00     0.278 HD
ENDBRANCH   2   4
BRANCH   2   8
HETATM    8  O1  UNL     1       0.338 -25.409 -22.043  1.00  0.00    -0.363 OA
ATOM      9  H1  UNL     1       0.951 -24.956 -22.608  1.00  0.00     0.212 HD
ENDBRANCH   2   8
ENDBRANCH   1   2
BRANCH   1  10
HETATM   10  N2  UNL     1      -1.227 -23.678 -20.089  1.00  0.00    -0.065 N 
ATOM     11  H23 UNL     1      -2.134 -23.324 -19.787  1.00  0.00     0.275 HD
ATOM     12  H22 UNL     1      -1.342 -24.660 -19.837  1.00  0.00     0.275 HD
ATOM     13  H21 UNL     1      -0.470 -23.248 -19.556  1.00  0.00     0.275 HD
ENDBRANCH   1  10
BRANCH   1  14
HETATM   14  C4  UNL     1       0.144 -22.657 -21.714  1.00  0.00     0.079 A 
HETATM   15  C5  UNL     1       0.246 -21.603 -22.597  1.00  0.00     0.137 A 
HETATM   16  N3  UNL     1       1.485 -21.121 -22.457  1.00  0.00    -0.296 N 
HETATM   17  N4  UNL     1       2.151 -21.806 -21.551  1.00  0.00    -0.243 N 
ATOM     18  H3  UNL     1       1.863 -20.331 -22.980  1.00  0.00     0.187 HD
HETATM   19  N5  UNL     1       1.336 -22.743 -21.096  1.00  0.00    -0.287 N 
ATOM     20  H4  UNL     1       3.113 -21.645 -21.256  1.00  0.00     0.208 HD
ATOM     21  H5  UNL     1       1.577 -23.430 -20.382  1.00  0.00     0.188 HD
ENDBRANCH   1  14
TORSDOF 5
ENDMDL
MODEL 2
REMARK VINA RESULT: -4.044253013      1.581      1.915
REMARK  5 active torsions:
REMARK  status: ('A' for Active; 'I' for Inactive)
REMARK    1  A    between atoms: C2_2  and  N1_3 
REMARK    2  A    between atoms: C2_2  and  O1_7 
REMARK    3  A    between atoms: C2_2  and  C3_9 
REMARK    4  A    between atoms: C3_9  and  N2_10 
REMARK    5  A    between atoms: C3_9  and  C4_14 
ROOT
HETATM    1  C3  UNL     1      -1.650 -23.043 -22.202  1.00  0.00     0.297 C 
ENDROOT
BRANCH   1   2
HETATM    2  C2  UNL     1      -1.794 -23.886 -23.448  1.00  0.00     0.252 C 
HETATM    3  C1  UNL     1      -1.088 -25.198 -23.180  1.00  0.00     0.081 C 
BRANCH   2   4
HETATM    4  N1  UNL     1      -3.197 -24.141 -23.705  1.00  0.00    -0.045 N 
ATOM      5  H13 UNL     1      -3.680 -23.319 -24.067  1.00  0.00     0.278 HD
ATOM      6  H12 UNL     1      -3.338 -24.757 -24.506  1.00  0.00     0.278 HD
ATOM      7  H11 UNL     1      -3.633 -24.505 -22.857  1.00  0.00     0.278 HD
ENDBRANCH   2   4
BRANCH   2   8
HETATM    8  O1  UNL     1      -1.240 -23.305 -24.558  1.00  0.00    -0.363 OA
ATOM      9  H1  UNL     1      -0.945 -22.432 -24.331  1.00  0.00     0.212 HD
ENDBRANCH   2   8
ENDBRANCH   1   2
BRANCH   1  10
HETATM   10  N2  UNL     1      -1.849 -23.797 -21.010  1.00  0.00    -0.065 N 
ATOM     11  H23 UNL     1      -2.479 -23.315 -20.370  1.00  0.00     0.275 HD
ATOM     12  H22 UNL     1      -2.407 -24.632 -21.192  1.00  0.00     0.275 HD
ATOM     13  H21 UNL     1      -0.970 -24.036 -20.549  1.00  0.00     0.275 HD
ENDBRANCH   1  10
BRANCH   1  14
HETATM   14  C4  UNL     1      -0.287 -22.425 -22.124  1.00  0.00     0.079 A 
HETATM   15  C5  UNL     1       0.722 -22.767 -21.250  1.00  0.00     0.137 A 
HETATM   16  N3  UNL     1       1.750 -21.961 -21.537  1.00  0.00    -0.296 N 
HETATM   17  N4  UNL     1       1.441 -21.149 -22.525  1.00  0.00    -0.243 N 
ATOM     18  H3  UNL     1       2.650 -21.975 -21.056  1.00  0.00     0.187 HD
HETATM   19  N5  UNL     1       0.200 -21.428 -22.886  1.00  0.00    -0.287 N 
ATOM     20  H4  UNL     1       2.045 -20.437 -22.935  1.00  0.00     0.208 HD
ATOM     21  H5  UNL     1      -0.312 -20.958 -23.632  1.00  0.00     0.188 HD
ENDBRANCH   1  14
TORSDOF 5
ENDMDL
MODEL 3
REMARK VINA RESULT: -4.038444725      2.191      4.371
REMARK  5 active torsions:
REMARK  status: ('A' for Active; 'I' for Inactive)
REMARK    1  A    between atoms: C2_2  and  N1_3 
REMARK    2  A    between atoms: C2_2  and  O1_7 
REMARK    3  A    between atoms: C2_2  and  C3_9 
REMARK    4  A    between atoms: C3_9  and  N2_10 
REMARK    5  A    between atoms: C3_9  and  C4_14 
ROOT
HETATM    1  C3  UNL     1      -0.633 -21.284 -22.627  1.00  0.00     0.297 C 
ENDROOT
BRANCH   1   2
HETATM    2  C2  UNL     1       0.495 -20.697 -23.444  1.00  0.00     0.252 C 
HETATM    3  C1  UNL     1       0.170 -19.234 -23.663  1.00  0.00     0.081 C 
BRANCH   2   4
HETATM    4  N1  UNL     1       1.738 -20.806 -22.708  1.00  0.00    -0.045 N 
ATOM      5  H13 UNL     1       2.274 -21.633 -22.974  1.00  0.00     0.278 HD
ATOM      6  H12 UNL     1       2.416 -20.098 -22.989  1.00  0.00     0.278 HD
ATOM      7  H11 UNL     1       1.540 -20.779 -21.708  1.00  0.00     0.278 HD
ENDBRANCH   2   4
BRANCH   2   8
HETATM    8  O1  UNL     1       0.647 -21.302 -24.664  1.00  0.00    -0.363 OA
ATOM      9  H1  UNL     1       1.301 -20.825 -25.161  1.00  0.00     0.212 HD
ENDBRANCH   2   8
ENDBRANCH   1   2
BRANCH   1  10
HETATM   10  N2  UNL     1      -1.895 -20.707 -22.949  1.00  0.00    -0.065 N 
ATOM     11  H23 UNL     1      -2.614 -21.002 -22.288  1.00  0.00     0.275 HD
ATOM     12  H22 UNL     1      -1.899 -19.705 -22.760  1.00  0.00     0.275 HD
ATOM     13  H21 UNL     1      -2.179 -20.901 -23.909  1.00  0.00     0.275 HD
ENDBRANCH   1  10
BRANCH   1  14
HETATM   14  C4  UNL     1      -0.744 -22.763 -22.846  1.00  0.00     0.079 A 
HETATM   15  C5  UNL     1      -0.338 -23.755 -21.979  1.00  0.00     0.137 A 
HETATM   16  N3  UNL     1      -0.628 -24.913 -22.580  1.00  0.00    -0.296 N 
HETATM   17  N4  UNL     1      -1.181 -24.702 -23.755  1.00  0.00    -0.243 N 
ATOM     18  H3  UNL     1      -0.445 -25.835 -22.182  1.00  0.00     0.187 HD
HETATM   19  N5  UNL     1      -1.254 -23.392 -23.920  1.00  0.00    -0.287 N 
ATOM     20  H4  UNL     1      -1.495 -25.413 -24.414  1.00  0.00     0.208 HD
ATOM     21  H5  UNL     1      -1.639 -22.927 -24.742  1.00  0.00     0.188 HD
ENDBRANCH   1  14
TORSDOF 5
ENDMDL
MODEL 4
REMARK VINA RESULT: -4.010970600      2.100      2.876
REMARK  5 active torsions:
REMARK  status: ('A' for Active; 'I' for Inactive)
REMARK    1  A    between atoms: C2_2  and  N1_3 
REMARK    2  A    between atoms: C2_2  and  O1_7 
REMARK    3  A    between atoms: C2_2  and  C3_9 
REMARK    4  A    between atoms: C3_9  and  N2_10 
REMARK    5  A    between atoms: C3_9  and  C4_14 
ROOT
HETATM    1  C3  UNL     1      -0.279 -22.739 -22.879  1.00  0.00     0.297 C 
ENDROOT
BRANCH   1   2
HETATM    2  C2  UNL     1       0.122 -23.042 -21.453  1.00  0.00     0.252 C 
HETATM    3  C1  UNL     1      -1.157 -23.193 -20.655  1.00  0.00     0.081 C 
BRANCH   2   4
HETATM    4  N1  UNL     1       0.863 -24.286 -21.409  1.00  0.00    -0.045 N 
ATOM      5  H13 UNL     1       1.269 -24.462 -20.489  1.00  0.00     0.278 HD
ATOM      6  H12 UNL     1       0.253 -25.102 -21.456  1.00  0.00     0.278 HD
ATOM      7  H11 UNL     1       1.566 -24.285 -22.148  1.00  0.00     0.278 HD
ENDBRANCH   2   4
BRANCH   2   8
HETATM    8  O1  UNL     1       0.881 -22.053 -20.885  1.00  0.00    -0.363 OA
ATOM      9  H1  UNL     1       0.360 -21.608 -20.227  1.00  0.00     0.212 HD
ENDBRANCH   2   8
ENDBRANCH   1   2
BRANCH   1  10
HETATM   10  N2  UNL     1      -1.593 -23.198 -23.183  1.00  0.00    -0.065 N 
ATOM     11  H23 UNL     1      -1.702 -23.365 -24.183  1.00  0.00     0.275 HD
ATOM     12  H22 UNL     1      -1.739 -24.147 -22.841  1.00  0.00     0.275 HD
ATOM     13  H21 UNL     1      -2.316 -22.566 -22.836  1.00  0.00     0.275 HD
ENDBRANCH   1  10
BRANCH   1  14
HETATM   14  C4  UNL     1      -0.241 -21.265 -23.148  1.00  0.00     0.079 A 
HETATM   15  C5  UNL     1      -1.306 -20.392 -23.097  1.00  0.00     0.137 A 
HETATM   16  N3  UNL     1      -0.813 -19.189 -23.407  1.00  0.00    -0.296 N 
HETATM   17  N4  UNL     1       0.479 -19.262 -23.644  1.00  0.00    -0.243 N 
ATOM     18  H3  UNL     1      -1.364 -18.330 -23.452  1.00  0.00     0.187 HD
HETATM   19  N5  UNL     1       0.832 -20.527 -23.487  1.00  0.00    -0.287 N 
ATOM     20  H4  UNL     1       1.093 -18.490 -23.901  1.00  0.00     0.208 HD
ATOM     21  H5  UNL     1       1.778 -20.889 -23.606  1.00  0.00     0.188 HD
ENDBRANCH   1  14
TORSDOF 5
ENDMDL
MODEL 5
REMARK VINA RESULT: -4.003646573      1.730      2.299
REMARK  5 active torsions:
REMARK  status: ('A' for Active; 'I' for Inactive)
REMARK    1  A    between atoms: C2_2  and  N1_3 
REMARK    2  A    between atoms: C2_2  and  O1_7 
REMARK    3  A    between atoms: C2_2  and  C3_9 
REMARK    4  A    between atoms: C3_9  and  N2_10 
REMARK    5  A    between atoms: C3_9  and  C4_14 
ROOT
HETATM    1  C3  UNL     1      -0.835 -24.862 -21.290  1.00  0.00     0.297 C 
ENDROOT
BRANCH   1   2
HETATM    2  C2  UNL     1      -1.584 -24.781 -19.980  1.00  0.00     0.252 C 
HETATM    3  C1  UNL     1      -3.042 -25.057 -20.284  1.00  0.00     0.081 C 
BRANCH   2   4
HETATM    4  N1  UNL     1      -1.086 -25.793 -19.070  1.00  0.00    -0.045 N 
ATOM      5  H13 UNL     1      -1.787 -26.078 -18.386  1.00  0.00     0.278 HD
ATOM      6  H12 UNL     1      -0.957 -26.695 -19.529  1.00  0.00     0.278 HD
ATOM      7  H11 UNL     1      -0.230 -25.457 -18.630  1.00  0.00     0.278 HD
ENDBRANCH   2   4
BRANCH   2   8
HETATM    8  O1  UNL     1      -1.485 -23.556 -19.377  1.00  0.00    -0.363 OA
ATOM      9  H1  UNL     1      -1.929 -22.913 -19.916  1.00  0.00     0.212 HD
ENDBRANCH   2   8
ENDBRANCH   1   2
BRANCH   1  10
HETATM   10  N2  UNL     1      -1.708 -24.984 -22.409  1.00  0.00    -0.065 N 
ATOM     11  H23 UNL     1      -1.997 -25.952 -22.546  1.00  0.00     0.275 HD
ATOM     12  H22 UNL     1      -2.618 -24.567 -22.212  1.00  0.00     0.275 HD
ATOM     13  H21 UNL     1      -1.304 -24.598 -23.262  1.00  0.00     0.275 HD
ENDBRANCH   1  10
BRANCH   1  14
HETATM   14  C4  UNL     1       0.007 -23.640 -21.505  1.00  0.00     0.079 A 
HETATM   15  C5  UNL     1      -0.268 -22.592 -22.356  1.00  0.00     0.137 A 
HETATM   16  N3  UNL     1       0.748 -21.732 -22.225  1.00  0.00    -0.296 N 
HETATM   17  N4  UNL     1       1.626 -22.181 -21.354  1.00  0.00    -0.243 N 
ATOM     18  H3  UNL     1       0.830 -20.850 -22.731  1.00  0.00     0.187 HD
HETATM   19  N5  UNL     1       1.178 -23.343 -20.912  1.00  0.00    -0.287 N 
ATOM     20  H4  UNL     1       2.490 -21.718 -21.072  1.00  0.00     0.208 HD
ATOM     21  H5  UNL     1       1.650 -23.930 -20.224  1.00  0.00     0.188 HD
ENDBRANCH   1  14
TORSDOF 5
ENDMDL
