MODEL 1
REMARK VINA RESULT: -7.667660949      0.000      0.000
REMARK  5 active torsions:
REMARK  status: ('A' for Active; 'I' for Inactive)
REMARK    1  A    between atoms: N3_4  and  C2_6 
REMARK    2  A    between atoms: C6_10  and  C7_11 
REMARK    3  A    between atoms: C7_11  and  N4_12 
REMARK    4  A    between atoms: N4_12  and  C8_14 
REMARK    5  A    between atoms: C8_14  and  C9_15 
ROOT
HETATM    1  C2  UNL     1     220.134   8.589   6.916  1.00  0.00     0.035 A 
HETATM    2  C3  UNL     1     220.631   9.624   7.719  1.00  0.00     0.029 A 
HETATM    3  C4  UNL     1     220.028   9.903   8.926  1.00  0.00     0.003 A 
HETATM    4  C5  UNL     1     218.941   9.161   9.323  1.00  0.00     0.013 A 
HETATM    5  C6  UNL     1     218.416   8.149   8.582  1.00  0.00    -0.019 A 
HETATM    6  C14 UNL     1     219.041   7.867   7.353  1.00  0.00     0.042 A 
ENDROOT
BRANCH   5   7
HETATM    7  C7  UNL     1     217.235   7.462   8.984  1.00  0.00     0.094 C 
BRANCH   7   8
HETATM    8  N4  UNL     1     215.942   8.108   8.926  1.00  0.00    -0.394 N 
ATOM      9  H4  UNL     1     215.670   8.934   8.391  1.00  0.00     0.159 HD
BRANCH   8  10
HETATM   10  C8  UNL     1     215.117   7.295   9.816  1.00  0.00     0.159 C 
BRANCH  10  11
HETATM   11  C9  UNL     1     215.318   7.572  11.251  1.00  0.00    -0.025 A 
HETATM   12  C10 UNL     1     216.111   8.585  11.721  1.00  0.00     0.011 A 
HETATM   13  C11 UNL     1     216.294   8.761  13.108  1.00  0.00     0.018 A 
HETATM   14  C12 UNL     1     215.680   7.918  13.988  1.00  0.00     0.087 A 
HETATM   15  N5  UNL     1     214.905   6.930  13.541  1.00  0.00    -0.375 N 
HETATM   16  C13 UNL     1     214.723   6.754  12.187  1.00  0.00     0.096 A 
ATOM     17  H5  UNL     1     214.446   6.304  14.203  1.00  0.00     0.164 HD
ENDBRANCH  10  11
ENDBRANCH   8  10
ENDBRANCH   7   8
ENDBRANCH   5   7
BRANCH   1  18
HETATM   18  N3  UNL     1     220.744   8.434   5.648  1.00  0.00    -0.333 N 
HETATM   19  C1  UNL     1     220.357   7.795   4.653  1.00  0.00     0.201 C 
HETATM   20  N1  UNL     1     221.106   7.771   3.446  1.00  0.00    -0.066 NA
HETATM   21  N2  UNL     1     219.201   6.953   4.662  1.00  0.00    -0.066 NA
ATOM     22  H3  UNL     1     221.634   8.918   5.533  1.00  0.00     0.168 HD
ENDBRANCH   1  18
TORSDOF 5
ENDMDL
MODEL 2
REMARK VINA RESULT: -7.624020559      1.188      1.498
REMARK  5 active torsions:
REMARK  status: ('A' for Active; 'I' for Inactive)
REMARK    1  A    between atoms: N3_4  and  C2_6 
REMARK    2  A    between atoms: C6_10  and  C7_11 
REMARK    3  A    between atoms: C7_11  and  N4_12 
REMARK    4  A    between atoms: N4_12  and  C8_14 
REMARK    5  A    between atoms: C8_14  and  C9_15 
ROOT
HETATM    1  C2  UNL     1     219.147   8.187   7.800  1.00  0.00     0.035 A 
HETATM    2  C3  UNL     1     220.048   8.831   8.658  1.00  0.00     0.029 A 
HETATM    3  C4  UNL     1     219.605   9.337   9.861  1.00  0.00     0.003 A 
HETATM    4  C5  UNL     1     218.280   9.203  10.199  1.00  0.00     0.013 A 
HETATM    5  C6  UNL     1     217.362   8.590   9.404  1.00  0.00    -0.019 A 
HETATM    6  C14 UNL     1     217.824   8.073   8.179  1.00  0.00     0.042 A 
ENDROOT
BRANCH   5   7
HETATM    7  C7  UNL     1     215.981   8.551   9.747  1.00  0.00     0.094 C 
BRANCH   7   8
HETATM    8  N4  UNL     1     215.141   7.449   9.331  1.00  0.00    -0.394 N 
ATOM      9  H4  UNL     1     214.523   7.396   8.521  1.00  0.00     0.159 HD
BRANCH   8  10
HETATM   10  C8  UNL     1     215.390   6.431  10.349  1.00  0.00     0.159 C 
BRANCH  10  11
HETATM   11  C9  UNL     1     215.654   6.971  11.695  1.00  0.00    -0.025 A 
HETATM   12  C10 UNL     1     216.846   6.818  12.350  1.00  0.00     0.011 A 
HETATM   13  C11 UNL     1     217.010   7.322  13.657  1.00  0.00     0.018 A 
HETATM   14  C12 UNL     1     215.977   7.965  14.274  1.00  0.00     0.087 A 
HETATM   15  N5  UNL     1     214.813   8.122  13.644  1.00  0.00    -0.375 N 
HETATM   16  C13 UNL     1     214.647   7.630  12.367  1.00  0.00     0.096 A 
ATOM     17  H5  UNL     1     214.044   8.606  14.108  1.00  0.00     0.164 HD
ENDBRANCH  10  11
ENDBRANCH   8  10
ENDBRANCH   7   8
ENDBRANCH   5   7
BRANCH   1  18
HETATM   18  N3  UNL     1     219.659   7.788   6.542  1.00  0.00    -0.333 N 
HETATM   19  C1  UNL     1     220.260   8.456   5.681  1.00  0.00     0.201 C 
HETATM   20  N1  UNL     1     220.721   7.870   4.472  1.00  0.00    -0.066 NA
HETATM   21  N2  UNL     1     220.446   9.870   5.776  1.00  0.00    -0.066 NA
ATOM     22  H3  UNL     1     219.514   6.806   6.306  1.00  0.00     0.168 HD
ENDBRANCH   1  18
TORSDOF 5
ENDMDL
MODEL 3
REMARK VINA RESULT: -7.318391034      2.546      8.626
REMARK  5 active torsions:
REMARK  status: ('A' for Active; 'I' for Inactive)
REMARK    1  A    between atoms: N3_4  and  C2_6 
REMARK    2  A    between atoms: C6_10  and  C7_11 
REMARK    3  A    between atoms: C7_11  and  N4_12 
REMARK    4  A    between atoms: N4_12  and  C8_14 
REMARK    5  A    between atoms: C8_14  and  C9_15 
ROOT
HETATM    1  C2  UNL     1     219.215   8.308   9.335  1.00  0.00     0.035 A 
HETATM    2  C3  UNL     1     219.778   9.587   9.447  1.00  0.00     0.029 A 
HETATM    3  C4  UNL     1     220.305  10.203   8.333  1.00  0.00     0.003 A 
HETATM    4  C5  UNL     1     220.273   9.549   7.124  1.00  0.00     0.013 A 
HETATM    5  C6  UNL     1     219.743   8.307   6.959  1.00  0.00    -0.019 A 
HETATM    6  C14 UNL     1     219.203   7.687   8.102  1.00  0.00     0.042 A 
ENDROOT
BRANCH   5   7
HETATM    7  C7  UNL     1     219.809   7.625   5.711  1.00  0.00     0.094 C 
BRANCH   7   8
HETATM    8  N4  UNL     1     220.667   8.099   4.648  1.00  0.00    -0.394 N 
ATOM      9  H4  UNL     1     221.214   8.960   4.612  1.00  0.00     0.159 HD
BRANCH   8  10
HETATM   10  C8  UNL     1     220.563   7.051   3.635  1.00  0.00     0.159 C 
BRANCH  10  11
HETATM   11  C9  UNL     1     221.671   7.035   2.662  1.00  0.00    -0.025 A 
HETATM   12  C10 UNL     1     222.201   8.166   2.102  1.00  0.00     0.011 A 
HETATM   13  C11 UNL     1     223.230   8.070   1.142  1.00  0.00     0.018 A 
HETATM   14  C12 UNL     1     223.699   6.845   0.766  1.00  0.00     0.087 A 
HETATM   15  N5  UNL     1     223.191   5.738   1.306  1.00  0.00    -0.375 N 
HETATM   16  C13 UNL     1     222.185   5.826   2.245  1.00  0.00     0.096 A 
ATOM     17  H5  UNL     1     223.546   4.824   1.025  1.00  0.00     0.164 HD
ENDBRANCH  10  11
ENDBRANCH   8  10
ENDBRANCH   7   8
ENDBRANCH   5   7
BRANCH   1  18
HETATM   18  N3  UNL     1     218.790   7.705  10.542  1.00  0.00    -0.333 N 
HETATM   19  C1  UNL     1     217.667   7.704  11.077  1.00  0.00     0.201 C 
HETATM   20  N1  UNL     1     217.423   7.019  12.297  1.00  0.00    -0.066 NA
HETATM   21  N2  UNL     1     216.563   8.466  10.583  1.00  0.00    -0.066 NA
ATOM     22  H3  UNL     1     219.513   7.195  11.050  1.00  0.00     0.168 HD
ENDBRANCH   1  18
TORSDOF 5
ENDMDL
MODEL 4
REMARK VINA RESULT: -7.302189715      1.408      1.990
REMARK  5 active torsions:
REMARK  status: ('A' for Active; 'I' for Inactive)
REMARK    1  A    between atoms: N3_4  and  C2_6 
REMARK    2  A    between atoms: C6_10  and  C7_11 
REMARK    3  A    between atoms: C7_11  and  N4_12 
REMARK    4  A    between atoms: N4_12  and  C8_14 
REMARK    5  A    between atoms: C8_14  and  C9_15 
ROOT
HETATM    1  C2  UNL     1     219.972   8.171   6.001  1.00  0.00     0.035 A 
HETATM    2  C3  UNL     1     220.384   9.509   6.064  1.00  0.00     0.029 A 
HETATM    3  C4  UNL     1     220.423  10.158   7.279  1.00  0.00     0.003 A 
HETATM    4  C5  UNL     1     220.052   9.479   8.415  1.00  0.00     0.013 A 
HETATM    5  C6  UNL     1     219.642   8.183   8.412  1.00  0.00    -0.019 A 
HETATM    6  C14 UNL     1     219.609   7.527   7.168  1.00  0.00     0.042 A 
ENDROOT
BRANCH   5   7
HETATM    7  C7  UNL     1     219.179   7.541   9.596  1.00  0.00     0.094 C 
BRANCH   7   8
HETATM    8  N4  UNL     1     218.918   8.299  10.801  1.00  0.00    -0.394 N 
ATOM      9  H4  UNL     1     219.547   8.481  11.583  1.00  0.00     0.159 HD
BRANCH   8  10
HETATM   10  C8  UNL     1     217.536   8.743  10.629  1.00  0.00     0.159 C 
BRANCH  10  11
HETATM   11  C9  UNL     1     216.563   8.042  11.486  1.00  0.00    -0.025 A 
HETATM   12  C10 UNL     1     216.028   6.820  11.178  1.00  0.00     0.011 A 
HETATM   13  C11 UNL     1     215.065   6.231  12.024  1.00  0.00     0.018 A 
HETATM   14  C12 UNL     1     214.663   6.880  13.155  1.00  0.00     0.087 A 
HETATM   15  N5  UNL     1     215.180   8.068  13.465  1.00  0.00    -0.375 N 
HETATM   16  C13 UNL     1     216.120   8.649  12.642  1.00  0.00     0.096 A 
ATOM     17  H5  UNL     1     214.879   8.549  14.313  1.00  0.00     0.164 HD
ENDBRANCH  10  11
ENDBRANCH   8  10
ENDBRANCH   7   8
ENDBRANCH   5   7
BRANCH   1  18
HETATM   18  N3  UNL     1     219.862   7.611   4.706  1.00  0.00    -0.333 N 
HETATM   19  C1  UNL     1     220.755   7.286   3.903  1.00  0.00     0.201 C 
HETATM   20  N1  UNL     1     220.448   6.714   2.640  1.00  0.00    -0.066 NA
HETATM   21  N2  UNL     1     222.142   7.550   4.124  1.00  0.00    -0.066 NA
ATOM     22  H3  UNL     1     218.908   7.449   4.383  1.00  0.00     0.168 HD
ENDBRANCH   1  18
TORSDOF 5
ENDMDL
MODEL 5
REMARK VINA RESULT: -7.221374092      2.537      8.680
REMARK  5 active torsions:
REMARK  status: ('A' for Active; 'I' for Inactive)
REMARK    1  A    between atoms: N3_4  and  C2_6 
REMARK    2  A    between atoms: C6_10  and  C7_11 
REMARK    3  A    between atoms: C7_11  and  N4_12 
REMARK    4  A    between atoms: N4_12  and  C8_14 
REMARK    5  A    between atoms: C8_14  and  C9_15 
ROOT
HETATM    1  C2  UNL     1     219.238   8.328   9.323  1.00  0.00     0.035 A 
HETATM    2  C3  UNL     1     219.820   9.599   9.436  1.00  0.00     0.029 A 
HETATM    3  C4  UNL     1     220.340  10.215   8.319  1.00  0.00     0.003 A 
HETATM    4  C5  UNL     1     220.282   9.569   7.107  1.00  0.00     0.013 A 
HETATM    5  C6  UNL     1     219.732   8.337   6.941  1.00  0.00    -0.019 A 
HETATM    6  C14 UNL     1     219.200   7.716   8.086  1.00  0.00     0.042 A 
ENDROOT
BRANCH   5   7
HETATM    7  C7  UNL     1     219.772   7.662   5.688  1.00  0.00     0.094 C 
BRANCH   7   8
HETATM    8  N4  UNL     1     220.677   8.086   4.641  1.00  0.00    -0.394 N 
ATOM      9  H4  UNL     1     221.261   8.922   4.610  1.00  0.00     0.159 HD
BRANCH   8  10
HETATM   10  C8  UNL     1     220.554   7.030   3.639  1.00  0.00     0.159 C 
BRANCH  10  11
HETATM   11  C9  UNL     1     221.577   7.080   2.577  1.00  0.00    -0.025 A 
HETATM   12  C10 UNL     1     222.053   5.969   1.933  1.00  0.00     0.011 A 
HETATM   13  C11 UNL     1     223.066   6.090   0.960  1.00  0.00     0.018 A 
HETATM   14  C12 UNL     1     223.578   7.318   0.658  1.00  0.00     0.087 A 
HETATM   15  N5  UNL     1     223.121   8.406   1.278  1.00  0.00    -0.375 N 
HETATM   16  C13 UNL     1     222.131   8.293   2.230  1.00  0.00     0.096 A 
ATOM     17  H5  UNL     1     223.504   9.322   1.047  1.00  0.00     0.164 HD
ENDBRANCH  10  11
ENDBRANCH   8  10
ENDBRANCH   7   8
ENDBRANCH   5   7
BRANCH   1  18
HETATM   18  N3  UNL     1     218.822   7.723  10.533  1.00  0.00    -0.333 N 
HETATM   19  C1  UNL     1     217.703   7.725  11.078  1.00  0.00     0.201 C 
HETATM   20  N1  UNL     1     217.468   7.036  12.298  1.00  0.00    -0.066 NA
HETATM   21  N2  UNL     1     216.598   8.493  10.596  1.00  0.00    -0.066 NA
ATOM     22  H3  UNL     1     219.547   7.208  11.032  1.00  0.00     0.168 HD
ENDBRANCH   1  18
TORSDOF 5
ENDMDL
