MODEL 1
REMARK VINA RESULT: -4.249234829      0.000      0.000
REMARK  5 active torsions:
REMARK  status: ('A' for Active; 'I' for Inactive)
REMARK    1  A    between atoms: C2_2  and  C3_3 
REMARK    2  A    between atoms: C2_2  and  C4_5 
REMARK    3  A    between atoms: C4_5  and  N1_6 
REMARK    4  A    between atoms: C4_5  and  C6_13 
REMARK       I    between atoms: N1_6  and  C5_8 
REMARK    5  A    between atoms: C11_18  and  N4_19 
ROOT
HETATM    1  C4  UNL     1     222.601   7.168   1.204  1.00  0.00     0.155 C 
ENDROOT
BRANCH   1   2
HETATM    2  C2  UNL     1     221.830   7.621   0.036  1.00  0.00    -0.003 C 
HETATM    3  C1  UNL     1     221.414   6.697  -0.862  1.00  0.00     0.024 C 
BRANCH   2   4
HETATM    4  C3  UNL     1     221.475   8.980  -0.299  1.00  0.00     0.267 C 
HETATM    5  O1  UNL     1     221.196   9.807   0.600  1.00  0.00    -0.302 OA
ENDBRANCH   2   4
ENDBRANCH   1   2
BRANCH   1   6
HETATM    6  N1  UNL     1     221.924   7.494   2.450  1.00  0.00    -0.352 N 
HETATM    7  C5  UNL     1     221.019   6.655   3.099  1.00  0.00     0.182 C 
HETATM    8  N2  UNL     1     220.064   7.157   3.791  1.00  0.00    -0.374 N 
HETATM    9  N3  UNL     1     221.158   5.249   2.991  1.00  0.00    -0.064 NA
ATOM     10  H22 UNL     1     219.964   8.169   3.869  1.00  0.00     0.158 HD
ATOM     11  H21 UNL     1     219.402   6.543   4.266  1.00  0.00     0.158 HD
ATOM     12  H1  UNL     1     222.125   8.398   2.877  1.00  0.00     0.163 HD
ENDBRANCH   1   6
BRANCH   1  13
HETATM   13  C6  UNL     1     223.993   7.614   1.305  1.00  0.00    -0.004 A 
HETATM   14  C7  UNL     1     224.388   8.808   1.839  1.00  0.00     0.012 A 
HETATM   15  C8  UNL     1     225.721   9.233   1.906  1.00  0.00     0.001 A 
HETATM   16  C9  UNL     1     226.709   8.420   1.412  1.00  0.00     0.002 A 
HETATM   17  C10 UNL     1     226.358   7.216   0.868  1.00  0.00     0.030 A 
HETATM   18  C11 UNL     1     225.018   6.807   0.812  1.00  0.00     0.038 A 
BRANCH  18  19
HETATM   19  N4  UNL     1     224.699   5.547   0.273  1.00  0.00    -0.389 N 
HETATM   20  C12 UNL     1     225.157   5.163  -1.033  1.00  0.00     0.149 C 
HETATM   21  C13 UNL     1     223.902   4.619   1.032  1.00  0.00     0.149 C 
ENDBRANCH  18  19
ENDBRANCH   1  13
TORSDOF 5
ENDMDL
MODEL 2
REMARK VINA RESULT: -4.245060191      1.972      3.229
REMARK  5 active torsions:
REMARK  status: ('A' for Active; 'I' for Inactive)
REMARK    1  A    between atoms: C2_2  and  C3_3 
REMARK    2  A    between atoms: C2_2  and  C4_5 
REMARK    3  A    between atoms: C4_5  and  N1_6 
REMARK    4  A    between atoms: C4_5  and  C6_13 
REMARK       I    between atoms: N1_6  and  C5_8 
REMARK    5  A    between atoms: C11_18  and  N4_19 
ROOT
HETATM    1  C4  UNL     1     223.628   6.837   0.674  1.00  0.00     0.155 C 
ENDROOT
BRANCH   1   2
HETATM    2  C2  UNL     1     224.210   8.182   0.547  1.00  0.00    -0.003 C 
HETATM    3  C1  UNL     1     224.210   8.774  -0.670  1.00  0.00     0.024 C 
BRANCH   2   4
HETATM    4  C3  UNL     1     224.829   8.964   1.591  1.00  0.00     0.267 C 
HETATM    5  O1  UNL     1     225.231   8.418   2.645  1.00  0.00    -0.302 OA
ENDBRANCH   2   4
ENDBRANCH   1   2
BRANCH   1   6
HETATM    6  N1  UNL     1     222.976   6.656   1.962  1.00  0.00    -0.352 N 
HETATM    7  C5  UNL     1     221.702   7.130   2.275  1.00  0.00     0.182 C 
HETATM    8  N2  UNL     1     221.422   7.468   3.480  1.00  0.00    -0.374 N 
HETATM    9  N3  UNL     1     220.720   7.236   1.260  1.00  0.00    -0.064 NA
ATOM     10  H22 UNL     1     222.130   7.392   4.211  1.00  0.00     0.158 HD
ATOM     11  H21 UNL     1     220.491   7.814   3.708  1.00  0.00     0.158 HD
ATOM     12  H1  UNL     1     223.486   6.150   2.686  1.00  0.00     0.163 HD
ENDBRANCH   1   6
BRANCH   1  13
HETATM   13  C6  UNL     1     224.516   5.695   0.443  1.00  0.00    -0.004 A 
HETATM   14  C7  UNL     1     225.880   5.748   0.505  1.00  0.00     0.012 A 
HETATM   15  C8  UNL     1     226.717   4.654   0.255  1.00  0.00     0.001 A 
HETATM   16  C9  UNL     1     226.160   3.444  -0.073  1.00  0.00     0.002 A 
HETATM   17  C10 UNL     1     224.799   3.346  -0.145  1.00  0.00     0.030 A 
HETATM   18  C11 UNL     1     223.976   4.453   0.109  1.00  0.00     0.038 A 
BRANCH  18  19
HETATM   19  N4  UNL     1     222.578   4.305   0.055  1.00  0.00    -0.389 N 
HETATM   20  C12 UNL     1     221.818   4.850  -1.034  1.00  0.00     0.149 C 
HETATM   21  C13 UNL     1     221.886   3.599   1.102  1.00  0.00     0.149 C 
ENDBRANCH  18  19
ENDBRANCH   1  13
TORSDOF 5
ENDMDL
MODEL 3
REMARK VINA RESULT: -4.170812686      1.729      2.071
REMARK  5 active torsions:
REMARK  status: ('A' for Active; 'I' for Inactive)
REMARK    1  A    between atoms: C2_2  and  C3_3 
REMARK    2  A    between atoms: C2_2  and  C4_5 
REMARK    3  A    between atoms: C4_5  and  N1_6 
REMARK    4  A    between atoms: C4_5  and  C6_13 
REMARK       I    between atoms: N1_6  and  C5_8 
REMARK    5  A    between atoms: C11_18  and  N4_19 
ROOT
HETATM    1  C4  UNL     1     222.899   6.627   1.252  1.00  0.00     0.155 C 
ENDROOT
BRANCH   1   2
HETATM    2  C2  UNL     1     221.686   7.413   1.518  1.00  0.00    -0.003 C 
HETATM    3  C1  UNL     1     221.061   8.012   0.477  1.00  0.00     0.024 C 
BRANCH   2   4
HETATM    4  C3  UNL     1     221.073   7.660   2.803  1.00  0.00     0.267 C 
HETATM    5  O1  UNL     1     220.454   6.748   3.400  1.00  0.00    -0.302 OA
ENDBRANCH   2   4
ENDBRANCH   1   2
BRANCH   1   6
HETATM    6  N1  UNL     1     222.994   5.475   2.135  1.00  0.00    -0.352 N 
HETATM    7  C5  UNL     1     222.159   4.360   2.071  1.00  0.00     0.182 C 
HETATM    8  N2  UNL     1     221.885   3.704   3.138  1.00  0.00    -0.374 N 
HETATM    9  N3  UNL     1     221.615   3.956   0.828  1.00  0.00    -0.064 NA
ATOM     10  H22 UNL     1     222.277   3.994   4.034  1.00  0.00     0.158 HD
ATOM     11  H21 UNL     1     221.274   2.888   3.092  1.00  0.00     0.158 HD
ATOM     12  H1  UNL     1     223.721   5.484   2.851  1.00  0.00     0.163 HD
ENDBRANCH   1   6
BRANCH   1  13
HETATM   13  C6  UNL     1     224.180   7.336   1.279  1.00  0.00    -0.004 A 
HETATM   14  C7  UNL     1     224.384   8.547   1.878  1.00  0.00     0.012 A 
HETATM   15  C8  UNL     1     225.609   9.226   1.874  1.00  0.00     0.001 A 
HETATM   16  C9  UNL     1     226.685   8.663   1.237  1.00  0.00     0.002 A 
HETATM   17  C10 UNL     1     226.526   7.452   0.625  1.00  0.00     0.030 A 
HETATM   18  C11 UNL     1     225.292   6.786   0.641  1.00  0.00     0.038 A 
BRANCH  18  19
HETATM   19  N4  UNL     1     225.176   5.525   0.026  1.00  0.00    -0.389 N 
HETATM   20  C12 UNL     1     224.234   5.304  -1.034  1.00  0.00     0.149 C 
HETATM   21  C13 UNL     1     226.008   4.433   0.459  1.00  0.00     0.149 C 
ENDBRANCH  18  19
ENDBRANCH   1  13
TORSDOF 5
ENDMDL
MODEL 4
REMARK VINA RESULT: -4.084270755      1.486      2.293
REMARK  5 active torsions:
REMARK  status: ('A' for Active; 'I' for Inactive)
REMARK    1  A    between atoms: C2_2  and  C3_3 
REMARK    2  A    between atoms: C2_2  and  C4_5 
REMARK    3  A    between atoms: C4_5  and  N1_6 
REMARK    4  A    between atoms: C4_5  and  C6_13 
REMARK       I    between atoms: N1_6  and  C5_8 
REMARK    5  A    between atoms: C11_18  and  N4_19 
ROOT
HETATM    1  C4  UNL     1     222.465   7.001   1.110  1.00  0.00     0.155 C 
ENDROOT
BRANCH   1   2
HETATM    2  C2  UNL     1     222.116   8.146   0.256  1.00  0.00    -0.003 C 
HETATM    3  C1  UNL     1     221.779   7.911  -1.034  1.00  0.00     0.024 C 
BRANCH   2   4
HETATM    4  C3  UNL     1     222.116   9.541   0.628  1.00  0.00     0.267 C 
HETATM    5  O1  UNL     1     221.498   9.930   1.646  1.00  0.00    -0.302 OA
ENDBRANCH   2   4
ENDBRANCH   1   2
BRANCH   1   6
HETATM    6  N1  UNL     1     222.461   7.364   2.519  1.00  0.00    -0.352 N 
HETATM    7  C5  UNL     1     221.349   7.266   3.355  1.00  0.00     0.182 C 
HETATM    8  N2  UNL     1     221.208   8.087   4.331  1.00  0.00    -0.374 N 
HETATM    9  N3  UNL     1     220.377   6.262   3.124  1.00  0.00    -0.064 NA
ATOM     10  H22 UNL     1     221.908   8.810   4.497  1.00  0.00     0.158 HD
ATOM     11  H21 UNL     1     220.395   8.016   4.943  1.00  0.00     0.158 HD
ATOM     12  H1  UNL     1     223.330   7.713   2.922  1.00  0.00     0.163 HD
ENDBRANCH   1   6
BRANCH   1  13
HETATM   13  C6  UNL     1     223.718   6.301   0.818  1.00  0.00    -0.004 A 
HETATM   14  C7  UNL     1     224.937   6.908   0.706  1.00  0.00     0.012 A 
HETATM   15  C8  UNL     1     226.124   6.229   0.401  1.00  0.00     0.001 A 
HETATM   16  C9  UNL     1     226.087   4.874   0.197  1.00  0.00     0.002 A 
HETATM   17  C10 UNL     1     224.888   4.226   0.299  1.00  0.00     0.030 A 
HETATM   18  C11 UNL     1     223.711   4.922   0.607  1.00  0.00     0.038 A 
BRANCH  18  19
HETATM   19  N4  UNL     1     222.500   4.215   0.735  1.00  0.00    -0.389 N 
HETATM   20  C12 UNL     1     222.157   3.552   1.961  1.00  0.00     0.149 C 
HETATM   21  C13 UNL     1     221.584   4.148  -0.374  1.00  0.00     0.149 C 
ENDBRANCH  18  19
ENDBRANCH   1  13
TORSDOF 5
ENDMDL
MODEL 5
REMARK VINA RESULT: -3.905642321      2.745      3.947
REMARK  5 active torsions:
REMARK  status: ('A' for Active; 'I' for Inactive)
REMARK    1  A    between atoms: C2_2  and  C3_3 
REMARK    2  A    between atoms: C2_2  and  C4_5 
REMARK    3  A    between atoms: C4_5  and  N1_6 
REMARK    4  A    between atoms: C4_5  and  C6_13 
REMARK       I    between atoms: N1_6  and  C5_8 
REMARK    5  A    between atoms: C11_18  and  N4_19 
ROOT
HETATM    1  C4  UNL     1     222.805   4.182   0.653  1.00  0.00     0.155 C 
ENDROOT
BRANCH   1   2
HETATM    2  C2  UNL     1     221.935   4.629  -0.445  1.00  0.00    -0.003 C 
HETATM    3  C1  UNL     1     221.120   3.723  -1.034  1.00  0.00     0.024 C 
BRANCH   2   4
HETATM    4  C3  UNL     1     221.861   5.956  -1.012  1.00  0.00     0.267 C 
HETATM    5  O1  UNL     1     221.060   6.802  -0.554  1.00  0.00    -0.302 OA
ENDBRANCH   2   4
ENDBRANCH   1   2
BRANCH   1   6
HETATM    6  N1  UNL     1     222.949   5.209   1.673  1.00  0.00    -0.352 N 
HETATM    7  C5  UNL     1     221.976   5.518   2.624  1.00  0.00     0.182 C 
HETATM    8  N2  UNL     1     221.876   6.715   3.073  1.00  0.00    -0.374 N 
HETATM    9  N3  UNL     1     221.100   4.508   3.091  1.00  0.00    -0.064 NA
ATOM     10  H22 UNL     1     222.507   7.443   2.736  1.00  0.00     0.158 HD
ATOM     11  H21 UNL     1     221.165   6.941   3.768  1.00  0.00     0.158 HD
ATOM     12  H1  UNL     1     223.819   5.740   1.694  1.00  0.00     0.163 HD
ENDBRANCH   1   6
BRANCH   1  13
HETATM   13  C6  UNL     1     224.141   3.696   0.298  1.00  0.00    -0.004 A 
HETATM   14  C7  UNL     1     225.186   4.496  -0.066  1.00  0.00     0.012 A 
HETATM   15  C8  UNL     1     226.451   4.015  -0.428  1.00  0.00     0.001 A 
HETATM   16  C9  UNL     1     226.680   2.663  -0.426  1.00  0.00     0.002 A 
HETATM   17  C10 UNL     1     225.661   1.825  -0.068  1.00  0.00     0.030 A 
HETATM   18  C11 UNL     1     224.402   2.325   0.293  1.00  0.00     0.038 A 
BRANCH  18  19
HETATM   19  N4  UNL     1     223.387   1.433   0.686  1.00  0.00    -0.389 N 
HETATM   20  C12 UNL     1     222.687   0.636  -0.282  1.00  0.00     0.149 C 
HETATM   21  C13 UNL     1     223.035   1.307   2.076  1.00  0.00     0.149 C 
ENDBRANCH  18  19
ENDBRANCH   1  13
TORSDOF 5
ENDMDL
