MODEL 1
REMARK VINA RESULT: -6.940809586      0.000      0.000
REMARK  3 active torsions:
REMARK  status: ('A' for Active; 'I' for Inactive)
REMARK    1  A    between atoms: C3_7  and  C4_8 
REMARK    2  A    between atoms: C4_8  and  C5_9 
REMARK    3  A    between atoms: C9_13  and  N2_14 
ROOT
HETATM    1  O1  UNL     1      -6.344  34.263   3.160  1.00  0.00    -0.262 OA
HETATM    2  C1  UNL     1      -6.691  33.860   2.012  1.00  0.00     0.316 A 
HETATM    3  N1  UNL     1      -7.584  32.786   1.834  1.00  0.00    -0.284 N 
ATOM      4  H1  UNL     1      -7.965  32.317   2.655  1.00  0.00     0.172 HD
HETATM    5  C2  UNL     1      -7.978  32.330   0.517  1.00  0.00     0.275 A 
HETATM    6  O2  UNL     1      -8.781  31.372   0.480  1.00  0.00    -0.266 OA
HETATM    7  C3  UNL     1      -7.469  32.954  -0.684  1.00  0.00     0.104 A 
HETATM    8  N3  UNL     1      -6.560  34.048  -0.460  1.00  0.00    -0.314 N 
ATOM      9  H3  UNL     1      -6.174  34.524  -1.275  1.00  0.00     0.169 HD
HETATM   10  C11 UNL     1      -6.169  34.503   0.820  1.00  0.00     0.314 A 
HETATM   11  O5  UNL     1      -5.372  35.462   0.955  1.00  0.00    -0.262 OA
ENDROOT
BRANCH   7  12
HETATM   12  C4  UNL     1      -7.756  32.570  -1.904  1.00  0.00     0.046 C 
BRANCH  12  13
HETATM   13  C5  UNL     1      -7.930  33.341  -3.104  1.00  0.00    -0.032 A 
HETATM   14  C6  UNL     1      -6.986  33.556  -4.073  1.00  0.00     0.011 A 
HETATM   15  C7  UNL     1      -7.264  34.300  -5.195  1.00  0.00     0.003 A 
HETATM   16  C8  UNL     1      -8.515  34.852  -5.368  1.00  0.00     0.036 A 
HETATM   17  C9  UNL     1      -9.482  34.657  -4.419  1.00  0.00     0.103 A 
HETATM   18  C10 UNL     1      -9.187  33.914  -3.311  1.00  0.00     0.047 A 
BRANCH  17  19
HETATM   19  N2  UNL     1     -10.801  35.205  -4.542  1.00  0.00    -0.116 N 
HETATM   20  O3  UNL     1     -10.980  36.423  -4.728  1.00  0.00    -0.532 OA
HETATM   21  O4  UNL     1     -11.922  34.419  -4.461  1.00  0.00    -0.532 OA
ENDBRANCH  17  19
ENDBRANCH  12  13
ENDBRANCH   7  12
TORSDOF 3
ENDMDL
MODEL 2
REMARK VINA RESULT: -6.815277247      1.252      2.272
REMARK  3 active torsions:
REMARK  status: ('A' for Active; 'I' for Inactive)
REMARK    1  A    between atoms: C3_7  and  C4_8 
REMARK    2  A    between atoms: C4_8  and  C5_9 
REMARK    3  A    between atoms: C9_13  and  N2_14 
ROOT
HETATM    1  O1  UNL     1      -8.150  32.601   3.065  1.00  0.00    -0.262 OA
HETATM    2  C1  UNL     1      -7.847  32.710   1.841  1.00  0.00     0.316 A 
HETATM    3  N1  UNL     1      -6.859  33.606   1.391  1.00  0.00    -0.284 N 
ATOM      4  H1  UNL     1      -6.370  34.187   2.072  1.00  0.00     0.172 HD
HETATM    5  C2  UNL     1      -6.517  33.726  -0.011  1.00  0.00     0.275 A 
HETATM    6  O2  UNL     1      -5.620  34.550  -0.295  1.00  0.00    -0.266 OA
HETATM    7  C3  UNL     1      -7.178  32.930  -1.023  1.00  0.00     0.104 A 
HETATM    8  N3  UNL     1      -8.180  32.026  -0.522  1.00  0.00    -0.314 N 
ATOM      9  H3  UNL     1      -8.675  31.440  -1.195  1.00  0.00     0.169 HD
HETATM   10  C11 UNL     1      -8.522  31.899   0.844  1.00  0.00     0.314 A 
HETATM   11  O5  UNL     1      -9.406  31.094   1.222  1.00  0.00    -0.262 OA
ENDROOT
BRANCH   7  12
HETATM   12  C4  UNL     1      -6.942  33.014  -2.309  1.00  0.00     0.046 C 
BRANCH  12  13
HETATM   13  C5  UNL     1      -7.320  34.025  -3.258  1.00  0.00    -0.032 A 
HETATM   14  C6  UNL     1      -6.467  34.796  -4.003  1.00  0.00     0.011 A 
HETATM   15  C7  UNL     1      -6.936  35.728  -4.898  1.00  0.00     0.003 A 
HETATM   16  C8  UNL     1      -8.293  35.905  -5.066  1.00  0.00     0.036 A 
HETATM   17  C9  UNL     1      -9.173  35.150  -4.339  1.00  0.00     0.103 A 
HETATM   18  C10 UNL     1      -8.687  34.230  -3.453  1.00  0.00     0.047 A 
BRANCH  17  19
HETATM   19  N2  UNL     1     -10.594  35.289  -4.468  1.00  0.00    -0.116 N 
HETATM   20  O3  UNL     1     -11.118  36.395  -4.699  1.00  0.00    -0.532 OA
HETATM   21  O4  UNL     1     -11.440  34.217  -4.344  1.00  0.00    -0.532 OA
ENDBRANCH  17  19
ENDBRANCH  12  13
ENDBRANCH   7  12
TORSDOF 3
ENDMDL
MODEL 3
REMARK VINA RESULT: -6.682029169      2.119      3.113
REMARK  3 active torsions:
REMARK  status: ('A' for Active; 'I' for Inactive)
REMARK    1  A    between atoms: C3_7  and  C4_8 
REMARK    2  A    between atoms: C4_8  and  C5_9 
REMARK    3  A    between atoms: C9_13  and  N2_14 
ROOT
HETATM    1  O1  UNL     1      -7.508  32.428   2.688  1.00  0.00    -0.262 OA
HETATM    2  C1  UNL     1      -7.480  32.783   1.473  1.00  0.00     0.316 A 
HETATM    3  N1  UNL     1      -6.691  33.859   1.026  1.00  0.00    -0.284 N 
ATOM      4  H1  UNL     1      -6.122  34.371   1.702  1.00  0.00     0.172 HD
HETATM    5  C2  UNL     1      -6.662  34.261  -0.365  1.00  0.00     0.275 A 
HETATM    6  O2  UNL     1      -5.920  35.227  -0.647  1.00  0.00    -0.266 OA
HETATM    7  C3  UNL     1      -7.448  33.576  -1.367  1.00  0.00     0.104 A 
HETATM    8  N3  UNL     1      -8.240  32.481  -0.870  1.00  0.00    -0.314 N 
ATOM      9  H3  UNL     1      -8.812  31.963  -1.538  1.00  0.00     0.169 HD
HETATM   10  C11 UNL     1      -8.275  32.079   0.484  1.00  0.00     0.314 A 
HETATM   11  O5  UNL     1      -8.986  31.116   0.860  1.00  0.00    -0.262 OA
ENDROOT
BRANCH   7  12
HETATM   12  C4  UNL     1      -7.496  33.909  -2.633  1.00  0.00     0.046 C 
BRANCH  12  13
HETATM   13  C5  UNL     1      -8.508  34.615  -3.371  1.00  0.00    -0.032 A 
HETATM   14  C6  UNL     1      -9.723  34.117  -3.760  1.00  0.00     0.011 A 
HETATM   15  C7  UNL     1     -10.628  34.887  -4.451  1.00  0.00     0.003 A 
HETATM   16  C8  UNL     1     -10.326  36.194  -4.769  1.00  0.00     0.036 A 
HETATM   17  C9  UNL     1      -9.120  36.724  -4.394  1.00  0.00     0.103 A 
HETATM   18  C10 UNL     1      -8.234  35.942  -3.709  1.00  0.00     0.047 A 
BRANCH  17  19
HETATM   19  N2  UNL     1      -8.748  38.074  -4.696  1.00  0.00    -0.116 N 
HETATM   20  O3  UNL     1      -7.920  38.333  -5.589  1.00  0.00    -0.532 OA
HETATM   21  O4  UNL     1      -9.283  39.141  -4.020  1.00  0.00    -0.532 OA
ENDBRANCH  17  19
ENDBRANCH  12  13
ENDBRANCH   7  12
TORSDOF 3
ENDMDL
MODEL 4
REMARK VINA RESULT: -6.672119418      1.948      6.470
REMARK  3 active torsions:
REMARK  status: ('A' for Active; 'I' for Inactive)
REMARK    1  A    between atoms: C3_7  and  C4_8 
REMARK    2  A    between atoms: C4_8  and  C5_9 
REMARK    3  A    between atoms: C9_13  and  N2_14 
ROOT
HETATM    1  O1  UNL     1      -9.743  35.990  -6.882  1.00  0.00    -0.262 OA
HETATM    2  C1  UNL     1      -9.184  35.332  -5.956  1.00  0.00     0.316 A 
HETATM    3  N1  UNL     1      -7.826  34.966  -6.014  1.00  0.00    -0.284 N 
ATOM      4  H1  UNL     1      -7.273  35.238  -6.827  1.00  0.00     0.172 HD
HETATM    5  C2  UNL     1      -7.191  34.214  -4.951  1.00  0.00     0.275 A 
HETATM    6  O2  UNL     1      -5.979  33.949  -5.107  1.00  0.00    -0.266 OA
HETATM    7  C3  UNL     1      -7.924  33.799  -3.775  1.00  0.00     0.104 A 
HETATM    8  N3  UNL     1      -9.309  34.194  -3.754  1.00  0.00    -0.314 N 
ATOM      9  H3  UNL     1      -9.870  33.927  -2.945  1.00  0.00     0.169 HD
HETATM   10  C11 UNL     1      -9.939  34.928  -4.784  1.00  0.00     0.314 A 
HETATM   11  O5  UNL     1     -11.150  35.244  -4.712  1.00  0.00    -0.262 OA
ENDROOT
BRANCH   7  12
HETATM   12  C4  UNL     1      -7.422  33.088  -2.795  1.00  0.00     0.046 C 
BRANCH  12  13
HETATM   13  C5  UNL     1      -7.277  33.402  -1.400  1.00  0.00    -0.032 A 
HETATM   14  C6  UNL     1      -6.466  34.369  -0.867  1.00  0.00     0.011 A 
HETATM   15  C7  UNL     1      -6.415  34.598   0.488  1.00  0.00     0.003 A 
HETATM   16  C8  UNL     1      -7.192  33.850   1.347  1.00  0.00     0.036 A 
HETATM   17  C9  UNL     1      -8.015  32.876   0.847  1.00  0.00     0.103 A 
HETATM   18  C10 UNL     1      -8.050  32.663  -0.502  1.00  0.00     0.047 A 
BRANCH  17  19
HETATM   19  N2  UNL     1      -8.844  32.066   1.688  1.00  0.00    -0.116 N 
HETATM   20  O3  UNL     1      -8.902  32.257   2.918  1.00  0.00    -0.532 OA
HETATM   21  O4  UNL     1      -9.610  31.046   1.184  1.00  0.00    -0.532 OA
ENDBRANCH  17  19
ENDBRANCH  12  13
ENDBRANCH   7  12
TORSDOF 3
ENDMDL
MODEL 5
REMARK VINA RESULT: -6.647911816      1.880      6.093
REMARK  3 active torsions:
REMARK  status: ('A' for Active; 'I' for Inactive)
REMARK    1  A    between atoms: C3_7  and  C4_8 
REMARK    2  A    between atoms: C4_8  and  C5_9 
REMARK    3  A    between atoms: C9_13  and  N2_14 
ROOT
HETATM    1  O1  UNL     1     -10.246  38.847  -5.121  1.00  0.00    -0.262 OA
HETATM    2  C1  UNL     1      -9.955  37.656  -4.806  1.00  0.00     0.316 A 
HETATM    3  N1  UNL     1     -10.918  36.630  -4.787  1.00  0.00    -0.284 N 
ATOM      4  H1  UNL     1     -11.883  36.852  -5.035  1.00  0.00     0.172 HD
HETATM    5  C2  UNL     1     -10.579  35.270  -4.426  1.00  0.00     0.275 A 
HETATM    6  O2  UNL     1     -11.515  34.440  -4.449  1.00  0.00    -0.266 OA
HETATM    7  C3  UNL     1      -9.230  34.896  -4.063  1.00  0.00     0.104 A 
HETATM    8  N3  UNL     1      -8.275  35.973  -4.096  1.00  0.00    -0.314 N 
ATOM      9  H3  UNL     1      -7.307  35.761  -3.851  1.00  0.00     0.169 HD
HETATM   10  C11 UNL     1      -8.593  37.304  -4.448  1.00  0.00     0.314 A 
HETATM   11  O5  UNL     1      -7.718  38.202  -4.458  1.00  0.00    -0.262 OA
ENDROOT
BRANCH   7  12
HETATM   12  C4  UNL     1      -8.863  33.694  -3.694  1.00  0.00     0.046 C 
BRANCH  12  13
HETATM   13  C5  UNL     1      -7.868  33.278  -2.743  1.00  0.00    -0.032 A 
HETATM   14  C6  UNL     1      -6.511  33.307  -2.925  1.00  0.00     0.011 A 
HETATM   15  C7  UNL     1      -5.644  32.899  -1.938  1.00  0.00     0.003 A 
HETATM   16  C8  UNL     1      -6.132  32.447  -0.731  1.00  0.00     0.036 A 
HETATM   17  C9  UNL     1      -7.483  32.405  -0.515  1.00  0.00     0.103 A 
HETATM   18  C10 UNL     1      -8.328  32.815  -1.508  1.00  0.00     0.047 A 
BRANCH  17  19
HETATM   19  N2  UNL     1      -8.050  31.945   0.717  1.00  0.00    -0.116 N 
HETATM   20  O3  UNL     1      -9.074  31.236   0.734  1.00  0.00    -0.532 OA
HETATM   21  O4  UNL     1      -7.497  32.262   1.931  1.00  0.00    -0.532 OA
ENDBRANCH  17  19
ENDBRANCH  12  13
ENDBRANCH   7  12
TORSDOF 3
ENDMDL
