MODEL 1
REMARK VINA RESULT: -5.558129954      0.000      0.000
REMARK  14 active torsions:
REMARK  status: ('A' for Active; 'I' for Inactive)
REMARK    1  A    between atoms: C2_2  and  O1_5 
REMARK    2  A    between atoms: O1_5  and  C3_6 
REMARK    3  A    between atoms: C5_8  and  O2_9 
REMARK    4  A    between atoms: C6_11  and  N1_12 
REMARK    5  A    between atoms: C8_14  and  C9_15 
REMARK    6  A    between atoms: C9_15  and  O3_16 
REMARK    7  A    between atoms: C9_15  and  C10_18 
REMARK    8  A    between atoms: C10_18  and  O4_19 
REMARK    9  A    between atoms: O4_19  and  C11_20 
REMARK   10  A    between atoms: C11_20  and  C12_21 
REMARK   11  A    between atoms: C20_29  and  C21_30 
REMARK   12  A    between atoms: C21_30  and  N2_31 
REMARK   13  A    between atoms: C23_36  and  O5_37 
REMARK   14  A    between atoms: C26_42  and  C27_43 
ROOT
HETATM    1  N1  UNL     1      -9.537  15.028  47.559  1.00  0.00    -0.310 N 
HETATM    2  C7  UNL     1     -10.102  15.674  46.552  1.00  0.00     0.111 A 
HETATM    3  C8  UNL     1     -11.266  16.344  46.997  1.00  0.00     0.025 A 
HETATM    4  C23 UNL     1     -11.311  16.036  48.356  1.00  0.00     0.110 A 
HETATM    5  C24 UNL     1     -10.253  15.230  48.707  1.00  0.00     0.120 A 
HETATM    6 BR1  UNL     1      -9.865  14.563  50.449  1.00  0.00    -0.028 Br
ENDROOT
BRANCH   3   7
HETATM    7  C9  UNL     1     -12.292  16.928  46.127  1.00  0.00     0.190 C 
BRANCH   7   8
HETATM    8  O3  UNL     1     -11.905  16.524  44.779  1.00  0.00    -0.388 OA
ATOM      9  H3  UNL     1     -10.994  16.267  44.858  1.00  0.00     0.210 HD
ENDBRANCH   7   8
BRANCH   7  10
HETATM   10  C10 UNL     1     -12.308  18.457  46.013  1.00  0.00     0.091 C 
HETATM   11  C18 UNL     1     -13.556  18.627  45.057  1.00  0.00     0.041 C 
HETATM   12  C19 UNL     1     -14.349  19.776  45.558  1.00  0.00     0.009 C 
HETATM   13  C20 UNL     1     -14.204  19.644  47.038  1.00  0.00     0.014 C 
HETATM   14  C22 UNL     1     -12.901  18.930  47.318  1.00  0.00     0.047 C 
BRANCH  10  15
HETATM   15  O4  UNL     1     -11.299  19.109  45.602  1.00  0.00    -0.377 OA
BRANCH  15  16
HETATM   16  C11 UNL     1     -10.833  20.215  45.179  1.00  0.00     0.173 C 
BRANCH  16  17
HETATM   17  C12 UNL     1      -9.683  20.817  46.023  1.00  0.00     0.009 C 
HETATM   18  C13 UNL     1     -10.231  22.176  46.502  1.00  0.00     0.007 C 
HETATM   19  C14 UNL     1     -10.984  22.016  47.797  1.00  0.00     0.000 C 
HETATM   20  C15 UNL     1     -10.019  21.636  48.915  1.00  0.00     0.000 C 
HETATM   21  C16 UNL     1      -8.795  20.941  48.295  1.00  0.00     0.000 C 
HETATM   22  C17 UNL     1      -9.369  19.978  47.242  1.00  0.00     0.007 C 
ENDBRANCH  16  17
ENDBRANCH  15  16
ENDBRANCH  10  15
BRANCH  13  23
HETATM   23  C21 UNL     1     -15.367  18.868  47.641  1.00  0.00     0.234 C 
BRANCH  23  24
HETATM   24  N2  UNL     1     -14.971  17.760  48.441  1.00  0.00    -0.079 N 
ATOM     25  H23 UNL     1     -14.880  16.920  47.869  1.00  0.00     0.274 HD
ATOM     26  H22 UNL     1     -14.004  17.867  48.747  1.00  0.00     0.274 HD
ATOM     27  H21 UNL     1     -15.581  17.586  49.240  1.00  0.00     0.274 HD
ENDBRANCH  23  24
ENDBRANCH  13  23
ENDBRANCH   7  10
ENDBRANCH   3   7
BRANCH   4  28
HETATM   28  O5  UNL     1     -12.278  16.461  49.285  1.00  0.00    -0.357 OA
ATOM     29  H5  UNL     1     -12.233  16.380  50.231  1.00  0.00     0.217 HD
ENDBRANCH   4  28
BRANCH   1  30
HETATM   30  C6  UNL     1      -8.438  14.087  47.596  1.00  0.00     0.073 A 
HETATM   31  C5  UNL     1      -8.840  12.741  47.426  1.00  0.00     0.095 A 
HETATM   32  C4  UNL     1      -7.920  11.724  47.472  1.00  0.00     0.076 A 
HETATM   33  C3  UNL     1      -6.585  11.978  47.684  1.00  0.00     0.093 A 
HETATM   34  C26 UNL     1      -6.232  13.295  47.840  1.00  0.00     0.083 A 
HETATM   35  C25 UNL     1      -7.140  14.355  47.800  1.00  0.00     0.052 A 
BRANCH  31  36
HETATM   36  O2  UNL     1     -10.142  12.415  47.207  1.00  0.00    -0.358 OA
ATOM     37  H2  UNL     1     -10.798  12.774  47.793  1.00  0.00     0.217 HD
ENDBRANCH  31  36
BRANCH  33  38
HETATM   38  O1  UNL     1      -5.641  10.961  47.736  1.00  0.00    -0.283 OA
BRANCH  38  39
HETATM   39  C2  UNL     1      -5.408  10.169  48.885  1.00  0.00     0.355 C 
HETATM   40  C1  UNL     1      -5.691   8.727  48.508  1.00  0.00     0.126 C 
HETATM   41  F1  UNL     1      -6.221  10.469  49.946  1.00  0.00    -0.176 F 
HETATM   42  F2  UNL     1      -4.075  10.201  49.260  1.00  0.00    -0.176 F 
ENDBRANCH  38  39
ENDBRANCH  33  38
BRANCH  34  43
HETATM   43  C27 UNL     1      -4.794  13.624  48.057  1.00  0.00     0.420 C 
HETATM   44  F3  UNL     1      -4.357  13.186  49.295  1.00  0.00    -0.166 F 
HETATM   45  F4  UNL     1      -4.724  15.013  48.067  1.00  0.00    -0.166 F 
HETATM   46  F5  UNL     1      -3.999  13.163  47.050  1.00  0.00    -0.166 F 
ENDBRANCH  34  43
ENDBRANCH   1  30
TORSDOF 14
ENDMDL
MODEL 2
REMARK VINA RESULT: -5.557799479      0.955      1.436
REMARK  14 active torsions:
REMARK  status: ('A' for Active; 'I' for Inactive)
REMARK    1  A    between atoms: C2_2  and  O1_5 
REMARK    2  A    between atoms: O1_5  and  C3_6 
REMARK    3  A    between atoms: C5_8  and  O2_9 
REMARK    4  A    between atoms: C6_11  and  N1_12 
REMARK    5  A    between atoms: C8_14  and  C9_15 
REMARK    6  A    between atoms: C9_15  and  O3_16 
REMARK    7  A    between atoms: C9_15  and  C10_18 
REMARK    8  A    between atoms: C10_18  and  O4_19 
REMARK    9  A    between atoms: O4_19  and  C11_20 
REMARK   10  A    between atoms: C11_20  and  C12_21 
REMARK   11  A    between atoms: C20_29  and  C21_30 
REMARK   12  A    between atoms: C21_30  and  N2_31 
REMARK   13  A    between atoms: C23_36  and  O5_37 
REMARK   14  A    between atoms: C26_42  and  C27_43 
ROOT
HETATM    1  N1  UNL     1      -9.366  15.032  47.609  1.00  0.00    -0.310 N 
HETATM    2  C7  UNL     1      -9.881  15.744  46.620  1.00  0.00     0.111 A 
HETATM    3  C8  UNL     1     -11.054  16.403  47.058  1.00  0.00     0.025 A 
HETATM    4  C23 UNL     1     -11.159  16.014  48.393  1.00  0.00     0.110 A 
HETATM    5  C24 UNL     1     -10.126  15.174  48.737  1.00  0.00     0.120 A 
HETATM    6 BR1  UNL     1      -9.816  14.399  50.449  1.00  0.00    -0.028 Br
ENDROOT
BRANCH   3   7
HETATM    7  C9  UNL     1     -12.037  17.053  46.184  1.00  0.00     0.190 C 
BRANCH   7   8
HETATM    8  O3  UNL     1     -11.665  16.633  44.836  1.00  0.00    -0.388 OA
ATOM      9  H3  UNL     1     -12.016  17.310  44.269  1.00  0.00     0.210 HD
ENDBRANCH   7   8
BRANCH   7  10
HETATM   10  C10 UNL     1     -11.960  18.580  46.079  1.00  0.00     0.091 C 
HETATM   11  C18 UNL     1     -13.162  18.827  45.082  1.00  0.00     0.041 C 
HETATM   12  C19 UNL     1     -13.905  20.017  45.562  1.00  0.00     0.009 C 
HETATM   13  C20 UNL     1     -13.819  19.871  47.045  1.00  0.00     0.014 C 
HETATM   14  C22 UNL     1     -12.570  19.082  47.366  1.00  0.00     0.047 C 
BRANCH  10  15
HETATM   15  O4  UNL     1     -10.902  19.174  45.707  1.00  0.00    -0.377 OA
BRANCH  15  16
HETATM   16  C11 UNL     1     -10.192  20.230  45.742  1.00  0.00     0.173 C 
BRANCH  16  17
HETATM   17  C12 UNL     1     -10.418  21.220  44.574  1.00  0.00     0.009 C 
HETATM   18  C13 UNL     1     -11.157  22.411  45.218  1.00  0.00     0.007 C 
HETATM   19  C14 UNL     1     -10.172  23.412  45.764  1.00  0.00     0.000 C 
HETATM   20  C15 UNL     1      -9.415  24.074  44.618  1.00  0.00     0.000 C 
HETATM   21  C16 UNL     1      -9.415  23.121  43.411  1.00  0.00     0.000 C 
HETATM   22  C17 UNL     1      -9.116  21.730  43.996  1.00  0.00     0.007 C 
ENDBRANCH  16  17
ENDBRANCH  15  16
ENDBRANCH  10  15
BRANCH  13  23
HETATM   23  C21 UNL     1     -15.045  19.161  47.603  1.00  0.00     0.234 C 
BRANCH  23  24
HETATM   24  N2  UNL     1     -14.741  18.042  48.428  1.00  0.00    -0.079 N 
ATOM     25  H23 UNL     1     -13.904  18.223  48.981  1.00  0.00     0.274 HD
ATOM     26  H22 UNL     1     -15.427  17.953  49.176  1.00  0.00     0.274 HD
ATOM     27  H21 UNL     1     -14.652  17.163  47.918  1.00  0.00     0.274 HD
ENDBRANCH  23  24
ENDBRANCH  13  23
ENDBRANCH   7  10
ENDBRANCH   3   7
BRANCH   4  28
HETATM   28  O5  UNL     1     -12.158  16.396  49.306  1.00  0.00    -0.357 OA
ATOM     29  H5  UNL     1     -12.043  16.922  50.089  1.00  0.00     0.217 HD
ENDBRANCH   4  28
BRANCH   1  30
HETATM   30  C6  UNL     1      -8.279  14.074  47.632  1.00  0.00     0.073 A 
HETATM   31  C5  UNL     1      -8.705  12.733  47.483  1.00  0.00     0.095 A 
HETATM   32  C4  UNL     1      -7.798  11.704  47.521  1.00  0.00     0.076 A 
HETATM   33  C3  UNL     1      -6.456  11.940  47.703  1.00  0.00     0.093 A 
HETATM   34  C26 UNL     1      -6.081  13.252  47.840  1.00  0.00     0.083 A 
HETATM   35  C25 UNL     1      -6.974  14.326  47.808  1.00  0.00     0.052 A 
BRANCH  31  36
HETATM   36  O2  UNL     1     -10.015  12.424  47.292  1.00  0.00    -0.358 OA
ATOM     37  H2  UNL     1     -10.626  12.614  47.995  1.00  0.00     0.217 HD
ENDBRANCH  31  36
BRANCH  33  38
HETATM   38  O1  UNL     1      -5.526  10.909  47.747  1.00  0.00    -0.283 OA
BRANCH  38  39
HETATM   39  C2  UNL     1      -5.314  10.095  48.883  1.00  0.00     0.355 C 
HETATM   40  C1  UNL     1      -5.665   8.671  48.495  1.00  0.00     0.126 C 
HETATM   41  F1  UNL     1      -6.099  10.418  49.958  1.00  0.00    -0.176 F 
HETATM   42  F2  UNL     1      -3.976  10.064  49.242  1.00  0.00    -0.176 F 
ENDBRANCH  38  39
ENDBRANCH  33  38
BRANCH  34  43
HETATM   43  C27 UNL     1      -4.634  13.563  48.026  1.00  0.00     0.420 C 
HETATM   44  F3  UNL     1      -4.172  13.104  49.248  1.00  0.00    -0.166 F 
HETATM   45  F4  UNL     1      -4.547  14.951  48.051  1.00  0.00    -0.166 F 
HETATM   46  F5  UNL     1      -3.870  13.105  46.993  1.00  0.00    -0.166 F 
ENDBRANCH  34  43
ENDBRANCH   1  30
TORSDOF 14
ENDMDL
MODEL 3
REMARK VINA RESULT: -5.512756802      2.768      4.192
REMARK  14 active torsions:
REMARK  status: ('A' for Active; 'I' for Inactive)
REMARK    1  A    between atoms: C2_2  and  O1_5 
REMARK    2  A    between atoms: O1_5  and  C3_6 
REMARK    3  A    between atoms: C5_8  and  O2_9 
REMARK    4  A    between atoms: C6_11  and  N1_12 
REMARK    5  A    between atoms: C8_14  and  C9_15 
REMARK    6  A    between atoms: C9_15  and  O3_16 
REMARK    7  A    between atoms: C9_15  and  C10_18 
REMARK    8  A    between atoms: C10_18  and  O4_19 
REMARK    9  A    between atoms: O4_19  and  C11_20 
REMARK   10  A    between atoms: C11_20  and  C12_21 
REMARK   11  A    between atoms: C20_29  and  C21_30 
REMARK   12  A    between atoms: C21_30  and  N2_31 
REMARK   13  A    between atoms: C23_36  and  O5_37 
REMARK   14  A    between atoms: C26_42  and  C27_43 
ROOT
HETATM    1  N1  UNL     1      -8.624  14.385  49.981  1.00  0.00    -0.310 N 
HETATM    2  C7  UNL     1      -8.868  15.156  51.028  1.00  0.00     0.111 A 
HETATM    3  C8  UNL     1     -10.054  15.898  50.819  1.00  0.00     0.025 A 
HETATM    4  C23 UNL     1     -10.477  15.474  49.560  1.00  0.00     0.110 A 
HETATM    5  C24 UNL     1      -9.606  14.545  49.042  1.00  0.00     0.120 A 
HETATM    6 BR1  UNL     1      -9.764  13.652  47.366  1.00  0.00    -0.028 Br
ENDROOT
BRANCH   3   7
HETATM    7  C9  UNL     1     -10.489  17.044  51.625  1.00  0.00     0.190 C 
BRANCH   7   8
HETATM    8  O3  UNL     1     -11.946  17.012  51.553  1.00  0.00    -0.388 OA
ATOM      9  H3  UNL     1     -12.203  16.353  52.187  1.00  0.00     0.210 HD
ENDBRANCH   7   8
BRANCH   7  10
HETATM   10  C10 UNL     1     -10.169  18.436  51.069  1.00  0.00     0.091 C 
HETATM   11  C18 UNL     1     -11.267  19.275  51.839  1.00  0.00     0.041 C 
HETATM   12  C19 UNL     1     -10.632  20.537  52.288  1.00  0.00     0.009 C 
HETATM   13  C20 UNL     1      -9.251  20.093  52.640  1.00  0.00     0.014 C 
HETATM   14  C22 UNL     1      -8.929  18.868  51.814  1.00  0.00     0.047 C 
BRANCH  10  15
HETATM   15  O4  UNL     1     -10.171  18.677  49.823  1.00  0.00    -0.377 OA
BRANCH  15  16
HETATM   16  C11 UNL     1     -10.752  19.230  48.835  1.00  0.00     0.173 C 
BRANCH  16  17
HETATM   17  C12 UNL     1     -10.286  20.670  48.512  1.00  0.00     0.009 C 
HETATM   18  C13 UNL     1      -9.032  20.479  47.635  1.00  0.00     0.007 C 
HETATM   19  C14 UNL     1      -9.414  20.367  46.182  1.00  0.00     0.000 C 
HETATM   20  C15 UNL     1      -9.963  21.700  45.685  1.00  0.00     0.000 C 
HETATM   21  C16 UNL     1     -10.531  22.477  46.885  1.00  0.00     0.000 C 
HETATM   22  C17 UNL     1     -11.312  21.437  47.706  1.00  0.00     0.007 C 
ENDBRANCH  16  17
ENDBRANCH  15  16
ENDBRANCH  10  15
BRANCH  13  23
HETATM   23  C21 UNL     1      -9.134  19.770  54.123  1.00  0.00     0.234 C 
BRANCH  23  24
HETATM   24  N2  UNL     1      -8.544  18.505  54.396  1.00  0.00    -0.079 N 
ATOM     25  H23 UNL     1      -8.562  17.915  53.564  1.00  0.00     0.274 HD
ATOM     26  H22 UNL     1      -7.537  18.599  54.520  1.00  0.00     0.274 HD
ATOM     27  H21 UNL     1      -8.957  18.017  55.191  1.00  0.00     0.274 HD
ENDBRANCH  23  24
ENDBRANCH  13  23
ENDBRANCH   7  10
ENDBRANCH   3   7
BRANCH   4  28
HETATM   28  O5  UNL     1     -11.626  15.900  48.869  1.00  0.00    -0.357 OA
ATOM     29  H5  UNL     1     -11.723  15.993  47.929  1.00  0.00     0.217 HD
ENDBRANCH   4  28
BRANCH   1  30
HETATM   30  C6  UNL     1      -7.479  13.567  49.641  1.00  0.00     0.073 A 
HETATM   31  C5  UNL     1      -7.563  12.243  50.132  1.00  0.00     0.095 A 
HETATM   32  C4  UNL     1      -6.539  11.354  49.925  1.00  0.00     0.076 A 
HETATM   33  C3  UNL     1      -5.405  11.717  49.237  1.00  0.00     0.093 A 
HETATM   34  C26 UNL     1      -5.361  13.006  48.772  1.00  0.00     0.083 A 
HETATM   35  C25 UNL     1      -6.382  13.940  48.964  1.00  0.00     0.052 A 
BRANCH  31  36
HETATM   36  O2  UNL     1      -8.657  11.811  50.816  1.00  0.00    -0.358 OA
ATOM     37  H2  UNL     1      -9.506  11.893  50.398  1.00  0.00     0.217 HD
ENDBRANCH  31  36
BRANCH  33  38
HETATM   38  O1  UNL     1      -4.359  10.829  49.022  1.00  0.00    -0.283 OA
BRANCH  38  39
HETATM   39  C2  UNL     1      -3.693  10.139  50.061  1.00  0.00     0.355 C 
HETATM   40  C1  UNL     1      -2.294   9.818  49.570  1.00  0.00     0.126 C 
HETATM   41  F1  UNL     1      -4.276   8.949  50.406  1.00  0.00    -0.176 F 
HETATM   42  F2  UNL     1      -3.520  10.945  51.175  1.00  0.00    -0.176 F 
ENDBRANCH  38  39
ENDBRANCH  33  38
BRANCH  34  43
HETATM   43  C27 UNL     1      -4.159  13.446  48.008  1.00  0.00     0.420 C 
HETATM   44  F3  UNL     1      -4.130  14.822  47.859  1.00  0.00    -0.166 F 
HETATM   45  F4  UNL     1      -4.301  12.901  46.736  1.00  0.00    -0.166 F 
HETATM   46  F5  UNL     1      -3.000  12.972  48.548  1.00  0.00    -0.166 F 
ENDBRANCH  34  43
ENDBRANCH   1  30
TORSDOF 14
ENDMDL
MODEL 4
REMARK VINA RESULT: -5.455624976      1.483      2.301
REMARK  14 active torsions:
REMARK  status: ('A' for Active; 'I' for Inactive)
REMARK    1  A    between atoms: C2_2  and  O1_5 
REMARK    2  A    between atoms: O1_5  and  C3_6 
REMARK    3  A    between atoms: C5_8  and  O2_9 
REMARK    4  A    between atoms: C6_11  and  N1_12 
REMARK    5  A    between atoms: C8_14  and  C9_15 
REMARK    6  A    between atoms: C9_15  and  O3_16 
REMARK    7  A    between atoms: C9_15  and  C10_18 
REMARK    8  A    between atoms: C10_18  and  O4_19 
REMARK    9  A    between atoms: O4_19  and  C11_20 
REMARK   10  A    between atoms: C11_20  and  C12_21 
REMARK   11  A    between atoms: C20_29  and  C21_30 
REMARK   12  A    between atoms: C21_30  and  N2_31 
REMARK   13  A    between atoms: C23_36  and  O5_37 
REMARK   14  A    between atoms: C26_42  and  C27_43 
ROOT
HETATM    1  N1  UNL     1      -9.429  15.087  47.793  1.00  0.00    -0.310 N 
HETATM    2  C7  UNL     1      -9.858  15.964  46.900  1.00  0.00     0.111 A 
HETATM    3  C8  UNL     1     -11.003  16.634  47.389  1.00  0.00     0.025 A 
HETATM    4  C23 UNL     1     -11.187  16.071  48.651  1.00  0.00     0.110 A 
HETATM    5  C24 UNL     1     -10.224  15.123  48.905  1.00  0.00     0.120 A 
HETATM    6 BR1  UNL     1     -10.035  14.097  50.499  1.00  0.00    -0.028 Br
ENDROOT
BRANCH   3   7
HETATM    7  C9  UNL     1     -11.906  17.465  46.585  1.00  0.00     0.190 C 
BRANCH   7   8
HETATM    8  O3  UNL     1     -11.739  16.975  45.220  1.00  0.00    -0.388 OA
ATOM      9  H3  UNL     1     -11.024  17.492  44.866  1.00  0.00     0.210 HD
ENDBRANCH   7   8
BRANCH   7  10
HETATM   10  C10 UNL     1     -11.536  18.946  46.444  1.00  0.00     0.091 C 
HETATM   11  C18 UNL     1     -12.783  19.589  47.172  1.00  0.00     0.041 C 
HETATM   12  C19 UNL     1     -12.283  20.700  48.018  1.00  0.00     0.009 C 
HETATM   13  C20 UNL     1     -10.976  20.168  48.506  1.00  0.00     0.014 C 
HETATM   14  C22 UNL     1     -10.468  19.172  47.488  1.00  0.00     0.047 C 
BRANCH  10  15
HETATM   15  O4  UNL     1     -11.316  19.477  45.313  1.00  0.00    -0.377 OA
BRANCH  15  16
HETATM   16  C11 UNL     1     -11.350  20.526  44.592  1.00  0.00     0.173 C 
BRANCH  16  17
HETATM   17  C12 UNL     1     -10.455  21.693  45.077  1.00  0.00     0.009 C 
HETATM   18  C13 UNL     1      -9.111  21.471  44.354  1.00  0.00     0.007 C 
HETATM   19  C14 UNL     1      -9.117  22.146  43.007  1.00  0.00     0.000 C 
HETATM   20  C15 UNL     1      -9.150  23.660  43.185  1.00  0.00     0.000 C 
HETATM   21  C16 UNL     1      -9.787  23.982  44.548  1.00  0.00     0.000 C 
HETATM   22  C17 UNL     1     -10.999  23.042  44.658  1.00  0.00     0.007 C 
ENDBRANCH  16  17
ENDBRANCH  15  16
ENDBRANCH  10  15
BRANCH  13  23
HETATM   23  C21 UNL     1     -11.123  19.499  49.865  1.00  0.00     0.234 C 
BRANCH  23  24
HETATM   24  N2  UNL     1      -9.982  18.753  50.270  1.00  0.00    -0.079 N 
ATOM     25  H23 UNL     1     -10.250  17.804  50.534  1.00  0.00     0.274 HD
ATOM     26  H22 UNL     1      -9.386  18.548  49.469  1.00  0.00     0.274 HD
ATOM     27  H21 UNL     1      -9.442  19.193  51.015  1.00  0.00     0.274 HD
ENDBRANCH  23  24
ENDBRANCH  13  23
ENDBRANCH   7  10
ENDBRANCH   3   7
BRANCH   4  28
HETATM   28  O5  UNL     1     -12.197  16.390  49.577  1.00  0.00    -0.357 OA
ATOM     29  H5  UNL     1     -12.076  16.680  50.474  1.00  0.00     0.217 HD
ENDBRANCH   4  28
BRANCH   1  30
HETATM   30  C6  UNL     1      -8.408  14.064  47.716  1.00  0.00     0.073 A 
HETATM   31  C5  UNL     1      -8.918  12.777  47.421  1.00  0.00     0.095 A 
HETATM   32  C4  UNL     1      -8.080  11.693  47.350  1.00  0.00     0.076 A 
HETATM   33  C3  UNL     1      -6.727  11.819  47.559  1.00  0.00     0.093 A 
HETATM   34  C26 UNL     1      -6.269  13.082  47.838  1.00  0.00     0.083 A 
HETATM   35  C25 UNL     1      -7.090  14.209  47.920  1.00  0.00     0.052 A 
BRANCH  31  36
HETATM   36  O2  UNL     1     -10.244  12.577  47.196  1.00  0.00    -0.358 OA
ATOM     37  H2  UNL     1     -10.783  13.334  46.998  1.00  0.00     0.217 HD
ENDBRANCH  31  36
BRANCH  33  38
HETATM   38  O1  UNL     1      -5.867  10.731  47.493  1.00  0.00    -0.283 OA
BRANCH  38  39
HETATM   39  C2  UNL     1      -5.731   9.778  48.529  1.00  0.00     0.355 C 
HETATM   40  C1  UNL     1      -6.334   8.477  48.032  1.00  0.00     0.126 C 
HETATM   41  F1  UNL     1      -6.391  10.107  49.683  1.00  0.00    -0.176 F 
HETATM   42  F2  UNL     1      -4.399   9.496  48.786  1.00  0.00    -0.176 F 
ENDBRANCH  38  39
ENDBRANCH  33  38
BRANCH  34  43
HETATM   43  C27 UNL     1      -4.807  13.275  48.059  1.00  0.00     0.420 C 
HETATM   44  F3  UNL     1      -4.380  12.628  49.205  1.00  0.00    -0.166 F 
HETATM   45  F4  UNL     1      -4.636  14.639  48.273  1.00  0.00    -0.166 F 
HETATM   46  F5  UNL     1      -4.067  12.917  46.971  1.00  0.00    -0.166 F 
ENDBRANCH  34  43
ENDBRANCH   1  30
TORSDOF 14
ENDMDL
MODEL 5
REMARK VINA RESULT: -5.424893186      0.731      1.332
REMARK  14 active torsions:
REMARK  status: ('A' for Active; 'I' for Inactive)
REMARK    1  A    between atoms: C2_2  and  O1_5 
REMARK    2  A    between atoms: O1_5  and  C3_6 
REMARK    3  A    between atoms: C5_8  and  O2_9 
REMARK    4  A    between atoms: C6_11  and  N1_12 
REMARK    5  A    between atoms: C8_14  and  C9_15 
REMARK    6  A    between atoms: C9_15  and  O3_16 
REMARK    7  A    between atoms: C9_15  and  C10_18 
REMARK    8  A    between atoms: C10_18  and  O4_19 
REMARK    9  A    between atoms: O4_19  and  C11_20 
REMARK   10  A    between atoms: C11_20  and  C12_21 
REMARK   11  A    between atoms: C20_29  and  C21_30 
REMARK   12  A    between atoms: C21_30  and  N2_31 
REMARK   13  A    between atoms: C23_36  and  O5_37 
REMARK   14  A    between atoms: C26_42  and  C27_43 
ROOT
HETATM    1  N1  UNL     1      -9.338  14.962  47.597  1.00  0.00    -0.310 N 
HETATM    2  C7  UNL     1      -9.882  15.637  46.597  1.00  0.00     0.111 A 
HETATM    3  C8  UNL     1     -11.046  16.306  47.040  1.00  0.00     0.025 A 
HETATM    4  C23 UNL     1     -11.116  15.965  48.391  1.00  0.00     0.110 A 
HETATM    5  C24 UNL     1     -10.071  15.141  48.738  1.00  0.00     0.120 A 
HETATM    6 BR1  UNL     1      -9.715  14.428  50.469  1.00  0.00    -0.028 Br
ENDROOT
BRANCH   3   7
HETATM    7  C9  UNL     1     -12.054  16.920  46.169  1.00  0.00     0.190 C 
BRANCH   7   8
HETATM    8  O3  UNL     1     -11.689  16.489  44.824  1.00  0.00    -0.388 OA
ATOM      9  H3  UNL     1     -11.779  17.269  44.289  1.00  0.00     0.210 HD
ENDBRANCH   7   8
BRANCH   7  10
HETATM   10  C10 UNL     1     -12.012  18.447  46.040  1.00  0.00     0.091 C 
HETATM   11  C18 UNL     1     -12.861  18.613  44.717  1.00  0.00     0.041 C 
HETATM   12  C19 UNL     1     -13.764  19.775  44.908  1.00  0.00     0.009 C 
HETATM   13  C20 UNL     1     -14.130  19.663  46.350  1.00  0.00     0.014 C 
HETATM   14  C22 UNL     1     -13.007  18.943  47.062  1.00  0.00     0.047 C 
BRANCH  10  15
HETATM   15  O4  UNL     1     -10.917  19.086  45.988  1.00  0.00    -0.377 OA
BRANCH  15  16
HETATM   16  C11 UNL     1      -9.933  19.587  46.621  1.00  0.00     0.173 C 
BRANCH  16  17
HETATM   17  C12 UNL     1      -9.756  21.118  46.468  1.00  0.00     0.009 C 
HETATM   18  C13 UNL     1      -9.416  21.317  44.977  1.00  0.00     0.007 C 
HETATM   19  C14 UNL     1     -10.674  21.466  44.162  1.00  0.00     0.000 C 
HETATM   20  C15 UNL     1     -11.372  22.774  44.518  1.00  0.00     0.000 C 
HETATM   21  C16 UNL     1     -10.967  23.175  45.947  1.00  0.00     0.000 C 
HETATM   22  C17 UNL     1     -11.033  21.874  46.765  1.00  0.00     0.007 C 
ENDBRANCH  16  17
ENDBRANCH  15  16
ENDBRANCH  10  15
BRANCH  13  23
HETATM   23  C21 UNL     1     -15.437  18.904  46.533  1.00  0.00     0.234 C 
BRANCH  23  24
HETATM   24  N2  UNL     1     -15.355  17.823  47.454  1.00  0.00    -0.079 N 
ATOM     25  H23 UNL     1     -16.266  17.647  47.880  1.00  0.00     0.274 HD
ATOM     26  H22 UNL     1     -15.223  16.941  46.960  1.00  0.00     0.274 HD
ATOM     27  H21 UNL     1     -14.640  17.941  48.171  1.00  0.00     0.274 HD
ENDBRANCH  23  24
ENDBRANCH  13  23
ENDBRANCH   7  10
ENDBRANCH   3   7
BRANCH   4  28
HETATM   28  O5  UNL     1     -12.094  16.375  49.315  1.00  0.00    -0.357 OA
ATOM     29  H5  UNL     1     -11.958  16.915  50.085  1.00  0.00     0.217 HD
ENDBRANCH   4  28
BRANCH   1  30
HETATM   30  C6  UNL     1      -8.247  14.010  47.628  1.00  0.00     0.073 A 
HETATM   31  C5  UNL     1      -8.665  12.666  47.478  1.00  0.00     0.095 A 
HETATM   32  C4  UNL     1      -7.754  11.641  47.522  1.00  0.00     0.076 A 
HETATM   33  C3  UNL     1      -6.413  11.884  47.711  1.00  0.00     0.093 A 
HETATM   34  C26 UNL     1      -6.046  13.199  47.847  1.00  0.00     0.083 A 
HETATM   35  C25 UNL     1      -6.944  14.268  47.809  1.00  0.00     0.052 A 
BRANCH  31  36
HETATM   36  O2  UNL     1      -9.973  12.350  47.281  1.00  0.00    -0.358 OA
ATOM     37  H2  UNL     1     -10.608  12.656  47.919  1.00  0.00     0.217 HD
ENDBRANCH  31  36
BRANCH  33  38
HETATM   38  O1  UNL     1      -5.479  10.859  47.760  1.00  0.00    -0.283 OA
BRANCH  38  39
HETATM   39  C2  UNL     1      -5.279  10.037  48.894  1.00  0.00     0.355 C 
HETATM   40  C1  UNL     1      -5.664   8.622  48.504  1.00  0.00     0.126 C 
HETATM   41  F1  UNL     1      -6.051  10.375  49.973  1.00  0.00    -0.176 F 
HETATM   42  F2  UNL     1      -3.940   9.975  49.245  1.00  0.00    -0.176 F 
ENDBRANCH  38  39
ENDBRANCH  33  38
BRANCH  34  43
HETATM   43  C27 UNL     1      -4.602  13.517  48.040  1.00  0.00     0.420 C 
HETATM   44  F3  UNL     1      -4.132  13.023  49.245  1.00  0.00    -0.166 F 
HETATM   45  F4  UNL     1      -4.528  14.904  48.111  1.00  0.00    -0.166 F 
HETATM   46  F5  UNL     1      -3.836  13.101  46.992  1.00  0.00    -0.166 F 
ENDBRANCH  34  43
ENDBRANCH   1  30
TORSDOF 14
ENDMDL
