MODEL 1
REMARK VINA RESULT: -6.058030545      0.000      0.000
REMARK  2 active torsions:
REMARK  status: ('A' for Active; 'I' for Inactive)
REMARK    1  A    between atoms: C2_2  and  N1_5 
REMARK    2  A    between atoms: N1_5  and  C5_7 
ROOT
HETATM    1  C5  UNL     1       2.805   0.930  46.242  1.00  0.00     0.695 A 
HETATM    2  N2  UNL     1       2.949   1.814  47.215  1.00  0.00    -0.169 N 
ATOM      3  H2  UNL     1       2.957   1.471  48.176  1.00  0.00     0.186 HD
HETATM    4  C6  UNL     1       3.085   3.139  47.018  1.00  0.00     0.185 A 
HETATM    5  S1  UNL     1       3.275   4.258  48.416  1.00  0.00    -0.012 SA
HETATM    6  N3  UNL     1       3.071   3.573  45.739  1.00  0.00    -0.169 N 
ATOM      7  H3  UNL     1       3.171   4.569  45.543  1.00  0.00     0.186 HD
HETATM    8  C7  UNL     1       2.928   2.710  44.724  1.00  0.00     0.692 A 
HETATM    9  N4  UNL     1       2.914   3.116  43.501  1.00  0.00    -0.234 N 
ATOM     10  H41 UNL     1       2.805   2.459  42.728  1.00  0.00     0.174 HD
ATOM     11  H42 UNL     1       3.015   4.114  43.316  1.00  0.00     0.174 HD
HETATM   12  N5  UNL     1       2.793   1.373  44.973  1.00  0.00    -0.023 N 
ATOM     13  H5  UNL     1       2.685   0.716  44.201  1.00  0.00     0.203 HD
ENDROOT
BRANCH   1  14
HETATM   14  N1  UNL     1       2.681  -0.315  46.517  1.00  0.00    -0.217 N 
ATOM     15  H1  UNL     1       3.501  -0.906  46.385  1.00  0.00     0.178 HD
BRANCH  14  16
HETATM   16  C2  UNL     1       1.498  -0.943  46.989  1.00  0.00     0.036 C 
HETATM   17  C1  UNL     1       1.709  -1.700  48.305  1.00  0.00     0.038 C 
HETATM   18  C3  UNL     1       0.331  -0.030  47.194  1.00  0.00     0.038 C 
HETATM   19  C4  UNL     1       1.052  -2.011  45.982  1.00  0.00     0.038 C 
ENDBRANCH  14  16
ENDBRANCH   1  14
TORSDOF 2
ENDMDL
MODEL 2
REMARK VINA RESULT: -6.038762127      0.042      1.174
REMARK  2 active torsions:
REMARK  status: ('A' for Active; 'I' for Inactive)
REMARK    1  A    between atoms: C2_2  and  N1_5 
REMARK    2  A    between atoms: N1_5  and  C5_7 
ROOT
HETATM    1  C5  UNL     1       2.819   0.928  46.278  1.00  0.00     0.695 A 
HETATM    2  N2  UNL     1       2.956   1.817  47.248  1.00  0.00    -0.169 N 
ATOM      3  H2  UNL     1       2.965   1.477  48.210  1.00  0.00     0.186 HD
HETATM    4  C6  UNL     1       3.084   3.142  47.046  1.00  0.00     0.185 A 
HETATM    5  S1  UNL     1       3.266   4.268  48.438  1.00  0.00    -0.012 SA
HETATM    6  N3  UNL     1       3.069   3.569  45.764  1.00  0.00    -0.169 N 
ATOM      7  H3  UNL     1       3.163   4.565  45.565  1.00  0.00     0.186 HD
HETATM    8  C7  UNL     1       2.932   2.701  44.753  1.00  0.00     0.692 A 
HETATM    9  N4  UNL     1       2.918   3.102  43.529  1.00  0.00    -0.234 N 
ATOM     10  H41 UNL     1       2.813   2.442  42.758  1.00  0.00     0.174 HD
ATOM     11  H42 UNL     1       3.012   4.100  43.339  1.00  0.00     0.174 HD
HETATM   12  N5  UNL     1       2.806   1.365  45.008  1.00  0.00    -0.023 N 
ATOM     13  H5  UNL     1       2.702   0.703  44.238  1.00  0.00     0.203 HD
ENDROOT
BRANCH   1  14
HETATM   14  N1  UNL     1       2.702  -0.317  46.559  1.00  0.00    -0.217 N 
ATOM     15  H1  UNL     1       3.547  -0.887  46.514  1.00  0.00     0.178 HD
BRANCH  14  16
HETATM   16  C2  UNL     1       1.497  -0.972  46.926  1.00  0.00     0.036 C 
HETATM   17  C1  UNL     1       0.330  -0.002  47.137  1.00  0.00     0.038 C 
HETATM   18  C3  UNL     1       1.024  -2.020  45.968  1.00  0.00     0.038 C 
HETATM   19  C4  UNL     1       1.688  -1.666  48.280  1.00  0.00     0.038 C 
ENDBRANCH  14  16
ENDBRANCH   1  14
TORSDOF 2
ENDMDL
MODEL 3
REMARK VINA RESULT: -5.865526108      2.509      3.981
REMARK  2 active torsions:
REMARK  status: ('A' for Active; 'I' for Inactive)
REMARK    1  A    between atoms: C2_2  and  N1_5 
REMARK    2  A    between atoms: N1_5  and  C5_7 
ROOT
HETATM    1  C5  UNL     1       3.534   2.063  46.520  1.00  0.00     0.695 A 
HETATM    2  N2  UNL     1       2.830   0.943  46.488  1.00  0.00    -0.169 N 
ATOM      3  H2  UNL     1       2.807   0.369  47.330  1.00  0.00     0.186 HD
HETATM    4  C6  UNL     1       2.143   0.514  45.412  1.00  0.00     0.185 A 
HETATM    5  S1  UNL     1       1.216  -1.028  45.474  1.00  0.00    -0.012 SA
HETATM    6  N3  UNL     1       2.189   1.290  44.307  1.00  0.00    -0.169 N 
ATOM      7  H3  UNL     1       1.683   1.003  43.469  1.00  0.00     0.186 HD
HETATM    8  C7  UNL     1       2.890   2.431  44.298  1.00  0.00     0.692 A 
HETATM    9  N4  UNL     1       2.937   3.176  43.248  1.00  0.00    -0.234 N 
ATOM     10  H41 UNL     1       3.471   4.045  43.241  1.00  0.00     0.174 HD
ATOM     11  H42 UNL     1       2.428   2.881  42.415  1.00  0.00     0.174 HD
HETATM   12  N5  UNL     1       3.571   2.826  45.415  1.00  0.00    -0.023 N 
ATOM     13  H5  UNL     1       4.105   3.696  45.409  1.00  0.00     0.203 HD
ENDROOT
BRANCH   1  14
HETATM   14  N1  UNL     1       4.161   2.398  47.586  1.00  0.00    -0.217 N 
ATOM     15  H1  UNL     1       5.146   2.144  47.649  1.00  0.00     0.178 HD
BRANCH  14  16
HETATM   16  C2  UNL     1       3.600   3.095  48.689  1.00  0.00     0.036 C 
HETATM   17  C1  UNL     1       3.992   4.576  48.721  1.00  0.00     0.038 C 
HETATM   18  C3  UNL     1       2.109   3.036  48.787  1.00  0.00     0.038 C 
HETATM   19  C4  UNL     1       4.152   2.508  49.995  1.00  0.00     0.038 C 
ENDBRANCH  14  16
ENDBRANCH   1  14
TORSDOF 2
ENDMDL
MODEL 4
REMARK VINA RESULT: -5.784031923      2.497      4.018
REMARK  2 active torsions:
REMARK  status: ('A' for Active; 'I' for Inactive)
REMARK    1  A    between atoms: C2_2  and  N1_5 
REMARK    2  A    between atoms: N1_5  and  C5_7 
ROOT
HETATM    1  C5  UNL     1       3.577   2.022  46.575  1.00  0.00     0.695 A 
HETATM    2  N2  UNL     1       2.897   0.888  46.531  1.00  0.00    -0.169 N 
ATOM      3  H2  UNL     1       2.892   0.301  47.365  1.00  0.00     0.186 HD
HETATM    4  C6  UNL     1       2.212   0.460  45.454  1.00  0.00     0.185 A 
HETATM    5  S1  UNL     1       1.318  -1.102  45.498  1.00  0.00    -0.012 SA
HETATM    6  N3  UNL     1       2.232   1.254  44.360  1.00  0.00    -0.169 N 
ATOM      7  H3  UNL     1       1.726   0.968  43.522  1.00  0.00     0.186 HD
HETATM    8  C7  UNL     1       2.908   2.410  44.364  1.00  0.00     0.692 A 
HETATM    9  N4  UNL     1       2.931   3.172  43.326  1.00  0.00    -0.234 N 
ATOM     10  H41 UNL     1       3.446   4.052  43.328  1.00  0.00     0.174 HD
ATOM     11  H42 UNL     1       2.422   2.878  42.492  1.00  0.00     0.174 HD
HETATM   12  N5  UNL     1       3.589   2.803  45.482  1.00  0.00    -0.023 N 
ATOM     13  H5  UNL     1       4.103   3.684  45.486  1.00  0.00     0.203 HD
ENDROOT
BRANCH   1  14
HETATM   14  N1  UNL     1       4.203   2.355  47.642  1.00  0.00    -0.217 N 
ATOM     15  H1  UNL     1       5.193   2.116  47.696  1.00  0.00     0.178 HD
BRANCH  14  16
HETATM   16  C2  UNL     1       3.638   3.029  48.756  1.00  0.00     0.036 C 
HETATM   17  C1  UNL     1       2.110   2.925  48.804  1.00  0.00     0.038 C 
HETATM   18  C3  UNL     1       4.147   2.589  50.092  1.00  0.00     0.038 C 
HETATM   19  C4  UNL     1       3.932   4.531  48.645  1.00  0.00     0.038 C 
ENDBRANCH  14  16
ENDBRANCH   1  14
TORSDOF 2
ENDMDL
MODEL 5
REMARK VINA RESULT: -5.499236751      1.274      1.744
REMARK  2 active torsions:
REMARK  status: ('A' for Active; 'I' for Inactive)
REMARK    1  A    between atoms: C2_2  and  N1_5 
REMARK    2  A    between atoms: N1_5  and  C5_7 
ROOT
HETATM    1  C5  UNL     1       2.980   1.068  47.329  1.00  0.00     0.695 A 
HETATM    2  N2  UNL     1       3.571   1.567  48.403  1.00  0.00    -0.169 N 
ATOM      3  H2  UNL     1       3.844   0.920  49.143  1.00  0.00     0.186 HD
HETATM    4  C6  UNL     1       3.835   2.876  48.580  1.00  0.00     0.185 A 
HETATM    5  S1  UNL     1       4.644   3.451  50.081  1.00  0.00    -0.012 SA
HETATM    6  N3  UNL     1       3.465   3.715  47.588  1.00  0.00    -0.169 N 
ATOM      7  H3  UNL     1       3.646   4.714  47.680  1.00  0.00     0.186 HD
HETATM    8  C7  UNL     1       2.864   3.250  46.484  1.00  0.00     0.692 A 
HETATM    9  N4  UNL     1       2.510   4.044  45.534  1.00  0.00    -0.234 N 
ATOM     10  H41 UNL     1       2.052   3.690  44.694  1.00  0.00     0.174 HD
ATOM     11  H42 UNL     1       2.695   5.042  45.635  1.00  0.00     0.174 HD
HETATM   12  N5  UNL     1       2.617   1.913  46.349  1.00  0.00    -0.023 N 
ATOM     13  H5  UNL     1       2.161   1.558  45.509  1.00  0.00     0.203 HD
ENDROOT
BRANCH   1  14
HETATM   14  N1  UNL     1       2.765  -0.192  47.241  1.00  0.00    -0.217 N 
ATOM     15  H1  UNL     1       3.580  -0.800  47.159  1.00  0.00     0.178 HD
BRANCH  14  16
HETATM   16  C2  UNL     1       1.490  -0.815  47.245  1.00  0.00     0.036 C 
HETATM   17  C1  UNL     1       0.406   0.047  47.902  1.00  0.00     0.038 C 
HETATM   18  C3  UNL     1       0.972  -1.215  45.900  1.00  0.00     0.038 C 
HETATM   19  C4  UNL     1       1.551  -2.092  48.092  1.00  0.00     0.038 C 
ENDBRANCH  14  16
ENDBRANCH   1  14
TORSDOF 2
ENDMDL
