MODEL 1
REMARK VINA RESULT: -6.148678838      0.000      0.000
REMARK  1 active torsions:
REMARK  status: ('A' for Active; 'I' for Inactive)
REMARK    1  A    between atoms: C2_2  and  N1_4 
REMARK       I    between atoms: N1_4  and  C4_6 
ROOT
HETATM    1  N1  UNL     1       2.535   0.132  47.156  1.00  0.00    -0.222 N 
ATOM      2  H1  UNL     1       2.402  -0.141  46.182  1.00  0.00     0.178 HD
HETATM    3  C4  UNL     1       3.723   0.504  47.503  1.00  0.00     0.685 C 
HETATM    4  N2  UNL     1       4.679   0.495  46.540  1.00  0.00    -0.141 N 
ATOM      5  H2  UNL     1       4.383   0.103  45.646  1.00  0.00     0.189 HD
HETATM    6  C5  UNL     1       5.966   0.924  46.575  1.00  0.00     0.339 C 
HETATM    7  O1  UNL     1       6.698   0.539  45.630  1.00  0.00    -0.246 OA
HETATM    8  N3  UNL     1       6.557   1.714  47.499  1.00  0.00    -0.294 N 
ATOM      9  H3  UNL     1       7.500   2.027  47.269  1.00  0.00     0.171 HD
HETATM   10  C6  UNL     1       6.077   2.145  48.683  1.00  0.00     0.173 C 
HETATM   11  S1  UNL     1       6.948   3.262  49.497  1.00  0.00    -0.054 SA
HETATM   12  C7  UNL     1       4.897   1.713  49.261  1.00  0.00     0.297 C 
HETATM   13  O2  UNL     1       4.681   2.166  50.397  1.00  0.00    -0.264 OA
HETATM   14  N4  UNL     1       3.942   0.873  48.780  1.00  0.00    -0.153 N 
ATOM     15  H4  UNL     1       3.313   0.470  49.474  1.00  0.00     0.187 HD
ENDROOT
BRANCH   1  16
HETATM   16  C2  UNL     1       1.397   0.068  48.005  1.00  0.00     0.091 C 
HETATM   17  C1  UNL     1       1.009  -1.412  48.119  1.00  0.00     0.032 C 
HETATM   18  C3  UNL     1       0.173   0.750  47.408  1.00  0.00     0.032 C 
ENDBRANCH   1  16
TORSDOF 1
ENDMDL
MODEL 2
REMARK VINA RESULT: -5.978439687      3.488      4.770
REMARK  1 active torsions:
REMARK  status: ('A' for Active; 'I' for Inactive)
REMARK    1  A    between atoms: C2_2  and  N1_4 
REMARK       I    between atoms: N1_4  and  C4_6 
ROOT
HETATM    1  N1  UNL     1       3.967   3.542  47.607  1.00  0.00    -0.222 N 
ATOM      2  H1  UNL     1       4.525   4.189  47.050  1.00  0.00     0.178 HD
HETATM    3  C4  UNL     1       3.319   2.626  46.966  1.00  0.00     0.685 C 
HETATM    4  N2  UNL     1       3.440   2.614  45.615  1.00  0.00    -0.141 N 
ATOM      5  H2  UNL     1       3.966   3.396  45.225  1.00  0.00     0.189 HD
HETATM    6  C5  UNL     1       2.974   1.728  44.698  1.00  0.00     0.339 C 
HETATM    7  O1  UNL     1       2.998   2.114  43.503  1.00  0.00    -0.246 OA
HETATM    8  N3  UNL     1       2.490   0.485  44.911  1.00  0.00    -0.294 N 
ATOM      9  H3  UNL     1       2.315  -0.067  44.071  1.00  0.00     0.171 HD
HETATM   10  C6  UNL     1       2.204  -0.130  46.077  1.00  0.00     0.173 C 
HETATM   11  S1  UNL     1       1.823  -1.717  46.028  1.00  0.00    -0.054 SA
HETATM   12  C7  UNL     1       2.212   0.485  47.316  1.00  0.00     0.297 C 
HETATM   13  O2  UNL     1       1.830  -0.234  48.253  1.00  0.00    -0.264 OA
HETATM   14  N4  UNL     1       2.570   1.750  47.664  1.00  0.00    -0.153 N 
ATOM     15  H4  UNL     1       2.228   2.077  48.567  1.00  0.00     0.187 HD
ENDROOT
BRANCH   1  16
HETATM   16  C2  UNL     1       3.976   3.730  49.016  1.00  0.00     0.091 C 
HETATM   17  C1  UNL     1       3.029   4.901  49.315  1.00  0.00     0.032 C 
HETATM   18  C3  UNL     1       5.332   4.177  49.545  1.00  0.00     0.032 C 
ENDBRANCH   1  16
TORSDOF 1
ENDMDL
MODEL 3
REMARK VINA RESULT: -5.853093588      0.930      1.052
REMARK  1 active torsions:
REMARK  status: ('A' for Active; 'I' for Inactive)
REMARK    1  A    between atoms: C2_2  and  N1_4 
REMARK       I    between atoms: N1_4  and  C4_6 
ROOT
HETATM    1  N1  UNL     1       2.517   1.282  47.005  1.00  0.00    -0.222 N 
ATOM      2  H1  UNL     1       2.378   1.146  46.004  1.00  0.00     0.178 HD
HETATM    3  C4  UNL     1       3.714   1.112  47.460  1.00  0.00     0.685 C 
HETATM    4  N2  UNL     1       4.673   0.770  46.562  1.00  0.00    -0.141 N 
ATOM      5  H2  UNL     1       4.331   0.588  45.619  1.00  0.00     0.189 HD
HETATM    6  C5  UNL     1       6.014   0.631  46.719  1.00  0.00     0.339 C 
HETATM    7  O1  UNL     1       6.614   0.037  45.789  1.00  0.00    -0.246 OA
HETATM    8  N3  UNL     1       6.782   1.052  47.747  1.00  0.00    -0.294 N 
ATOM      9  H3  UNL     1       7.789   0.964  47.607  1.00  0.00     0.171 HD
HETATM   10  C6  UNL     1       6.406   1.571  48.934  1.00  0.00     0.173 C 
HETATM   11  S1  UNL     1       7.571   2.181  49.902  1.00  0.00    -0.054 SA
HETATM   12  C7  UNL     1       5.103   1.627  49.394  1.00  0.00     0.297 C 
HETATM   13  O2  UNL     1       4.980   2.059  50.551  1.00  0.00    -0.264 OA
HETATM   14  N4  UNL     1       3.941   1.282  48.777  1.00  0.00    -0.153 N 
ATOM     15  H4  UNL     1       3.139   1.132  49.390  1.00  0.00     0.187 HD
ENDROOT
BRANCH   1  16
HETATM   16  C2  UNL     1       1.374   1.639  47.772  1.00  0.00     0.091 C 
HETATM   17  C1  UNL     1       0.478   0.395  47.843  1.00  0.00     0.032 C 
HETATM   18  C3  UNL     1       0.517   2.702  47.097  1.00  0.00     0.032 C 
ENDBRANCH   1  16
TORSDOF 1
ENDMDL
MODEL 4
REMARK VINA RESULT: -5.830094160      1.594      3.088
REMARK  1 active torsions:
REMARK  status: ('A' for Active; 'I' for Inactive)
REMARK    1  A    between atoms: C2_2  and  N1_4 
REMARK       I    between atoms: N1_4  and  C4_6 
ROOT
HETATM    1  N1  UNL     1       2.192  -0.107  46.923  1.00  0.00    -0.222 N 
ATOM      2  H1  UNL     1       1.417  -0.066  47.585  1.00  0.00     0.178 HD
HETATM    3  C4  UNL     1       3.282   0.500  47.257  1.00  0.00     0.685 C 
HETATM    4  N2  UNL     1       3.292   1.136  48.457  1.00  0.00    -0.141 N 
ATOM      5  H2  UNL     1       2.395   1.149  48.942  1.00  0.00     0.189 HD
HETATM    6  C5  UNL     1       4.304   1.756  49.114  1.00  0.00     0.339 C 
HETATM    7  O1  UNL     1       3.963   2.495  50.071  1.00  0.00    -0.246 OA
HETATM    8  N3  UNL     1       5.630   1.679  48.868  1.00  0.00    -0.294 N 
ATOM      9  H3  UNL     1       6.231   2.120  49.564  1.00  0.00     0.171 HD
HETATM   10  C6  UNL     1       6.271   1.100  47.832  1.00  0.00     0.173 C 
HETATM   11  S1  UNL     1       7.899   0.988  47.911  1.00  0.00    -0.054 SA
HETATM   12  C7  UNL     1       5.652   0.592  46.705  1.00  0.00     0.297 C 
HETATM   13  O2  UNL     1       6.429   0.185  45.826  1.00  0.00    -0.264 OA
HETATM   14  N4  UNL     1       4.330   0.471  46.411  1.00  0.00    -0.153 N 
ATOM     15  H4  UNL     1       4.103   0.341  45.425  1.00  0.00     0.187 HD
ENDROOT
BRANCH   1  16
HETATM   16  C2  UNL     1       1.972  -0.827  45.717  1.00  0.00     0.091 C 
HETATM   17  C1  UNL     1       1.119   0.070  44.810  1.00  0.00     0.032 C 
HETATM   18  C3  UNL     1       1.137  -2.084  45.922  1.00  0.00     0.032 C 
ENDBRANCH   1  16
TORSDOF 1
ENDMDL
MODEL 5
REMARK VINA RESULT: -5.811220267      1.927      3.310
REMARK  1 active torsions:
REMARK  status: ('A' for Active; 'I' for Inactive)
REMARK    1  A    between atoms: C2_2  and  N1_4 
REMARK       I    between atoms: N1_4  and  C4_6 
ROOT
HETATM    1  N1  UNL     1       2.599   1.161  46.422  1.00  0.00    -0.222 N 
ATOM      2  H1  UNL     1       1.779   1.115  47.027  1.00  0.00     0.178 HD
HETATM    3  C4  UNL     1       3.734   1.396  46.990  1.00  0.00     0.685 C 
HETATM    4  N2  UNL     1       3.729   1.562  48.337  1.00  0.00    -0.141 N 
ATOM      5  H2  UNL     1       2.803   1.574  48.763  1.00  0.00     0.189 HD
HETATM    6  C5  UNL     1       4.759   1.713  49.208  1.00  0.00     0.339 C 
HETATM    7  O1  UNL     1       4.450   2.123  50.354  1.00  0.00    -0.246 OA
HETATM    8  N3  UNL     1       6.072   1.476  48.996  1.00  0.00    -0.294 N 
ATOM      9  H3  UNL     1       6.666   1.527  49.825  1.00  0.00     0.171 HD
HETATM   10  C6  UNL     1       6.710   1.184  47.844  1.00  0.00     0.173 C 
HETATM   11  S1  UNL     1       8.281   0.746  47.934  1.00  0.00    -0.054 SA
HETATM   12  C7  UNL     1       6.131   1.225  46.589  1.00  0.00     0.297 C 
HETATM   13  O2  UNL     1       6.914   1.009  45.650  1.00  0.00    -0.264 OA
HETATM   14  N4  UNL     1       4.842   1.465  46.226  1.00  0.00    -0.153 N 
ATOM     15  H4  UNL     1       4.696   1.731  45.253  1.00  0.00     0.187 HD
ENDROOT
BRANCH   1  16
HETATM   16  C2  UNL     1       2.385   0.959  45.031  1.00  0.00     0.091 C 
HETATM   17  C1  UNL     1       1.385   2.030  44.574  1.00  0.00     0.032 C 
HETATM   18  C3  UNL     1       1.706  -0.369  44.722  1.00  0.00     0.032 C 
ENDBRANCH   1  16
TORSDOF 1
ENDMDL
