MODEL 1
REMARK VINA RESULT: -4.851519303      0.000      0.000
REMARK  2 active torsions:
REMARK  status: ('A' for Active; 'I' for Inactive)
REMARK    1  A    between atoms: C3_3  and  S1_4 
REMARK    2  A    between atoms: S1_4  and  C4_5 
ROOT
HETATM    1  C1  UNL     1      21.134  -1.503 -20.483  1.00  0.00     0.015 C 
HETATM    2  C2  UNL     1      22.615  -1.471 -20.283  1.00  0.00     0.057 C 
HETATM    3  C3  UNL     1      23.350  -1.758 -21.587  1.00  0.00     0.271 C 
HETATM    4  N2  UNL     1      24.696  -1.959 -21.075  1.00  0.00    -0.032 N 
ATOM      5  H21 UNL     1      25.204  -1.096 -20.879  1.00  0.00     0.281 HD
ATOM      6  H22 UNL     1      25.358  -2.322 -21.762  1.00  0.00     0.281 HD
HETATM    7  C5  UNL     1      24.504  -2.820 -19.912  1.00  0.00     0.352 A 
HETATM    8  O1  UNL     1      24.321  -2.212 -18.664  1.00  0.00    -0.347 OA
HETATM    9  C6  UNL     1      23.150  -2.567 -19.414  1.00  0.00     0.187 A 
ENDROOT
BRANCH   3  10
HETATM   10  S1  UNL     1      23.192  -0.357 -22.686  1.00  0.00    -0.017 SA
BRANCH  10  11
HETATM   11  C4  UNL     1      21.664  -0.436 -23.538  1.00  0.00     0.135 C 
HETATM   12  N1  UNL     1      20.540  -0.368 -23.807  1.00  0.00    -0.184 NA
ENDBRANCH  10  11
ENDBRANCH   3  10
TORSDOF 2
ENDMDL
MODEL 2
REMARK VINA RESULT: -4.821560616      1.903      2.024
REMARK  2 active torsions:
REMARK  status: ('A' for Active; 'I' for Inactive)
REMARK    1  A    between atoms: C3_3  and  S1_4 
REMARK    2  A    between atoms: S1_4  and  C4_5 
ROOT
HETATM    1  C1  UNL     1      21.084  -1.475 -20.746  1.00  0.00     0.015 C 
HETATM    2  C2  UNL     1      22.542  -1.466 -20.416  1.00  0.00     0.057 C 
HETATM    3  C3  UNL     1      23.384  -1.786 -21.645  1.00  0.00     0.271 C 
HETATM    4  N2  UNL     1      24.676  -2.002 -21.013  1.00  0.00    -0.032 N 
ATOM      5  H21 UNL     1      25.180  -1.145 -20.785  1.00  0.00     0.281 HD
ATOM      6  H22 UNL     1      25.389  -2.387 -21.634  1.00  0.00     0.281 HD
HETATM    7  C5  UNL     1      24.366  -2.842 -19.859  1.00  0.00     0.352 A 
HETATM    8  O1  UNL     1      24.085  -2.210 -18.642  1.00  0.00    -0.347 OA
HETATM    9  C6  UNL     1      22.977  -2.558 -19.487  1.00  0.00     0.187 A 
ENDROOT
BRANCH   3  10
HETATM   10  S1  UNL     1      23.350  -0.400 -22.774  1.00  0.00    -0.017 SA
BRANCH  10  11
HETATM   11  C4  UNL     1      24.653   0.708 -22.398  1.00  0.00     0.135 C 
HETATM   12  N1  UNL     1      25.261   1.661 -22.149  1.00  0.00    -0.184 NA
ENDBRANCH  10  11
ENDBRANCH   3  10
TORSDOF 2
ENDMDL
MODEL 3
REMARK VINA RESULT: -4.819076192      1.506      2.102
REMARK  2 active torsions:
REMARK  status: ('A' for Active; 'I' for Inactive)
REMARK    1  A    between atoms: C3_3  and  S1_4 
REMARK    2  A    between atoms: S1_4  and  C4_5 
ROOT
HETATM    1  C1  UNL     1      25.207  -1.227 -21.961  1.00  0.00     0.015 C 
HETATM    2  C2  UNL     1      24.082  -1.969 -21.315  1.00  0.00     0.057 C 
HETATM    3  C3  UNL     1      22.761  -1.233 -21.505  1.00  0.00     0.271 C 
HETATM    4  N2  UNL     1      21.928  -1.971 -20.568  1.00  0.00    -0.032 N 
ATOM      5  H21 UNL     1      21.582  -2.862 -20.926  1.00  0.00     0.281 HD
ATOM      6  H22 UNL     1      21.011  -1.556 -20.404  1.00  0.00     0.281 HD
HETATM    7  C5  UNL     1      22.760  -2.085 -19.374  1.00  0.00     0.352 A 
HETATM    8  O1  UNL     1      23.578  -3.214 -19.247  1.00  0.00    -0.347 OA
HETATM    9  C6  UNL     1      24.154  -2.030 -19.820  1.00  0.00     0.187 A 
ENDROOT
BRANCH   3  10
HETATM   10  S1  UNL     1      22.236  -1.372 -23.208  1.00  0.00    -0.017 SA
BRANCH  10  11
HETATM   11  C4  UNL     1      21.561   0.150 -23.750  1.00  0.00     0.135 C 
HETATM   12  N1  UNL     1      21.440   1.228 -24.155  1.00  0.00    -0.184 NA
ENDBRANCH  10  11
ENDBRANCH   3  10
TORSDOF 2
ENDMDL
MODEL 4
REMARK VINA RESULT: -4.799106562      1.912      2.171
REMARK  2 active torsions:
REMARK  status: ('A' for Active; 'I' for Inactive)
REMARK    1  A    between atoms: C3_3  and  S1_4 
REMARK    2  A    between atoms: S1_4  and  C4_5 
ROOT
HETATM    1  C1  UNL     1      22.401  -1.956 -20.295  1.00  0.00     0.015 C 
HETATM    2  C2  UNL     1      23.224  -1.123 -21.224  1.00  0.00     0.057 C 
HETATM    3  C3  UNL     1      23.345  -1.784 -22.592  1.00  0.00     0.271 C 
HETATM    4  N2  UNL     1      24.391  -0.960 -23.175  1.00  0.00    -0.032 N 
ATOM      5  H21 UNL     1      24.066  -0.065 -23.541  1.00  0.00     0.281 HD
ATOM      6  H22 UNL     1      24.761  -1.312 -24.059  1.00  0.00     0.281 HD
HETATM    7  C5  UNL     1      25.384  -0.848 -22.110  1.00  0.00     0.352 A 
HETATM    8  O1  UNL     1      25.283   0.233 -21.227  1.00  0.00    -0.347 OA
HETATM    9  C6  UNL     1      24.667  -1.005 -20.842  1.00  0.00     0.187 A 
ENDROOT
BRANCH   3  10
HETATM   10  S1  UNL     1      21.779  -1.683 -23.448  1.00  0.00    -0.017 SA
BRANCH  10  11
HETATM   11  C4  UNL     1      21.368  -0.006 -23.745  1.00  0.00     0.135 C 
HETATM   12  N1  UNL     1      21.409   1.104 -24.070  1.00  0.00    -0.184 NA
ENDBRANCH  10  11
ENDBRANCH   3  10
TORSDOF 2
ENDMDL
MODEL 5
REMARK VINA RESULT: -4.583434455      2.012      2.483
REMARK  2 active torsions:
REMARK  status: ('A' for Active; 'I' for Inactive)
REMARK    1  A    between atoms: C3_3  and  S1_4 
REMARK    2  A    between atoms: S1_4  and  C4_5 
ROOT
HETATM    1  C1  UNL     1      24.975  -0.987 -21.877  1.00  0.00     0.015 C 
HETATM    2  C2  UNL     1      23.745  -1.699 -21.415  1.00  0.00     0.057 C 
HETATM    3  C3  UNL     1      22.506  -0.832 -21.604  1.00  0.00     0.271 C 
HETATM    4  N2  UNL     1      21.543  -1.602 -20.834  1.00  0.00    -0.032 N 
ATOM      5  H21 UNL     1      21.159  -2.408 -21.327  1.00  0.00     0.281 HD
ATOM      6  H22 UNL     1      20.651  -1.129 -20.684  1.00  0.00     0.281 HD
HETATM    7  C5  UNL     1      22.261  -1.934 -19.606  1.00  0.00     0.352 A 
HETATM    8  O1  UNL     1      22.974  -3.138 -19.566  1.00  0.00    -0.347 OA
HETATM    9  C6  UNL     1      23.688  -1.949 -19.939  1.00  0.00     0.187 A 
ENDROOT
BRANCH   3  10
HETATM   10  S1  UNL     1      22.116  -0.714 -23.345  1.00  0.00    -0.017 SA
BRANCH  10  11
HETATM   11  C4  UNL     1      22.596  -2.186 -24.165  1.00  0.00     0.135 C 
HETATM   12  N1  UNL     1      23.013  -2.937 -24.940  1.00  0.00    -0.184 NA
ENDBRANCH  10  11
ENDBRANCH   3  10
TORSDOF 2
ENDMDL
