MODEL 1
REMARK VINA RESULT: -8.895790123      0.000      0.000
REMARK  12 active torsions:
REMARK  status: ('A' for Active; 'I' for Inactive)
REMARK    1  A    between atoms: C2_2  and  C3_3 
REMARK    2  A    between atoms: C3_3  and  C4_4 
REMARK    3  A    between atoms: C4_4  and  C5_5 
REMARK    4  A    between atoms: C7_11  and  S1_12 
REMARK    5  A    between atoms: S1_12  and  C8_13 
REMARK    6  A    between atoms: C8_13  and  C9_14 
REMARK    7  A    between atoms: C9_14  and  C10_15 
REMARK    8  A    between atoms: C10_15  and  C11_16 
REMARK    9  A    between atoms: C11_16  and  N3_17 
REMARK   10  A    between atoms: N4_20  and  C14_21 
REMARK   11  A    between atoms: C14_21  and  C15_23 
REMARK       I    between atoms: N5_28  and  C19_29 
REMARK   12  A    between atoms: C19_29  and  C20_31 
ROOT
HETATM    1  N3  UNL     1      39.231 -24.860 -36.952  1.00  0.00     0.091 N 
HETATM    2  C12 UNL     1      39.195 -26.046 -36.123  1.00  0.00     0.302 C 
HETATM    3  C13 UNL     1      37.835 -26.627 -35.932  1.00  0.00     0.304 C 
HETATM    4  N4  UNL     1      36.927 -25.611 -35.506  1.00  0.00     0.112 N 
HETATM    5  C27 UNL     1      36.881 -24.483 -36.416  1.00  0.00     0.304 C 
HETATM    6  C28 UNL     1      38.248 -23.877 -36.625  1.00  0.00     0.302 C 
ENDROOT
BRANCH   1   7
HETATM    7  C11 UNL     1      40.578 -24.329 -36.820  1.00  0.00     0.272 C 
BRANCH   7   8
HETATM    8  C10 UNL     1      40.691 -22.902 -37.229  1.00  0.00     0.031 C 
BRANCH   8   9
HETATM    9  C9  UNL     1      41.601 -22.800 -38.427  1.00  0.00     0.012 C 
BRANCH   9  10
HETATM   10  C8  UNL     1      40.928 -23.034 -39.740  1.00  0.00     0.082 C 
BRANCH  10  11
HETATM   11  S1  UNL     1      39.461 -21.932 -39.841  1.00  0.00    -0.094 SA
BRANCH  11  12
HETATM   12  C7  UNL     1      37.986 -22.902 -40.163  1.00  0.00     0.148 A 
HETATM   13  N2  UNL     1      36.838 -22.290 -40.515  1.00  0.00    -0.321 N 
HETATM   14  C6  UNL     1      35.700 -22.999 -40.771  1.00  0.00     0.141 A 
ATOM     15  H2  UNL     1      36.819 -21.273 -40.592  1.00  0.00     0.169 HD
HETATM   16  N1  UNL     1      34.460 -22.664 -41.128  1.00  0.00    -0.330 N 
HETATM   17  C30 UNL     1      35.728 -24.371 -40.667  1.00  0.00     0.147 A 
HETATM   18  C5  UNL     1      33.710 -23.764 -41.252  1.00  0.00     0.083 A 
ATOM     19  H1  UNL     1      34.132 -21.710 -41.283  1.00  0.00     0.168 HD
HETATM   20  N8  UNL     1      34.496 -24.809 -40.967  1.00  0.00    -0.338 N 
ATOM     21  H8  UNL     1      34.204 -25.786 -40.976  1.00  0.00     0.167 HD
HETATM   22  C29 UNL     1      36.906 -24.984 -40.307  1.00  0.00     0.278 A 
HETATM   23  N7  UNL     1      38.016 -24.228 -40.062  1.00  0.00    -0.302 N 
HETATM   24  O2  UNL     1      36.938 -26.237 -40.209  1.00  0.00    -0.265 OA
ATOM     25  H7  UNL     1      38.886 -24.690 -39.796  1.00  0.00     0.171 HD
BRANCH  18  26
HETATM   26  C4  UNL     1      32.284 -23.822 -41.629  1.00  0.00     0.076 C 
BRANCH  26  27
HETATM   27  C3  UNL     1      31.764 -22.456 -42.002  1.00  0.00     0.007 C 
BRANCH  27  28
HETATM   28  C2  UNL     1      30.298 -22.309 -41.669  1.00  0.00    -0.004 C 
HETATM   29  C1  UNL     1      30.003 -20.820 -41.449  1.00  0.00     0.005 C 
ENDBRANCH  27  28
ENDBRANCH  26  27
ENDBRANCH  18  26
ENDBRANCH  11  12
ENDBRANCH  10  11
ENDBRANCH   9  10
ENDBRANCH   8   9
ENDBRANCH   7   8
ENDBRANCH   1   7
BRANCH   4  30
HETATM   30  C14 UNL     1      37.013 -25.222 -34.140  1.00  0.00     0.341 C 
HETATM   31 CL1  UNL     1      36.294 -23.636 -33.823  1.00  0.00    -0.090 Cl
BRANCH  30  32
HETATM   32  C15 UNL     1      36.576 -26.206 -33.121  1.00  0.00     0.138 C 
HETATM   33  C16 UNL     1      35.816 -25.439 -32.020  1.00  0.00     0.067 C 
HETATM   34  C17 UNL     1      34.351 -25.715 -32.272  1.00  0.00     0.190 C 
HETATM   35  F1  UNL     1      33.575 -24.587 -32.324  1.00  0.00    -0.248 F 
HETATM   36  C18 UNL     1      34.263 -26.600 -33.469  1.00  0.00     0.163 C 
HETATM   37  N5  UNL     1      35.611 -27.176 -33.499  1.00  0.00    -0.340 N 
HETATM   38  C19 UNL     1      35.833 -28.534 -33.838  1.00  0.00     0.254 C 
HETATM   39  O1  UNL     1      36.993 -28.988 -33.807  1.00  0.00    -0.271 OA
BRANCH  38  40
HETATM   40  C20 UNL     1      34.712 -29.442 -34.234  1.00  0.00     0.317 C 
HETATM   41  C21 UNL     1      34.661 -29.401 -35.772  1.00  0.00     0.085 C 
HETATM   42  C22 UNL     1      34.460 -30.870 -36.192  1.00  0.00     0.206 C 
HETATM   43  F2  UNL     1      35.671 -31.330 -36.618  1.00  0.00    -0.247 F 
HETATM   44  C23 UNL     1      34.109 -31.471 -34.881  1.00  0.00     0.258 C 
HETATM   45  C24 UNL     1      34.511 -32.879 -34.660  1.00  0.00     0.040 C 
HETATM   46  N6  UNL     1      35.107 -30.785 -34.031  1.00  0.00     0.109 N 
HETATM   47  C25 UNL     1      34.774 -32.863 -33.143  1.00  0.00     0.033 C 
HETATM   48  C26 UNL     1      34.820 -31.372 -32.776  1.00  0.00     0.274 C 
ENDBRANCH  38  40
ENDBRANCH  30  32
ENDBRANCH   4  30
TORSDOF 12
ENDMDL
MODEL 2
REMARK VINA RESULT: -8.820062359      3.126      4.505
REMARK  12 active torsions:
REMARK  status: ('A' for Active; 'I' for Inactive)
REMARK    1  A    between atoms: C2_2  and  C3_3 
REMARK    2  A    between atoms: C3_3  and  C4_4 
REMARK    3  A    between atoms: C4_4  and  C5_5 
REMARK    4  A    between atoms: C7_11  and  S1_12 
REMARK    5  A    between atoms: S1_12  and  C8_13 
REMARK    6  A    between atoms: C8_13  and  C9_14 
REMARK    7  A    between atoms: C9_14  and  C10_15 
REMARK    8  A    between atoms: C10_15  and  C11_16 
REMARK    9  A    between atoms: C11_16  and  N3_17 
REMARK   10  A    between atoms: N4_20  and  C14_21 
REMARK   11  A    between atoms: C14_21  and  C15_23 
REMARK       I    between atoms: N5_28  and  C19_29 
REMARK   12  A    between atoms: C19_29  and  C20_31 
ROOT
HETATM    1  N3  UNL     1      38.219 -26.087 -35.900  1.00  0.00     0.091 N 
HETATM    2  C12 UNL     1      38.968 -25.802 -34.694  1.00  0.00     0.302 C 
HETATM    3  C13 UNL     1      38.257 -26.147 -33.428  1.00  0.00     0.304 C 
HETATM    4  N4  UNL     1      36.950 -25.575 -33.431  1.00  0.00     0.112 N 
HETATM    5  C27 UNL     1      36.168 -25.974 -34.586  1.00  0.00     0.304 C 
HETATM    6  C28 UNL     1      36.866 -25.633 -35.880  1.00  0.00     0.302 C 
ENDROOT
BRANCH   1   7
HETATM    7  C11 UNL     1      38.971 -25.472 -36.981  1.00  0.00     0.272 C 
BRANCH   7   8
HETATM    8  C10 UNL     1      39.171 -24.008 -36.801  1.00  0.00     0.031 C 
BRANCH   8   9
HETATM    9  C9  UNL     1      40.134 -23.505 -37.847  1.00  0.00     0.012 C 
BRANCH   9  10
HETATM   10  C8  UNL     1      39.867 -22.113 -38.319  1.00  0.00     0.082 C 
BRANCH  10  11
HETATM   11  S1  UNL     1      39.443 -22.180 -40.105  1.00  0.00    -0.094 SA
BRANCH  11  12
HETATM   12  C7  UNL     1      37.897 -23.061 -40.336  1.00  0.00     0.148 A 
HETATM   13  N2  UNL     1      36.787 -22.392 -40.705  1.00  0.00    -0.321 N 
HETATM   14  C6  UNL     1      35.597 -23.033 -40.894  1.00  0.00     0.141 A 
ATOM     15  H2  UNL     1      36.837 -21.383 -40.847  1.00  0.00     0.169 HD
HETATM   16  N1  UNL     1      34.375 -22.634 -41.248  1.00  0.00    -0.330 N 
HETATM   17  C30 UNL     1      35.531 -24.395 -40.703  1.00  0.00     0.147 A 
HETATM   18  C5  UNL     1      33.547 -23.684 -41.288  1.00  0.00     0.083 A 
ATOM     19  H1  UNL     1      34.110 -21.671 -41.458  1.00  0.00     0.168 HD
HETATM   20  N8  UNL     1      34.265 -24.762 -40.952  1.00  0.00    -0.338 N 
ATOM     21  H8  UNL     1      33.905 -25.715 -40.893  1.00  0.00     0.167 HD
HETATM   22  C29 UNL     1      36.672 -25.066 -40.327  1.00  0.00     0.278 A 
HETATM   23  N7  UNL     1      37.837 -24.377 -40.151  1.00  0.00    -0.302 N 
HETATM   24  O2  UNL     1      36.618 -26.310 -40.150  1.00  0.00    -0.265 OA
ATOM     25  H7  UNL     1      38.679 -24.882 -39.873  1.00  0.00     0.171 HD
BRANCH  18  26
HETATM   26  C4  UNL     1      32.112 -23.664 -41.634  1.00  0.00     0.076 C 
BRANCH  26  27
HETATM   27  C3  UNL     1      31.662 -22.273 -42.007  1.00  0.00     0.007 C 
BRANCH  27  28
HETATM   28  C2  UNL     1      30.198 -22.061 -41.697  1.00  0.00    -0.004 C 
HETATM   29  C1  UNL     1      30.000 -20.592 -41.302  1.00  0.00     0.005 C 
ENDBRANCH  27  28
ENDBRANCH  26  27
ENDBRANCH  18  26
ENDBRANCH  11  12
ENDBRANCH  10  11
ENDBRANCH   9  10
ENDBRANCH   8   9
ENDBRANCH   7   8
ENDBRANCH   1   7
BRANCH   4  30
HETATM   30  C14 UNL     1      36.871 -24.181 -33.159  1.00  0.00     0.341 C 
HETATM   31 CL1  UNL     1      35.611 -23.361 -34.093  1.00  0.00    -0.090 Cl
BRANCH  30  32
HETATM   32  C15 UNL     1      36.821 -23.765 -31.737  1.00  0.00     0.138 C 
HETATM   33  C16 UNL     1      35.515 -22.973 -31.523  1.00  0.00     0.067 C 
HETATM   34  C17 UNL     1      34.576 -23.925 -30.817  1.00  0.00     0.190 C 
HETATM   35  F1  UNL     1      33.345 -24.031 -31.410  1.00  0.00    -0.248 F 
HETATM   36  C18 UNL     1      35.303 -25.214 -30.633  1.00  0.00     0.163 C 
HETATM   37  N5  UNL     1      36.698 -24.776 -30.749  1.00  0.00    -0.340 N 
HETATM   38  C19 UNL     1      37.718 -25.315 -29.927  1.00  0.00     0.254 C 
HETATM   39  O1  UNL     1      38.880 -24.879 -30.033  1.00  0.00    -0.271 OA
BRANCH  38  40
HETATM   40  C20 UNL     1      37.440 -26.396 -28.931  1.00  0.00     0.317 C 
HETATM   41  C21 UNL     1      37.810 -27.717 -29.630  1.00  0.00     0.085 C 
HETATM   42  C22 UNL     1      38.571 -28.522 -28.560  1.00  0.00     0.206 C 
HETATM   43  F2  UNL     1      39.898 -28.427 -28.860  1.00  0.00    -0.247 F 
HETATM   44  C23 UNL     1      38.254 -27.719 -27.353  1.00  0.00     0.258 C 
HETATM   45  C24 UNL     1      39.278 -27.681 -26.283  1.00  0.00     0.040 C 
HETATM   46  N6  UNL     1      38.429 -26.363 -27.919  1.00  0.00     0.109 N 
HETATM   47  C25 UNL     1      39.050 -26.265 -25.724  1.00  0.00     0.033 C 
HETATM   48  C26 UNL     1      38.170 -25.572 -26.774  1.00  0.00     0.274 C 
ENDBRANCH  38  40
ENDBRANCH  30  32
ENDBRANCH   4  30
TORSDOF 12
ENDMDL
MODEL 3
REMARK VINA RESULT: -8.772743633      3.018      5.576
REMARK  12 active torsions:
REMARK  status: ('A' for Active; 'I' for Inactive)
REMARK    1  A    between atoms: C2_2  and  C3_3 
REMARK    2  A    between atoms: C3_3  and  C4_4 
REMARK    3  A    between atoms: C4_4  and  C5_5 
REMARK    4  A    between atoms: C7_11  and  S1_12 
REMARK    5  A    between atoms: S1_12  and  C8_13 
REMARK    6  A    between atoms: C8_13  and  C9_14 
REMARK    7  A    between atoms: C9_14  and  C10_15 
REMARK    8  A    between atoms: C10_15  and  C11_16 
REMARK    9  A    between atoms: C11_16  and  N3_17 
REMARK   10  A    between atoms: N4_20  and  C14_21 
REMARK   11  A    between atoms: C14_21  and  C15_23 
REMARK       I    between atoms: N5_28  and  C19_29 
REMARK   12  A    between atoms: C19_29  and  C20_31 
ROOT
HETATM    1  N3  UNL     1      38.654 -31.629 -37.851  1.00  0.00     0.091 N 
HETATM    2  C12 UNL     1      38.904 -30.375 -37.171  1.00  0.00     0.302 C 
HETATM    3  C13 UNL     1      38.617 -30.396 -35.707  1.00  0.00     0.304 C 
HETATM    4  N4  UNL     1      37.307 -30.914 -35.475  1.00  0.00     0.112 N 
HETATM    5  C27 UNL     1      37.114 -32.228 -36.057  1.00  0.00     0.304 C 
HETATM    6  C28 UNL     1      37.398 -32.232 -37.540  1.00  0.00     0.302 C 
ENDROOT
BRANCH   1   7
HETATM    7  C11 UNL     1      38.765 -31.334 -39.270  1.00  0.00     0.272 C 
BRANCH   7   8
HETATM    8  C10 UNL     1      37.463 -30.984 -39.902  1.00  0.00     0.031 C 
BRANCH   8   9
HETATM    9  C9  UNL     1      37.719 -30.313 -41.228  1.00  0.00     0.012 C 
BRANCH   9  10
HETATM   10  C8  UNL     1      36.936 -29.060 -41.450  1.00  0.00     0.082 C 
BRANCH  10  11
HETATM   11  S1  UNL     1      37.032 -28.041 -39.925  1.00  0.00    -0.094 SA
BRANCH  11  12
HETATM   12  C7  UNL     1      36.434 -26.381 -40.257  1.00  0.00     0.148 A 
HETATM   13  N2  UNL     1      35.138 -26.179 -40.565  1.00  0.00    -0.321 N 
HETATM   14  C6  UNL     1      34.651 -24.929 -40.818  1.00  0.00     0.141 A 
ATOM     15  H2  UNL     1      34.506 -26.978 -40.609  1.00  0.00     0.169 HD
HETATM   16  N1  UNL     1      33.448 -24.450 -41.138  1.00  0.00    -0.330 N 
HETATM   17  C30 UNL     1      35.506 -23.851 -40.757  1.00  0.00     0.147 A 
HETATM   18  C5  UNL     1      33.511 -23.121 -41.280  1.00  0.00     0.083 A 
ATOM     19  H1  UNL     1      32.606 -25.013 -41.257  1.00  0.00     0.168 HD
HETATM   20  N8  UNL     1      34.779 -22.761 -41.045  1.00  0.00    -0.338 N 
ATOM     21  H8  UNL     1      35.136 -21.807 -41.079  1.00  0.00     0.167 HD
HETATM   22  C29 UNL     1      36.826 -24.072 -40.442  1.00  0.00     0.278 A 
HETATM   23  N7  UNL     1      37.263 -25.342 -40.197  1.00  0.00    -0.302 N 
HETATM   24  O2  UNL     1      37.612 -23.092 -40.385  1.00  0.00    -0.265 OA
ATOM     25  H7  UNL     1      38.244 -25.497 -39.963  1.00  0.00     0.171 HD
BRANCH  18  26
HETATM   26  C4  UNL     1      32.398 -22.218 -41.632  1.00  0.00     0.076 C 
BRANCH  26  27
HETATM   27  C3  UNL     1      31.082 -22.954 -41.640  1.00  0.00     0.007 C 
BRANCH  27  28
HETATM   28  C2  UNL     1      29.942 -22.051 -42.050  1.00  0.00    -0.004 C 
HETATM   29  C1  UNL     1      30.114 -20.705 -41.335  1.00  0.00     0.005 C 
ENDBRANCH  27  28
ENDBRANCH  26  27
ENDBRANCH  18  26
ENDBRANCH  11  12
ENDBRANCH  10  11
ENDBRANCH   9  10
ENDBRANCH   8   9
ENDBRANCH   7   8
ENDBRANCH   1   7
BRANCH   4  30
HETATM   30  C14 UNL     1      36.224 -30.026 -35.731  1.00  0.00     0.341 C 
HETATM   31 CL1  UNL     1      35.173 -30.575 -37.045  1.00  0.00    -0.090 Cl
BRANCH  30  32
HETATM   32  C15 UNL     1      35.419 -29.580 -34.570  1.00  0.00     0.138 C 
HETATM   33  C16 UNL     1      35.511 -30.671 -33.484  1.00  0.00     0.067 C 
HETATM   34  C17 UNL     1      36.480 -30.136 -32.454  1.00  0.00     0.190 C 
HETATM   35  F1  UNL     1      37.485 -31.010 -32.131  1.00  0.00    -0.248 F 
HETATM   36  C18 UNL     1      36.933 -28.795 -32.922  1.00  0.00     0.163 C 
HETATM   37  N5  UNL     1      35.857 -28.436 -33.852  1.00  0.00    -0.340 N 
HETATM   38  C19 UNL     1      35.357 -27.114 -33.938  1.00  0.00     0.254 C 
HETATM   39  O1  UNL     1      34.412 -26.869 -34.712  1.00  0.00    -0.271 OA
BRANCH  38  40
HETATM   40  C20 UNL     1      35.932 -25.998 -33.124  1.00  0.00     0.317 C 
HETATM   41  C21 UNL     1      36.879 -25.234 -34.066  1.00  0.00     0.085 C 
HETATM   42  C22 UNL     1      36.593 -23.747 -33.782  1.00  0.00     0.206 C 
HETATM   43  F2  UNL     1      35.813 -23.291 -34.805  1.00  0.00    -0.247 F 
HETATM   44  C23 UNL     1      35.795 -23.868 -32.537  1.00  0.00     0.258 C 
HETATM   45  C24 UNL     1      34.755 -22.839 -32.303  1.00  0.00     0.040 C 
HETATM   46  N6  UNL     1      34.938 -25.014 -32.915  1.00  0.00     0.109 N 
HETATM   47  C25 UNL     1      33.704 -23.668 -31.543  1.00  0.00     0.033 C 
HETATM   48  C26 UNL     1      34.135 -25.126 -31.755  1.00  0.00     0.274 C 
ENDBRANCH  38  40
ENDBRANCH  30  32
ENDBRANCH   4  30
TORSDOF 12
ENDMDL
MODEL 4
REMARK VINA RESULT: -8.578523012      3.809      7.640
REMARK  12 active torsions:
REMARK  status: ('A' for Active; 'I' for Inactive)
REMARK    1  A    between atoms: C2_2  and  C3_3 
REMARK    2  A    between atoms: C3_3  and  C4_4 
REMARK    3  A    between atoms: C4_4  and  C5_5 
REMARK    4  A    between atoms: C7_11  and  S1_12 
REMARK    5  A    between atoms: S1_12  and  C8_13 
REMARK    6  A    between atoms: C8_13  and  C9_14 
REMARK    7  A    between atoms: C9_14  and  C10_15 
REMARK    8  A    between atoms: C10_15  and  C11_16 
REMARK    9  A    between atoms: C11_16  and  N3_17 
REMARK   10  A    between atoms: N4_20  and  C14_21 
REMARK   11  A    between atoms: C14_21  and  C15_23 
REMARK       I    between atoms: N5_28  and  C19_29 
REMARK   12  A    between atoms: C19_29  and  C20_31 
ROOT
HETATM    1  N3  UNL     1      35.632 -23.566 -39.632  1.00  0.00     0.091 N 
HETATM    2  C12 UNL     1      35.996 -24.082 -38.329  1.00  0.00     0.302 C 
HETATM    3  C13 UNL     1      36.686 -23.099 -37.444  1.00  0.00     0.304 C 
HETATM    4  N4  UNL     1      37.779 -22.500 -38.140  1.00  0.00     0.112 N 
HETATM    5  C27 UNL     1      37.374 -21.876 -39.386  1.00  0.00     0.304 C 
HETATM    6  C28 UNL     1      36.673 -22.853 -40.299  1.00  0.00     0.302 C 
ENDROOT
BRANCH   1   7
HETATM    7  C11 UNL     1      35.199 -24.720 -40.403  1.00  0.00     0.272 C 
BRANCH   7   8
HETATM    8  C10 UNL     1      36.325 -25.586 -40.848  1.00  0.00     0.031 C 
BRANCH   8   9
HETATM    9  C9  UNL     1      35.969 -27.030 -40.600  1.00  0.00     0.012 C 
BRANCH   9  10
HETATM   10  C8  UNL     1      37.139 -27.956 -40.533  1.00  0.00     0.082 C 
BRANCH  10  11
HETATM   11  S1  UNL     1      36.846 -29.160 -39.176  1.00  0.00    -0.094 SA
BRANCH  11  12
HETATM   12  C7  UNL     1      36.871 -28.318 -37.592  1.00  0.00     0.148 A 
HETATM   13  N2  UNL     1      35.777 -27.662 -37.158  1.00  0.00    -0.321 N 
HETATM   14  C6  UNL     1      35.762 -27.016 -35.956  1.00  0.00     0.141 A 
ATOM     15  H2  UNL     1      34.940 -27.648 -37.741  1.00  0.00     0.169 HD
HETATM   16  N1  UNL     1      34.845 -26.308 -35.295  1.00  0.00    -0.330 N 
HETATM   17  C30 UNL     1      36.892 -27.036 -35.170  1.00  0.00     0.147 A 
HETATM   18  C5  UNL     1      35.350 -25.884 -34.131  1.00  0.00     0.083 A 
ATOM     19  H1  UNL     1      33.900 -26.117 -35.628  1.00  0.00     0.168 HD
HETATM   20  N8  UNL     1      36.608 -26.335 -34.061  1.00  0.00    -0.338 N 
ATOM     21  H8  UNL     1      37.250 -26.171 -33.287  1.00  0.00     0.167 HD
HETATM   22  C29 UNL     1      38.002 -27.709 -35.624  1.00  0.00     0.278 A 
HETATM   23  N7  UNL     1      37.964 -28.340 -36.834  1.00  0.00    -0.302 N 
HETATM   24  O2  UNL     1      39.037 -27.731 -34.911  1.00  0.00    -0.265 OA
ATOM     25  H7  UNL     1      38.792 -28.838 -37.164  1.00  0.00     0.171 HD
BRANCH  18  26
HETATM   26  C4  UNL     1      34.657 -25.069 -33.114  1.00  0.00     0.076 C 
BRANCH  26  27
HETATM   27  C3  UNL     1      35.146 -23.643 -33.133  1.00  0.00     0.007 C 
BRANCH  27  28
HETATM   28  C2  UNL     1      34.452 -22.803 -32.085  1.00  0.00    -0.004 C 
HETATM   29  C1  UNL     1      33.550 -23.722 -31.253  1.00  0.00     0.005 C 
ENDBRANCH  27  28
ENDBRANCH  26  27
ENDBRANCH  18  26
ENDBRANCH  11  12
ENDBRANCH  10  11
ENDBRANCH   9  10
ENDBRANCH   8   9
ENDBRANCH   7   8
ENDBRANCH   1   7
BRANCH   4  30
HETATM   30  C14 UNL     1      38.954 -23.291 -38.270  1.00  0.00     0.341 C 
HETATM   31 CL1  UNL     1      40.445 -22.346 -38.139  1.00  0.00    -0.090 Cl
BRANCH  30  32
HETATM   32  C15 UNL     1      39.042 -24.521 -37.448  1.00  0.00     0.138 C 
HETATM   33  C16 UNL     1      39.421 -25.687 -38.382  1.00  0.00     0.067 C 
HETATM   34  C17 UNL     1      40.890 -25.947 -38.130  1.00  0.00     0.190 C 
HETATM   35  F1  UNL     1      41.650 -25.984 -39.270  1.00  0.00    -0.248 F 
HETATM   36  C18 UNL     1      41.344 -24.971 -37.098  1.00  0.00     0.163 C 
HETATM   37  N5  UNL     1      40.071 -24.601 -36.472  1.00  0.00    -0.340 N 
HETATM   38  C19 UNL     1      39.958 -24.401 -35.075  1.00  0.00     0.254 C 
HETATM   39  O1  UNL     1      38.845 -24.131 -34.585  1.00  0.00    -0.271 OA
BRANCH  38  40
HETATM   40  C20 UNL     1      41.141 -24.505 -34.165  1.00  0.00     0.317 C 
HETATM   41  C21 UNL     1      41.769 -23.100 -34.128  1.00  0.00     0.085 C 
HETATM   42  C22 UNL     1      42.106 -22.864 -32.644  1.00  0.00     0.206 C 
HETATM   43  F2  UNL     1      41.142 -22.038 -32.144  1.00  0.00    -0.247 F 
HETATM   44  C23 UNL     1      41.934 -24.240 -32.115  1.00  0.00     0.258 C 
HETATM   45  C24 UNL     1      41.471 -24.367 -30.713  1.00  0.00     0.040 C 
HETATM   46  N6  UNL     1      40.692 -24.614 -32.828  1.00  0.00     0.109 N 
HETATM   47  C25 UNL     1      40.656 -25.670 -30.803  1.00  0.00     0.033 C 
HETATM   48  C26 UNL     1      40.481 -25.914 -32.309  1.00  0.00     0.274 C 
ENDBRANCH  38  40
ENDBRANCH  30  32
ENDBRANCH   4  30
TORSDOF 12
ENDMDL
MODEL 5
REMARK VINA RESULT: -8.500551535      3.242      5.914
REMARK  12 active torsions:
REMARK  status: ('A' for Active; 'I' for Inactive)
REMARK    1  A    between atoms: C2_2  and  C3_3 
REMARK    2  A    between atoms: C3_3  and  C4_4 
REMARK    3  A    between atoms: C4_4  and  C5_5 
REMARK    4  A    between atoms: C7_11  and  S1_12 
REMARK    5  A    between atoms: S1_12  and  C8_13 
REMARK    6  A    between atoms: C8_13  and  C9_14 
REMARK    7  A    between atoms: C9_14  and  C10_15 
REMARK    8  A    between atoms: C10_15  and  C11_16 
REMARK    9  A    between atoms: C11_16  and  N3_17 
REMARK   10  A    between atoms: N4_20  and  C14_21 
REMARK   11  A    between atoms: C14_21  and  C15_23 
REMARK       I    between atoms: N5_28  and  C19_29 
REMARK   12  A    between atoms: C19_29  and  C20_31 
ROOT
HETATM    1  N3  UNL     1      36.637 -29.241 -35.196  1.00  0.00     0.091 N 
HETATM    2  C12 UNL     1      37.738 -28.303 -35.261  1.00  0.00     0.302 C 
HETATM    3  C13 UNL     1      37.834 -27.379 -34.094  1.00  0.00     0.304 C 
HETATM    4  N4  UNL     1      36.572 -26.754 -33.862  1.00  0.00     0.112 N 
HETATM    5  C27 UNL     1      35.500 -27.712 -33.673  1.00  0.00     0.304 C 
HETATM    6  C28 UNL     1      35.382 -28.659 -34.843  1.00  0.00     0.302 C 
ENDROOT
BRANCH   1   7
HETATM    7  C11 UNL     1      36.581 -29.872 -36.504  1.00  0.00     0.272 C 
BRANCH   7   8
HETATM    8  C10 UNL     1      36.377 -28.903 -37.616  1.00  0.00     0.031 C 
BRANCH   8   9
HETATM    9  C9  UNL     1      36.763 -29.554 -38.920  1.00  0.00     0.012 C 
BRANCH   9  10
HETATM   10  C8  UNL     1      37.571 -28.689 -39.831  1.00  0.00     0.082 C 
BRANCH  10  11
HETATM   11  S1  UNL     1      37.906 -27.100 -38.972  1.00  0.00    -0.094 SA
BRANCH  11  12
HETATM   12  C7  UNL     1      36.905 -25.792 -39.686  1.00  0.00     0.148 A 
HETATM   13  N2  UNL     1      35.600 -26.005 -39.945  1.00  0.00    -0.321 N 
HETATM   14  C6  UNL     1      34.811 -25.031 -40.483  1.00  0.00     0.141 A 
ATOM     15  H2  UNL     1      35.192 -26.916 -39.733  1.00  0.00     0.169 HD
HETATM   16  N1  UNL     1      33.526 -24.967 -40.833  1.00  0.00    -0.330 N 
HETATM   17  C30 UNL     1      35.363 -23.802 -40.768  1.00  0.00     0.147 A 
HETATM   18  C5  UNL     1      33.248 -23.753 -41.323  1.00  0.00     0.083 A 
ATOM     19  H1  UNL     1      32.854 -25.729 -40.740  1.00  0.00     0.168 HD
HETATM   20  N8  UNL     1      34.382 -23.044 -41.280  1.00  0.00    -0.338 N 
ATOM     21  H8  UNL     1      34.484 -22.078 -41.589  1.00  0.00     0.167 HD
HETATM   22  C29 UNL     1      36.696 -23.598 -40.499  1.00  0.00     0.278 A 
HETATM   23  N7  UNL     1      37.442 -24.606 -39.959  1.00  0.00    -0.302 N 
HETATM   24  O2  UNL     1      37.207 -22.478 -40.757  1.00  0.00    -0.265 OA
ATOM     25  H7  UNL     1      38.430 -24.446 -39.762  1.00  0.00     0.171 HD
BRANCH  18  26
HETATM   26  C4  UNL     1      31.941 -23.282 -41.822  1.00  0.00     0.076 C 
BRANCH  26  27
HETATM   27  C3  UNL     1      31.676 -21.860 -41.395  1.00  0.00     0.007 C 
BRANCH  27  28
HETATM   28  C2  UNL     1      30.238 -21.464 -41.639  1.00  0.00    -0.004 C 
HETATM   29  C1  UNL     1      30.032 -20.046 -41.094  1.00  0.00     0.005 C 
ENDBRANCH  27  28
ENDBRANCH  26  27
ENDBRANCH  18  26
ENDBRANCH  11  12
ENDBRANCH  10  11
ENDBRANCH   9  10
ENDBRANCH   8   9
ENDBRANCH   7   8
ENDBRANCH   1   7
BRANCH   4  30
HETATM   30  C14 UNL     1      36.222 -25.693 -34.744  1.00  0.00     0.341 C 
HETATM   31 CL1  UNL     1      34.482 -25.589 -35.048  1.00  0.00    -0.090 Cl
BRANCH  30  32
HETATM   32  C15 UNL     1      36.783 -24.352 -34.454  1.00  0.00     0.138 C 
HETATM   33  C16 UNL     1      35.626 -23.450 -33.980  1.00  0.00     0.067 C 
HETATM   34  C17 UNL     1      35.780 -23.350 -32.479  1.00  0.00     0.190 C 
HETATM   35  F1  UNL     1      34.634 -23.636 -31.784  1.00  0.00    -0.248 F 
HETATM   36  C18 UNL     1      36.971 -24.162 -32.098  1.00  0.00     0.163 C 
HETATM   37  N5  UNL     1      37.694 -24.228 -33.372  1.00  0.00    -0.340 N 
HETATM   38  C19 UNL     1      39.106 -24.139 -33.433  1.00  0.00     0.254 C 
HETATM   39  O1  UNL     1      39.671 -24.156 -34.543  1.00  0.00    -0.271 OA
BRANCH  38  40
HETATM   40  C20 UNL     1      39.943 -24.026 -32.199  1.00  0.00     0.317 C 
HETATM   41  C21 UNL     1      40.140 -25.464 -31.689  1.00  0.00     0.085 C 
HETATM   42  C22 UNL     1      41.627 -25.537 -31.294  1.00  0.00     0.206 C 
HETATM   43  F2  UNL     1      42.272 -26.202 -32.294  1.00  0.00    -0.247 F 
HETATM   44  C23 UNL     1      41.975 -24.094 -31.322  1.00  0.00     0.258 C 
HETATM   45  C24 UNL     1      43.366 -23.747 -31.698  1.00  0.00     0.040 C 
HETATM   46  N6  UNL     1      41.272 -23.706 -32.565  1.00  0.00     0.109 N 
HETATM   47  C25 UNL     1      43.138 -22.399 -32.405  1.00  0.00     0.033 C 
HETATM   48  C26 UNL     1      41.622 -22.336 -32.639  1.00  0.00     0.274 C 
ENDBRANCH  38  40
ENDBRANCH  30  32
ENDBRANCH   4  30
TORSDOF 12
ENDMDL
