MODEL 1
REMARK VINA RESULT: -9.960576280      0.000      0.000
REMARK  10 active torsions:
REMARK  status: ('A' for Active; 'I' for Inactive)
REMARK    1  A    between atoms: C2_2  and  N1_3 
REMARK    2  A    between atoms: N1_3  and  C3_5 
REMARK    3  A    between atoms: C3_5  and  C4_6 
REMARK    4  A    between atoms: C4_6  and  C5_7 
REMARK    5  A    between atoms: C5_7  and  O1_8 
REMARK       I    between atoms: N2_11  and  C7_12 
REMARK       I    between atoms: C7_12  and  N3_14 
REMARK    6  A    between atoms: N3_14  and  C8_16 
REMARK    7  A    between atoms: C9_19  and  O3_20 
REMARK    8  A    between atoms: C12_24  and  O4_25 
REMARK    9  A    between atoms: O4_25  and  C13_26 
REMARK   10  A    between atoms: C13_26  and  C14_27 
ROOT
HETATM    1  C8  UNL     1      -8.272  55.272  -4.259  1.00  0.00     0.119 A 
HETATM    2  N4  UNL     1      -6.943  55.322  -4.445  1.00  0.00    -0.321 N 
ATOM      3  H4  UNL     1      -6.423  56.126  -4.096  1.00  0.00     0.169 HD
HETATM    4  C9  UNL     1      -6.285  54.344  -5.076  1.00  0.00     0.164 A 
HETATM    5  C11 UNL     1      -7.002  53.244  -5.551  1.00  0.00     0.096 A 
HETATM    6 BR1  UNL     1      -6.070  51.855  -6.450  1.00  0.00    -0.043 Br
HETATM    7  C12 UNL     1      -8.360  53.152  -5.384  1.00  0.00     0.100 A 
HETATM    8  C20 UNL     1      -9.006  54.171  -4.732  1.00  0.00     0.017 A 
HETATM    9  C21 UNL     1     -10.469  54.099  -4.533  1.00  0.00     0.055 C 
ENDROOT
BRANCH   1  10
HETATM   10  N3  UNL     1      -8.952  56.163  -3.671  1.00  0.00    -0.294 N 
HETATM   11  C7  UNL     1      -8.644  56.869  -2.495  1.00  0.00     0.324 C 
HETATM   12  N2  UNL     1      -8.055  58.169  -2.479  1.00  0.00    -0.330 N 
HETATM   13  O2  UNL     1      -8.930  56.267  -1.404  1.00  0.00    -0.247 OA
HETATM   14  C6  UNL     1      -7.805  58.784  -1.214  1.00  0.00     0.158 C 
HETATM   15  C22 UNL     1      -7.727  58.830  -3.699  1.00  0.00     0.153 C 
HETATM   16  C3  UNL     1      -7.297  60.245  -1.405  1.00  0.00     0.045 C 
HETATM   17  C25 UNL     1      -6.081  60.185  -2.339  1.00  0.00     0.059 C 
HETATM   18  C23 UNL     1      -6.374  59.441  -3.601  1.00  0.00     0.052 C 
HETATM   19  C24 UNL     1      -5.347  58.320  -3.831  1.00  0.00     0.034 C 
HETATM   20 CL2  UNL     1      -6.189  60.516  -5.037  1.00  0.00    -0.118 Cl
ATOM     21  H3  UNL     1      -9.843  56.399  -4.108  1.00  0.00     0.172 HD
BRANCH  16  22
HETATM   22  N1  UNL     1      -8.367  60.950  -1.917  1.00  0.00    -0.411 N 
ATOM     23  H1  UNL     1      -9.212  60.413  -2.113  1.00  0.00     0.154 HD
BRANCH  22  24
HETATM   24  C2  UNL     1      -8.419  62.301  -2.195  1.00  0.00     0.110 C 
HETATM   25  C1  UNL     1      -9.680  62.855  -1.469  1.00  0.00     0.026 C 
ENDBRANCH  22  24
ENDBRANCH  16  22
BRANCH  16  26
HETATM   26  C4  UNL     1      -6.886  60.630  -0.024  1.00  0.00     0.058 C 
BRANCH  26  27
HETATM   27  C5  UNL     1      -6.655  59.594   0.991  1.00  0.00     0.166 C 
BRANCH  27  28
HETATM   28  O1  UNL     1      -5.351  59.115   1.076  1.00  0.00    -0.401 OA
ATOM     29  H1  UNL     1      -5.194  58.467   1.754  1.00  0.00     0.209 HD
ENDBRANCH  27  28
ENDBRANCH  26  27
ENDBRANCH  16  26
ENDBRANCH   1  10
BRANCH   4  30
HETATM   30  O3  UNL     1      -4.916  54.430  -5.248  1.00  0.00    -0.340 OA
HETATM   31  C10 UNL     1      -4.013  54.233  -4.147  1.00  0.00     0.211 C 
ENDBRANCH   4  30
BRANCH   7  32
HETATM   32  O4  UNL     1      -9.047  52.063  -5.859  1.00  0.00    -0.344 OA
BRANCH  32  33
HETATM   33  C13 UNL     1      -9.873  52.222  -6.996  1.00  0.00     0.214 C 
BRANCH  33  34
HETATM   34  C14 UNL     1      -9.217  51.720  -8.214  1.00  0.00    -0.034 A 
HETATM   35  C15 UNL     1      -9.421  50.402  -8.565  1.00  0.00     0.011 A 
HETATM   36  C16 UNL     1      -8.821  49.901  -9.700  1.00  0.00     0.024 A 
HETATM   37  C17 UNL     1      -8.028  50.760 -10.448  1.00  0.00     0.034 A 
HETATM   38 CL1  UNL     1      -7.257  50.151 -11.896  1.00  0.00    -0.084 Cl
HETATM   39  C18 UNL     1      -7.829  52.076 -10.093  1.00  0.00     0.024 A 
HETATM   40  C19 UNL     1      -8.433  52.558  -8.961  1.00  0.00     0.011 A 
ENDBRANCH  33  34
ENDBRANCH  32  33
ENDBRANCH   7  32
TORSDOF 10
ENDMDL
MODEL 2
REMARK VINA RESULT: -9.847765701      3.267      9.969
REMARK  10 active torsions:
REMARK  status: ('A' for Active; 'I' for Inactive)
REMARK    1  A    between atoms: C2_2  and  N1_3 
REMARK    2  A    between atoms: N1_3  and  C3_5 
REMARK    3  A    between atoms: C3_5  and  C4_6 
REMARK    4  A    between atoms: C4_6  and  C5_7 
REMARK    5  A    between atoms: C5_7  and  O1_8 
REMARK       I    between atoms: N2_11  and  C7_12 
REMARK       I    between atoms: C7_12  and  N3_14 
REMARK    6  A    between atoms: N3_14  and  C8_16 
REMARK    7  A    between atoms: C9_19  and  O3_20 
REMARK    8  A    between atoms: C12_24  and  O4_25 
REMARK    9  A    between atoms: O4_25  and  C13_26 
REMARK   10  A    between atoms: C13_26  and  C14_27 
ROOT
HETATM    1  C8  UNL     1      -8.340  56.699  -3.957  1.00  0.00     0.119 A 
HETATM    2  N4  UNL     1      -8.197  57.192  -5.198  1.00  0.00    -0.321 N 
ATOM      3  H4  UNL     1      -8.309  56.567  -5.996  1.00  0.00     0.169 HD
HETATM    4  C9  UNL     1      -7.913  58.480  -5.415  1.00  0.00     0.164 A 
HETATM    5  C11 UNL     1      -7.762  59.331  -4.318  1.00  0.00     0.096 A 
HETATM    6 BR1  UNL     1      -7.356  61.162  -4.622  1.00  0.00    -0.043 Br
HETATM    7  C12 UNL     1      -7.898  58.871  -3.034  1.00  0.00     0.100 A 
HETATM    8  C20 UNL     1      -8.190  57.545  -2.845  1.00  0.00     0.017 A 
HETATM    9  C21 UNL     1      -8.346  57.019  -1.472  1.00  0.00     0.055 C 
ENDROOT
BRANCH   1  10
HETATM   10  N3  UNL     1      -8.608  55.492  -3.686  1.00  0.00    -0.294 N 
HETATM   11  C7  UNL     1      -9.051  54.476  -4.551  1.00  0.00     0.324 C 
HETATM   12  N2  UNL     1      -8.190  53.513  -5.156  1.00  0.00    -0.330 N 
HETATM   13  O2  UNL     1     -10.311  54.458  -4.773  1.00  0.00    -0.247 OA
HETATM   14  C6  UNL     1      -8.771  52.522  -6.006  1.00  0.00     0.158 C 
HETATM   15  C22 UNL     1      -6.784  53.547  -4.914  1.00  0.00     0.153 C 
HETATM   16  C3  UNL     1      -7.697  51.485  -6.453  1.00  0.00     0.045 C 
HETATM   17  C25 UNL     1      -6.540  52.270  -7.083  1.00  0.00     0.059 C 
HETATM   18  C23 UNL     1      -6.042  53.360  -6.190  1.00  0.00     0.052 C 
HETATM   19  C24 UNL     1      -6.036  54.712  -6.920  1.00  0.00     0.034 C 
HETATM   20 CL2  UNL     1      -4.316  53.085  -5.745  1.00  0.00    -0.118 Cl
ATOM     21  H3  UNL     1      -8.486  55.221  -2.711  1.00  0.00     0.172 HD
BRANCH  16  22
HETATM   22  N1  UNL     1      -7.350  50.790  -5.312  1.00  0.00    -0.411 N 
ATOM     23  H1  UNL     1      -7.792  51.093  -4.444  1.00  0.00     0.154 HD
BRANCH  22  24
HETATM   24  C2  UNL     1      -6.471  49.730  -5.216  1.00  0.00     0.110 C 
HETATM   25  C1  UNL     1      -7.239  48.579  -4.501  1.00  0.00     0.026 C 
ENDBRANCH  22  24
ENDBRANCH  16  22
BRANCH  16  26
HETATM   26  C4  UNL     1      -8.423  50.689  -7.484  1.00  0.00     0.058 C 
BRANCH  26  27
HETATM   27  C5  UNL     1      -9.421  51.336  -8.345  1.00  0.00     0.166 C 
BRANCH  27  28
HETATM   28  O1  UNL     1     -10.708  50.811  -8.276  1.00  0.00    -0.401 OA
ATOM     29  H1  UNL     1     -10.780  49.877  -8.436  1.00  0.00     0.209 HD
ENDBRANCH  27  28
ENDBRANCH  26  27
ENDBRANCH  16  26
ENDBRANCH   1  10
BRANCH   4  30
HETATM   30  O3  UNL     1      -7.775  58.951  -6.707  1.00  0.00    -0.340 OA
HETATM   31  C10 UNL     1      -6.595  58.673  -7.479  1.00  0.00     0.211 C 
ENDBRANCH   4  30
BRANCH   7  32
HETATM   32  O4  UNL     1      -7.745  59.724  -1.969  1.00  0.00    -0.344 OA
BRANCH  32  33
HETATM   33  C13 UNL     1      -8.899  60.269  -1.361  1.00  0.00     0.214 C 
BRANCH  33  34
HETATM   34  C14 UNL     1      -8.847  61.739  -1.323  1.00  0.00    -0.034 A 
HETATM   35  C15 UNL     1     -10.032  62.435  -1.437  1.00  0.00     0.011 A 
HETATM   36  C16 UNL     1     -10.016  63.813  -1.405  1.00  0.00     0.024 A 
HETATM   37  C17 UNL     1      -8.790  64.445  -1.257  1.00  0.00     0.034 A 
HETATM   38 CL1  UNL     1      -8.741  66.194  -1.210  1.00  0.00    -0.084 Cl
HETATM   39  C18 UNL     1      -7.609  63.744  -1.143  1.00  0.00     0.024 A 
HETATM   40  C19 UNL     1      -7.643  62.374  -1.177  1.00  0.00     0.011 A 
ENDBRANCH  33  34
ENDBRANCH  32  33
ENDBRANCH   7  32
TORSDOF 10
ENDMDL
MODEL 3
REMARK VINA RESULT: -9.834490848      3.221     10.000
REMARK  10 active torsions:
REMARK  status: ('A' for Active; 'I' for Inactive)
REMARK    1  A    between atoms: C2_2  and  N1_3 
REMARK    2  A    between atoms: N1_3  and  C3_5 
REMARK    3  A    between atoms: C3_5  and  C4_6 
REMARK    4  A    between atoms: C4_6  and  C5_7 
REMARK    5  A    between atoms: C5_7  and  O1_8 
REMARK       I    between atoms: N2_11  and  C7_12 
REMARK       I    between atoms: C7_12  and  N3_14 
REMARK    6  A    between atoms: N3_14  and  C8_16 
REMARK    7  A    between atoms: C9_19  and  O3_20 
REMARK    8  A    between atoms: C12_24  and  O4_25 
REMARK    9  A    between atoms: O4_25  and  C13_26 
REMARK   10  A    between atoms: C13_26  and  C14_27 
ROOT
HETATM    1  C8  UNL     1      -8.295  56.417  -4.029  1.00  0.00     0.119 A 
HETATM    2  N4  UNL     1      -8.145  56.944  -5.255  1.00  0.00    -0.321 N 
ATOM      3  H4  UNL     1      -8.275  56.347  -6.072  1.00  0.00     0.169 HD
HETATM    4  C9  UNL     1      -7.829  58.231  -5.432  1.00  0.00     0.164 A 
HETATM    5  C11 UNL     1      -7.652  59.044  -4.310  1.00  0.00     0.096 A 
HETATM    6 BR1  UNL     1      -7.202  60.872  -4.559  1.00  0.00    -0.043 Br
HETATM    7  C12 UNL     1      -7.795  58.547  -3.041  1.00  0.00     0.100 A 
HETATM    8  C20 UNL     1      -8.120  57.223  -2.892  1.00  0.00     0.017 A 
HETATM    9  C21 UNL     1      -8.284  56.659  -1.536  1.00  0.00     0.055 C 
ENDROOT
BRANCH   1  10
HETATM   10  N3  UNL     1      -8.592  55.209  -3.795  1.00  0.00    -0.294 N 
HETATM   11  C7  UNL     1      -9.138  54.254  -4.670  1.00  0.00     0.324 C 
HETATM   12  N2  UNL     1      -8.363  53.290  -5.381  1.00  0.00    -0.330 N 
HETATM   13  O2  UNL     1     -10.410  54.294  -4.799  1.00  0.00    -0.247 OA
HETATM   14  C6  UNL     1      -9.044  52.364  -6.230  1.00  0.00     0.158 C 
HETATM   15  C22 UNL     1      -6.944  53.258  -5.242  1.00  0.00     0.153 C 
HETATM   16  C3  UNL     1      -8.049  51.310  -6.802  1.00  0.00     0.045 C 
HETATM   17  C25 UNL     1      -6.909  52.081  -7.480  1.00  0.00     0.059 C 
HETATM   18  C23 UNL     1      -6.303  53.106  -6.577  1.00  0.00     0.052 C 
HETATM   19  C24 UNL     1      -6.295  54.491  -7.243  1.00  0.00     0.034 C 
HETATM   20 CL2  UNL     1      -4.563  52.746  -6.275  1.00  0.00    -0.118 Cl
ATOM     21  H3  UNL     1      -8.412  54.886  -2.844  1.00  0.00     0.172 HD
BRANCH  16  22
HETATM   22  N1  UNL     1      -7.650  50.548  -5.723  1.00  0.00    -0.411 N 
ATOM     23  H1  UNL     1      -6.794  50.841  -5.252  1.00  0.00     0.154 HD
BRANCH  22  24
HETATM   24  C2  UNL     1      -8.281  49.431  -5.211  1.00  0.00     0.110 C 
HETATM   25  C1  UNL     1      -7.206  48.642  -4.409  1.00  0.00     0.026 C 
ENDBRANCH  22  24
ENDBRANCH  16  22
BRANCH  16  26
HETATM   26  C4  UNL     1      -8.880  50.593  -7.813  1.00  0.00     0.058 C 
BRANCH  26  27
HETATM   27  C5  UNL     1      -8.234  49.829  -8.888  1.00  0.00     0.166 C 
BRANCH  27  28
HETATM   28  O1  UNL     1      -7.469  48.741  -8.478  1.00  0.00    -0.401 OA
ATOM     29  H1  UNL     1      -6.528  48.871  -8.492  1.00  0.00     0.209 HD
ENDBRANCH  27  28
ENDBRANCH  26  27
ENDBRANCH  16  26
ENDBRANCH   1  10
BRANCH   4  30
HETATM   30  O3  UNL     1      -7.684  58.739  -6.710  1.00  0.00    -0.340 OA
HETATM   31  C10 UNL     1      -6.457  58.576  -7.441  1.00  0.00     0.211 C 
ENDBRANCH   4  30
BRANCH   7  32
HETATM   32  O4  UNL     1      -7.617  59.362  -1.950  1.00  0.00    -0.344 OA
BRANCH  32  33
HETATM   33  C13 UNL     1      -8.756  59.912  -1.317  1.00  0.00     0.214 C 
BRANCH  33  34
HETATM   34  C14 UNL     1      -8.710  61.383  -1.306  1.00  0.00    -0.034 A 
HETATM   35  C15 UNL     1      -7.488  61.993  -1.115  1.00  0.00     0.011 A 
HETATM   36  C16 UNL     1      -7.413  63.370  -1.099  1.00  0.00     0.024 A 
HETATM   37  C17 UNL     1      -8.587  64.087  -1.280  1.00  0.00     0.034 A 
HETATM   38 CL1  UNL     1      -8.518  65.836  -1.267  1.00  0.00    -0.084 Cl
HETATM   39  C18 UNL     1      -9.803  63.471  -1.471  1.00  0.00     0.024 A 
HETATM   40  C19 UNL     1      -9.862  62.102  -1.483  1.00  0.00     0.011 A 
ENDBRANCH  33  34
ENDBRANCH  32  33
ENDBRANCH   7  32
TORSDOF 10
ENDMDL
MODEL 4
REMARK VINA RESULT: -9.830869260      1.724      2.186
REMARK  10 active torsions:
REMARK  status: ('A' for Active; 'I' for Inactive)
REMARK    1  A    between atoms: C2_2  and  N1_3 
REMARK    2  A    between atoms: N1_3  and  C3_5 
REMARK    3  A    between atoms: C3_5  and  C4_6 
REMARK    4  A    between atoms: C4_6  and  C5_7 
REMARK    5  A    between atoms: C5_7  and  O1_8 
REMARK       I    between atoms: N2_11  and  C7_12 
REMARK       I    between atoms: C7_12  and  N3_14 
REMARK    6  A    between atoms: N3_14  and  C8_16 
REMARK    7  A    between atoms: C9_19  and  O3_20 
REMARK    8  A    between atoms: C12_24  and  O4_25 
REMARK    9  A    between atoms: O4_25  and  C13_26 
REMARK   10  A    between atoms: C13_26  and  C14_27 
ROOT
HETATM    1  C8  UNL     1      -7.698  53.930  -5.699  1.00  0.00     0.119 A 
HETATM    2  N4  UNL     1      -6.388  54.207  -5.796  1.00  0.00    -0.321 N 
ATOM      3  H4  UNL     1      -6.066  55.158  -5.615  1.00  0.00     0.169 HD
HETATM    4  C9  UNL     1      -5.494  53.268  -6.123  1.00  0.00     0.164 A 
HETATM    5  C11 UNL     1      -5.940  51.968  -6.370  1.00  0.00     0.096 A 
HETATM    6 BR1  UNL     1      -4.673  50.633  -6.838  1.00  0.00    -0.043 Br
HETATM    7  C12 UNL     1      -7.269  51.641  -6.282  1.00  0.00     0.100 A 
HETATM    8  C20 UNL     1      -8.160  52.626  -5.944  1.00  0.00     0.017 A 
HETATM    9  C21 UNL     1      -9.599  52.305  -5.838  1.00  0.00     0.055 C 
ENDROOT
BRANCH   1  10
HETATM   10  N3  UNL     1      -8.593  54.772  -5.393  1.00  0.00    -0.294 N 
HETATM   11  C7  UNL     1      -8.850  55.366  -4.145  1.00  0.00     0.324 C 
HETATM   12  N2  UNL     1      -8.365  56.652  -3.760  1.00  0.00    -0.330 N 
HETATM   13  O2  UNL     1      -9.567  54.671  -3.346  1.00  0.00    -0.247 OA
HETATM   14  C6  UNL     1      -8.712  57.147  -2.465  1.00  0.00     0.158 C 
HETATM   15  C22 UNL     1      -7.556  57.417  -4.651  1.00  0.00     0.153 C 
HETATM   16  C3  UNL     1      -8.213  58.613  -2.287  1.00  0.00     0.045 C 
HETATM   17  C25 UNL     1      -6.711  58.624  -2.596  1.00  0.00     0.059 C 
HETATM   18  C23 UNL     1      -6.400  58.000  -3.918  1.00  0.00     0.052 C 
HETATM   19  C24 UNL     1      -5.344  56.893  -3.771  1.00  0.00     0.034 C 
HETATM   20 CL2  UNL     1      -5.638  59.198  -5.029  1.00  0.00    -0.118 Cl
ATOM     21  H3  UNL     1      -9.209  55.058  -6.154  1.00  0.00     0.172 HD
BRANCH  16  22
HETATM   22  N1  UNL     1      -8.972  59.374  -3.153  1.00  0.00    -0.411 N 
ATOM     23  H1  UNL     1      -9.377  58.885  -3.952  1.00  0.00     0.154 HD
BRANCH  22  24
HETATM   24  C2  UNL     1      -9.242  60.724  -3.059  1.00  0.00     0.110 C 
HETATM   25  C1  UNL     1      -8.480  61.413  -4.228  1.00  0.00     0.026 C 
ENDBRANCH  22  24
ENDBRANCH  16  22
BRANCH  16  26
HETATM   26  C4  UNL     1      -8.459  58.867  -0.838  1.00  0.00     0.058 C 
BRANCH  26  27
HETATM   27  C5  UNL     1      -7.393  58.623   0.143  1.00  0.00     0.166 C 
BRANCH  27  28
HETATM   28  O1  UNL     1      -7.238  57.301   0.547  1.00  0.00    -0.401 OA
ATOM     29  H1  UNL     1      -7.179  57.162   1.486  1.00  0.00     0.209 HD
ENDBRANCH  27  28
ENDBRANCH  26  27
ENDBRANCH  16  26
ENDBRANCH   1  10
BRANCH   4  30
HETATM   30  O3  UNL     1      -4.153  53.591  -6.213  1.00  0.00    -0.340 OA
HETATM   31  C10 UNL     1      -3.307  53.591  -5.051  1.00  0.00     0.211 C 
ENDBRANCH   4  30
BRANCH   7  32
HETATM   32  O4  UNL     1      -7.687  50.357  -6.529  1.00  0.00    -0.344 OA
BRANCH  32  33
HETATM   33  C13 UNL     1      -8.786  50.154  -7.394  1.00  0.00     0.214 C 
BRANCH  33  34
HETATM   34  C14 UNL     1      -8.352  49.659  -8.711  1.00  0.00    -0.034 A 
HETATM   35  C15 UNL     1      -9.080  50.037  -9.819  1.00  0.00     0.011 A 
HETATM   36  C16 UNL     1      -8.699  49.590 -11.066  1.00  0.00     0.024 A 
HETATM   37  C17 UNL     1      -7.584  48.769 -11.149  1.00  0.00     0.034 A 
HETATM   38 CL1  UNL     1      -7.077  48.189 -12.721  1.00  0.00    -0.084 Cl
HETATM   39  C18 UNL     1      -6.861  48.395 -10.038  1.00  0.00     0.024 A 
HETATM   40  C19 UNL     1      -7.253  48.848  -8.806  1.00  0.00     0.011 A 
ENDBRANCH  33  34
ENDBRANCH  32  33
ENDBRANCH   7  32
TORSDOF 10
ENDMDL
MODEL 5
REMARK VINA RESULT: -9.657283136      1.094      1.366
REMARK  10 active torsions:
REMARK  status: ('A' for Active; 'I' for Inactive)
REMARK    1  A    between atoms: C2_2  and  N1_3 
REMARK    2  A    between atoms: N1_3  and  C3_5 
REMARK    3  A    between atoms: C3_5  and  C4_6 
REMARK    4  A    between atoms: C4_6  and  C5_7 
REMARK    5  A    between atoms: C5_7  and  O1_8 
REMARK       I    between atoms: N2_11  and  C7_12 
REMARK       I    between atoms: C7_12  and  N3_14 
REMARK    6  A    between atoms: N3_14  and  C8_16 
REMARK    7  A    between atoms: C9_19  and  O3_20 
REMARK    8  A    between atoms: C12_24  and  O4_25 
REMARK    9  A    between atoms: O4_25  and  C13_26 
REMARK   10  A    between atoms: C13_26  and  C14_27 
ROOT
HETATM    1  C8  UNL     1      -8.299  55.715  -4.516  1.00  0.00     0.119 A 
HETATM    2  N4  UNL     1      -7.126  56.035  -5.086  1.00  0.00    -0.321 N 
ATOM      3  H4  UNL     1      -6.748  56.972  -4.952  1.00  0.00     0.169 HD
HETATM    4  C9  UNL     1      -6.442  55.156  -5.826  1.00  0.00     0.164 A 
HETATM    5  C11 UNL     1      -6.965  53.874  -6.006  1.00  0.00     0.096 A 
HETATM    6 BR1  UNL     1      -5.996  52.624  -7.058  1.00  0.00    -0.043 Br
HETATM    7  C12 UNL     1      -8.159  53.505  -5.442  1.00  0.00     0.100 A 
HETATM    8  C20 UNL     1      -8.837  54.429  -4.689  1.00  0.00     0.017 A 
HETATM    9  C21 UNL     1     -10.125  54.060  -4.066  1.00  0.00     0.055 C 
ENDROOT
BRANCH   1  10
HETATM   10  N3  UNL     1      -8.994  56.500  -3.806  1.00  0.00    -0.294 N 
HETATM   11  C7  UNL     1      -8.724  56.988  -2.516  1.00  0.00     0.324 C 
HETATM   12  N2  UNL     1      -8.127  58.257  -2.254  1.00  0.00    -0.330 N 
HETATM   13  O2  UNL     1      -9.054  56.210  -1.556  1.00  0.00    -0.247 OA
HETATM   14  C6  UNL     1      -7.919  58.641  -0.893  1.00  0.00     0.158 C 
HETATM   15  C22 UNL     1      -7.749  59.115  -3.329  1.00  0.00     0.153 C 
HETATM   16  C3  UNL     1      -7.393  60.105  -0.810  1.00  0.00     0.045 C 
HETATM   17  C25 UNL     1      -6.145  60.192  -1.698  1.00  0.00     0.059 C 
HETATM   18  C23 UNL     1      -6.396  59.682  -3.080  1.00  0.00     0.052 C 
HETATM   19  C24 UNL     1      -5.370  58.604  -3.464  1.00  0.00     0.034 C 
HETATM   20 CL2  UNL     1      -6.151  60.986  -4.300  1.00  0.00    -0.118 Cl
ATOM     21  H3  UNL     1      -9.866  56.821  -4.227  1.00  0.00     0.172 HD
BRANCH  16  22
HETATM   22  N1  UNL     1      -8.438  60.903  -1.229  1.00  0.00    -0.411 N 
ATOM     23  H1  UNL     1      -9.321  60.429  -1.424  1.00  0.00     0.154 HD
BRANCH  22  24
HETATM   24  C2  UNL     1      -8.421  62.271  -1.415  1.00  0.00     0.110 C 
HETATM   25  C1  UNL     1      -9.903  62.746  -1.353  1.00  0.00     0.026 C 
ENDBRANCH  22  24
ENDBRANCH  16  22
BRANCH  16  26
HETATM   26  C4  UNL     1      -7.030  60.240   0.630  1.00  0.00     0.058 C 
BRANCH  26  27
HETATM   27  C5  UNL     1      -5.913  59.464   1.184  1.00  0.00     0.166 C 
BRANCH  27  28
HETATM   28  O1  UNL     1      -5.228  60.061   2.237  1.00  0.00    -0.401 OA
ATOM     29  H1  UNL     1      -4.801  59.464   2.842  1.00  0.00     0.209 HD
ENDBRANCH  27  28
ENDBRANCH  26  27
ENDBRANCH  16  26
ENDBRANCH   1  10
BRANCH   4  30
HETATM   30  O3  UNL     1      -5.237  55.521  -6.396  1.00  0.00    -0.340 OA
HETATM   31  C10 UNL     1      -5.189  56.325  -7.587  1.00  0.00     0.211 C 
ENDBRANCH   4  30
BRANCH   7  32
HETATM   32  O4  UNL     1      -8.656  52.239  -5.632  1.00  0.00    -0.344 OA
BRANCH  32  33
HETATM   33  C13 UNL     1      -9.508  52.001  -6.736  1.00  0.00     0.214 C 
BRANCH  33  34
HETATM   34  C14 UNL     1      -8.907  51.053  -7.687  1.00  0.00    -0.034 A 
HETATM   35  C15 UNL     1      -8.951  51.364  -9.030  1.00  0.00     0.011 A 
HETATM   36  C16 UNL     1      -8.396  50.497  -9.946  1.00  0.00     0.024 A 
HETATM   37  C17 UNL     1      -7.811  49.333  -9.468  1.00  0.00     0.034 A 
HETATM   38 CL1  UNL     1      -7.097  48.215 -10.610  1.00  0.00    -0.084 Cl
HETATM   39  C18 UNL     1      -7.770  49.028  -8.125  1.00  0.00     0.024 A 
HETATM   40  C19 UNL     1      -8.327  49.901  -7.227  1.00  0.00     0.011 A 
ENDBRANCH  33  34
ENDBRANCH  32  33
ENDBRANCH   7  32
TORSDOF 10
ENDMDL
