MODEL 1
REMARK VINA RESULT: -8.548501887      0.000      0.000
REMARK  3 active torsions:
REMARK  status: ('A' for Active; 'I' for Inactive)
REMARK    1  A    between atoms: C4_4  and  O1_5 
REMARK    2  A    between atoms: O1_5  and  C5_6 
REMARK    3  A    between atoms: C10_11  and  C11_12 
ROOT
HETATM    1  C5  UNL     1     -18.638  35.237 -29.849  1.00  0.00     0.091 A 
HETATM    2  C6  UNL     1     -17.652  35.272 -30.814  1.00  0.00     0.038 A 
HETATM    3  C7  UNL     1     -17.616  36.277 -31.747  1.00  0.00     0.003 A 
HETATM    4  C8  UNL     1     -18.548  37.292 -31.772  1.00  0.00     0.001 A 
HETATM    5  C9  UNL     1     -19.530  37.247 -30.805  1.00  0.00     0.018 A 
HETATM    6  C10 UNL     1     -19.584  36.230 -29.844  1.00  0.00     0.041 A 
ENDROOT
BRANCH   1   7
HETATM    7  O1  UNL     1     -18.629  34.204 -28.932  1.00  0.00    -0.293 OA
BRANCH   7   8
HETATM    8  C4  UNL     1     -17.629  33.290 -28.724  1.00  0.00     0.147 A 
HETATM    9  C3  UNL     1     -17.479  32.108 -29.404  1.00  0.00     0.056 A 
HETATM   10  C2  UNL     1     -16.444  31.229 -29.136  1.00  0.00     0.006 A 
HETATM   11  C1  UNL     1     -15.533  31.547 -28.158  1.00  0.00     0.017 A 
HETATM   12  C14 UNL     1     -15.694  32.738 -27.482  1.00  0.00     0.090 A 
HETATM   13  N3  UNL     1     -16.715  33.563 -27.775  1.00  0.00    -0.347 N 
ATOM     14  H3  UNL     1     -16.801  34.434 -27.253  1.00  0.00     0.167 HD
ENDBRANCH   7   8
ENDBRANCH   1   7
BRANCH   6  15
HETATM   15  C11 UNL     1     -20.720  36.257 -28.924  1.00  0.00     0.110 C 
HETATM   16  N1  UNL     1     -21.403  37.283 -28.543  1.00  0.00    -0.374 N 
HETATM   17  C12 UNL     1     -22.456  36.913 -27.622  1.00  0.00     0.141 C 
ATOM     18  H1  UNL     1     -21.223  38.238 -28.853  1.00  0.00     0.161 HD
HETATM   19  C13 UNL     1     -22.560  35.420 -27.848  1.00  0.00     0.141 C 
HETATM   20  N2  UNL     1     -21.240  35.076 -28.298  1.00  0.00    -0.374 N 
ATOM     21  H2  UNL     1     -20.769  34.177 -28.195  1.00  0.00     0.161 HD
ENDBRANCH   6  15
TORSDOF 3
ENDMDL
MODEL 2
REMARK VINA RESULT: -8.486105639      2.883      3.899
REMARK  3 active torsions:
REMARK  status: ('A' for Active; 'I' for Inactive)
REMARK    1  A    between atoms: C4_4  and  O1_5 
REMARK    2  A    between atoms: O1_5  and  C5_6 
REMARK    3  A    between atoms: C10_11  and  C11_12 
ROOT
HETATM    1  C5  UNL     1     -18.051  34.049 -30.387  1.00  0.00     0.091 A 
HETATM    2  C6  UNL     1     -18.612  32.809 -30.152  1.00  0.00     0.038 A 
HETATM    3  C7  UNL     1     -19.622  32.333 -30.949  1.00  0.00     0.003 A 
HETATM    4  C8  UNL     1     -20.124  33.053 -32.012  1.00  0.00     0.001 A 
HETATM    5  C9  UNL     1     -19.558  34.291 -32.235  1.00  0.00     0.018 A 
HETATM    6  C10 UNL     1     -18.527  34.795 -31.433  1.00  0.00     0.041 A 
ENDROOT
BRANCH   1   7
HETATM    7  O1  UNL     1     -17.036  34.482 -29.555  1.00  0.00    -0.293 OA
BRANCH   7   8
HETATM    8  C4  UNL     1     -16.030  33.725 -29.013  1.00  0.00     0.147 A 
HETATM    9  C3  UNL     1     -16.078  33.095 -27.795  1.00  0.00     0.056 A 
HETATM   10  C2  UNL     1     -15.018  32.349 -27.309  1.00  0.00     0.006 A 
HETATM   11  C1  UNL     1     -13.878  32.233 -28.067  1.00  0.00     0.017 A 
HETATM   12  C14 UNL     1     -13.842  32.871 -29.289  1.00  0.00     0.090 A 
HETATM   13  N3  UNL     1     -14.896  33.585 -29.723  1.00  0.00    -0.347 N 
ATOM     14  H3  UNL     1     -14.832  34.043 -30.632  1.00  0.00     0.167 HD
ENDBRANCH   7   8
ENDBRANCH   1   7
BRANCH   6  15
HETATM   15  C11 UNL     1     -18.069  36.151 -31.731  1.00  0.00     0.110 C 
HETATM   16  N1  UNL     1     -16.911  36.517 -32.165  1.00  0.00    -0.374 N 
HETATM   17  C12 UNL     1     -16.832  37.950 -32.341  1.00  0.00     0.141 C 
ATOM     18  H1  UNL     1     -16.144  35.872 -32.362  1.00  0.00     0.161 HD
HETATM   19  C13 UNL     1     -18.292  38.347 -32.343  1.00  0.00     0.141 C 
HETATM   20  N2  UNL     1     -18.904  37.306 -31.564  1.00  0.00    -0.374 N 
ATOM     21  H2  UNL     1     -19.755  37.374 -31.007  1.00  0.00     0.161 HD
ENDBRANCH   6  15
TORSDOF 3
ENDMDL
MODEL 3
REMARK VINA RESULT: -8.424818405      1.007      1.473
REMARK  3 active torsions:
REMARK  status: ('A' for Active; 'I' for Inactive)
REMARK    1  A    between atoms: C4_4  and  O1_5 
REMARK    2  A    between atoms: O1_5  and  C5_6 
REMARK    3  A    between atoms: C10_11  and  C11_12 
ROOT
HETATM    1  C5  UNL     1     -18.573  35.475 -29.837  1.00  0.00     0.091 A 
HETATM    2  C6  UNL     1     -17.592  35.560 -30.805  1.00  0.00     0.038 A 
HETATM    3  C7  UNL     1     -17.632  36.543 -31.761  1.00  0.00     0.003 A 
HETATM    4  C8  UNL     1     -18.636  37.486 -31.808  1.00  0.00     0.001 A 
HETATM    5  C9  UNL     1     -19.612  37.390 -30.838  1.00  0.00     0.018 A 
HETATM    6  C10 UNL     1     -19.590  36.395 -29.853  1.00  0.00     0.041 A 
ENDROOT
BRANCH   1   7
HETATM    7  O1  UNL     1     -18.486  34.468 -28.896  1.00  0.00    -0.293 OA
BRANCH   7   8
HETATM    8  C4  UNL     1     -18.160  33.154 -29.117  1.00  0.00     0.147 A 
HETATM    9  C3  UNL     1     -16.920  32.601 -28.923  1.00  0.00     0.056 A 
HETATM   10  C2  UNL     1     -16.662  31.264 -29.174  1.00  0.00     0.006 A 
HETATM   11  C1  UNL     1     -17.679  30.461 -29.631  1.00  0.00     0.017 A 
HETATM   12  C14 UNL     1     -18.921  31.029 -29.822  1.00  0.00     0.090 A 
HETATM   13  N3  UNL     1     -19.127  32.333 -29.566  1.00  0.00    -0.347 N 
ATOM     14  H3  UNL     1     -20.059  32.717 -29.719  1.00  0.00     0.167 HD
ENDBRANCH   7   8
ENDBRANCH   1   7
BRANCH   6  15
HETATM   15  C11 UNL     1     -20.724  36.359 -28.932  1.00  0.00     0.110 C 
HETATM   16  N1  UNL     1     -21.437  37.351 -28.517  1.00  0.00    -0.374 N 
HETATM   17  C12 UNL     1     -22.476  36.921 -27.608  1.00  0.00     0.141 C 
ATOM     18  H1  UNL     1     -21.286  38.321 -28.797  1.00  0.00     0.161 HD
HETATM   19  C13 UNL     1     -22.536  35.433 -27.881  1.00  0.00     0.141 C 
HETATM   20  N2  UNL     1     -21.208  35.143 -28.343  1.00  0.00    -0.374 N 
ATOM     21  H2  UNL     1     -20.711  34.256 -28.269  1.00  0.00     0.161 HD
ENDBRANCH   6  15
TORSDOF 3
ENDMDL
MODEL 4
REMARK VINA RESULT: -8.299163466      2.696      3.832
REMARK  3 active torsions:
REMARK  status: ('A' for Active; 'I' for Inactive)
REMARK    1  A    between atoms: C4_4  and  O1_5 
REMARK    2  A    between atoms: O1_5  and  C5_6 
REMARK    3  A    between atoms: C10_11  and  C11_12 
ROOT
HETATM    1  C5  UNL     1     -18.168  33.579 -30.022  1.00  0.00     0.091 A 
HETATM    2  C6  UNL     1     -18.678  32.322 -29.765  1.00  0.00     0.038 A 
HETATM    3  C7  UNL     1     -19.623  31.765 -30.589  1.00  0.00     0.003 A 
HETATM    4  C8  UNL     1     -20.108  32.418 -31.702  1.00  0.00     0.001 A 
HETATM    5  C9  UNL     1     -19.593  33.674 -31.948  1.00  0.00     0.018 A 
HETATM    6  C10 UNL     1     -18.629  34.260 -31.119  1.00  0.00     0.041 A 
ENDROOT
BRANCH   1   7
HETATM    7  O1  UNL     1     -17.218  34.094 -29.162  1.00  0.00    -0.293 OA
BRANCH   7   8
HETATM    8  C4  UNL     1     -16.073  33.478 -28.728  1.00  0.00     0.147 A 
HETATM    9  C3  UNL     1     -14.889  33.423 -29.420  1.00  0.00     0.056 A 
HETATM   10  C2  UNL     1     -13.772  32.776 -28.919  1.00  0.00     0.006 A 
HETATM   11  C1  UNL     1     -13.847  32.169 -27.689  1.00  0.00     0.017 A 
HETATM   12  C14 UNL     1     -15.042  32.231 -27.004  1.00  0.00     0.090 A 
HETATM   13  N3  UNL     1     -16.103  32.870 -27.528  1.00  0.00    -0.347 N 
ATOM     14  H3  UNL     1     -16.969  32.895 -26.992  1.00  0.00     0.167 HD
ENDBRANCH   7   8
ENDBRANCH   1   7
BRANCH   6  15
HETATM   15  C11 UNL     1     -18.224  35.626 -31.449  1.00  0.00     0.110 C 
HETATM   16  N1  UNL     1     -17.099  36.019 -31.943  1.00  0.00    -0.374 N 
HETATM   17  C12 UNL     1     -17.069  37.452 -32.133  1.00  0.00     0.141 C 
ATOM     18  H1  UNL     1     -16.325  35.395 -32.172  1.00  0.00     0.161 HD
HETATM   19  C13 UNL     1     -18.538  37.809 -32.066  1.00  0.00     0.141 C 
HETATM   20  N2  UNL     1     -19.081  36.759 -31.250  1.00  0.00    -0.374 N 
ATOM     21  H2  UNL     1     -19.906  36.808 -30.653  1.00  0.00     0.161 HD
ENDBRANCH   6  15
TORSDOF 3
ENDMDL
MODEL 5
REMARK VINA RESULT: -8.187499414      2.774      3.961
REMARK  3 active torsions:
REMARK  status: ('A' for Active; 'I' for Inactive)
REMARK    1  A    between atoms: C4_4  and  O1_5 
REMARK    2  A    between atoms: O1_5  and  C5_6 
REMARK    3  A    between atoms: C10_11  and  C11_12 
ROOT
HETATM    1  C5  UNL     1     -18.096  33.366 -30.049  1.00  0.00     0.091 A 
HETATM    2  C6  UNL     1     -18.474  32.092 -29.674  1.00  0.00     0.038 A 
HETATM    3  C7  UNL     1     -19.454  31.419 -30.359  1.00  0.00     0.003 A 
HETATM    4  C8  UNL     1     -20.103  31.968 -31.444  1.00  0.00     0.001 A 
HETATM    5  C9  UNL     1     -19.719  33.241 -31.809  1.00  0.00     0.018 A 
HETATM    6  C10 UNL     1     -18.722  33.945 -31.122  1.00  0.00     0.041 A 
ENDROOT
BRANCH   1   7
HETATM    7  O1  UNL     1     -17.104  34.000 -29.326  1.00  0.00    -0.293 OA
BRANCH   7   8
HETATM    8  C4  UNL     1     -15.932  33.453 -28.872  1.00  0.00     0.147 A 
HETATM    9  C3  UNL     1     -15.762  32.832 -27.660  1.00  0.00     0.056 A 
HETATM   10  C2  UNL     1     -14.543  32.307 -27.266  1.00  0.00     0.006 A 
HETATM   11  C1  UNL     1     -13.466  32.406 -28.114  1.00  0.00     0.017 A 
HETATM   12  C14 UNL     1     -13.650  33.032 -29.328  1.00  0.00     0.090 A 
HETATM   13  N3  UNL     1     -14.852  33.529 -29.671  1.00  0.00    -0.347 N 
ATOM     14  H3  UNL     1     -14.949  33.985 -30.578  1.00  0.00     0.167 HD
ENDBRANCH   7   8
ENDBRANCH   1   7
BRANCH   6  15
HETATM   15  C11 UNL     1     -18.464  35.315 -31.563  1.00  0.00     0.110 C 
HETATM   16  N1  UNL     1     -19.299  36.296 -31.623  1.00  0.00    -0.374 N 
HETATM   17  C12 UNL     1     -18.672  37.504 -32.113  1.00  0.00     0.141 C 
ATOM     18  H1  UNL     1     -20.282  36.229 -31.356  1.00  0.00     0.161 HD
HETATM   19  C13 UNL     1     -17.202  37.190 -31.933  1.00  0.00     0.141 C 
HETATM   20  N2  UNL     1     -17.174  35.756 -32.010  1.00  0.00    -0.374 N 
ATOM     21  H2  UNL     1     -16.397  35.171 -32.318  1.00  0.00     0.161 HD
ENDBRANCH   6  15
TORSDOF 3
ENDMDL
