MODEL 1
REMARK VINA RESULT: -8.073647288      0.000      0.000
REMARK  3 active torsions:
REMARK  status: ('A' for Active; 'I' for Inactive)
REMARK    1  A    between atoms: C6_7  and  O1_8 
REMARK    2  A    between atoms: O1_8  and  C7_9 
REMARK    3  A    between atoms: C7_9  and  C8_10 
ROOT
HETATM    1  N1  UNL     1     -20.317  34.025 -31.697  1.00  0.00    -0.099 NA
HETATM    2  C1  UNL     1     -19.380  33.984 -30.639  1.00  0.00     0.082 A 
HETATM    3  C2  UNL     1     -18.528  32.892 -30.556  1.00  0.00     0.069 A 
HETATM    4  C3  UNL     1     -17.622  32.871 -29.518  1.00  0.00     0.107 A 
HETATM    5  C4  UNL     1     -17.572  33.901 -28.603  1.00  0.00     0.107 A 
HETATM    6  C5  UNL     1     -18.435  34.992 -28.699  1.00  0.00     0.078 A 
HETATM    7  C6  UNL     1     -19.340  35.017 -29.733  1.00  0.00     0.096 A 
HETATM    8  O2  UNL     1     -16.564  33.610 -27.671  1.00  0.00    -0.323 OA
HETATM    9  C14 UNL     1     -16.107  32.314 -27.947  1.00  0.00     0.352 C 
HETATM   10  O3  UNL     1     -16.657  31.930 -29.178  1.00  0.00    -0.323 OA
ENDROOT
BRANCH   7  11
HETATM   11  O1  UNL     1     -20.222  36.077 -29.878  1.00  0.00    -0.345 OA
BRANCH  11  12
HETATM   12  C7  UNL     1     -20.615  36.804 -28.748  1.00  0.00     0.214 C 
BRANCH  12  13
HETATM   13  C8  UNL     1     -20.417  38.264 -29.020  1.00  0.00    -0.034 A 
HETATM   14  C9  UNL     1     -20.904  39.226 -28.151  1.00  0.00     0.009 A 
HETATM   15  C10 UNL     1     -20.742  40.579 -28.365  1.00  0.00     0.001 A 
HETATM   16  C11 UNL     1     -20.066  41.005 -29.492  1.00  0.00     0.000 A 
HETATM   17  C12 UNL     1     -19.572  40.046 -30.371  1.00  0.00     0.001 A 
HETATM   18  C13 UNL     1     -19.741  38.701 -30.144  1.00  0.00     0.009 A 
ENDBRANCH  12  13
ENDBRANCH  11  12
ENDBRANCH   7  11
TORSDOF 3
ENDMDL
MODEL 2
REMARK VINA RESULT: -8.034861339      2.399      6.616
REMARK  3 active torsions:
REMARK  status: ('A' for Active; 'I' for Inactive)
REMARK    1  A    between atoms: C6_7  and  O1_8 
REMARK    2  A    between atoms: O1_8  and  C7_9 
REMARK    3  A    between atoms: C7_9  and  C8_10 
ROOT
HETATM    1  N1  UNL     1     -17.541  36.333 -31.326  1.00  0.00    -0.099 NA
HETATM    2  C1  UNL     1     -18.580  35.945 -30.449  1.00  0.00     0.082 A 
HETATM    3  C2  UNL     1     -19.622  36.834 -30.227  1.00  0.00     0.069 A 
HETATM    4  C3  UNL     1     -20.624  36.436 -29.369  1.00  0.00     0.107 A 
HETATM    5  C4  UNL     1     -20.584  35.200 -28.761  1.00  0.00     0.107 A 
HETATM    6  C5  UNL     1     -19.530  34.316 -28.993  1.00  0.00     0.078 A 
HETATM    7  C6  UNL     1     -18.529  34.709 -29.848  1.00  0.00     0.096 A 
HETATM    8  O2  UNL     1     -21.724  35.073 -27.952  1.00  0.00    -0.323 OA
HETATM    9  C14 UNL     1     -22.378  36.312 -27.961  1.00  0.00     0.352 C 
HETATM   10  O3  UNL     1     -21.777  37.095 -28.956  1.00  0.00    -0.323 OA
ENDROOT
BRANCH   7  11
HETATM   11  O1  UNL     1     -17.457  33.871 -30.117  1.00  0.00    -0.345 OA
BRANCH  11  12
HETATM   12  C7  UNL     1     -17.336  32.664 -29.420  1.00  0.00     0.214 C 
BRANCH  12  13
HETATM   13  C8  UNL     1     -15.902  32.473 -29.029  1.00  0.00    -0.034 A 
HETATM   14  C9  UNL     1     -15.509  31.391 -28.260  1.00  0.00     0.009 A 
HETATM   15  C10 UNL     1     -14.199  31.178 -27.880  1.00  0.00     0.001 A 
HETATM   16  C11 UNL     1     -13.230  32.080 -28.277  1.00  0.00     0.000 A 
HETATM   17  C12 UNL     1     -13.616  33.171 -29.050  1.00  0.00     0.001 A 
HETATM   18  C13 UNL     1     -14.924  33.368 -29.421  1.00  0.00     0.009 A 
ENDBRANCH  12  13
ENDBRANCH  11  12
ENDBRANCH   7  11
TORSDOF 3
ENDMDL
MODEL 3
REMARK VINA RESULT: -8.034192659      0.406      1.190
REMARK  3 active torsions:
REMARK  status: ('A' for Active; 'I' for Inactive)
REMARK    1  A    between atoms: C6_7  and  O1_8 
REMARK    2  A    between atoms: O1_8  and  C7_9 
REMARK    3  A    between atoms: C7_9  and  C8_10 
ROOT
HETATM    1  N1  UNL     1     -20.219  34.654 -31.933  1.00  0.00    -0.099 NA
HETATM    2  C1  UNL     1     -19.395  34.480 -30.798  1.00  0.00     0.082 A 
HETATM    3  C2  UNL     1     -18.450  33.464 -30.819  1.00  0.00     0.069 A 
HETATM    4  C3  UNL     1     -17.657  33.310 -29.703  1.00  0.00     0.107 A 
HETATM    5  C4  UNL     1     -17.804  34.141 -28.613  1.00  0.00     0.107 A 
HETATM    6  C5  UNL     1     -18.758  35.158 -28.605  1.00  0.00     0.078 A 
HETATM    7  C6  UNL     1     -19.551  35.314 -29.716  1.00  0.00     0.096 A 
HETATM    8  O2  UNL     1     -16.872  33.752 -27.638  1.00  0.00    -0.323 OA
HETATM    9  C14 UNL     1     -16.261  32.576 -28.095  1.00  0.00     0.352 C 
HETATM   10  O3  UNL     1     -16.642  32.400 -29.433  1.00  0.00    -0.323 OA
ENDROOT
BRANCH   7  11
HETATM   11  O1  UNL     1     -20.516  36.309 -29.764  1.00  0.00    -0.345 OA
BRANCH  11  12
HETATM   12  C7  UNL     1     -20.750  37.095 -28.631  1.00  0.00     0.214 C 
BRANCH  12  13
HETATM   13  C8  UNL     1     -20.480  38.528 -28.973  1.00  0.00    -0.034 A 
HETATM   14  C9  UNL     1     -19.783  38.871 -30.119  1.00  0.00     0.009 A 
HETATM   15  C10 UNL     1     -19.514  40.178 -30.470  1.00  0.00     0.001 A 
HETATM   16  C11 UNL     1     -19.954  41.199 -29.648  1.00  0.00     0.000 A 
HETATM   17  C12 UNL     1     -20.656  40.864 -28.493  1.00  0.00     0.001 A 
HETATM   18  C13 UNL     1     -20.915  39.557 -28.158  1.00  0.00     0.009 A 
ENDBRANCH  12  13
ENDBRANCH  11  12
ENDBRANCH   7  11
TORSDOF 3
ENDMDL
MODEL 4
REMARK VINA RESULT: -8.025958947      1.967      6.208
REMARK  3 active torsions:
REMARK  status: ('A' for Active; 'I' for Inactive)
REMARK    1  A    between atoms: C6_7  and  O1_8 
REMARK    2  A    between atoms: O1_8  and  C7_9 
REMARK    3  A    between atoms: C7_9  and  C8_10 
ROOT
HETATM    1  N1  UNL     1     -18.000  34.734 -32.301  1.00  0.00    -0.099 NA
HETATM    2  C1  UNL     1     -18.779  35.237 -31.234  1.00  0.00     0.082 A 
HETATM    3  C2  UNL     1     -18.974  36.608 -31.149  1.00  0.00     0.069 A 
HETATM    4  C3  UNL     1     -19.737  37.078 -30.102  1.00  0.00     0.107 A 
HETATM    5  C4  UNL     1     -20.281  36.210 -29.180  1.00  0.00     0.107 A 
HETATM    6  C5  UNL     1     -20.078  34.834 -29.278  1.00  0.00     0.078 A 
HETATM    7  C6  UNL     1     -19.318  34.362 -30.321  1.00  0.00     0.096 A 
HETATM    8  O2  UNL     1     -20.999  36.966 -28.240  1.00  0.00    -0.323 OA
HETATM    9  C14 UNL     1     -20.754  38.316 -28.519  1.00  0.00     0.352 C 
HETATM   10  O3  UNL     1     -20.101  38.375 -29.758  1.00  0.00    -0.323 OA
ENDROOT
BRANCH   7  11
HETATM   11  O1  UNL     1     -19.082  33.003 -30.468  1.00  0.00    -0.345 OA
BRANCH  11  12
HETATM   12  C7  UNL     1     -18.762  32.235 -29.343  1.00  0.00     0.214 C 
BRANCH  12  13
HETATM   13  C8  UNL     1     -17.289  32.341 -29.089  1.00  0.00    -0.034 A 
HETATM   14  C9  UNL     1     -16.450  31.256 -29.280  1.00  0.00     0.009 A 
HETATM   15  C10 UNL     1     -15.089  31.312 -29.059  1.00  0.00     0.001 A 
HETATM   16  C11 UNL     1     -14.527  32.499 -28.628  1.00  0.00     0.000 A 
HETATM   17  C12 UNL     1     -15.362  33.596 -28.433  1.00  0.00     0.001 A 
HETATM   18  C13 UNL     1     -16.716  33.523 -28.658  1.00  0.00     0.009 A 
ENDBRANCH  12  13
ENDBRANCH  11  12
ENDBRANCH   7  11
TORSDOF 3
ENDMDL
MODEL 5
REMARK VINA RESULT: -7.827583603      1.824      2.763
REMARK  3 active torsions:
REMARK  status: ('A' for Active; 'I' for Inactive)
REMARK    1  A    between atoms: C6_7  and  O1_8 
REMARK    2  A    between atoms: O1_8  and  C7_9 
REMARK    3  A    between atoms: C7_9  and  C8_10 
ROOT
HETATM    1  N1  UNL     1     -19.434  30.917 -30.121  1.00  0.00    -0.099 NA
HETATM    2  C1  UNL     1     -18.323  31.620 -29.601  1.00  0.00     0.082 A 
HETATM    3  C2  UNL     1     -17.116  30.948 -29.480  1.00  0.00     0.069 A 
HETATM    4  C3  UNL     1     -16.045  31.651 -28.971  1.00  0.00     0.107 A 
HETATM    5  C4  UNL     1     -16.180  32.972 -28.601  1.00  0.00     0.107 A 
HETATM    6  C5  UNL     1     -17.400  33.635 -28.728  1.00  0.00     0.078 A 
HETATM    7  C6  UNL     1     -18.469  32.937 -29.235  1.00  0.00     0.096 A 
HETATM    8  O2  UNL     1     -14.939  33.421 -28.124  1.00  0.00    -0.323 OA
HETATM    9  C14 UNL     1     -14.089  32.308 -28.068  1.00  0.00     0.352 C 
HETATM   10  O3  UNL     1     -14.733  31.257 -28.736  1.00  0.00    -0.323 OA
ENDROOT
BRANCH   7  11
HETATM   11  O1  UNL     1     -19.707  33.546 -29.384  1.00  0.00    -0.345 OA
BRANCH  11  12
HETATM   12  C7  UNL     1     -19.855  34.585 -30.310  1.00  0.00     0.214 C 
BRANCH  12  13
HETATM   13  C8  UNL     1     -20.380  35.795 -29.599  1.00  0.00    -0.034 A 
HETATM   14  C9  UNL     1     -19.837  37.049 -29.824  1.00  0.00     0.009 A 
HETATM   15  C10 UNL     1     -20.292  38.187 -29.191  1.00  0.00     0.001 A 
HETATM   16  C11 UNL     1     -21.334  38.083 -28.289  1.00  0.00     0.000 A 
HETATM   17  C12 UNL     1     -21.886  36.827 -28.056  1.00  0.00     0.001 A 
HETATM   18  C13 UNL     1     -21.422  35.703 -28.695  1.00  0.00     0.009 A 
ENDBRANCH  12  13
ENDBRANCH  11  12
ENDBRANCH   7  11
TORSDOF 3
ENDMDL
