MODEL 1
REMARK VINA RESULT: -9.687140933      0.000      0.000
REMARK  5 active torsions:
REMARK  status: ('A' for Active; 'I' for Inactive)
REMARK    1  A    between atoms: C2_2  and  C3_4 
REMARK    2  A    between atoms: C6_7  and  C7_8 
REMARK    3  A    between atoms: C13_20  and  C14_21 
REMARK    4  A    between atoms: C13_20  and  C21_31 
REMARK    5  A    between atoms: C17_24  and  S1_25 
ROOT
HETATM    1  C7  UNL     1     -16.357 -15.968  10.415  1.00  0.00     0.068 C 
HETATM    2  C8  UNL     1     -17.787 -15.717  10.437  1.00  0.00     0.073 C 
HETATM    3  N1  UNL     1     -18.954 -15.541  10.476  1.00  0.00    -0.196 NA
HETATM    4  C9  UNL     1     -16.193 -17.510  10.300  1.00  0.00     0.029 C 
HETATM    5  C10 UNL     1     -15.091 -17.415  11.351  1.00  0.00     0.004 C 
HETATM    6  C11 UNL     1     -15.846 -16.161  11.816  1.00  0.00     0.029 C 
ENDROOT
BRANCH   1   7
HETATM    7  C6  UNL     1     -15.547 -15.323   9.417  1.00  0.00     0.013 C 
HETATM    8  C5  UNL     1     -14.595 -14.260   9.556  1.00  0.00     0.015 C 
HETATM    9  C4  UNL     1     -14.980 -12.906  10.062  1.00  0.00     0.001 C 
HETATM   10  C12 UNL     1     -13.309 -14.557  10.170  1.00  0.00     0.106 C 
HETATM   11  C3  UNL     1     -16.096 -12.303   9.710  1.00  0.00     0.061 C 
HETATM   12  C13 UNL     1     -13.893 -12.444  10.915  1.00  0.00     0.186 C 
HETATM   13  N3  UNL     1     -13.165 -13.695  11.260  1.00  0.00    -0.351 N 
ATOM     14  H3  UNL     1     -12.658 -13.886  12.125  1.00  0.00     0.162 HD
HETATM   15  N2  UNL     1     -12.434 -15.434   9.816  1.00  0.00    -0.385 N 
ATOM     16  H22 UNL     1     -12.539 -16.064   9.021  1.00  0.00     0.157 HD
ATOM     17  H21 UNL     1     -11.533 -15.643  10.246  1.00  0.00     0.157 HD
BRANCH  11  18
HETATM   18  C2  UNL     1     -16.744 -11.082   9.979  1.00  0.00     0.146 C 
HETATM   19  C1  UNL     1     -18.276 -11.121  10.190  1.00  0.00     0.096 C 
HETATM   20  O1  UNL     1     -16.318  -9.928  10.084  1.00  0.00    -0.294 OA
ENDBRANCH  11  18
BRANCH  12  21
HETATM   21  C14 UNL     1     -14.214 -11.774  12.172  1.00  0.00    -0.016 A 
HETATM   22  C15 UNL     1     -14.980 -12.416  13.154  1.00  0.00     0.012 A 
HETATM   23  C16 UNL     1     -15.275 -11.826  14.365  1.00  0.00     0.024 A 
HETATM   24  C17 UNL     1     -14.816 -10.571  14.646  1.00  0.00     0.058 A 
HETATM   25  C19 UNL     1     -14.070  -9.924  13.712  1.00  0.00     0.024 A 
HETATM   26  C20 UNL     1     -13.764 -10.519  12.471  1.00  0.00     0.012 A 
BRANCH  24  27
HETATM   27  S1  UNL     1     -15.165  -9.774  16.180  1.00  0.00     0.171 S 
HETATM   28  C18 UNL     1     -15.725  -8.102  15.911  1.00  0.00     0.167 C 
HETATM   29  O2  UNL     1     -16.221 -10.556  16.932  1.00  0.00    -0.223 OA
HETATM   30  O3  UNL     1     -13.930  -9.754  17.042  1.00  0.00    -0.223 OA
ENDBRANCH  24  27
ENDBRANCH  12  21
BRANCH  12  31
HETATM   31  C21 UNL     1     -12.844 -11.651  10.160  1.00  0.00     0.421 C 
HETATM   32  F1  UNL     1     -13.049 -10.324  10.073  1.00  0.00    -0.168 F 
HETATM   33  F2  UNL     1     -12.907 -12.082   8.784  1.00  0.00    -0.168 F 
HETATM   34  F3  UNL     1     -11.569 -12.015  10.505  1.00  0.00    -0.168 F 
ENDBRANCH  12  31
ENDBRANCH   1   7
TORSDOF 5
ENDMDL
MODEL 2
REMARK VINA RESULT: -9.589646529      1.824      2.512
REMARK  5 active torsions:
REMARK  status: ('A' for Active; 'I' for Inactive)
REMARK    1  A    between atoms: C2_2  and  C3_4 
REMARK    2  A    between atoms: C6_7  and  C7_8 
REMARK    3  A    between atoms: C13_20  and  C14_21 
REMARK    4  A    between atoms: C13_20  and  C21_31 
REMARK    5  A    between atoms: C17_24  and  S1_25 
ROOT
HETATM    1  C7  UNL     1     -18.030 -15.950  10.119  1.00  0.00     0.068 C 
HETATM    2  C8  UNL     1     -18.938 -17.054  10.374  1.00  0.00     0.073 C 
HETATM    3  N1  UNL     1     -19.697 -17.930  10.601  1.00  0.00    -0.196 NA
HETATM    4  C9  UNL     1     -17.918 -15.167  11.457  1.00  0.00     0.029 C 
HETATM    5  C10 UNL     1     -18.029 -13.879  10.648  1.00  0.00     0.004 C 
HETATM    6  C11 UNL     1     -18.800 -14.749   9.644  1.00  0.00     0.029 C 
ENDROOT
BRANCH   1   7
HETATM    7  C6  UNL     1     -16.712 -16.228   9.613  1.00  0.00     0.013 C 
HETATM    8  C5  UNL     1     -15.431 -15.918  10.175  1.00  0.00     0.015 C 
HETATM    9  C4  UNL     1     -14.992 -14.511  10.431  1.00  0.00     0.001 C 
HETATM   10  C12 UNL     1     -14.973 -16.687  11.324  1.00  0.00     0.106 C 
HETATM   11  C3  UNL     1     -15.229 -13.526   9.592  1.00  0.00     0.061 C 
HETATM   12  C13 UNL     1     -14.261 -14.515  11.691  1.00  0.00     0.186 C 
HETATM   13  N3  UNL     1     -14.702 -15.775  12.347  1.00  0.00    -0.351 N 
ATOM     14  H3  UNL     1     -14.790 -15.941  13.350  1.00  0.00     0.162 HD
HETATM   15  N2  UNL     1     -14.826 -17.963  11.429  1.00  0.00    -0.385 N 
ATOM     16  H22 UNL     1     -15.024 -18.628  10.682  1.00  0.00     0.157 HD
ATOM     17  H21 UNL     1     -14.506 -18.502  12.233  1.00  0.00     0.157 HD
BRANCH  11  18
HETATM   18  C2  UNL     1     -14.970 -12.143   9.515  1.00  0.00     0.146 C 
HETATM   19  C1  UNL     1     -16.168 -11.183   9.704  1.00  0.00     0.096 C 
HETATM   20  O1  UNL     1     -13.929 -11.509   9.317  1.00  0.00    -0.294 OA
ENDBRANCH  11  18
BRANCH  12  21
HETATM   21  C14 UNL     1     -14.487 -13.432  12.645  1.00  0.00    -0.016 A 
HETATM   22  C15 UNL     1     -15.675 -13.363  13.384  1.00  0.00     0.012 A 
HETATM   23  C16 UNL     1     -15.909 -12.374  14.316  1.00  0.00     0.024 A 
HETATM   24  C17 UNL     1     -14.966 -11.414  14.550  1.00  0.00     0.058 A 
HETATM   25  C19 UNL     1     -13.803 -11.457  13.847  1.00  0.00     0.024 A 
HETATM   26  C20 UNL     1     -13.556 -12.463  12.892  1.00  0.00     0.012 A 
BRANCH  24  27
HETATM   27  S1  UNL     1     -15.217 -10.130  15.731  1.00  0.00     0.171 S 
HETATM   28  C18 UNL     1     -15.855  -8.662  14.945  1.00  0.00     0.167 C 
HETATM   29  O2  UNL     1     -16.181 -10.602  16.800  1.00  0.00    -0.223 OA
HETATM   30  O3  UNL     1     -13.918  -9.802  16.420  1.00  0.00    -0.223 OA
ENDBRANCH  24  27
ENDBRANCH  12  21
BRANCH  12  31
HETATM   31  C21 UNL     1     -12.772 -14.742  11.512  1.00  0.00     0.421 C 
HETATM   32  F1  UNL     1     -12.055 -13.684  11.092  1.00  0.00    -0.168 F 
HETATM   33  F2  UNL     1     -12.623 -15.686  10.431  1.00  0.00    -0.168 F 
HETATM   34  F3  UNL     1     -12.222 -15.433  12.559  1.00  0.00    -0.168 F 
ENDBRANCH  12  31
ENDBRANCH   1   7
TORSDOF 5
ENDMDL
MODEL 3
REMARK VINA RESULT: -9.078556949      1.210      1.756
REMARK  5 active torsions:
REMARK  status: ('A' for Active; 'I' for Inactive)
REMARK    1  A    between atoms: C2_2  and  C3_4 
REMARK    2  A    between atoms: C6_7  and  C7_8 
REMARK    3  A    between atoms: C13_20  and  C14_21 
REMARK    4  A    between atoms: C13_20  and  C21_31 
REMARK    5  A    between atoms: C17_24  and  S1_25 
ROOT
HETATM    1  C7  UNL     1     -15.567 -16.489  10.795  1.00  0.00     0.068 C 
HETATM    2  C8  UNL     1     -14.645 -17.098  11.737  1.00  0.00     0.073 C 
HETATM    3  N1  UNL     1     -13.922 -17.597  12.527  1.00  0.00    -0.196 NA
HETATM    4  C9  UNL     1     -16.503 -15.576  11.637  1.00  0.00     0.029 C 
HETATM    5  C10 UNL     1     -17.671 -16.110  10.815  1.00  0.00     0.004 C 
HETATM    6  C11 UNL     1     -16.787 -17.353  10.637  1.00  0.00     0.029 C 
ENDROOT
BRANCH   1   7
HETATM    7  C6  UNL     1     -15.042 -15.743   9.683  1.00  0.00     0.013 C 
HETATM    8  C5  UNL     1     -14.317 -14.506   9.670  1.00  0.00     0.015 C 
HETATM    9  C4  UNL     1     -14.902 -13.234  10.196  1.00  0.00     0.001 C 
HETATM   10  C12 UNL     1     -12.929 -14.512  10.109  1.00  0.00     0.106 C 
HETATM   11  C3  UNL     1     -16.152 -12.883   9.987  1.00  0.00     0.061 C 
HETATM   12  C13 UNL     1     -13.830 -12.525  10.883  1.00  0.00     0.186 C 
HETATM   13  N3  UNL     1     -12.824 -13.588  11.150  1.00  0.00    -0.351 N 
ATOM     14  H3  UNL     1     -12.181 -13.632  11.942  1.00  0.00     0.162 HD
HETATM   15  N2  UNL     1     -11.946 -15.213   9.656  1.00  0.00    -0.385 N 
ATOM     16  H22 UNL     1     -12.023 -15.888   8.896  1.00  0.00     0.157 HD
ATOM     17  H21 UNL     1     -10.974 -15.217   9.963  1.00  0.00     0.157 HD
BRANCH  11  18
HETATM   18  C2  UNL     1     -16.995 -11.804  10.316  1.00  0.00     0.146 C 
HETATM   19  C1  UNL     1     -17.716 -11.856  11.685  1.00  0.00     0.096 C 
HETATM   20  O1  UNL     1     -17.293 -10.773   9.705  1.00  0.00    -0.294 OA
ENDBRANCH  11  18
BRANCH  12  21
HETATM   21  C14 UNL     1     -14.115 -11.873  12.158  1.00  0.00    -0.016 A 
HETATM   22  C15 UNL     1     -14.139 -10.476  12.261  1.00  0.00     0.012 A 
HETATM   23  C16 UNL     1     -14.436  -9.827  13.441  1.00  0.00     0.024 A 
HETATM   24  C17 UNL     1     -14.722 -10.545  14.566  1.00  0.00     0.058 A 
HETATM   25  C19 UNL     1     -14.706 -11.902  14.495  1.00  0.00     0.024 A 
HETATM   26  C20 UNL     1     -14.404 -12.575  13.295  1.00  0.00     0.012 A 
BRANCH  24  27
HETATM   27  S1  UNL     1     -15.108  -9.761  16.098  1.00  0.00     0.171 S 
HETATM   28  C18 UNL     1     -15.636  -8.079  15.832  1.00  0.00     0.167 C 
HETATM   29  O2  UNL     1     -16.198 -10.538  16.806  1.00  0.00    -0.223 OA
HETATM   30  O3  UNL     1     -13.901  -9.769  16.999  1.00  0.00    -0.223 OA
ENDBRANCH  24  27
ENDBRANCH  12  21
BRANCH  12  31
HETATM   31  C21 UNL     1     -13.071 -11.575   9.976  1.00  0.00     0.421 C 
HETATM   32  F1  UNL     1     -13.427 -10.279  10.040  1.00  0.00    -0.168 F 
HETATM   33  F2  UNL     1     -13.406 -11.939   8.620  1.00  0.00    -0.168 F 
HETATM   34  F3  UNL     1     -11.721 -11.804   9.997  1.00  0.00    -0.168 F 
ENDBRANCH  12  31
ENDBRANCH   1   7
TORSDOF 5
ENDMDL
MODEL 4
REMARK VINA RESULT: -8.893577658      1.701      2.271
REMARK  5 active torsions:
REMARK  status: ('A' for Active; 'I' for Inactive)
REMARK    1  A    between atoms: C2_2  and  C3_4 
REMARK    2  A    between atoms: C6_7  and  C7_8 
REMARK    3  A    between atoms: C13_20  and  C14_21 
REMARK    4  A    between atoms: C13_20  and  C21_31 
REMARK    5  A    between atoms: C17_24  and  S1_25 
ROOT
HETATM    1  C7  UNL     1     -17.498 -16.310  10.035  1.00  0.00     0.068 C 
HETATM    2  C8  UNL     1     -18.318 -15.142   9.766  1.00  0.00     0.073 C 
HETATM    3  N1  UNL     1     -19.014 -14.212   9.554  1.00  0.00    -0.196 NA
HETATM    4  C9  UNL     1     -18.232 -17.512   9.376  1.00  0.00     0.029 C 
HETATM    5  C10 UNL     1     -17.928 -18.316  10.636  1.00  0.00     0.004 C 
HETATM    6  C11 UNL     1     -17.918 -16.947  11.331  1.00  0.00     0.029 C 
ENDROOT
BRANCH   1   7
HETATM    7  C6  UNL     1     -16.119 -16.307   9.628  1.00  0.00     0.013 C 
HETATM    8  C5  UNL     1     -14.968 -15.769  10.294  1.00  0.00     0.015 C 
HETATM    9  C4  UNL     1     -14.837 -14.312  10.608  1.00  0.00     0.001 C 
HETATM   10  C12 UNL     1     -14.451 -16.471  11.459  1.00  0.00     0.106 C 
HETATM   11  C3  UNL     1     -15.205 -13.366   9.772  1.00  0.00     0.061 C 
HETATM   12  C13 UNL     1     -14.213 -14.215  11.921  1.00  0.00     0.186 C 
HETATM   13  N3  UNL     1     -14.441 -15.559  12.517  1.00  0.00    -0.351 N 
ATOM     14  H3  UNL     1     -14.566 -15.773  13.507  1.00  0.00     0.162 HD
HETATM   15  N2  UNL     1     -14.061 -17.696  11.551  1.00  0.00    -0.385 N 
ATOM     16  H22 UNL     1     -14.068 -18.362  10.779  1.00  0.00     0.157 HD
ATOM     17  H21 UNL     1     -13.699 -18.188  12.368  1.00  0.00     0.157 HD
BRANCH  11  18
HETATM   18  C2  UNL     1     -15.220 -11.957   9.742  1.00  0.00     0.146 C 
HETATM   19  C1  UNL     1     -16.602 -11.262   9.715  1.00  0.00     0.096 C 
HETATM   20  O1  UNL     1     -14.310 -11.123   9.730  1.00  0.00    -0.294 OA
ENDBRANCH  11  18
BRANCH  12  21
HETATM   21  C14 UNL     1     -14.718 -13.231  12.875  1.00  0.00    -0.016 A 
HETATM   22  C15 UNL     1     -13.889 -12.211  13.361  1.00  0.00     0.012 A 
HETATM   23  C16 UNL     1     -14.341 -11.247  14.237  1.00  0.00     0.024 A 
HETATM   24  C17 UNL     1     -15.637 -11.260  14.664  1.00  0.00     0.058 A 
HETATM   25  C19 UNL     1     -16.464 -12.239  14.208  1.00  0.00     0.024 A 
HETATM   26  C20 UNL     1     -16.012 -13.229  13.314  1.00  0.00     0.012 A 
BRANCH  24  27
HETATM   27  S1  UNL     1     -16.262 -10.050  15.783  1.00  0.00     0.171 S 
HETATM   28  C18 UNL     1     -15.603  -8.437  15.403  1.00  0.00     0.167 C 
HETATM   29  O2  UNL     1     -17.775 -10.019  15.707  1.00  0.00    -0.223 OA
HETATM   30  O3  UNL     1     -15.897 -10.417  17.197  1.00  0.00    -0.223 OA
ENDBRANCH  24  27
ENDBRANCH  12  21
BRANCH  12  31
HETATM   31  C21 UNL     1     -12.699 -14.138  11.853  1.00  0.00     0.421 C 
HETATM   32  F1  UNL     1     -12.178 -12.946  11.512  1.00  0.00    -0.168 F 
HETATM   33  F2  UNL     1     -12.289 -14.997  10.768  1.00  0.00    -0.168 F 
HETATM   34  F3  UNL     1     -12.100 -14.745  12.926  1.00  0.00    -0.168 F 
ENDBRANCH  12  31
ENDBRANCH   1   7
TORSDOF 5
ENDMDL
MODEL 5
REMARK VINA RESULT: -8.568610422      4.113      6.825
REMARK  5 active torsions:
REMARK  status: ('A' for Active; 'I' for Inactive)
REMARK    1  A    between atoms: C2_2  and  C3_4 
REMARK    2  A    between atoms: C6_7  and  C7_8 
REMARK    3  A    between atoms: C13_20  and  C14_21 
REMARK    4  A    between atoms: C13_20  and  C21_31 
REMARK    5  A    between atoms: C17_24  and  S1_25 
ROOT
HETATM    1  C7  UNL     1     -18.487  -7.948  11.394  1.00  0.00     0.068 C 
HETATM    2  C8  UNL     1     -19.694  -8.742  11.241  1.00  0.00     0.073 C 
HETATM    3  N1  UNL     1     -20.675  -9.379  11.081  1.00  0.00    -0.196 NA
HETATM    4  C9  UNL     1     -18.688  -6.684  10.512  1.00  0.00     0.029 C 
HETATM    5  C10 UNL     1     -17.249  -6.855  10.037  1.00  0.00     0.004 C 
HETATM    6  C11 UNL     1     -17.477  -8.341  10.352  1.00  0.00     0.029 C 
ENDROOT
BRANCH   1   7
HETATM    7  C6  UNL     1     -18.071  -7.553  12.713  1.00  0.00     0.013 C 
HETATM    8  C5  UNL     1     -16.916  -7.948  13.466  1.00  0.00     0.015 C 
HETATM    9  C4  UNL     1     -16.668  -9.370  13.857  1.00  0.00     0.001 C 
HETATM   10  C12 UNL     1     -15.619  -7.415  13.076  1.00  0.00     0.106 C 
HETATM   11  C3  UNL     1     -17.622 -10.173  14.275  1.00  0.00     0.061 C 
HETATM   12  C13 UNL     1     -15.236  -9.604  13.723  1.00  0.00     0.186 C 
HETATM   13  N3  UNL     1     -14.785  -8.507  12.827  1.00  0.00    -0.351 N 
ATOM     14  H3  UNL     1     -14.015  -8.544  12.158  1.00  0.00     0.162 HD
HETATM   15  N2  UNL     1     -15.257  -6.183  12.970  1.00  0.00    -0.385 N 
ATOM     16  H22 UNL     1     -15.866  -5.386  13.152  1.00  0.00     0.157 HD
ATOM     17  H21 UNL     1     -14.348  -5.809  12.696  1.00  0.00     0.157 HD
BRANCH  11  18
HETATM   18  C2  UNL     1     -17.739 -11.508  14.709  1.00  0.00     0.146 C 
HETATM   19  C1  UNL     1     -17.769 -11.760  16.235  1.00  0.00     0.096 C 
HETATM   20  O1  UNL     1     -17.825 -12.572  14.089  1.00  0.00    -0.294 OA
ENDBRANCH  11  18
BRANCH  12  21
HETATM   21  C14 UNL     1     -14.775 -10.858  13.133  1.00  0.00    -0.016 A 
HETATM   22  C15 UNL     1     -14.324 -11.909  13.942  1.00  0.00     0.012 A 
HETATM   23  C16 UNL     1     -13.911 -13.118  13.422  1.00  0.00     0.024 A 
HETATM   24  C17 UNL     1     -13.932 -13.327  12.072  1.00  0.00     0.058 A 
HETATM   25  C19 UNL     1     -14.365 -12.324  11.264  1.00  0.00     0.024 A 
HETATM   26  C20 UNL     1     -14.788 -11.086  11.786  1.00  0.00     0.012 A 
BRANCH  24  27
HETATM   27  S1  UNL     1     -13.416 -14.854  11.358  1.00  0.00     0.171 S 
HETATM   28  C18 UNL     1     -12.862 -15.987  12.620  1.00  0.00     0.167 C 
HETATM   29  O2  UNL     1     -14.563 -15.467  10.583  1.00  0.00    -0.223 OA
HETATM   30  O3  UNL     1     -12.298 -14.613  10.379  1.00  0.00    -0.223 OA
ENDBRANCH  24  27
ENDBRANCH  12  21
BRANCH  12  31
HETATM   31  C21 UNL     1     -14.467  -9.322  15.001  1.00  0.00     0.421 C 
HETATM   32  F1  UNL     1     -13.126  -9.331  14.902  1.00  0.00    -0.168 F 
HETATM   33  F2  UNL     1     -14.736 -10.420  15.898  1.00  0.00    -0.168 F 
HETATM   34  F3  UNL     1     -14.987  -8.263  15.697  1.00  0.00    -0.168 F 
ENDBRANCH  12  31
ENDBRANCH   1   7
TORSDOF 5
ENDMDL
