MODEL 1
REMARK VINA RESULT: -7.242463197      0.000      0.000
REMARK  7 active torsions:
REMARK  status: ('A' for Active; 'I' for Inactive)
REMARK    1  A    between atoms: C2_2  and  O1_3 
REMARK    2  A    between atoms: O1_3  and  C3_4 
REMARK    3  A    between atoms: C3_4  and  C4_6 
REMARK    4  A    between atoms: C9_13  and  C10_14 
REMARK    5  A    between atoms: C13_20  and  C14_21 
REMARK    6  A    between atoms: C14_21  and  S2_22 
REMARK    7  A    between atoms: S2_22  and  C15_23 
ROOT
HETATM    1  C10 UNL     1     -31.334 -16.340  60.915  1.00  0.00    -0.009 A 
HETATM    2  C11 UNL     1     -30.098 -16.255  61.597  1.00  0.00     0.096 A 
HETATM    3  N1  UNL     1     -29.650 -15.205  62.501  1.00  0.00    -0.094 NA
HETATM    4  S1  UNL     1     -29.133 -17.468  60.916  1.00  0.00    -0.062 SA
HETATM    5  C12 UNL     1     -30.224 -18.075  59.780  1.00  0.00     0.084 A 
HETATM    6 CL1  UNL     1     -30.023 -19.517  58.773  1.00  0.00    -0.076 Cl
HETATM    7  C13 UNL     1     -31.311 -17.311  59.951  1.00  0.00    -0.010 A 
ENDROOT
BRANCH   1   8
HETATM    8  C9  UNL     1     -32.466 -15.387  61.275  1.00  0.00     0.062 C 
HETATM    9  C5  UNL     1     -33.663 -16.022  61.873  1.00  0.00    -0.041 C 
HETATM   10  C4  UNL     1     -34.258 -17.245  61.584  1.00  0.00     0.088 C 
HETATM   11  C6  UNL     1     -34.687 -14.904  62.046  1.00  0.00     0.213 C 
HETATM   12  O3  UNL     1     -35.340 -14.768  60.782  1.00  0.00    -0.317 OA
HETATM   13  C7  UNL     1     -34.477 -14.982  59.711  1.00  0.00     0.260 C 
HETATM   14  O4  UNL     1     -34.930 -15.326  58.593  1.00  0.00    -0.265 OA
HETATM   15  C8  UNL     1     -32.999 -14.817  59.903  1.00  0.00     0.125 C 
BRANCH  10  16
HETATM   16  C3  UNL     1     -35.074 -17.699  62.758  1.00  0.00     0.283 C 
HETATM   17  O2  UNL     1     -34.611 -17.812  63.926  1.00  0.00    -0.260 OA
BRANCH  16  18
HETATM   18  O1  UNL     1     -36.452 -18.043  62.671  1.00  0.00    -0.319 OA
BRANCH  18  19
HETATM   19  C2  UNL     1     -37.202 -17.780  61.493  1.00  0.00     0.174 C 
HETATM   20  C1  UNL     1     -37.522 -18.978  60.673  1.00  0.00     0.034 C 
ENDBRANCH  18  19
ENDBRANCH  16  18
ENDBRANCH  10  16
ENDBRANCH   1   8
BRANCH   7  21
HETATM   21  C14 UNL     1     -32.290 -17.250  58.722  1.00  0.00     0.123 C 
BRANCH  21  22
HETATM   22  S2  UNL     1     -33.495 -18.570  58.773  1.00  0.00    -0.099 SA
BRANCH  22  23
HETATM   23  C15 UNL     1     -33.447 -19.923  57.716  1.00  0.00     0.130 A 
HETATM   24  N2  UNL     1     -33.538 -20.162  56.435  1.00  0.00    -0.286 N 
HETATM   25  N3  UNL     1     -33.418 -21.314  55.908  1.00  0.00    -0.279 N 
ATOM     26  H2  UNL     1     -33.718 -19.372  55.815  1.00  0.00     0.188 HD
HETATM   27  C16 UNL     1     -33.175 -22.343  56.755  1.00  0.00     0.159 A 
ATOM     28  H3  UNL     1     -33.500 -21.455  54.902  1.00  0.00     0.189 HD
HETATM   29  N4  UNL     1     -32.988 -23.574  56.400  1.00  0.00    -0.379 N 
HETATM   30  S3  UNL     1     -33.133 -21.591  58.277  1.00  0.00    -0.027 SA
ATOM     31  H42 UNL     1     -33.013 -24.025  55.485  1.00  0.00     0.158 HD
ATOM     32  H41 UNL     1     -32.805 -24.348  57.038  1.00  0.00     0.158 HD
ENDBRANCH  22  23
ENDBRANCH  21  22
ENDBRANCH   7  21
TORSDOF 7
ENDMDL
MODEL 2
REMARK VINA RESULT: -7.228520019      3.887      5.355
REMARK  7 active torsions:
REMARK  status: ('A' for Active; 'I' for Inactive)
REMARK    1  A    between atoms: C2_2  and  O1_3 
REMARK    2  A    between atoms: O1_3  and  C3_4 
REMARK    3  A    between atoms: C3_4  and  C4_6 
REMARK    4  A    between atoms: C9_13  and  C10_14 
REMARK    5  A    between atoms: C13_20  and  C14_21 
REMARK    6  A    between atoms: C14_21  and  S2_22 
REMARK    7  A    between atoms: S2_22  and  C15_23 
ROOT
HETATM    1  C10 UNL     1     -33.362 -16.743  59.597  1.00  0.00    -0.009 A 
HETATM    2  C11 UNL     1     -33.554 -16.584  60.989  1.00  0.00     0.096 A 
HETATM    3  N1  UNL     1     -32.676 -17.024  62.064  1.00  0.00    -0.094 NA
HETATM    4  S1  UNL     1     -35.150 -16.045  61.156  1.00  0.00    -0.062 SA
HETATM    5  C12 UNL     1     -35.602 -16.030  59.530  1.00  0.00     0.084 A 
HETATM    6 CL1  UNL     1     -37.105 -15.392  58.847  1.00  0.00    -0.076 Cl
HETATM    7  C13 UNL     1     -34.501 -16.455  58.896  1.00  0.00    -0.010 A 
ENDROOT
BRANCH   1   8
HETATM    8  C9  UNL     1     -32.016 -17.220  59.066  1.00  0.00     0.062 C 
HETATM    9  C5  UNL     1     -31.736 -18.663  59.254  1.00  0.00    -0.041 C 
HETATM   10  C4  UNL     1     -32.056 -19.499  60.318  1.00  0.00     0.088 C 
HETATM   11  C6  UNL     1     -30.312 -18.881  58.751  1.00  0.00     0.213 C 
HETATM   12  O3  UNL     1     -29.452 -18.531  59.837  1.00  0.00    -0.317 OA
HETATM   13  C7  UNL     1     -29.944 -17.463  60.583  1.00  0.00     0.260 C 
HETATM   14  O4  UNL     1     -29.579 -17.302  61.772  1.00  0.00    -0.265 OA
HETATM   15  C8  UNL     1     -30.927 -16.515  59.965  1.00  0.00     0.125 C 
BRANCH  10  16
HETATM   16  C3  UNL     1     -32.066 -20.925  59.853  1.00  0.00     0.283 C 
HETATM   17  O2  UNL     1     -32.980 -21.418  59.137  1.00  0.00    -0.260 OA
BRANCH  16  18
HETATM   18  O1  UNL     1     -31.044 -21.862  60.170  1.00  0.00    -0.319 OA
BRANCH  18  19
HETATM   19  C2  UNL     1     -30.455 -22.675  59.164  1.00  0.00     0.174 C 
HETATM   20  C1  UNL     1     -29.061 -22.311  58.800  1.00  0.00     0.034 C 
ENDBRANCH  18  19
ENDBRANCH  16  18
ENDBRANCH  10  16
ENDBRANCH   1   8
BRANCH   7  21
HETATM   21  C14 UNL     1     -34.741 -17.060  57.464  1.00  0.00     0.123 C 
BRANCH  21  22
HETATM   22  S2  UNL     1     -35.898 -18.423  57.510  1.00  0.00    -0.099 SA
BRANCH  22  23
HETATM   23  C15 UNL     1     -35.892 -19.613  58.748  1.00  0.00     0.130 A 
HETATM   24  N2  UNL     1     -35.493 -19.729  59.986  1.00  0.00    -0.286 N 
HETATM   25  N3  UNL     1     -35.666 -20.765  60.704  1.00  0.00    -0.279 N 
ATOM     26  H2  UNL     1     -35.012 -18.934  60.408  1.00  0.00     0.188 HD
HETATM   27  C16 UNL     1     -36.313 -21.803  60.120  1.00  0.00     0.159 A 
ATOM     28  H3  UNL     1     -35.335 -20.813  61.667  1.00  0.00     0.189 HD
HETATM   29  N4  UNL     1     -36.610 -22.920  60.703  1.00  0.00    -0.379 N 
HETATM   30  S3  UNL     1     -36.641 -21.226  58.557  1.00  0.00    -0.027 SA
ATOM     31  H42 UNL     1     -36.414 -23.266  61.642  1.00  0.00     0.158 HD
ATOM     32  H41 UNL     1     -37.097 -23.701  60.263  1.00  0.00     0.158 HD
ENDBRANCH  22  23
ENDBRANCH  21  22
ENDBRANCH   7  21
TORSDOF 7
ENDMDL
MODEL 3
REMARK VINA RESULT: -7.196785295      3.651      4.826
REMARK  7 active torsions:
REMARK  status: ('A' for Active; 'I' for Inactive)
REMARK    1  A    between atoms: C2_2  and  O1_3 
REMARK    2  A    between atoms: O1_3  and  C3_4 
REMARK    3  A    between atoms: C3_4  and  C4_6 
REMARK    4  A    between atoms: C9_13  and  C10_14 
REMARK    5  A    between atoms: C13_20  and  C14_21 
REMARK    6  A    between atoms: C14_21  and  S2_22 
REMARK    7  A    between atoms: S2_22  and  C15_23 
ROOT
HETATM    1  C10 UNL     1     -31.625 -16.625  59.999  1.00  0.00    -0.009 A 
HETATM    2  C11 UNL     1     -31.863 -15.472  60.784  1.00  0.00     0.096 A 
HETATM    3  N1  UNL     1     -32.868 -14.441  60.570  1.00  0.00    -0.094 NA
HETATM    4  S1  UNL     1     -30.548 -15.383  61.847  1.00  0.00    -0.062 SA
HETATM    5  C12 UNL     1     -29.688 -16.740  61.328  1.00  0.00     0.084 A 
HETATM    6 CL1  UNL     1     -28.253 -17.447  62.086  1.00  0.00    -0.076 Cl
HETATM    7  C13 UNL     1     -30.441 -17.225  60.332  1.00  0.00    -0.010 A 
ENDROOT
BRANCH   1   8
HETATM    8  C9  UNL     1     -32.623 -17.026  58.920  1.00  0.00     0.062 C 
HETATM    9  C5  UNL     1     -33.840 -17.715  59.408  1.00  0.00    -0.041 C 
HETATM   10  C4  UNL     1     -33.988 -18.635  60.440  1.00  0.00     0.088 C 
HETATM   11  C6  UNL     1     -34.625 -18.110  58.160  1.00  0.00     0.213 C 
HETATM   12  O3  UNL     1     -34.058 -19.342  57.711  1.00  0.00    -0.317 OA
HETATM   13  C7  UNL     1     -32.682 -19.400  57.913  1.00  0.00     0.260 C 
HETATM   14  O4  UNL     1     -32.101 -20.509  57.989  1.00  0.00    -0.265 OA
HETATM   15  C8  UNL     1     -31.898 -18.131  58.056  1.00  0.00     0.125 C 
BRANCH  10  16
HETATM   16  C3  UNL     1     -35.412 -18.640  60.911  1.00  0.00     0.283 C 
HETATM   17  O2  UNL     1     -36.269 -19.482  60.526  1.00  0.00    -0.260 OA
BRANCH  16  18
HETATM   18  O1  UNL     1     -35.936 -17.700  61.839  1.00  0.00    -0.319 OA
BRANCH  18  19
HETATM   19  C2  UNL     1     -35.101 -17.083  62.811  1.00  0.00     0.174 C 
HETATM   20  C1  UNL     1     -34.671 -17.972  63.922  1.00  0.00     0.034 C 
ENDBRANCH  18  19
ENDBRANCH  16  18
ENDBRANCH  10  16
ENDBRANCH   1   8
BRANCH   7  21
HETATM   21  C14 UNL     1     -29.684 -18.140  59.301  1.00  0.00     0.123 C 
BRANCH  21  22
HETATM   22  S2  UNL     1     -29.282 -19.733  60.006  1.00  0.00    -0.099 SA
BRANCH  22  23
HETATM   23  C15 UNL     1     -27.689 -20.375  60.021  1.00  0.00     0.130 A 
HETATM   24  N2  UNL     1     -26.523 -20.076  60.528  1.00  0.00    -0.286 N 
HETATM   25  N3  UNL     1     -25.479 -20.791  60.401  1.00  0.00    -0.279 N 
ATOM     26  H2  UNL     1     -26.444 -19.210  61.063  1.00  0.00     0.188 HD
HETATM   27  C16 UNL     1     -25.614 -21.937  59.691  1.00  0.00     0.159 A 
ATOM     28  H3  UNL     1     -24.586 -20.517  60.813  1.00  0.00     0.189 HD
HETATM   29  N4  UNL     1     -24.675 -22.805  59.489  1.00  0.00    -0.379 N 
HETATM   30  S3  UNL     1     -27.251 -21.923  59.239  1.00  0.00    -0.027 SA
ATOM     31  H42 UNL     1     -23.692 -22.814  59.760  1.00  0.00     0.158 HD
ATOM     32  H41 UNL     1     -24.777 -23.667  58.954  1.00  0.00     0.158 HD
ENDBRANCH  22  23
ENDBRANCH  21  22
ENDBRANCH   7  21
TORSDOF 7
ENDMDL
MODEL 4
REMARK VINA RESULT: -7.147710151      3.722      5.886
REMARK  7 active torsions:
REMARK  status: ('A' for Active; 'I' for Inactive)
REMARK    1  A    between atoms: C2_2  and  O1_3 
REMARK    2  A    between atoms: O1_3  and  C3_4 
REMARK    3  A    between atoms: C3_4  and  C4_6 
REMARK    4  A    between atoms: C9_13  and  C10_14 
REMARK    5  A    between atoms: C13_20  and  C14_21 
REMARK    6  A    between atoms: C14_21  and  S2_22 
REMARK    7  A    between atoms: S2_22  and  C15_23 
ROOT
HETATM    1  C10 UNL     1     -33.047 -18.045  58.936  1.00  0.00    -0.009 A 
HETATM    2  C11 UNL     1     -32.913 -18.571  57.630  1.00  0.00     0.096 A 
HETATM    3  N1  UNL     1     -32.246 -17.960  56.488  1.00  0.00    -0.094 NA
HETATM    4  S1  UNL     1     -33.941 -19.915  57.587  1.00  0.00    -0.062 SA
HETATM    5  C12 UNL     1     -34.558 -19.834  59.156  1.00  0.00     0.084 A 
HETATM    6 CL1  UNL     1     -35.584 -21.030  59.962  1.00  0.00    -0.076 Cl
HETATM    7  C13 UNL     1     -33.955 -18.755  59.673  1.00  0.00    -0.010 A 
ENDROOT
BRANCH   1   8
HETATM    8  C9  UNL     1     -32.250 -16.811  59.342  1.00  0.00     0.062 C 
HETATM    9  C5  UNL     1     -31.013 -17.081  60.111  1.00  0.00    -0.041 C 
HETATM   10  C4  UNL     1     -30.760 -18.047  61.079  1.00  0.00     0.088 C 
HETATM   11  C6  UNL     1     -30.452 -15.715  60.493  1.00  0.00     0.213 C 
HETATM   12  O3  UNL     1     -31.149 -15.319  61.676  1.00  0.00    -0.317 OA
HETATM   13  C7  UNL     1     -32.479 -15.730  61.673  1.00  0.00     0.260 C 
HETATM   14  O4  UNL     1     -33.103 -15.859  62.753  1.00  0.00    -0.265 OA
HETATM   15  C8  UNL     1     -33.160 -16.035  60.372  1.00  0.00     0.125 C 
BRANCH  10  16
HETATM   16  C3  UNL     1     -29.284 -18.291  61.175  1.00  0.00     0.283 C 
HETATM   17  O2  UNL     1     -28.607 -18.061  62.214  1.00  0.00    -0.260 OA
BRANCH  16  18
HETATM   18  O1  UNL     1     -28.501 -18.809  60.106  1.00  0.00    -0.319 OA
BRANCH  18  19
HETATM   19  C2  UNL     1     -28.660 -20.151  59.663  1.00  0.00     0.174 C 
HETATM   20  C1  UNL     1     -29.613 -20.331  58.538  1.00  0.00     0.034 C 
ENDBRANCH  18  19
ENDBRANCH  16  18
ENDBRANCH  10  16
ENDBRANCH   1   8
BRANCH   7  21
HETATM   21  C14 UNL     1     -34.691 -18.096  60.897  1.00  0.00     0.123 C 
BRANCH  21  22
HETATM   22  S2  UNL     1     -36.378 -17.662  60.496  1.00  0.00    -0.099 SA
BRANCH  22  23
HETATM   23  C15 UNL     1     -36.786 -16.416  59.386  1.00  0.00     0.130 A 
HETATM   24  N2  UNL     1     -37.551 -15.359  59.347  1.00  0.00    -0.286 N 
HETATM   25  N3  UNL     1     -37.625 -14.561  58.359  1.00  0.00    -0.279 N 
ATOM     26  H2  UNL     1     -38.129 -15.159  60.164  1.00  0.00     0.188 HD
HETATM   27  C16 UNL     1     -36.844 -14.848  57.291  1.00  0.00     0.159 A 
ATOM     28  H3  UNL     1     -38.240 -13.747  58.370  1.00  0.00     0.189 HD
HETATM   29  N4  UNL     1     -36.758 -14.134  56.214  1.00  0.00    -0.379 N 
HETATM   30  S3  UNL     1     -36.038 -16.264  57.769  1.00  0.00    -0.027 SA
ATOM     31  H42 UNL     1     -37.242 -13.283  55.927  1.00  0.00     0.158 HD
ATOM     32  H41 UNL     1     -36.170 -14.351  55.410  1.00  0.00     0.158 HD
ENDBRANCH  22  23
ENDBRANCH  21  22
ENDBRANCH   7  21
TORSDOF 7
ENDMDL
MODEL 5
REMARK VINA RESULT: -6.981337902      3.864      5.874
REMARK  7 active torsions:
REMARK  status: ('A' for Active; 'I' for Inactive)
REMARK    1  A    between atoms: C2_2  and  O1_3 
REMARK    2  A    between atoms: O1_3  and  C3_4 
REMARK    3  A    between atoms: C3_4  and  C4_6 
REMARK    4  A    between atoms: C9_13  and  C10_14 
REMARK    5  A    between atoms: C13_20  and  C14_21 
REMARK    6  A    between atoms: C14_21  and  S2_22 
REMARK    7  A    between atoms: S2_22  and  C15_23 
ROOT
HETATM    1  C10 UNL     1     -32.835 -18.062  59.063  1.00  0.00    -0.009 A 
HETATM    2  C11 UNL     1     -32.932 -18.551  57.740  1.00  0.00     0.096 A 
HETATM    3  N1  UNL     1     -32.432 -17.929  56.522  1.00  0.00    -0.094 NA
HETATM    4  S1  UNL     1     -34.009 -19.855  57.828  1.00  0.00    -0.062 SA
HETATM    5  C12 UNL     1     -34.364 -19.801  59.477  1.00  0.00     0.084 A 
HETATM    6 CL1  UNL     1     -35.296 -20.984  60.406  1.00  0.00    -0.076 Cl
HETATM    7  C13 UNL     1     -33.643 -18.762  59.918  1.00  0.00    -0.010 A 
ENDROOT
BRANCH   1   8
HETATM    8  C9  UNL     1     -31.935 -16.872  59.369  1.00  0.00     0.062 C 
HETATM    9  C5  UNL     1     -30.708 -17.187  60.138  1.00  0.00    -0.041 C 
HETATM   10  C4  UNL     1     -30.515 -18.099  61.170  1.00  0.00     0.088 C 
HETATM   11  C6  UNL     1     -30.031 -15.847  60.412  1.00  0.00     0.213 C 
HETATM   12  O3  UNL     1     -30.672 -15.312  61.573  1.00  0.00    -0.317 OA
HETATM   13  C7  UNL     1     -32.031 -15.613  61.618  1.00  0.00     0.260 C 
HETATM   14  O4  UNL     1     -32.642 -15.613  62.713  1.00  0.00    -0.265 OA
HETATM   15  C8  UNL     1     -32.759 -15.952  60.352  1.00  0.00     0.125 C 
BRANCH  10  16
HETATM   16  C3  UNL     1     -29.062 -18.455  61.263  1.00  0.00     0.283 C 
HETATM   17  O2  UNL     1     -28.359 -18.249  62.291  1.00  0.00    -0.260 OA
BRANCH  16  18
HETATM   18  O1  UNL     1     -28.331 -19.062  60.205  1.00  0.00    -0.319 OA
BRANCH  18  19
HETATM   19  C2  UNL     1     -28.669 -20.359  59.729  1.00  0.00     0.174 C 
HETATM   20  C1  UNL     1     -29.529 -20.378  58.518  1.00  0.00     0.034 C 
ENDBRANCH  18  19
ENDBRANCH  16  18
ENDBRANCH  10  16
ENDBRANCH   1   8
BRANCH   7  21
HETATM   21  C14 UNL     1     -34.147 -18.116  61.261  1.00  0.00     0.123 C 
BRANCH  21  22
HETATM   22  S2  UNL     1     -35.724 -17.300  61.048  1.00  0.00    -0.099 SA
BRANCH  22  23
HETATM   23  C15 UNL     1     -37.215 -18.150  60.978  1.00  0.00     0.130 A 
HETATM   24  N2  UNL     1     -37.953 -18.888  61.763  1.00  0.00    -0.286 N 
HETATM   25  N3  UNL     1     -39.084 -19.374  61.440  1.00  0.00    -0.279 N 
ATOM     26  H2  UNL     1     -37.600 -19.089  62.699  1.00  0.00     0.188 HD
HETATM   27  C16 UNL     1     -39.529 -19.087  60.193  1.00  0.00     0.159 A 
ATOM     28  H3  UNL     1     -39.626 -19.948  62.085  1.00  0.00     0.189 HD
HETATM   29  N4  UNL     1     -40.668 -19.462  59.704  1.00  0.00    -0.379 N 
HETATM   30  S3  UNL     1     -38.287 -18.126  59.548  1.00  0.00    -0.027 SA
ATOM     31  H42 UNL     1     -41.414 -20.039  60.091  1.00  0.00     0.158 HD
ATOM     32  H41 UNL     1     -41.003 -19.246  58.765  1.00  0.00     0.158 HD
ENDBRANCH  22  23
ENDBRANCH  21  22
ENDBRANCH   7  21
TORSDOF 7
ENDMDL
