MODEL 1
REMARK VINA RESULT: -7.307067640      0.000      0.000
REMARK  10 active torsions:
REMARK  status: ('A' for Active; 'I' for Inactive)
REMARK    1  A    between atoms: C2_2  and  O1_3 
REMARK    2  A    between atoms: O1_3  and  C3_4 
REMARK    3  A    between atoms: C3_4  and  C4_6 
REMARK    4  A    between atoms: C6_12  and  N2_13 
REMARK    5  A    between atoms: N3_15  and  C7_17 
REMARK    6  A    between atoms: C9_19  and  O5_20 
REMARK    7  A    between atoms: O5_20  and  C10_21 
REMARK    8  A    between atoms: C11_22  and  C12_23 
REMARK    9  A    between atoms: C17_30  and  O7_31 
REMARK   10  A    between atoms: C20_35  and  O8_36 
ROOT
HETATM    1  C7  UNL     1     -33.956 -16.528  58.637  1.00  0.00     0.083 A 
HETATM    2  C8  UNL     1     -32.712 -17.058  58.910  1.00  0.00     0.070 A 
HETATM    3  C9  UNL     1     -32.141 -18.049  58.148  1.00  0.00     0.071 A 
HETATM    4  C18 UNL     1     -32.866 -18.517  57.060  1.00  0.00     0.039 A 
HETATM    5  C19 UNL     1     -34.097 -17.998  56.780  1.00  0.00     0.041 A 
HETATM    6  C20 UNL     1     -34.658 -17.004  57.554  1.00  0.00     0.093 A 
ENDROOT
BRANCH   1   7
HETATM    7  N3  UNL     1     -34.519 -15.507  59.448  1.00  0.00    -0.297 N 
HETATM    8  N2  UNL     1     -35.357 -15.636  60.354  1.00  0.00    -0.292 N 
ATOM      9  H2  UNL     1     -35.631 -14.771  60.818  1.00  0.00     0.187 HD
ATOM     10  H3  UNL     1     -34.197 -14.557  59.265  1.00  0.00     0.187 HD
BRANCH   8  11
HETATM   11  C6  UNL     1     -35.980 -16.792  60.831  1.00  0.00     0.160 A 
HETATM   12  C4  UNL     1     -35.524 -17.574  61.878  1.00  0.00     0.164 A 
HETATM   13  N1  UNL     1     -36.402 -18.569  62.000  1.00  0.00    -0.249 N 
HETATM   14  O3  UNL     1     -37.339 -18.445  61.113  1.00  0.00    -0.193 OA
ATOM     15  H1  UNL     1     -36.346 -19.319  62.689  1.00  0.00     0.195 HD
HETATM   16  C5  UNL     1     -37.141 -17.388  60.374  1.00  0.00     0.335 A 
HETATM   17  O4  UNL     1     -37.890 -17.006  59.423  1.00  0.00    -0.255 OA
BRANCH  12  18
HETATM   18  C3  UNL     1     -34.314 -17.352  62.693  1.00  0.00     0.314 C 
HETATM   19  O2  UNL     1     -34.294 -17.612  63.906  1.00  0.00    -0.257 OA
BRANCH  18  20
HETATM   20  O1  UNL     1     -33.168 -16.850  62.134  1.00  0.00    -0.317 OA
BRANCH  20  21
HETATM   21  C2  UNL     1     -32.528 -15.677  62.479  1.00  0.00     0.175 C 
HETATM   22  C1  UNL     1     -31.198 -15.444  61.852  1.00  0.00     0.034 C 
ENDBRANCH  20  21
ENDBRANCH  18  20
ENDBRANCH  12  18
ENDBRANCH   8  11
ENDBRANCH   1   7
BRANCH   6  23
HETATM   23  O8  UNL     1     -35.932 -16.481  57.248  1.00  0.00    -0.358 OA
ATOM     24  H8  UNL     1     -36.565 -17.011  56.778  1.00  0.00     0.217 HD
ENDBRANCH   6  23
BRANCH   3  25
HETATM   25  O5  UNL     1     -30.903 -18.608  58.383  1.00  0.00    -0.342 OA
BRANCH  25  26
HETATM   26  C10 UNL     1     -30.494 -19.417  59.433  1.00  0.00     0.170 C 
HETATM   27  C11 UNL     1     -29.002 -19.455  59.555  1.00  0.00     0.087 C 
HETATM   28  C14 UNL     1     -28.358 -20.771  59.271  1.00  0.00     0.016 C 
HETATM   29  C15 UNL     1     -29.008 -21.583  58.200  1.00  0.00     0.024 C 
HETATM   30  C16 UNL     1     -30.486 -21.483  58.134  1.00  0.00     0.113 C 
HETATM   31 CL1  UNL     1     -31.180 -23.118  58.054  1.00  0.00    -0.122 Cl
HETATM   32  C17 UNL     1     -31.104 -20.806  59.326  1.00  0.00     0.166 C 
BRANCH  27  33
HETATM   33  C12 UNL     1     -28.605 -18.884  60.868  1.00  0.00     0.129 C 
HETATM   34  C13 UNL     1     -28.120 -17.489  61.028  1.00  0.00     0.091 C 
HETATM   35  O6  UNL     1     -28.662 -19.557  61.904  1.00  0.00    -0.298 OA
ENDBRANCH  27  33
BRANCH  32  36
HETATM   36  O7  UNL     1     -30.990 -21.515  60.492  1.00  0.00    -0.391 OA
ATOM     37  H7  UNL     1     -30.775 -22.428  60.339  1.00  0.00     0.210 HD
ENDBRANCH  32  36
ENDBRANCH  25  26
ENDBRANCH   3  25
TORSDOF 10
ENDMDL
MODEL 2
REMARK VINA RESULT: -7.172107937      3.208      6.729
REMARK  10 active torsions:
REMARK  status: ('A' for Active; 'I' for Inactive)
REMARK    1  A    between atoms: C2_2  and  O1_3 
REMARK    2  A    between atoms: O1_3  and  C3_4 
REMARK    3  A    between atoms: C3_4  and  C4_6 
REMARK    4  A    between atoms: C6_12  and  N2_13 
REMARK    5  A    between atoms: N3_15  and  C7_17 
REMARK    6  A    between atoms: C9_19  and  O5_20 
REMARK    7  A    between atoms: O5_20  and  C10_21 
REMARK    8  A    between atoms: C11_22  and  C12_23 
REMARK    9  A    between atoms: C17_30  and  O7_31 
REMARK   10  A    between atoms: C20_35  and  O8_36 
ROOT
HETATM    1  C7  UNL     1     -32.328 -17.197  60.672  1.00  0.00     0.083 A 
HETATM    2  C8  UNL     1     -32.951 -18.356  60.258  1.00  0.00     0.070 A 
HETATM    3  C9  UNL     1     -33.912 -18.994  61.004  1.00  0.00     0.071 A 
HETATM    4  C18 UNL     1     -34.257 -18.425  62.223  1.00  0.00     0.039 A 
HETATM    5  C19 UNL     1     -33.648 -17.277  62.642  1.00  0.00     0.041 A 
HETATM    6  C20 UNL     1     -32.684 -16.649  61.882  1.00  0.00     0.093 A 
ENDROOT
BRANCH   1   7
HETATM    7  N3  UNL     1     -31.336 -16.566  59.877  1.00  0.00    -0.297 N 
HETATM    8  N2  UNL     1     -30.104 -16.641  60.005  1.00  0.00    -0.292 N 
ATOM      9  H2  UNL     1     -29.563 -16.108  59.324  1.00  0.00     0.187 HD
ATOM     10  H3  UNL     1     -31.674 -15.982  59.112  1.00  0.00     0.187 HD
BRANCH   8  11
HETATM   11  C6  UNL     1     -29.348 -17.349  60.943  1.00  0.00     0.160 A 
HETATM   12  C4  UNL     1     -28.962 -18.673  60.826  1.00  0.00     0.164 A 
HETATM   13  N1  UNL     1     -28.268 -18.950  61.930  1.00  0.00    -0.249 N 
HETATM   14  O3  UNL     1     -28.211 -17.903  62.692  1.00  0.00    -0.193 OA
ATOM     15  H1  UNL     1     -27.844 -19.852  62.144  1.00  0.00     0.195 HD
HETATM   16  C5  UNL     1     -28.846 -16.899  62.150  1.00  0.00     0.335 A 
HETATM   17  O4  UNL     1     -28.963 -15.743  62.660  1.00  0.00    -0.255 OA
BRANCH  12  18
HETATM   18  C3  UNL     1     -29.258 -19.591  59.710  1.00  0.00     0.314 C 
HETATM   19  O2  UNL     1     -29.951 -19.233  58.744  1.00  0.00    -0.257 OA
BRANCH  18  20
HETATM   20  O1  UNL     1     -28.777 -20.874  59.702  1.00  0.00    -0.317 OA
BRANCH  20  21
HETATM   21  C2  UNL     1     -27.678 -21.338  59.008  1.00  0.00     0.175 C 
HETATM   22  C1  UNL     1     -26.350 -21.075  59.627  1.00  0.00     0.034 C 
ENDBRANCH  20  21
ENDBRANCH  18  20
ENDBRANCH  12  18
ENDBRANCH   8  11
ENDBRANCH   1   7
BRANCH   6  23
HETATM   23  O8  UNL     1     -32.067 -15.463  62.333  1.00  0.00    -0.358 OA
ATOM     24  H8  UNL     1     -32.513 -14.899  62.954  1.00  0.00     0.217 HD
ENDBRANCH   6  23
BRANCH   3  25
HETATM   25  O5  UNL     1     -34.560 -20.152  60.631  1.00  0.00    -0.342 OA
BRANCH  25  26
HETATM   26  C10 UNL     1     -35.059 -20.514  59.388  1.00  0.00     0.170 C 
HETATM   27  C11 UNL     1     -36.156 -19.598  58.942  1.00  0.00     0.087 C 
HETATM   28  C14 UNL     1     -37.514 -20.209  58.836  1.00  0.00     0.016 C 
HETATM   29  C15 UNL     1     -37.825 -21.253  59.858  1.00  0.00     0.024 C 
HETATM   30  C16 UNL     1     -36.685 -22.112  60.258  1.00  0.00     0.113 C 
HETATM   31 CL1  UNL     1     -37.185 -23.818  60.187  1.00  0.00    -0.122 Cl
HETATM   32  C17 UNL     1     -35.479 -21.976  59.370  1.00  0.00     0.166 C 
BRANCH  27  33
HETATM   33  C12 UNL     1     -35.735 -18.900  57.701  1.00  0.00     0.129 C 
HETATM   34  C13 UNL     1     -35.485 -17.436  57.642  1.00  0.00     0.091 C 
HETATM   35  O6  UNL     1     -35.568 -19.517  56.642  1.00  0.00    -0.298 OA
ENDBRANCH  27  33
BRANCH  32  36
HETATM   36  O7  UNL     1     -35.665 -22.448  58.098  1.00  0.00    -0.391 OA
ATOM     37  H7  UNL     1     -36.584 -22.567  57.889  1.00  0.00     0.210 HD
ENDBRANCH  32  36
ENDBRANCH  25  26
ENDBRANCH   3  25
TORSDOF 10
ENDMDL
MODEL 3
REMARK VINA RESULT: -7.166011192      3.184      6.670
REMARK  10 active torsions:
REMARK  status: ('A' for Active; 'I' for Inactive)
REMARK    1  A    between atoms: C2_2  and  O1_3 
REMARK    2  A    between atoms: O1_3  and  C3_4 
REMARK    3  A    between atoms: C3_4  and  C4_6 
REMARK    4  A    between atoms: C6_12  and  N2_13 
REMARK    5  A    between atoms: N3_15  and  C7_17 
REMARK    6  A    between atoms: C9_19  and  O5_20 
REMARK    7  A    between atoms: O5_20  and  C10_21 
REMARK    8  A    between atoms: C11_22  and  C12_23 
REMARK    9  A    between atoms: C17_30  and  O7_31 
REMARK   10  A    between atoms: C20_35  and  O8_36 
ROOT
HETATM    1  C7  UNL     1     -32.200 -17.162  60.622  1.00  0.00     0.083 A 
HETATM    2  C8  UNL     1     -32.888 -18.292  60.233  1.00  0.00     0.070 A 
HETATM    3  C9  UNL     1     -33.869 -18.870  61.003  1.00  0.00     0.071 A 
HETATM    4  C18 UNL     1     -34.162 -18.270  62.221  1.00  0.00     0.039 A 
HETATM    5  C19 UNL     1     -33.488 -17.150  62.615  1.00  0.00     0.041 A 
HETATM    6  C20 UNL     1     -32.506 -16.581  61.831  1.00  0.00     0.093 A 
ENDROOT
BRANCH   1   7
HETATM    7  N3  UNL     1     -31.190 -16.593  59.802  1.00  0.00    -0.297 N 
HETATM    8  N2  UNL     1     -29.961 -16.729  59.911  1.00  0.00    -0.292 N 
ATOM      9  H2  UNL     1     -29.406 -16.234  59.215  1.00  0.00     0.187 HD
ATOM     10  H3  UNL     1     -31.511 -16.003  59.035  1.00  0.00     0.187 HD
BRANCH   8  11
HETATM   11  C6  UNL     1     -29.227 -17.462  60.847  1.00  0.00     0.160 A 
HETATM   12  C4  UNL     1     -28.797 -18.768  60.684  1.00  0.00     0.164 A 
HETATM   13  N1  UNL     1     -28.145 -19.081  61.803  1.00  0.00    -0.249 N 
HETATM   14  O3  UNL     1     -28.152 -18.072  62.617  1.00  0.00    -0.193 OA
ATOM     15  H1  UNL     1     -27.704 -19.981  61.992  1.00  0.00     0.195 HD
HETATM   16  C5  UNL     1     -28.792 -17.060  62.097  1.00  0.00     0.335 A 
HETATM   17  O4  UNL     1     -28.965 -15.935  62.656  1.00  0.00    -0.255 OA
BRANCH  12  18
HETATM   18  C3  UNL     1     -29.018 -19.637  59.512  1.00  0.00     0.314 C 
HETATM   19  O2  UNL     1     -28.129 -20.395  59.093  1.00  0.00    -0.257 OA
BRANCH  18  20
HETATM   20  O1  UNL     1     -30.215 -19.635  58.845  1.00  0.00    -0.317 OA
BRANCH  20  21
HETATM   21  C2  UNL     1     -30.978 -20.737  58.518  1.00  0.00     0.175 C 
HETATM   22  C1  UNL     1     -31.397 -21.608  59.650  1.00  0.00     0.034 C 
ENDBRANCH  20  21
ENDBRANCH  18  20
ENDBRANCH  12  18
ENDBRANCH   8  11
ENDBRANCH   1   7
BRANCH   6  23
HETATM   23  O8  UNL     1     -31.821 -15.425  62.256  1.00  0.00    -0.358 OA
ATOM     24  H8  UNL     1     -30.931 -15.263  61.967  1.00  0.00     0.217 HD
ENDBRANCH   6  23
BRANCH   3  25
HETATM   25  O5  UNL     1     -34.582 -19.997  60.656  1.00  0.00    -0.342 OA
BRANCH  25  26
HETATM   26  C10 UNL     1     -35.037 -20.394  59.407  1.00  0.00     0.170 C 
HETATM   27  C11 UNL     1     -36.149 -19.518  58.917  1.00  0.00     0.087 C 
HETATM   28  C14 UNL     1     -37.485 -20.170  58.788  1.00  0.00     0.016 C 
HETATM   29  C15 UNL     1     -37.793 -21.205  59.819  1.00  0.00     0.024 C 
HETATM   30  C16 UNL     1     -36.639 -22.024  60.263  1.00  0.00     0.113 C 
HETATM   31 CL1  UNL     1     -37.088 -23.745  60.209  1.00  0.00    -0.122 Cl
HETATM   32  C17 UNL     1     -35.415 -21.867  59.404  1.00  0.00     0.166 C 
BRANCH  27  33
HETATM   33  C12 UNL     1     -35.715 -18.828  57.676  1.00  0.00     0.129 C 
HETATM   34  C13 UNL     1     -35.472 -17.364  57.608  1.00  0.00     0.091 C 
HETATM   35  O6  UNL     1     -35.533 -19.453  56.624  1.00  0.00    -0.298 OA
ENDBRANCH  27  33
BRANCH  32  36
HETATM   36  O7  UNL     1     -35.555 -22.365  58.136  1.00  0.00    -0.391 OA
ATOM     37  H7  UNL     1     -35.878 -23.259  58.133  1.00  0.00     0.210 HD
ENDBRANCH  32  36
ENDBRANCH  25  26
ENDBRANCH   3  25
TORSDOF 10
ENDMDL
MODEL 4
REMARK VINA RESULT: -7.131344540      1.056      2.817
REMARK  10 active torsions:
REMARK  status: ('A' for Active; 'I' for Inactive)
REMARK    1  A    between atoms: C2_2  and  O1_3 
REMARK    2  A    between atoms: O1_3  and  C3_4 
REMARK    3  A    between atoms: C3_4  and  C4_6 
REMARK    4  A    between atoms: C6_12  and  N2_13 
REMARK    5  A    between atoms: N3_15  and  C7_17 
REMARK    6  A    between atoms: C9_19  and  O5_20 
REMARK    7  A    between atoms: O5_20  and  C10_21 
REMARK    8  A    between atoms: C11_22  and  C12_23 
REMARK    9  A    between atoms: C17_30  and  O7_31 
REMARK   10  A    between atoms: C20_35  and  O8_36 
ROOT
HETATM    1  C7  UNL     1     -34.278 -16.387  58.660  1.00  0.00     0.083 A 
HETATM    2  C8  UNL     1     -33.019 -16.837  59.000  1.00  0.00     0.070 A 
HETATM    3  C9  UNL     1     -32.351 -17.798  58.280  1.00  0.00     0.071 A 
HETATM    4  C18 UNL     1     -32.992 -18.322  57.164  1.00  0.00     0.039 A 
HETATM    5  C19 UNL     1     -34.237 -17.882  56.818  1.00  0.00     0.041 A 
HETATM    6  C20 UNL     1     -34.895 -16.917  57.551  1.00  0.00     0.093 A 
ENDROOT
BRANCH   1   7
HETATM    7  N3  UNL     1     -34.941 -15.395  59.429  1.00  0.00    -0.297 N 
HETATM    8  N2  UNL     1     -35.415 -15.513  60.570  1.00  0.00    -0.292 N 
ATOM      9  H2  UNL     1     -35.853 -14.673  60.948  1.00  0.00     0.187 HD
ATOM     10  H3  UNL     1     -35.039 -14.478  58.994  1.00  0.00     0.187 HD
BRANCH   8  11
HETATM   11  C6  UNL     1     -35.438 -16.627  61.413  1.00  0.00     0.160 A 
HETATM   12  C4  UNL     1     -36.420 -17.602  61.426  1.00  0.00     0.164 A 
HETATM   13  N1  UNL     1     -36.061 -18.470  62.372  1.00  0.00    -0.249 N 
HETATM   14  O3  UNL     1     -34.950 -18.092  62.921  1.00  0.00    -0.193 OA
ATOM     15  H1  UNL     1     -36.584 -19.308  62.626  1.00  0.00     0.195 HD
HETATM   16  C5  UNL     1     -34.520 -16.983  62.384  1.00  0.00     0.335 A 
HETATM   17  O4  UNL     1     -33.459 -16.371  62.713  1.00  0.00    -0.255 OA
BRANCH  12  18
HETATM   18  C3  UNL     1     -37.621 -17.667  60.571  1.00  0.00     0.314 C 
HETATM   19  O2  UNL     1     -38.500 -18.523  60.754  1.00  0.00    -0.257 OA
BRANCH  18  20
HETATM   20  O1  UNL     1     -37.805 -16.780  59.542  1.00  0.00    -0.317 OA
BRANCH  20  21
HETATM   21  C2  UNL     1     -38.939 -16.035  59.289  1.00  0.00     0.175 C 
HETATM   22  C1  UNL     1     -38.722 -14.610  58.919  1.00  0.00     0.034 C 
ENDBRANCH  20  21
ENDBRANCH  18  20
ENDBRANCH  12  18
ENDBRANCH   8  11
ENDBRANCH   1   7
BRANCH   6  23
HETATM   23  O8  UNL     1     -36.182 -16.477  57.177  1.00  0.00    -0.358 OA
ATOM     24  H8  UNL     1     -36.856 -17.107  56.953  1.00  0.00     0.217 HD
ENDBRANCH   6  23
BRANCH   3  25
HETATM   25  O5  UNL     1     -31.095 -18.278  58.582  1.00  0.00    -0.342 OA
BRANCH  25  26
HETATM   26  C10 UNL     1     -30.673 -18.981  59.701  1.00  0.00     0.170 C 
HETATM   27  C11 UNL     1     -29.222 -18.748  59.989  1.00  0.00     0.087 C 
HETATM   28  C14 UNL     1     -28.326 -19.931  59.828  1.00  0.00     0.016 C 
HETATM   29  C15 UNL     1     -28.695 -20.865  58.723  1.00  0.00     0.024 C 
HETATM   30  C16 UNL     1     -30.150 -21.034  58.490  1.00  0.00     0.113 C 
HETATM   31 CL1  UNL     1     -30.529 -22.769  58.397  1.00  0.00    -0.122 Cl
HETATM   32  C17 UNL     1     -31.011 -20.459  59.581  1.00  0.00     0.166 C 
BRANCH  27  33
HETATM   33  C12 UNL     1     -29.086 -18.092  61.314  1.00  0.00     0.129 C 
HETATM   34  C13 UNL     1     -29.798 -16.837  61.671  1.00  0.00     0.091 C 
HETATM   35  O6  UNL     1     -28.362 -18.569  62.196  1.00  0.00    -0.298 OA
ENDBRANCH  27  33
BRANCH  32  36
HETATM   36  O7  UNL     1     -30.909 -21.115  60.778  1.00  0.00    -0.391 OA
ATOM     37  H7  UNL     1     -30.005 -21.256  61.037  1.00  0.00     0.210 HD
ENDBRANCH  32  36
ENDBRANCH  25  26
ENDBRANCH   3  25
TORSDOF 10
ENDMDL
MODEL 5
REMARK VINA RESULT: -7.101355135      1.092      2.971
REMARK  10 active torsions:
REMARK  status: ('A' for Active; 'I' for Inactive)
REMARK    1  A    between atoms: C2_2  and  O1_3 
REMARK    2  A    between atoms: O1_3  and  C3_4 
REMARK    3  A    between atoms: C3_4  and  C4_6 
REMARK    4  A    between atoms: C6_12  and  N2_13 
REMARK    5  A    between atoms: N3_15  and  C7_17 
REMARK    6  A    between atoms: C9_19  and  O5_20 
REMARK    7  A    between atoms: O5_20  and  C10_21 
REMARK    8  A    between atoms: C11_22  and  C12_23 
REMARK    9  A    between atoms: C17_30  and  O7_31 
REMARK   10  A    between atoms: C20_35  and  O8_36 
ROOT
HETATM    1  C7  UNL     1     -34.355 -16.394  58.734  1.00  0.00     0.083 A 
HETATM    2  C8  UNL     1     -33.087 -16.836  59.050  1.00  0.00     0.070 A 
HETATM    3  C9  UNL     1     -32.421 -17.782  58.308  1.00  0.00     0.071 A 
HETATM    4  C18 UNL     1     -33.074 -18.298  57.196  1.00  0.00     0.039 A 
HETATM    5  C19 UNL     1     -34.328 -17.866  56.873  1.00  0.00     0.041 A 
HETATM    6  C20 UNL     1     -34.984 -16.916  57.627  1.00  0.00     0.093 A 
ENDROOT
BRANCH   1   7
HETATM    7  N3  UNL     1     -35.016 -15.417  59.524  1.00  0.00    -0.297 N 
HETATM    8  N2  UNL     1     -35.431 -15.540  60.687  1.00  0.00    -0.292 N 
ATOM      9  H2  UNL     1     -35.880 -14.712  61.078  1.00  0.00     0.187 HD
ATOM     10  H3  UNL     1     -35.167 -14.509  59.086  1.00  0.00     0.187 HD
BRANCH   8  11
HETATM   11  C6  UNL     1     -35.374 -16.645  61.540  1.00  0.00     0.160 A 
HETATM   12  C4  UNL     1     -36.322 -17.652  61.611  1.00  0.00     0.164 A 
HETATM   13  N1  UNL     1     -35.887 -18.497  62.546  1.00  0.00    -0.249 N 
HETATM   14  O3  UNL     1     -34.764 -18.077  63.036  1.00  0.00    -0.193 OA
ATOM     15  H1  UNL     1     -36.368 -19.349  62.833  1.00  0.00     0.195 HD
HETATM   16  C5  UNL     1     -34.398 -16.960  62.468  1.00  0.00     0.335 A 
HETATM   17  O4  UNL     1     -33.343 -16.309  62.738  1.00  0.00    -0.255 OA
BRANCH  12  18
HETATM   18  C3  UNL     1     -37.560 -17.766  60.817  1.00  0.00     0.314 C 
HETATM   19  O2  UNL     1     -37.762 -17.045  59.827  1.00  0.00    -0.257 OA
BRANCH  18  20
HETATM   20  O1  UNL     1     -38.531 -18.675  61.146  1.00  0.00    -0.317 OA
BRANCH  20  21
HETATM   21  C2  UNL     1     -38.932 -19.762  60.396  1.00  0.00     0.175 C 
HETATM   22  C1  UNL     1     -37.879 -20.764  60.075  1.00  0.00     0.034 C 
ENDBRANCH  20  21
ENDBRANCH  18  20
ENDBRANCH  12  18
ENDBRANCH   8  11
ENDBRANCH   1   7
BRANCH   6  23
HETATM   23  O8  UNL     1     -36.280 -16.484  57.277  1.00  0.00    -0.358 OA
ATOM     24  H8  UNL     1     -36.929 -17.111  56.980  1.00  0.00     0.217 HD
ENDBRANCH   6  23
BRANCH   3  25
HETATM   25  O5  UNL     1     -31.157 -18.254  58.586  1.00  0.00    -0.342 OA
BRANCH  25  26
HETATM   26  C10 UNL     1     -30.713 -18.975  59.685  1.00  0.00     0.170 C 
HETATM   27  C11 UNL     1     -29.253 -18.762  59.936  1.00  0.00     0.087 C 
HETATM   28  C14 UNL     1     -28.376 -19.954  59.738  1.00  0.00     0.016 C 
HETATM   29  C15 UNL     1     -28.786 -20.871  58.633  1.00  0.00     0.024 C 
HETATM   30  C16 UNL     1     -30.248 -21.020  58.437  1.00  0.00     0.113 C 
HETATM   31 CL1  UNL     1     -30.651 -22.749  58.335  1.00  0.00    -0.122 Cl
HETATM   32  C17 UNL     1     -31.073 -20.447  59.557  1.00  0.00     0.166 C 
BRANCH  27  33
HETATM   33  C12 UNL     1     -29.074 -18.123  61.265  1.00  0.00     0.129 C 
HETATM   34  C13 UNL     1     -29.806 -16.898  61.677  1.00  0.00     0.091 C 
HETATM   35  O6  UNL     1     -28.294 -18.591  62.103  1.00  0.00    -0.298 OA
ENDBRANCH  27  33
BRANCH  32  36
HETATM   36  O7  UNL     1     -30.947 -21.119  60.744  1.00  0.00    -0.391 OA
ATOM     37  H7  UNL     1     -31.244 -22.019  60.682  1.00  0.00     0.210 HD
ENDBRANCH  32  36
ENDBRANCH  25  26
ENDBRANCH   3  25
TORSDOF 10
ENDMDL
