MODEL 1
REMARK VINA RESULT: -8.062365740      0.000      0.000
REMARK  9 active torsions:
REMARK  status: ('A' for Active; 'I' for Inactive)
REMARK    1  A    between atoms: N1_1  and  C1_4 
REMARK    2  A    between atoms: C2_7  and  N3_8 
REMARK    3  A    between atoms: N3_8  and  N4_10 
REMARK    4  A    between atoms: C3_15  and  N6_16 
REMARK    5  A    between atoms: N6_16  and  C4_18 
REMARK    6  A    between atoms: C4_18  and  C5_19 
REMARK    7  A    between atoms: C5_19  and  C6_20 
REMARK    8  A    between atoms: C6_20  and  C7_21 
REMARK       I    between atoms: C7_21  and  N7_23 
REMARK    9  A    between atoms: N7_23  and  C8_25 
ROOT
HETATM    1  C1  UNL     1      12.998  19.495  10.497  1.00  0.00     0.184 C 
HETATM    2  N2  UNL     1      11.994  20.348  10.801  1.00  0.00    -0.170 N 
ATOM      3  H2  UNL     1      12.282  21.149  11.363  1.00  0.00     0.186 HD
HETATM    4  C2  UNL     1      10.695  20.330  10.498  1.00  0.00     0.712 C 
HETATM    5  N5  UNL     1      10.061  19.303   9.864  1.00  0.00    -0.021 N 
ATOM      6  H5  UNL     1       9.099  19.498   9.588  1.00  0.00     0.203 HD
HETATM    7  C3  UNL     1      10.501  18.085   9.547  1.00  0.00     0.695 C 
HETATM    8  N12 UNL     1      11.767  17.655   9.497  1.00  0.00    -0.153 N 
ATOM      9  H12 UNL     1      11.888  16.716   9.121  1.00  0.00     0.187 HD
HETATM   10  C9  UNL     1      12.922  18.280   9.872  1.00  0.00     0.303 C 
HETATM   11  O2  UNL     1      14.010  17.699   9.628  1.00  0.00    -0.263 OA
ENDROOT
BRANCH   7  12
HETATM   12  N6  UNL     1       9.625  17.220   9.258  1.00  0.00    -0.225 N 
ATOM     13  H6  UNL     1       9.239  17.173   8.315  1.00  0.00     0.177 HD
BRANCH  12  14
HETATM   14  C4  UNL     1       9.176  16.298  10.275  1.00  0.00     0.138 C 
BRANCH  14  15
HETATM   15  C5  UNL     1       8.733  14.984   9.657  1.00  0.00     0.029 C 
BRANCH  15  16
HETATM   16  C6  UNL     1       9.958  14.108   9.552  1.00  0.00     0.105 C 
BRANCH  16  17
HETATM   17  C7  UNL     1      10.179  13.780   8.130  1.00  0.00     0.235 C 
HETATM   18  O1  UNL     1      10.826  12.753   7.838  1.00  0.00    -0.273 OA
HETATM   19  N7  UNL     1       9.662  14.623   7.142  1.00  0.00    -0.158 N 
ATOM     20  H7  UNL     1       8.713  14.975   7.272  1.00  0.00     0.187 HD
BRANCH  19  21
HETATM   21  C8  UNL     1      10.292  14.991   6.079  1.00  0.00     0.710 A 
HETATM   22  N8  UNL     1      11.035  14.157   5.327  1.00  0.00    -0.117 N 
HETATM   23  N9  UNL     1      11.534  14.870   4.318  1.00  0.00     0.006 NA
ATOM     24  H8  UNL     1      11.187  13.163   5.497  1.00  0.00     0.202 HD
HETATM   25  N10 UNL     1      11.133  16.126   4.405  1.00  0.00     0.006 NA
HETATM   26  N11 UNL     1      10.375  16.187   5.486  1.00  0.00    -0.117 N 
ATOM     27  H11 UNL     1       9.915  17.033   5.823  1.00  0.00     0.202 HD
ENDBRANCH  19  21
ENDBRANCH  16  17
ENDBRANCH  15  16
ENDBRANCH  14  15
ENDBRANCH  12  14
ENDBRANCH   7  12
BRANCH   4  28
HETATM   28  N3  UNL     1      10.038  21.359  10.841  1.00  0.00    -0.138 N 
ATOM     29  H3  UNL     1       9.066  21.419  10.538  1.00  0.00     0.205 HD
BRANCH  28  30
HETATM   30  N4  UNL     1      10.538  22.411  11.599  1.00  0.00    -0.331 N 
ATOM     31  H42 UNL     1      11.549  22.432  11.732  1.00  0.00     0.177 HD
ATOM     32  H41 UNL     1       9.975  23.150  12.022  1.00  0.00     0.177 HD
ENDBRANCH  28  30
ENDBRANCH   4  28
BRANCH   1  33
HETATM   33  N1  UNL     1      14.184  19.872  10.838  1.00  0.00    -0.381 N 
ATOM     34  H12 UNL     1      14.225  20.612  11.540  1.00  0.00     0.157 HD
ATOM     35  H11 UNL     1      14.956  19.394  10.373  1.00  0.00     0.157 HD
ENDBRANCH   1  33
TORSDOF 9
ENDMDL
MODEL 2
REMARK VINA RESULT: -7.960491468      2.242      3.446
REMARK  9 active torsions:
REMARK  status: ('A' for Active; 'I' for Inactive)
REMARK    1  A    between atoms: N1_1  and  C1_4 
REMARK    2  A    between atoms: C2_7  and  N3_8 
REMARK    3  A    between atoms: N3_8  and  N4_10 
REMARK    4  A    between atoms: C3_15  and  N6_16 
REMARK    5  A    between atoms: N6_16  and  C4_18 
REMARK    6  A    between atoms: C4_18  and  C5_19 
REMARK    7  A    between atoms: C5_19  and  C6_20 
REMARK    8  A    between atoms: C6_20  and  C7_21 
REMARK       I    between atoms: C7_21  and  N7_23 
REMARK    9  A    between atoms: N7_23  and  C8_25 
ROOT
HETATM    1  C1  UNL     1      11.795  20.279  14.094  1.00  0.00     0.184 C 
HETATM    2  N2  UNL     1      11.072  21.027  13.232  1.00  0.00    -0.170 N 
ATOM      3  H2  UNL     1      10.217  21.416  13.630  1.00  0.00     0.186 HD
HETATM    4  C2  UNL     1      11.276  21.349  11.953  1.00  0.00     0.712 C 
HETATM    5  N5  UNL     1      12.281  20.851  11.179  1.00  0.00    -0.021 N 
ATOM      6  H5  UNL     1      12.380  21.294  10.266  1.00  0.00     0.203 HD
HETATM    7  C3  UNL     1      13.155  19.875  11.427  1.00  0.00     0.695 C 
HETATM    8  N12 UNL     1      13.470  19.335  12.610  1.00  0.00    -0.153 N 
ATOM      9  H12 UNL     1      14.249  18.677  12.589  1.00  0.00     0.187 HD
HETATM   10  C9  UNL     1      12.910  19.528  13.841  1.00  0.00     0.303 C 
HETATM   11  O2  UNL     1      13.457  18.974  14.828  1.00  0.00    -0.263 OA
ENDROOT
BRANCH   7  12
HETATM   12  N6  UNL     1      13.766  19.389  10.432  1.00  0.00    -0.225 N 
ATOM     13  H6  UNL     1      13.976  19.973   9.622  1.00  0.00     0.177 HD
BRANCH  12  14
HETATM   14  C4  UNL     1      14.167  18.002  10.453  1.00  0.00     0.138 C 
BRANCH  14  15
HETATM   15  C5  UNL     1      13.691  17.283   9.204  1.00  0.00     0.029 C 
BRANCH  15  16
HETATM   16  C6  UNL     1      12.188  17.175   9.300  1.00  0.00     0.105 C 
BRANCH  16  17
HETATM   17  C7  UNL     1      11.731  16.141   8.351  1.00  0.00     0.235 C 
HETATM   18  O1  UNL     1      12.092  14.958   8.522  1.00  0.00    -0.273 OA
HETATM   19  N7  UNL     1      10.906  16.506   7.283  1.00  0.00    -0.158 N 
ATOM     20  H7  UNL     1      10.145  17.158   7.477  1.00  0.00     0.187 HD
BRANCH  19  21
HETATM   21  C8  UNL     1      11.032  16.081   6.072  1.00  0.00     0.710 A 
HETATM   22  N8  UNL     1      10.669  16.795   4.990  1.00  0.00    -0.117 N 
HETATM   23  N9  UNL     1      10.940  16.054   3.916  1.00  0.00     0.006 NA
ATOM     24  H8  UNL     1      10.263  17.730   4.991  1.00  0.00     0.202 HD
HETATM   25  N10 UNL     1      11.462  14.896   4.281  1.00  0.00     0.006 NA
HETATM   26  N11 UNL     1      11.513  14.925   5.601  1.00  0.00    -0.117 N 
ATOM     27  H11 UNL     1      11.870  14.167   6.183  1.00  0.00     0.202 HD
ENDBRANCH  19  21
ENDBRANCH  16  17
ENDBRANCH  15  16
ENDBRANCH  14  15
ENDBRANCH  12  14
ENDBRANCH   7  12
BRANCH   4  28
HETATM   28  N3  UNL     1      10.455  22.181  11.460  1.00  0.00    -0.138 N 
ATOM     29  H3  UNL     1      10.637  23.171  11.619  1.00  0.00     0.205 HD
BRANCH  28  30
HETATM   30  N4  UNL     1       9.328  21.848  10.719  1.00  0.00    -0.331 N 
ATOM     31  H42 UNL     1       8.427  22.008  11.170  1.00  0.00     0.177 HD
ATOM     32  H41 UNL     1       9.338  21.463   9.774  1.00  0.00     0.177 HD
ENDBRANCH  28  30
ENDBRANCH   4  28
BRANCH   1  33
HETATM   33  N1  UNL     1      11.383  20.268  15.317  1.00  0.00    -0.381 N 
ATOM     34  H12 UNL     1      11.264  19.344  15.733  1.00  0.00     0.157 HD
ATOM     35  H11 UNL     1      11.219  21.181  15.742  1.00  0.00     0.157 HD
ENDBRANCH   1  33
TORSDOF 9
ENDMDL
MODEL 3
REMARK VINA RESULT: -7.951016726      2.900      5.413
REMARK  9 active torsions:
REMARK  status: ('A' for Active; 'I' for Inactive)
REMARK    1  A    between atoms: N1_1  and  C1_4 
REMARK    2  A    between atoms: C2_7  and  N3_8 
REMARK    3  A    between atoms: N3_8  and  N4_10 
REMARK    4  A    between atoms: C3_15  and  N6_16 
REMARK    5  A    between atoms: N6_16  and  C4_18 
REMARK    6  A    between atoms: C4_18  and  C5_19 
REMARK    7  A    between atoms: C5_19  and  C6_20 
REMARK    8  A    between atoms: C6_20  and  C7_21 
REMARK       I    between atoms: C7_21  and  N7_23 
REMARK    9  A    between atoms: N7_23  and  C8_25 
ROOT
HETATM    1  C1  UNL     1      12.976  19.527  10.500  1.00  0.00     0.184 C 
HETATM    2  N2  UNL     1      11.969  20.376  10.801  1.00  0.00    -0.170 N 
ATOM      3  H2  UNL     1      12.261  21.207  11.315  1.00  0.00     0.186 HD
HETATM    4  C2  UNL     1      10.660  20.322  10.545  1.00  0.00     0.712 C 
HETATM    5  N5  UNL     1      10.023  19.257   9.982  1.00  0.00    -0.021 N 
ATOM      6  H5  UNL     1       9.048  19.422   9.732  1.00  0.00     0.203 HD
HETATM    7  C3  UNL     1      10.474  18.033   9.706  1.00  0.00     0.695 C 
HETATM    8  N12 UNL     1      11.745  17.622   9.630  1.00  0.00    -0.153 N 
ATOM      9  H12 UNL     1      11.870  16.668   9.293  1.00  0.00     0.187 HD
HETATM   10  C9  UNL     1      12.901  18.283   9.935  1.00  0.00     0.303 C 
HETATM   11  O2  UNL     1      13.990  17.709   9.679  1.00  0.00    -0.263 OA
ENDROOT
BRANCH   7  12
HETATM   12  N6  UNL     1       9.604  17.140   9.488  1.00  0.00    -0.225 N 
ATOM     13  H6  UNL     1       8.844  17.311   8.830  1.00  0.00     0.177 HD
BRANCH  12  14
HETATM   14  C4  UNL     1       9.698  15.875  10.180  1.00  0.00     0.138 C 
BRANCH  14  15
HETATM   15  C5  UNL     1       8.673  15.792  11.296  1.00  0.00     0.029 C 
BRANCH  15  16
HETATM   16  C6  UNL     1       9.430  15.867  12.600  1.00  0.00     0.105 C 
BRANCH  16  17
HETATM   17  C7  UNL     1       9.456  17.273  13.047  1.00  0.00     0.235 C 
HETATM   18  O1  UNL     1       8.649  18.084  12.546  1.00  0.00    -0.273 OA
HETATM   19  N7  UNL     1      10.380  17.669  14.020  1.00  0.00    -0.158 N 
ATOM     20  H7  UNL     1      10.517  17.049  14.819  1.00  0.00     0.187 HD
BRANCH  19  21
HETATM   21  C8  UNL     1      11.072  18.755  13.983  1.00  0.00     0.710 A 
HETATM   22  N8  UNL     1      10.529  19.987  14.025  1.00  0.00    -0.117 N 
HETATM   23  N9  UNL     1      11.530  20.865  13.968  1.00  0.00     0.006 NA
ATOM     24  H8  UNL     1       9.535  20.207  14.088  1.00  0.00     0.202 HD
HETATM   25  N10 UNL     1      12.687  20.232  13.893  1.00  0.00     0.006 NA
HETATM   26  N11 UNL     1      12.394  18.944  13.903  1.00  0.00    -0.117 N 
ATOM     27  H11 UNL     1      13.083  18.193  13.855  1.00  0.00     0.202 HD
ENDBRANCH  19  21
ENDBRANCH  16  17
ENDBRANCH  15  16
ENDBRANCH  14  15
ENDBRANCH  12  14
ENDBRANCH   7  12
BRANCH   4  28
HETATM   28  N3  UNL     1       9.997  21.355  10.865  1.00  0.00    -0.138 N 
ATOM     29  H3  UNL     1       9.008  21.374  10.614  1.00  0.00     0.205 HD
BRANCH  28  30
HETATM   30  N4  UNL     1      10.510  22.461  11.530  1.00  0.00    -0.331 N 
ATOM     31  H42 UNL     1      11.057  23.114  10.967  1.00  0.00     0.177 HD
ATOM     32  H41 UNL     1      10.381  22.663  12.522  1.00  0.00     0.177 HD
ENDBRANCH  28  30
ENDBRANCH   4  28
BRANCH   1  33
HETATM   33  N1  UNL     1      14.166  19.939  10.781  1.00  0.00    -0.381 N 
ATOM     34  H12 UNL     1      14.292  20.952  10.782  1.00  0.00     0.157 HD
ATOM     35  H11 UNL     1      14.857  19.213  10.974  1.00  0.00     0.157 HD
ENDBRANCH   1  33
TORSDOF 9
ENDMDL
MODEL 4
REMARK VINA RESULT: -7.880621686      2.053      6.490
REMARK  9 active torsions:
REMARK  status: ('A' for Active; 'I' for Inactive)
REMARK    1  A    between atoms: N1_1  and  C1_4 
REMARK    2  A    between atoms: C2_7  and  N3_8 
REMARK    3  A    between atoms: N3_8  and  N4_10 
REMARK    4  A    between atoms: C3_15  and  N6_16 
REMARK    5  A    between atoms: N6_16  and  C4_18 
REMARK    6  A    between atoms: C4_18  and  C5_19 
REMARK    7  A    between atoms: C5_19  and  C6_20 
REMARK    8  A    between atoms: C6_20  and  C7_21 
REMARK       I    between atoms: C7_21  and  N7_23 
REMARK    9  A    between atoms: N7_23  and  C8_25 
ROOT
HETATM    1  C1  UNL     1      10.150  16.097   7.160  1.00  0.00     0.184 C 
HETATM    2  N2  UNL     1       9.637  16.965   8.061  1.00  0.00    -0.170 N 
ATOM      3  H2  UNL     1       8.662  17.214   7.893  1.00  0.00     0.186 HD
HETATM    4  C2  UNL     1      10.177  17.553   9.130  1.00  0.00     0.712 C 
HETATM    5  N5  UNL     1      11.491  17.469   9.480  1.00  0.00    -0.021 N 
ATOM      6  H5  UNL     1      11.719  17.864  10.392  1.00  0.00     0.203 HD
HETATM    7  C3  UNL     1      12.527  16.950   8.819  1.00  0.00     0.695 C 
HETATM    8  N12 UNL     1      12.500  16.112   7.777  1.00  0.00    -0.153 N 
ATOM      9  H12 UNL     1      13.409  15.748   7.494  1.00  0.00     0.187 HD
HETATM   10  C9  UNL     1      11.443  15.667   7.034  1.00  0.00     0.303 C 
HETATM   11  O2  UNL     1      11.667  14.792   6.160  1.00  0.00    -0.263 OA
ENDROOT
BRANCH   7  12
HETATM   12  N6  UNL     1      13.681  17.286   9.213  1.00  0.00    -0.225 N 
ATOM     13  H6  UNL     1      14.249  17.925   8.656  1.00  0.00     0.177 HD
BRANCH  12  14
HETATM   14  C4  UNL     1      14.188  16.756  10.457  1.00  0.00     0.138 C 
BRANCH  14  15
HETATM   15  C5  UNL     1      14.628  17.876  11.382  1.00  0.00     0.029 C 
BRANCH  15  16
HETATM   16  C6  UNL     1      14.295  19.178  10.692  1.00  0.00     0.105 C 
BRANCH  16  17
HETATM   17  C7  UNL     1      13.416  19.966  11.577  1.00  0.00     0.235 C 
HETATM   18  O1  UNL     1      13.605  19.927  12.811  1.00  0.00    -0.273 OA
HETATM   19  N7  UNL     1      12.391  20.737  11.019  1.00  0.00    -0.158 N 
ATOM     20  H7  UNL     1      12.611  21.275  10.181  1.00  0.00     0.187 HD
BRANCH  19  21
HETATM   21  C8  UNL     1      11.191  20.819  11.483  1.00  0.00     0.710 A 
HETATM   22  N8  UNL     1      10.156  21.322  10.785  1.00  0.00    -0.117 N 
HETATM   23  N9  UNL     1       9.079  21.251  11.567  1.00  0.00     0.006 NA
ATOM     24  H8  UNL     1      10.189  21.690   9.835  1.00  0.00     0.202 HD
HETATM   25  N10 UNL     1       9.397  20.720  12.734  1.00  0.00     0.006 NA
HETATM   26  N11 UNL     1      10.690  20.460  12.670  1.00  0.00    -0.117 N 
ATOM     27  H11 UNL     1      11.235  20.043  13.425  1.00  0.00     0.202 HD
ENDBRANCH  19  21
ENDBRANCH  16  17
ENDBRANCH  15  16
ENDBRANCH  14  15
ENDBRANCH  12  14
ENDBRANCH   7  12
BRANCH   4  28
HETATM   28  N3  UNL     1       9.377  18.231   9.844  1.00  0.00    -0.138 N 
ATOM     29  H3  UNL     1       8.971  19.069   9.428  1.00  0.00     0.205 HD
BRANCH  28  30
HETATM   30  N4  UNL     1       9.011  17.922  11.148  1.00  0.00    -0.331 N 
ATOM     31  H42 UNL     1       9.740  17.525  11.741  1.00  0.00     0.177 HD
ATOM     32  H41 UNL     1       8.082  18.061  11.546  1.00  0.00     0.177 HD
ENDBRANCH  28  30
ENDBRANCH   4  28
BRANCH   1  33
HETATM   33  N1  UNL     1       9.316  15.608   6.306  1.00  0.00    -0.381 N 
ATOM     34  H12 UNL     1       8.338  15.605   6.599  1.00  0.00     0.157 HD
ATOM     35  H11 UNL     1       9.717  15.277   5.428  1.00  0.00     0.157 HD
ENDBRANCH   1  33
TORSDOF 9
ENDMDL
MODEL 5
REMARK VINA RESULT: -7.880280286      4.970      8.231
REMARK  9 active torsions:
REMARK  status: ('A' for Active; 'I' for Inactive)
REMARK    1  A    between atoms: N1_1  and  C1_4 
REMARK    2  A    between atoms: C2_7  and  N3_8 
REMARK    3  A    between atoms: N3_8  and  N4_10 
REMARK    4  A    between atoms: C3_15  and  N6_16 
REMARK    5  A    between atoms: N6_16  and  C4_18 
REMARK    6  A    between atoms: C4_18  and  C5_19 
REMARK    7  A    between atoms: C5_19  and  C6_20 
REMARK    8  A    between atoms: C6_20  and  C7_21 
REMARK       I    between atoms: C7_21  and  N7_23 
REMARK    9  A    between atoms: N7_23  and  C8_25 
ROOT
HETATM    1  C1  UNL     1      18.755  13.426   7.295  1.00  0.00     0.184 C 
HETATM    2  N2  UNL     1      18.382  14.314   6.347  1.00  0.00    -0.170 N 
ATOM      3  H2  UNL     1      18.992  14.335   5.529  1.00  0.00     0.186 HD
HETATM    4  C2  UNL     1      17.359  15.169   6.288  1.00  0.00     0.712 C 
HETATM    5  N5  UNL     1      16.487  15.406   7.309  1.00  0.00    -0.021 N 
ATOM      6  H5  UNL     1      15.685  15.986   7.063  1.00  0.00     0.203 HD
HETATM    7  C3  UNL     1      16.516  14.997   8.577  1.00  0.00     0.695 C 
HETATM    8  N12 UNL     1      17.243  14.006   9.105  1.00  0.00    -0.153 N 
ATOM      9  H12 UNL     1      17.030  13.786  10.078  1.00  0.00     0.187 HD
HETATM   10  C9  UNL     1      18.228  13.244   8.544  1.00  0.00     0.303 C 
HETATM   11  O2  UNL     1      18.696  12.295   9.224  1.00  0.00    -0.263 OA
ENDROOT
BRANCH   7  12
HETATM   12  N6  UNL     1      15.772  15.615   9.393  1.00  0.00    -0.225 N 
ATOM     13  H6  UNL     1      15.956  15.566  10.396  1.00  0.00     0.177 HD
BRANCH  12  14
HETATM   14  C4  UNL     1      14.661  16.389   8.893  1.00  0.00     0.138 C 
BRANCH  14  15
HETATM   15  C5  UNL     1      14.529  17.698   9.650  1.00  0.00     0.029 C 
BRANCH  15  16
HETATM   16  C6  UNL     1      13.120  17.759  10.189  1.00  0.00     0.105 C 
BRANCH  16  17
HETATM   17  C7  UNL     1      12.740  19.176  10.348  1.00  0.00     0.235 C 
HETATM   18  O1  UNL     1      13.591  19.988  10.769  1.00  0.00    -0.273 OA
HETATM   19  N7  UNL     1      11.440  19.580  10.029  1.00  0.00    -0.158 N 
ATOM     20  H7  UNL     1      11.028  19.206   9.173  1.00  0.00     0.187 HD
BRANCH  19  21
HETATM   21  C8  UNL     1      10.723  20.388  10.731  1.00  0.00     0.710 A 
HETATM   22  N8  UNL     1       9.466  20.115  11.130  1.00  0.00    -0.117 N 
HETATM   23  N9  UNL     1       9.035  21.164  11.830  1.00  0.00     0.006 NA
ATOM     24  H8  UNL     1       8.941  19.263  10.934  1.00  0.00     0.202 HD
HETATM   25  N10 UNL     1       9.975  22.091  11.889  1.00  0.00     0.006 NA
HETATM   26  N11 UNL     1      11.001  21.605  11.213  1.00  0.00    -0.117 N 
ATOM     27  H11 UNL     1      11.887  22.092  11.076  1.00  0.00     0.202 HD
ENDBRANCH  19  21
ENDBRANCH  16  17
ENDBRANCH  15  16
ENDBRANCH  14  15
ENDBRANCH  12  14
ENDBRANCH   7  12
BRANCH   4  28
HETATM   28  N3  UNL     1      17.224  15.787   5.189  1.00  0.00    -0.138 N 
ATOM     29  H3  UNL     1      16.374  16.336   5.060  1.00  0.00     0.205 HD
BRANCH  28  30
HETATM   30  N4  UNL     1      18.141  15.775   4.146  1.00  0.00    -0.331 N 
ATOM     31  H42 UNL     1      19.125  15.711   4.409  1.00  0.00     0.177 HD
ATOM     32  H41 UNL     1      17.905  15.824   3.154  1.00  0.00     0.177 HD
ENDBRANCH  28  30
ENDBRANCH   4  28
BRANCH   1  33
HETATM   33  N1  UNL     1      19.734  12.646   6.984  1.00  0.00    -0.381 N 
ATOM     34  H12 UNL     1      20.552  13.105   6.582  1.00  0.00     0.157 HD
ATOM     35  H11 UNL     1      19.592  11.653   7.173  1.00  0.00     0.157 HD
ENDBRANCH   1  33
TORSDOF 9
ENDMDL
