MODEL 1
REMARK VINA RESULT: -7.736502972      0.000      0.000
REMARK  4 active torsions:
REMARK  status: ('A' for Active; 'I' for Inactive)
REMARK    1  A    between atoms: C2_3  and  C3_4 
REMARK       I    between atoms: C3_4  and  N2_6 
REMARK    2  A    between atoms: N2_6  and  N3_8 
REMARK       I    between atoms: N3_8  and  C4_10 
REMARK    3  A    between atoms: C5_15  and  C6_16 
REMARK    4  A    between atoms: N6_17  and  N7_19 
ROOT
HETATM    1  C1  UNL     1       9.338  16.328  12.549  1.00  0.00     0.161 C 
HETATM    2  N1  UNL     1       9.240  15.607  11.304  1.00  0.00    -0.298 N 
HETATM    3  C2  UNL     1       9.881  16.074  10.199  1.00  0.00     0.125 A 
HETATM    4  C5  UNL     1       9.799  15.325   9.055  1.00  0.00     0.082 A 
HETATM    5  C8  UNL     1       9.073  14.136   9.074  1.00  0.00     0.263 A 
HETATM    6  O2  UNL     1       9.003  13.456   8.027  1.00  0.00    -0.267 OA
HETATM    7  N10 UNL     1       8.448  13.692  10.166  1.00  0.00    -0.275 N 
ATOM      8  H10 UNL     1       7.922  12.818  10.156  1.00  0.00     0.173 HD
HETATM    9  C9  UNL     1       8.539  14.431  11.268  1.00  0.00     0.329 A 
HETATM   10  O3  UNL     1       7.971  14.078  12.351  1.00  0.00    -0.246 OA
ENDROOT
BRANCH   3  11
HETATM   11  C3  UNL     1      10.585  17.343  10.181  1.00  0.00     0.288 C 
HETATM   12  O1  UNL     1      11.841  17.409  10.422  1.00  0.00    -0.264 OA
HETATM   13  N2  UNL     1       9.893  18.539   9.888  1.00  0.00    -0.262 N 
ATOM     14  H2  UNL     1       8.894  18.514   9.686  1.00  0.00     0.190 HD
BRANCH  13  15
HETATM   15  N3  UNL     1      10.578  19.755   9.873  1.00  0.00    -0.271 N 
HETATM   16  C4  UNL     1      10.433  20.653  10.946  1.00  0.00     0.200 C 
HETATM   17  N4  UNL     1       9.262  21.005  11.341  1.00  0.00    -0.372 N 
HETATM   18  N5  UNL     1      11.576  21.186  11.614  1.00  0.00    -0.062 NA
ATOM     19  H42 UNL     1       8.445  20.624  10.863  1.00  0.00     0.158 HD
ATOM     20  H41 UNL     1       9.156  21.656  12.118  1.00  0.00     0.158 HD
ATOM     21  H3  UNL     1      11.183  19.992   9.087  1.00  0.00     0.189 HD
ENDBRANCH  13  15
ENDBRANCH   3  11
BRANCH   4  22
HETATM   22  C6  UNL     1      10.410  15.750   7.797  1.00  0.00     0.126 C 
HETATM   23  N6  UNL     1       9.711  15.837   6.741  1.00  0.00    -0.309 N 
ATOM     24  H6  UNL     1       8.726  15.594   6.848  1.00  0.00     0.186 HD
BRANCH  23  25
HETATM   25  N7  UNL     1      10.073  16.195   5.530  1.00  0.00    -0.276 N 
HETATM   26  C7  UNL     1      10.838  15.824   4.634  1.00  0.00     0.215 C 
HETATM   27  N8  UNL     1      10.884  16.595   3.414  1.00  0.00    -0.065 NA
HETATM   28  N9  UNL     1      11.666  14.683   4.746  1.00  0.00    -0.065 NA
ATOM     29  H7  UNL     1       9.571  17.035   5.242  1.00  0.00     0.189 HD
ENDBRANCH  23  25
ENDBRANCH   4  22
TORSDOF 4
ENDMDL
MODEL 2
REMARK VINA RESULT: -7.570190553      1.481      5.749
REMARK  4 active torsions:
REMARK  status: ('A' for Active; 'I' for Inactive)
REMARK    1  A    between atoms: C2_3  and  C3_4 
REMARK       I    between atoms: C3_4  and  N2_6 
REMARK    2  A    between atoms: N2_6  and  N3_8 
REMARK       I    between atoms: N3_8  and  C4_10 
REMARK    3  A    between atoms: C5_15  and  C6_16 
REMARK    4  A    between atoms: N6_17  and  N7_19 
ROOT
HETATM    1  C1  UNL     1       9.236  12.764   7.465  1.00  0.00     0.161 C 
HETATM    2  N1  UNL     1       9.028  13.444   8.720  1.00  0.00    -0.298 N 
HETATM    3  C2  UNL     1       9.519  14.699   8.900  1.00  0.00     0.125 A 
HETATM    4  C5  UNL     1       9.249  15.320  10.090  1.00  0.00     0.082 A 
HETATM    5  C8  UNL     1       8.494  14.649  11.049  1.00  0.00     0.263 A 
HETATM    6  O2  UNL     1       8.249  15.222  12.134  1.00  0.00    -0.267 OA
HETATM    7  N10 UNL     1       8.019  13.417  10.858  1.00  0.00    -0.275 N 
ATOM      8  H10 UNL     1       7.469  12.944  11.575  1.00  0.00     0.173 HD
HETATM    9  C9  UNL     1       8.291  12.828   9.697  1.00  0.00     0.329 A 
HETATM   10  O3  UNL     1       7.876  11.654   9.436  1.00  0.00    -0.246 OA
ENDROOT
BRANCH   3  11
HETATM   11  C3  UNL     1      10.353  15.362   7.914  1.00  0.00     0.288 C 
HETATM   12  O1  UNL     1      11.629  15.359   8.014  1.00  0.00    -0.264 OA
HETATM   13  N2  UNL     1       9.765  16.023   6.812  1.00  0.00    -0.262 N 
ATOM     14  H2  UNL     1       8.751  16.036   6.705  1.00  0.00     0.190 HD
BRANCH  13  15
HETATM   15  N3  UNL     1      10.575  16.659   5.869  1.00  0.00    -0.271 N 
HETATM   16  C4  UNL     1      10.955  15.977   4.699  1.00  0.00     0.200 C 
HETATM   17  N4  UNL     1      11.491  14.811   4.775  1.00  0.00    -0.372 N 
HETATM   18  N5  UNL     1      10.754  16.561   3.413  1.00  0.00    -0.062 NA
ATOM     19  H42 UNL     1      11.634  14.394   5.695  1.00  0.00     0.158 HD
ATOM     20  H41 UNL     1      11.766  14.316   3.928  1.00  0.00     0.158 HD
ATOM     21  H3  UNL     1      10.890  17.616   6.028  1.00  0.00     0.189 HD
ENDBRANCH  13  15
ENDBRANCH   3  11
BRANCH   4  22
HETATM   22  C6  UNL     1       9.763  16.651  10.412  1.00  0.00     0.126 C 
HETATM   23  N6  UNL     1       8.968  17.579  10.759  1.00  0.00    -0.309 N 
ATOM     24  H6  UNL     1       7.982  17.321  10.790  1.00  0.00     0.186 HD
BRANCH  23  25
HETATM   25  N7  UNL     1       9.234  18.824  11.082  1.00  0.00    -0.276 N 
HETATM   26  C7  UNL     1       9.387  19.516  12.093  1.00  0.00     0.215 C 
HETATM   27  N8  UNL     1       9.683  20.919  11.921  1.00  0.00    -0.065 NA
HETATM   28  N9  UNL     1       9.287  19.001  13.406  1.00  0.00    -0.065 NA
ATOM     29  H7  UNL     1       9.350  19.392  10.242  1.00  0.00     0.189 HD
ENDBRANCH  23  25
ENDBRANCH   4  22
TORSDOF 4
ENDMDL
MODEL 3
REMARK VINA RESULT: -7.526665836      3.354      5.849
REMARK  4 active torsions:
REMARK  status: ('A' for Active; 'I' for Inactive)
REMARK    1  A    between atoms: C2_3  and  C3_4 
REMARK       I    between atoms: C3_4  and  N2_6 
REMARK    2  A    between atoms: N2_6  and  N3_8 
REMARK       I    between atoms: N3_8  and  C4_10 
REMARK    3  A    between atoms: C5_15  and  C6_16 
REMARK    4  A    between atoms: N6_17  and  N7_19 
ROOT
HETATM    1  C1  UNL     1       8.960  18.786  11.608  1.00  0.00     0.161 C 
HETATM    2  N1  UNL     1      10.364  19.026  11.384  1.00  0.00    -0.298 N 
HETATM    3  C2  UNL     1      11.033  18.303  10.447  1.00  0.00     0.125 A 
HETATM    4  C5  UNL     1      12.352  18.605  10.236  1.00  0.00     0.082 A 
HETATM    5  C8  UNL     1      12.941  19.625  10.980  1.00  0.00     0.263 A 
HETATM    6  O2  UNL     1      14.145  19.897  10.782  1.00  0.00    -0.267 OA
HETATM    7  N10 UNL     1      12.271  20.326  11.896  1.00  0.00    -0.275 N 
ATOM      8  H10 UNL     1      12.724  21.068  12.430  1.00  0.00     0.173 HD
HETATM    9  C9  UNL     1      10.991  20.019  12.088  1.00  0.00     0.329 A 
HETATM   10  O3  UNL     1      10.283  20.639  12.945  1.00  0.00    -0.246 OA
ENDROOT
BRANCH   3  11
HETATM   11  C3  UNL     1      10.420  17.205   9.721  1.00  0.00     0.288 C 
HETATM   12  O1  UNL     1      10.381  16.023  10.214  1.00  0.00    -0.264 OA
HETATM   13  N2  UNL     1       9.845  17.422   8.449  1.00  0.00    -0.262 N 
ATOM     14  H2  UNL     1       9.858  18.355   8.036  1.00  0.00     0.190 HD
BRANCH  13  15
HETATM   15  N3  UNL     1       9.260  16.361   7.758  1.00  0.00    -0.271 N 
HETATM   16  C4  UNL     1       9.967  15.725   6.722  1.00  0.00     0.200 C 
HETATM   17  N4  UNL     1      10.482  16.417   5.770  1.00  0.00    -0.372 N 
HETATM   18  N5  UNL     1      10.127  14.306   6.708  1.00  0.00    -0.062 NA
ATOM     19  H42 UNL     1      10.368  17.431   5.780  1.00  0.00     0.158 HD
ATOM     20  H41 UNL     1      10.995  15.956   5.019  1.00  0.00     0.158 HD
ATOM     21  H3  UNL     1       8.320  16.047   8.004  1.00  0.00     0.189 HD
ENDBRANCH  13  15
ENDBRANCH   3  11
BRANCH   4  22
HETATM   22  C6  UNL     1      13.182  17.864   9.287  1.00  0.00     0.126 C 
HETATM   23  N6  UNL     1      14.291  17.368   9.656  1.00  0.00    -0.309 N 
ATOM     24  H6  UNL     1      14.538  17.527  10.632  1.00  0.00     0.186 HD
BRANCH  23  25
HETATM   25  N7  UNL     1      15.167  16.680   8.959  1.00  0.00    -0.276 N 
HETATM   26  C7  UNL     1      15.987  15.772   9.123  1.00  0.00     0.215 C 
HETATM   27  N8  UNL     1      16.759  15.336   7.982  1.00  0.00    -0.065 NA
HETATM   28  N9  UNL     1      16.206  15.141  10.369  1.00  0.00    -0.065 NA
ATOM     29  H7  UNL     1      15.170  16.990   7.986  1.00  0.00     0.189 HD
ENDBRANCH  23  25
ENDBRANCH   4  22
TORSDOF 4
ENDMDL
MODEL 4
REMARK VINA RESULT: -7.487407116      3.092      6.157
REMARK  4 active torsions:
REMARK  status: ('A' for Active; 'I' for Inactive)
REMARK    1  A    between atoms: C2_3  and  C3_4 
REMARK       I    between atoms: C3_4  and  N2_6 
REMARK    2  A    between atoms: N2_6  and  N3_8 
REMARK       I    between atoms: N3_8  and  C4_10 
REMARK    3  A    between atoms: C5_15  and  C6_16 
REMARK    4  A    between atoms: N6_17  and  N7_19 
ROOT
HETATM    1  C1  UNL     1       9.792  16.995   8.298  1.00  0.00     0.161 C 
HETATM    2  N1  UNL     1      11.187  17.088   8.649  1.00  0.00    -0.298 N 
HETATM    3  C2  UNL     1      11.574  17.886   9.681  1.00  0.00     0.125 A 
HETATM    4  C5  UNL     1      12.904  17.899  10.007  1.00  0.00     0.082 A 
HETATM    5  C8  UNL     1      13.788  17.106   9.279  1.00  0.00     0.263 A 
HETATM    6  O2  UNL     1      15.001  17.121   9.583  1.00  0.00    -0.267 OA
HETATM    7  N10 UNL     1      13.394  16.329   8.269  1.00  0.00    -0.275 N 
ATOM      8  H10 UNL     1      14.059  15.757   7.749  1.00  0.00     0.173 HD
HETATM    9  C9  UNL     1      12.099  16.328   7.966  1.00  0.00     0.329 A 
HETATM   10  O3  UNL     1      11.641  15.616   7.015  1.00  0.00    -0.246 OA
ENDROOT
BRANCH   3  11
HETATM   11  C3  UNL     1      10.648  18.749  10.392  1.00  0.00     0.288 C 
HETATM   12  O1  UNL     1       9.986  18.323  11.402  1.00  0.00    -0.264 OA
HETATM   13  N2  UNL     1      10.466  20.089   9.984  1.00  0.00    -0.262 N 
ATOM     14  H2  UNL     1      10.986  20.455   9.187  1.00  0.00     0.190 HD
BRANCH  13  15
HETATM   15  N3  UNL     1       9.573  20.911  10.674  1.00  0.00    -0.271 N 
HETATM   16  C4  UNL     1      10.041  21.736  11.712  1.00  0.00     0.200 C 
HETATM   17  N4  UNL     1      10.745  21.239  12.666  1.00  0.00    -0.372 N 
HETATM   18  N5  UNL     1       9.746  23.132  11.727  1.00  0.00    -0.062 NA
ATOM     19  H42 UNL     1      10.956  20.242  12.655  1.00  0.00     0.158 HD
ATOM     20  H41 UNL     1      11.084  21.837  13.419  1.00  0.00     0.158 HD
ATOM     21  H3  UNL     1       8.584  20.914  10.425  1.00  0.00     0.189 HD
ENDBRANCH  13  15
ENDBRANCH   3  11
BRANCH   4  22
HETATM   22  C6  UNL     1      13.441  18.751  11.068  1.00  0.00     0.126 C 
HETATM   23  N6  UNL     1      13.078  18.581  12.272  1.00  0.00    -0.309 N 
ATOM     24  H6  UNL     1      12.406  17.829  12.425  1.00  0.00     0.186 HD
BRANCH  23  25
HETATM   25  N7  UNL     1      13.442  19.237  13.351  1.00  0.00    -0.276 N 
HETATM   26  C7  UNL     1      12.989  19.543  14.458  1.00  0.00     0.215 C 
HETATM   27  N8  UNL     1      13.823  20.319  15.345  1.00  0.00    -0.065 NA
HETATM   28  N9  UNL     1      11.698  19.171  14.896  1.00  0.00    -0.065 NA
ATOM     29  H7  UNL     1      14.388  19.604  13.240  1.00  0.00     0.189 HD
ENDBRANCH  23  25
ENDBRANCH   4  22
TORSDOF 4
ENDMDL
MODEL 5
REMARK VINA RESULT: -7.316789979      3.384      5.898
REMARK  4 active torsions:
REMARK  status: ('A' for Active; 'I' for Inactive)
REMARK    1  A    between atoms: C2_3  and  C3_4 
REMARK       I    between atoms: C3_4  and  N2_6 
REMARK    2  A    between atoms: N2_6  and  N3_8 
REMARK       I    between atoms: N3_8  and  C4_10 
REMARK    3  A    between atoms: C5_15  and  C6_16 
REMARK    4  A    between atoms: N6_17  and  N7_19 
ROOT
HETATM    1  C1  UNL     1       9.263  20.300  11.912  1.00  0.00     0.161 C 
HETATM    2  N1  UNL     1      10.632  19.886  12.088  1.00  0.00    -0.298 N 
HETATM    3  C2  UNL     1      11.162  18.935  11.272  1.00  0.00     0.125 A 
HETATM    4  C5  UNL     1      12.482  18.614  11.447  1.00  0.00     0.082 A 
HETATM    5  C8  UNL     1      13.212  19.266  12.438  1.00  0.00     0.263 A 
HETATM    6  O2  UNL     1      14.417  18.969  12.592  1.00  0.00    -0.267 OA
HETATM    7  N10 UNL     1      12.679  20.195  13.231  1.00  0.00    -0.275 N 
ATOM      8  H10 UNL     1      13.233  20.659  13.951  1.00  0.00     0.173 HD
HETATM    9  C9  UNL     1      11.396  20.496  13.047  1.00  0.00     0.329 A 
HETATM   10  O3  UNL     1      10.811  21.371  13.763  1.00  0.00    -0.246 OA
ENDROOT
BRANCH   3  11
HETATM   11  C3  UNL     1      10.372  18.224  10.283  1.00  0.00     0.288 C 
HETATM   12  O1  UNL     1       9.600  17.260  10.618  1.00  0.00    -0.264 OA
HETATM   13  N2  UNL     1      10.437  18.592   8.920  1.00  0.00    -0.262 N 
ATOM     14  H2  UNL     1      11.039  19.360   8.627  1.00  0.00     0.190 HD
BRANCH  13  15
HETATM   15  N3  UNL     1       9.675  17.902   7.976  1.00  0.00    -0.271 N 
HETATM   16  C4  UNL     1      10.082  16.627   7.544  1.00  0.00     0.200 C 
HETATM   17  N4  UNL     1      11.279  16.441   7.115  1.00  0.00    -0.372 N 
HETATM   18  N5  UNL     1       9.180  15.522   7.573  1.00  0.00    -0.062 NA
ATOM     19  H42 UNL     1      11.924  17.231   7.094  1.00  0.00     0.158 HD
ATOM     20  H41 UNL     1      11.575  15.517   6.802  1.00  0.00     0.158 HD
ATOM     21  H3  UNL     1       8.824  18.322   7.599  1.00  0.00     0.189 HD
ENDBRANCH  13  15
ENDBRANCH   3  11
BRANCH   4  22
HETATM   22  C6  UNL     1      13.145  17.576  10.659  1.00  0.00     0.126 C 
HETATM   23  N6  UNL     1      14.121  17.871   9.902  1.00  0.00    -0.309 N 
ATOM     24  H6  UNL     1      14.387  18.856   9.895  1.00  0.00     0.186 HD
BRANCH  23  25
HETATM   25  N7  UNL     1      14.837  17.090   9.125  1.00  0.00    -0.276 N 
HETATM   26  C7  UNL     1      15.672  16.186   9.222  1.00  0.00     0.215 C 
HETATM   27  N8  UNL     1      16.197  15.609   8.006  1.00  0.00    -0.065 NA
HETATM   28  N9  UNL     1      16.137  15.690  10.462  1.00  0.00    -0.065 NA
ATOM     29  H7  UNL     1      14.644  17.291   8.143  1.00  0.00     0.189 HD
ENDBRANCH  23  25
ENDBRANCH   4  22
TORSDOF 4
ENDMDL
