MODEL 1
REMARK VINA RESULT: -9.027524850      0.000      0.000
REMARK  7 active torsions:
REMARK  status: ('A' for Active; 'I' for Inactive)
REMARK    1  A    between atoms: N1_1  and  N2_4 
REMARK    2  A    between atoms: C2_9  and  N4_10 
REMARK    3  A    between atoms: N4_10  and  C3_12 
REMARK    4  A    between atoms: N8_23  and  C8_24 
REMARK    5  A    between atoms: C8_24  and  C9_25 
REMARK    6  A    between atoms: C9_25  and  N9_26 
REMARK       I    between atoms: N9_26  and  C10_28 
REMARK    7  A    between atoms: N11_30  and  O1_32 
REMARK       I    between atoms: N12_34  and  C11_35 
ROOT
HETATM    1  C3  UNL     1     -10.040 -17.836   9.596  1.00  0.00     0.152 A 
HETATM    2  N5  UNL     1     -11.290 -17.662   9.219  1.00  0.00    -0.336 N 
ATOM      3  H5  UNL     1     -11.479 -17.034   8.437  1.00  0.00     0.168 HD
HETATM    4  C4  UNL     1     -12.324 -18.270   9.814  1.00  0.00     0.183 A 
HETATM    5  N6  UNL     1     -12.092 -19.099  10.844  1.00  0.00    -0.336 N 
ATOM      6  H6  UNL     1     -12.873 -19.567  11.304  1.00  0.00     0.168 HD
HETATM    7  C5  UNL     1     -10.842 -19.316  11.274  1.00  0.00     0.140 A 
HETATM    8  C6  UNL     1      -9.778 -18.687  10.658  1.00  0.00     0.123 A 
HETATM    9  N7  UNL     1      -8.679 -19.099  11.302  1.00  0.00    -0.346 N 
ATOM     10  H7  UNL     1      -7.726 -18.809  11.081  1.00  0.00     0.167 HD
HETATM   11  C7  UNL     1      -9.021 -19.951  12.283  1.00  0.00     0.185 A 
HETATM   12  N8  UNL     1     -10.354 -20.096  12.279  1.00  0.00    -0.326 N 
ENDROOT
BRANCH   1  13
HETATM   13  N4  UNL     1      -8.918 -17.208   8.990  1.00  0.00    -0.172 N 
ATOM     14  H4  UNL     1      -7.979 -17.500   9.264  1.00  0.00     0.186 HD
BRANCH  13  15
HETATM   15  C2  UNL     1      -9.054 -16.271   8.096  1.00  0.00     0.724 A 
HETATM   16  N3  UNL     1      -9.517 -16.465   6.846  1.00  0.00    -0.018 N 
HETATM   17  C1  UNL     1      -9.509 -15.267   6.239  1.00  0.00     0.726 A 
ATOM     18  H3  UNL     1      -9.817 -17.350   6.439  1.00  0.00     0.203 HD
HETATM   19  N2  UNL     1      -9.873 -15.001   5.033  1.00  0.00    -0.137 N 
HETATM   20  N14 UNL     1      -9.038 -14.376   7.144  1.00  0.00    -0.105 N 
ATOM     21  H2  UNL     1      -9.821 -14.046   4.679  1.00  0.00     0.205 HD
HETATM   22  N12 UNL     1      -8.762 -14.988   8.274  1.00  0.00    -0.019 N 
ATOM     23  H14 UNL     1      -8.915 -13.377   6.973  1.00  0.00     0.207 HD
HETATM   24  C11 UNL     1      -8.246 -14.377   9.460  1.00  0.00     0.369 C 
HETATM   25  N13 UNL     1      -7.987 -15.142  10.616  1.00  0.00    -0.037 NA
HETATM   26  O2  UNL     1      -8.014 -13.142   9.485  1.00  0.00    -0.248 OA
BRANCH  19  27
HETATM   27  N1  UNL     1     -10.336 -16.020   4.221  1.00  0.00    -0.331 N 
ATOM     28  H12 UNL     1     -11.317 -16.293   4.275  1.00  0.00     0.177 HD
ATOM     29  H11 UNL     1      -9.692 -16.484   3.580  1.00  0.00     0.177 HD
ENDBRANCH  19  27
ENDBRANCH  13  15
ENDBRANCH   1  13
BRANCH  12  30
HETATM   30  C8  UNL     1     -11.138 -20.932  13.181  1.00  0.00     0.151 C 
BRANCH  30  31
HETATM   31  C9  UNL     1     -11.402 -20.155  14.470  1.00  0.00     0.142 C 
BRANCH  31  32
HETATM   32  N9  UNL     1     -11.234 -21.027  15.601  1.00  0.00    -0.361 N 
HETATM   33  C10 UNL     1     -12.358 -21.645  16.173  1.00  0.00     0.208 C 
HETATM   34  N10 UNL     1     -13.599 -21.003  16.094  1.00  0.00    -0.062 NA
HETATM   35  N11 UNL     1     -12.212 -22.779  16.751  1.00  0.00    -0.241 N 
ATOM     36  H11 UNL     1     -13.024 -23.232  17.169  1.00  0.00     0.197 HD
ATOM     37  H9  UNL     1     -10.304 -21.196  15.985  1.00  0.00     0.162 HD
BRANCH  35  38
HETATM   38  O1  UNL     1     -10.989 -23.401  16.822  1.00  0.00    -0.287 OA
ATOM     39  H1  UNL     1     -10.911 -24.348  16.850  1.00  0.00     0.244 HD
ENDBRANCH  35  38
ENDBRANCH  31  32
ENDBRANCH  30  31
ENDBRANCH  12  30
TORSDOF 7
ENDMDL
MODEL 2
REMARK VINA RESULT: -8.941789330      1.000      1.204
REMARK  7 active torsions:
REMARK  status: ('A' for Active; 'I' for Inactive)
REMARK    1  A    between atoms: N1_1  and  N2_4 
REMARK    2  A    between atoms: C2_9  and  N4_10 
REMARK    3  A    between atoms: N4_10  and  C3_12 
REMARK    4  A    between atoms: N8_23  and  C8_24 
REMARK    5  A    between atoms: C8_24  and  C9_25 
REMARK    6  A    between atoms: C9_25  and  N9_26 
REMARK       I    between atoms: N9_26  and  C10_28 
REMARK    7  A    between atoms: N11_30  and  O1_32 
REMARK       I    between atoms: N12_34  and  C11_35 
ROOT
HETATM    1  C3  UNL     1     -10.462 -18.047   9.639  1.00  0.00     0.152 A 
HETATM    2  N5  UNL     1     -11.682 -17.831   9.193  1.00  0.00    -0.336 N 
ATOM      3  H5  UNL     1     -11.795 -17.361   8.294  1.00  0.00     0.168 HD
HETATM    4  C4  UNL     1     -12.781 -18.199   9.864  1.00  0.00     0.183 A 
HETATM    5  N6  UNL     1     -12.649 -18.818  11.048  1.00  0.00    -0.336 N 
ATOM      6  H6  UNL     1     -13.480 -19.102  11.566  1.00  0.00     0.168 HD
HETATM    7  C5  UNL     1     -11.434 -19.065  11.554  1.00  0.00     0.140 A 
HETATM    8  C6  UNL     1     -10.303 -18.684  10.859  1.00  0.00     0.123 A 
HETATM    9  N7  UNL     1      -9.261 -19.062  11.610  1.00  0.00    -0.346 N 
ATOM     10  H7  UNL     1      -8.281 -18.920  11.367  1.00  0.00     0.167 HD
HETATM   11  C7  UNL     1      -9.702 -19.657  12.732  1.00  0.00     0.185 A 
HETATM   12  N8  UNL     1     -11.043 -19.667  12.712  1.00  0.00    -0.326 N 
ENDROOT
BRANCH   1  13
HETATM   13  N4  UNL     1      -9.273 -17.672   8.957  1.00  0.00    -0.172 N 
ATOM     14  H4  UNL     1      -8.420 -18.209   9.114  1.00  0.00     0.186 HD
BRANCH  13  15
HETATM   15  C2  UNL     1      -9.241 -16.661   8.137  1.00  0.00     0.724 A 
HETATM   16  N3  UNL     1      -9.682 -16.690   6.864  1.00  0.00    -0.018 N 
HETATM   17  C1  UNL     1      -9.481 -15.465   6.354  1.00  0.00     0.726 A 
ATOM     18  H3  UNL     1     -10.090 -17.490   6.380  1.00  0.00     0.203 HD
HETATM   19  N2  UNL     1      -9.760 -15.059   5.164  1.00  0.00    -0.137 N 
HETATM   20  N14 UNL     1      -8.920 -14.721   7.338  1.00  0.00    -0.105 N 
ATOM     21  H2  UNL     1      -9.559 -14.098   4.889  1.00  0.00     0.205 HD
HETATM   22  N12 UNL     1      -8.775 -15.450   8.423  1.00  0.00    -0.019 N 
ATOM     23  H14 UNL     1      -8.650 -13.741   7.251  1.00  0.00     0.207 HD
HETATM   24  C11 UNL     1      -8.220 -15.012   9.666  1.00  0.00     0.369 C 
HETATM   25  N13 UNL     1      -8.115 -15.890  10.763  1.00  0.00    -0.037 NA
HETATM   26  O2  UNL     1      -7.815 -13.828   9.795  1.00  0.00    -0.248 OA
BRANCH  19  27
HETATM   27  N1  UNL     1     -10.333 -15.936   4.263  1.00  0.00    -0.331 N 
ATOM     28  H12 UNL     1     -10.812 -16.766   4.611  1.00  0.00     0.177 HD
ATOM     29  H11 UNL     1     -10.271 -15.741   3.263  1.00  0.00     0.177 HD
ENDBRANCH  19  27
ENDBRANCH  13  15
ENDBRANCH   1  13
BRANCH  12  30
HETATM   30  C8  UNL     1     -11.921 -20.218  13.738  1.00  0.00     0.151 C 
BRANCH  30  31
HETATM   31  C9  UNL     1     -11.069 -20.934  14.785  1.00  0.00     0.142 C 
BRANCH  31  32
HETATM   32  N9  UNL     1     -11.914 -21.431  15.836  1.00  0.00    -0.361 N 
HETATM   33  C10 UNL     1     -11.357 -22.210  16.864  1.00  0.00     0.208 C 
HETATM   34  N10 UNL     1     -10.226 -22.988  16.589  1.00  0.00    -0.062 NA
HETATM   35  N11 UNL     1     -11.903 -22.185  18.022  1.00  0.00    -0.241 N 
ATOM     36  H11 UNL     1     -11.503 -22.748  18.772  1.00  0.00     0.197 HD
ATOM     37  H9  UNL     1     -12.912 -21.220  15.835  1.00  0.00     0.162 HD
BRANCH  35  38
HETATM   38  O1  UNL     1     -13.012 -21.417  18.281  1.00  0.00    -0.287 OA
ATOM     39  H1  UNL     1     -13.892 -21.767  18.201  1.00  0.00     0.244 HD
ENDBRANCH  35  38
ENDBRANCH  31  32
ENDBRANCH  30  31
ENDBRANCH  12  30
TORSDOF 7
ENDMDL
MODEL 3
REMARK VINA RESULT: -8.917256675      1.247      1.379
REMARK  7 active torsions:
REMARK  status: ('A' for Active; 'I' for Inactive)
REMARK    1  A    between atoms: N1_1  and  N2_4 
REMARK    2  A    between atoms: C2_9  and  N4_10 
REMARK    3  A    between atoms: N4_10  and  C3_12 
REMARK    4  A    between atoms: N8_23  and  C8_24 
REMARK    5  A    between atoms: C8_24  and  C9_25 
REMARK    6  A    between atoms: C9_25  and  N9_26 
REMARK       I    between atoms: N9_26  and  C10_28 
REMARK    7  A    between atoms: N11_30  and  O1_32 
REMARK       I    between atoms: N12_34  and  C11_35 
ROOT
HETATM    1  C3  UNL     1     -10.098 -17.799   9.552  1.00  0.00     0.152 A 
HETATM    2  N5  UNL     1     -11.346 -17.587   9.184  1.00  0.00    -0.336 N 
ATOM      3  H5  UNL     1     -11.522 -16.944   8.412  1.00  0.00     0.168 HD
HETATM    4  C4  UNL     1     -12.391 -18.176   9.777  1.00  0.00     0.183 A 
HETATM    5  N6  UNL     1     -12.176 -19.025  10.794  1.00  0.00    -0.336 N 
ATOM      6  H6  UNL     1     -12.967 -19.479  11.252  1.00  0.00     0.168 HD
HETATM    7  C5  UNL     1     -10.930 -19.280  11.214  1.00  0.00     0.140 A 
HETATM    8  C6  UNL     1      -9.853 -18.671  10.601  1.00  0.00     0.123 A 
HETATM    9  N7  UNL     1      -8.762 -19.120  11.233  1.00  0.00    -0.346 N 
ATOM     10  H7  UNL     1      -7.803 -18.852  11.011  1.00  0.00     0.167 HD
HETATM   11  C7  UNL     1      -9.121 -19.976  12.205  1.00  0.00     0.185 A 
HETATM   12  N8  UNL     1     -10.458 -20.086  12.205  1.00  0.00    -0.326 N 
ENDROOT
BRANCH   1  13
HETATM   13  N4  UNL     1      -8.963 -17.193   8.948  1.00  0.00    -0.172 N 
ATOM     14  H4  UNL     1      -8.031 -17.499   9.227  1.00  0.00     0.186 HD
BRANCH  13  15
HETATM   15  C2  UNL     1      -9.080 -16.257   8.050  1.00  0.00     0.724 A 
HETATM   16  N3  UNL     1      -9.539 -16.447   6.798  1.00  0.00    -0.018 N 
HETATM   17  C1  UNL     1      -9.509 -15.253   6.187  1.00  0.00     0.726 A 
ATOM     18  H3  UNL     1      -9.850 -17.330   6.392  1.00  0.00     0.203 HD
HETATM   19  N2  UNL     1      -9.862 -14.985   4.978  1.00  0.00    -0.137 N 
HETATM   20  N14 UNL     1      -9.029 -14.365   7.091  1.00  0.00    -0.105 N 
ATOM     21  H2  UNL     1      -9.793 -14.032   4.621  1.00  0.00     0.205 HD
HETATM   22  N12 UNL     1      -8.769 -14.978   8.225  1.00  0.00    -0.019 N 
ATOM     23  H14 UNL     1      -8.890 -13.369   6.918  1.00  0.00     0.207 HD
HETATM   24  C11 UNL     1      -8.250 -14.371   9.412  1.00  0.00     0.369 C 
HETATM   25  N13 UNL     1      -8.010 -15.135  10.572  1.00  0.00    -0.037 NA
HETATM   26  O2  UNL     1      -7.999 -13.139   9.434  1.00  0.00    -0.248 OA
BRANCH  19  27
HETATM   27  N1  UNL     1     -10.336 -15.999   4.167  1.00  0.00    -0.331 N 
ATOM     28  H12 UNL     1     -11.065 -16.619   4.519  1.00  0.00     0.177 HD
ATOM     29  H11 UNL     1      -9.952 -16.114   3.229  1.00  0.00     0.177 HD
ENDBRANCH  19  27
ENDBRANCH  13  15
ENDBRANCH   1  13
BRANCH  12  30
HETATM   30  C8  UNL     1     -11.259 -20.914  13.101  1.00  0.00     0.151 C 
BRANCH  30  31
HETATM   31  C9  UNL     1     -11.108 -20.387  14.527  1.00  0.00     0.142 C 
BRANCH  31  32
HETATM   32  N9  UNL     1     -12.371 -19.876  14.987  1.00  0.00    -0.361 N 
HETATM   33  C10 UNL     1     -13.017 -20.495  16.070  1.00  0.00     0.208 C 
HETATM   34  N10 UNL     1     -12.808 -21.861  16.294  1.00  0.00    -0.062 NA
HETATM   35  N11 UNL     1     -13.777 -19.789  16.821  1.00  0.00    -0.241 N 
ATOM     36  H11 UNL     1     -14.248 -20.233  17.609  1.00  0.00     0.197 HD
ATOM     37  H9  UNL     1     -12.796 -19.069  14.530  1.00  0.00     0.162 HD
BRANCH  35  38
HETATM   38  O1  UNL     1     -13.974 -18.449  16.594  1.00  0.00    -0.287 OA
ATOM     39  H1  UNL     1     -13.659 -17.787  17.198  1.00  0.00     0.244 HD
ENDBRANCH  35  38
ENDBRANCH  31  32
ENDBRANCH  30  31
ENDBRANCH  12  30
TORSDOF 7
ENDMDL
MODEL 4
REMARK VINA RESULT: -8.861407992      1.811      2.205
REMARK  7 active torsions:
REMARK  status: ('A' for Active; 'I' for Inactive)
REMARK    1  A    between atoms: N1_1  and  N2_4 
REMARK    2  A    between atoms: C2_9  and  N4_10 
REMARK    3  A    between atoms: N4_10  and  C3_12 
REMARK    4  A    between atoms: N8_23  and  C8_24 
REMARK    5  A    between atoms: C8_24  and  C9_25 
REMARK    6  A    between atoms: C9_25  and  N9_26 
REMARK       I    between atoms: N9_26  and  C10_28 
REMARK    7  A    between atoms: N11_30  and  O1_32 
REMARK       I    between atoms: N12_34  and  C11_35 
ROOT
HETATM    1  C3  UNL     1      -9.616 -17.730   9.910  1.00  0.00     0.152 A 
HETATM    2  N5  UNL     1      -9.827 -18.987   9.576  1.00  0.00    -0.336 N 
ATOM      3  H5  UNL     1      -9.220 -19.412   8.875  1.00  0.00     0.168 HD
HETATM    4  C4  UNL     1     -10.802 -19.731  10.114  1.00  0.00     0.183 A 
HETATM    5  N6  UNL     1     -11.609 -19.185  11.037  1.00  0.00    -0.336 N 
ATOM      6  H6  UNL     1     -12.354 -19.745  11.453  1.00  0.00     0.168 HD
HETATM    7  C5  UNL     1     -11.444 -17.912  11.417  1.00  0.00     0.140 A 
HETATM    8  C6  UNL     1     -10.438 -17.147  10.860  1.00  0.00     0.123 A 
HETATM    9  N7  UNL     1     -10.528 -15.941  11.434  1.00  0.00    -0.346 N 
ATOM     10  H7  UNL     1      -9.919 -15.148  11.231  1.00  0.00     0.167 HD
HETATM   11  C7  UNL     1     -11.543 -15.932  12.316  1.00  0.00     0.185 A 
HETATM   12  N8  UNL     1     -12.119 -17.143  12.317  1.00  0.00    -0.326 N 
ENDROOT
BRANCH   1  13
HETATM   13  N4  UNL     1      -8.594 -16.909   9.362  1.00  0.00    -0.172 N 
ATOM     14  H4  UNL     1      -7.654 -16.958   9.755  1.00  0.00     0.186 HD
BRANCH  13  15
HETATM   15  C2  UNL     1      -8.823 -16.095   8.372  1.00  0.00     0.724 A 
HETATM   16  N3  UNL     1      -9.295 -16.466   7.165  1.00  0.00    -0.018 N 
HETATM   17  C1  UNL     1      -9.395 -15.350   6.426  1.00  0.00     0.726 A 
ATOM     18  H3  UNL     1      -9.531 -17.413   6.871  1.00  0.00     0.203 HD
HETATM   19  N2  UNL     1      -9.804 -15.254   5.210  1.00  0.00    -0.137 N 
HETATM   20  N14 UNL     1      -8.978 -14.326   7.210  1.00  0.00    -0.105 N 
ATOM     21  H2  UNL     1      -9.836 -14.344   4.748  1.00  0.00     0.205 HD
HETATM   22  N12 UNL     1      -8.631 -14.781   8.393  1.00  0.00    -0.019 N 
ATOM     23  H14 UNL     1      -8.939 -13.347   6.924  1.00  0.00     0.207 HD
HETATM   24  C11 UNL     1      -8.140 -13.999   9.487  1.00  0.00     0.369 C 
HETATM   25  N13 UNL     1      -7.798 -14.603  10.713  1.00  0.00    -0.037 NA
HETATM   26  O2  UNL     1      -8.007 -12.755   9.365  1.00  0.00    -0.248 OA
BRANCH  19  27
HETATM   27  N1  UNL     1     -10.201 -16.392   4.533  1.00  0.00    -0.331 N 
ATOM     28  H12 UNL     1     -10.798 -17.070   5.005  1.00  0.00     0.177 HD
ATOM     29  H11 UNL     1      -9.892 -16.538   3.571  1.00  0.00     0.177 HD
ENDBRANCH  19  27
ENDBRANCH  13  15
ENDBRANCH   1  13
BRANCH  12  30
HETATM   30  C8  UNL     1     -13.256 -17.561  13.130  1.00  0.00     0.151 C 
BRANCH  30  31
HETATM   31  C9  UNL     1     -12.785 -17.770  14.568  1.00  0.00     0.142 C 
BRANCH  31  32
HETATM   32  N9  UNL     1     -11.706 -18.721  14.588  1.00  0.00    -0.361 N 
HETATM   33  C10 UNL     1     -11.993 -20.093  14.670  1.00  0.00     0.208 C 
HETATM   34  N10 UNL     1     -13.163 -20.504  15.319  1.00  0.00    -0.062 NA
HETATM   35  N11 UNL     1     -11.174 -20.928  14.147  1.00  0.00    -0.241 N 
ATOM     36  H11 UNL     1     -11.377 -21.925  14.204  1.00  0.00     0.197 HD
ATOM     37  H9  UNL     1     -10.739 -18.401  14.542  1.00  0.00     0.162 HD
BRANCH  35  38
HETATM   38  O1  UNL     1     -10.029 -20.514  13.512  1.00  0.00    -0.287 OA
ATOM     39  H1  UNL     1     -10.053 -19.900  12.787  1.00  0.00     0.244 HD
ENDBRANCH  35  38
ENDBRANCH  31  32
ENDBRANCH  30  31
ENDBRANCH  12  30
TORSDOF 7
ENDMDL
MODEL 5
REMARK VINA RESULT: -8.731058730      5.488      8.564
REMARK  7 active torsions:
REMARK  status: ('A' for Active; 'I' for Inactive)
REMARK    1  A    between atoms: N1_1  and  N2_4 
REMARK    2  A    between atoms: C2_9  and  N4_10 
REMARK    3  A    between atoms: N4_10  and  C3_12 
REMARK    4  A    between atoms: N8_23  and  C8_24 
REMARK    5  A    between atoms: C8_24  and  C9_25 
REMARK    6  A    between atoms: C9_25  and  N9_26 
REMARK       I    between atoms: N9_26  and  C10_28 
REMARK    7  A    between atoms: N11_30  and  O1_32 
REMARK       I    between atoms: N12_34  and  C11_35 
ROOT
HETATM    1  C3  UNL     1     -13.678 -16.986  10.371  1.00  0.00     0.152 A 
HETATM    2  N5  UNL     1     -13.417 -16.523  11.577  1.00  0.00    -0.336 N 
ATOM      3  H5  UNL     1     -12.760 -17.037  12.163  1.00  0.00     0.168 HD
HETATM    4  C4  UNL     1     -13.976 -15.409  12.068  1.00  0.00     0.183 A 
HETATM    5  N6  UNL     1     -14.843 -14.721  11.309  1.00  0.00    -0.336 N 
ATOM      6  H6  UNL     1     -15.273 -13.871  11.674  1.00  0.00     0.168 HD
HETATM    7  C5  UNL     1     -15.149 -15.142  10.075  1.00  0.00     0.140 A 
HETATM    8  C6  UNL     1     -14.572 -16.292   9.571  1.00  0.00     0.123 A 
HETATM    9  N7  UNL     1     -15.068 -16.447   8.338  1.00  0.00    -0.346 N 
ATOM     10  H7  UNL     1     -14.833 -17.210   7.703  1.00  0.00     0.167 HD
HETATM   11  C7  UNL     1     -15.922 -15.446   8.063  1.00  0.00     0.185 A 
HETATM   12  N8  UNL     1     -15.982 -14.631   9.126  1.00  0.00    -0.326 N 
ENDROOT
BRANCH   1  13
HETATM   13  N4  UNL     1     -13.107 -18.163   9.816  1.00  0.00    -0.172 N 
ATOM     14  H4  UNL     1     -13.714 -18.955   9.602  1.00  0.00     0.186 HD
BRANCH  13  15
HETATM   15  C2  UNL     1     -11.832 -18.259   9.573  1.00  0.00     0.724 A 
HETATM   16  N3  UNL     1     -11.130 -17.405   8.801  1.00  0.00    -0.018 N 
HETATM   17  C1  UNL     1      -9.860 -17.839   8.798  1.00  0.00     0.726 A 
ATOM     18  H3  UNL     1     -11.495 -16.588   8.314  1.00  0.00     0.203 HD
HETATM   19  N2  UNL     1      -8.858 -17.313   8.183  1.00  0.00    -0.137 N 
HETATM   20  N14 UNL     1      -9.825 -18.950   9.573  1.00  0.00    -0.105 N 
ATOM     21  H2  UNL     1      -7.932 -17.736   8.255  1.00  0.00     0.205 HD
HETATM   22  N12 UNL     1     -11.026 -19.204  10.044  1.00  0.00    -0.019 N 
ATOM     23  H14 UNL     1      -8.992 -19.507   9.762  1.00  0.00     0.207 HD
HETATM   24  C11 UNL     1     -11.383 -20.294  10.899  1.00  0.00     0.369 C 
HETATM   25  N13 UNL     1     -12.711 -20.464  11.341  1.00  0.00    -0.037 NA
HETATM   26  O2  UNL     1     -10.510 -21.120  11.269  1.00  0.00    -0.248 OA
BRANCH  19  27
HETATM   27  N1  UNL     1      -9.046 -16.173   7.426  1.00  0.00    -0.331 N 
ATOM     28  H12 UNL     1      -9.214 -15.284   7.896  1.00  0.00     0.177 HD
ATOM     29  H11 UNL     1      -9.014 -16.234   6.408  1.00  0.00     0.177 HD
ENDBRANCH  19  27
ENDBRANCH  13  15
ENDBRANCH   1  13
BRANCH  12  30
HETATM   30  C8  UNL     1     -16.790 -13.423   9.247  1.00  0.00     0.151 C 
BRANCH  30  31
HETATM   31  C9  UNL     1     -16.974 -12.810   7.859  1.00  0.00     0.142 C 
BRANCH  31  32
HETATM   32  N9  UNL     1     -18.354 -12.456   7.668  1.00  0.00    -0.361 N 
HETATM   33  C10 UNL     1     -19.236 -13.387   7.093  1.00  0.00     0.208 C 
HETATM   34  N10 UNL     1     -18.731 -14.332   6.192  1.00  0.00    -0.062 NA
HETATM   35  N11 UNL     1     -20.475 -13.341   7.411  1.00  0.00    -0.241 N 
ATOM     36  H11 UNL     1     -21.120 -14.014   6.997  1.00  0.00     0.197 HD
ATOM     37  H9  UNL     1     -18.691 -11.536   7.948  1.00  0.00     0.162 HD
BRANCH  35  38
HETATM   38  O1  UNL     1     -20.960 -12.410   8.297  1.00  0.00    -0.287 OA
ATOM     39  H1  UNL     1     -21.695 -12.599   8.869  1.00  0.00     0.244 HD
ENDBRANCH  35  38
ENDBRANCH  31  32
ENDBRANCH  30  31
ENDBRANCH  12  30
TORSDOF 7
ENDMDL
