MODEL 1
REMARK VINA RESULT: -7.249176761      0.000      0.000
REMARK  14 active torsions:
REMARK  status: ('A' for Active; 'I' for Inactive)
REMARK    1  A    between atoms: S1_2  and  C2_3 
REMARK    2  A    between atoms: C2_3  and  C3_4 
REMARK    3  A    between atoms: C3_4  and  C4_5 
REMARK    4  A    between atoms: C4_5  and  N1_6 
REMARK    5  A    between atoms: C4_5  and  C18_25 
REMARK       I    between atoms: N1_6  and  C5_8 
REMARK    6  A    between atoms: C5_8  and  C6_10 
REMARK    7  A    between atoms: C6_10  and  C7_11 
REMARK    8  A    between atoms: C6_10  and  N2_18 
REMARK    9  A    between atoms: C7_11  and  C8_12 
REMARK       I    between atoms: N2_18  and  C14_20 
REMARK   10  A    between atoms: C14_20  and  C15_22 
REMARK       I    between atoms: C18_25  and  N3_27 
REMARK   11  A    between atoms: N3_27  and  C19_29 
REMARK   12  A    between atoms: C19_29  and  C20_30 
REMARK   13  A    between atoms: C19_29  and  C25_39 
REMARK       I    between atoms: C20_30  and  N4_32 
REMARK   14  A    between atoms: N4_32  and  C21_34 
ROOT
HETATM    1  C4  UNL     1      12.054  33.607   0.509  1.00  0.00     0.177 C 
ENDROOT
BRANCH   1   2
HETATM    2  C3  UNL     1      12.956  32.850  -0.459  1.00  0.00     0.045 C 
BRANCH   2   3
HETATM    3  C2  UNL     1      14.298  32.554   0.184  1.00  0.00     0.076 C 
BRANCH   3   4
HETATM    4  S1  UNL     1      14.946  34.119   0.831  1.00  0.00    -0.173 SA
HETATM    5  C1  UNL     1      15.322  35.287  -0.474  1.00  0.00     0.089 C 
ENDBRANCH   3   4
ENDBRANCH   2   3
ENDBRANCH   1   2
BRANCH   1   6
HETATM    6  N1  UNL     1      11.316  32.732   1.363  1.00  0.00    -0.346 N 
HETATM    7  C5  UNL     1      10.685  31.525   1.036  1.00  0.00     0.241 C 
HETATM    8  O1  UNL     1      10.715  31.100  -0.118  1.00  0.00    -0.271 OA
ATOM      9  H1  UNL     1      11.239  33.023   2.338  1.00  0.00     0.163 HD
BRANCH   7  10
HETATM   10  C6  UNL     1       9.991  30.789   2.109  1.00  0.00     0.177 C 
BRANCH  10  11
HETATM   11  C7  UNL     1       8.982  31.633   2.830  1.00  0.00     0.039 C 
BRANCH  11  12
HETATM   12  C8  UNL     1       7.959  32.321   2.012  1.00  0.00    -0.012 C 
HETATM   13  C9  UNL     1       6.607  31.686   2.405  1.00  0.00     0.005 C 
HETATM   14  C10 UNL     1       5.670  32.101   1.275  1.00  0.00     0.000 C 
HETATM   15  C11 UNL     1       5.454  33.577   1.395  1.00  0.00     0.000 C 
HETATM   16  C12 UNL     1       6.387  34.276   2.326  1.00  0.00     0.000 C 
HETATM   17  C13 UNL     1       7.809  33.802   2.287  1.00  0.00     0.005 C 
ENDBRANCH  11  12
ENDBRANCH  10  11
BRANCH  10  18
HETATM   18  N2  UNL     1      10.873  30.040   2.961  1.00  0.00    -0.347 N 
HETATM   19  C14 UNL     1      10.886  28.591   2.939  1.00  0.00     0.221 C 
HETATM   20  O2  UNL     1      10.102  28.026   2.147  1.00  0.00    -0.273 OA
ATOM     21  H2  UNL     1      11.502  30.537   3.592  1.00  0.00     0.163 HD
BRANCH  19  22
HETATM   22  C15 UNL     1      11.766  27.786   3.798  1.00  0.00     0.070 C 
HETATM   23  C16 UNL     1      10.949  27.322   5.001  1.00  0.00     0.019 C 
HETATM   24  C17 UNL     1      12.962  28.608   4.268  1.00  0.00     0.019 C 
ENDBRANCH  19  22
ENDBRANCH  10  18
ENDBRANCH   7  10
ENDBRANCH   1   6
BRANCH   1  25
HETATM   25  C18 UNL     1      11.147  34.449  -0.296  1.00  0.00     0.241 C 
HETATM   26  O3  UNL     1      11.113  34.219  -1.559  1.00  0.00    -0.271 OA
HETATM   27  N3  UNL     1      10.333  35.475   0.236  1.00  0.00    -0.346 N 
ATOM     28  H3  UNL     1      10.346  35.674   1.236  1.00  0.00     0.163 HD
BRANCH  27  29
HETATM   29  C19 UNL     1       9.456  36.262  -0.676  1.00  0.00     0.180 C 
BRANCH  29  30
HETATM   30  C20 UNL     1       9.734  37.702  -0.465  1.00  0.00     0.241 C 
HETATM   31  O4  UNL     1       9.977  38.434  -1.485  1.00  0.00    -0.271 OA
HETATM   32  N4  UNL     1       9.742  38.336   0.792  1.00  0.00    -0.353 N 
ATOM     33  H4  UNL     1       9.550  37.800   1.638  1.00  0.00     0.163 HD
BRANCH  32  34
HETATM   34  C21 UNL     1      10.028  39.771   0.880  1.00  0.00     0.110 C 
HETATM   35  C22 UNL     1       8.707  40.551   0.891  1.00  0.00     0.053 C 
HETATM   36  C23 UNL     1       9.031  41.706   1.770  1.00  0.00     0.169 C 
HETATM   37  O5  UNL     1      10.202  41.465   2.456  1.00  0.00    -0.389 OA
HETATM   38  C24 UNL     1      10.594  40.158   2.216  1.00  0.00     0.192 C 
ENDBRANCH  32  34
ENDBRANCH  29  30
BRANCH  29  39
HETATM   39  C25 UNL     1       8.078  35.817  -0.357  1.00  0.00     0.018 C 
HETATM   40  C26 UNL     1       7.728  34.652  -1.268  1.00  0.00     0.007 C 
HETATM   41  C27 UNL     1       6.293  34.720  -1.744  1.00  0.00     0.000 C 
HETATM   42  C28 UNL     1       5.988  35.996  -2.510  1.00  0.00     0.000 C 
HETATM   43  C29 UNL     1       6.613  37.198  -1.827  1.00  0.00     0.000 C 
HETATM   44  C30 UNL     1       6.993  36.832  -0.405  1.00  0.00     0.007 C 
ENDBRANCH  29  39
ENDBRANCH  27  29
ENDBRANCH   1  25
TORSDOF 14
ENDMDL
MODEL 2
REMARK VINA RESULT: -7.231802878      2.289      3.470
REMARK  14 active torsions:
REMARK  status: ('A' for Active; 'I' for Inactive)
REMARK    1  A    between atoms: S1_2  and  C2_3 
REMARK    2  A    between atoms: C2_3  and  C3_4 
REMARK    3  A    between atoms: C3_4  and  C4_5 
REMARK    4  A    between atoms: C4_5  and  N1_6 
REMARK    5  A    between atoms: C4_5  and  C18_25 
REMARK       I    between atoms: N1_6  and  C5_8 
REMARK    6  A    between atoms: C5_8  and  C6_10 
REMARK    7  A    between atoms: C6_10  and  C7_11 
REMARK    8  A    between atoms: C6_10  and  N2_18 
REMARK    9  A    between atoms: C7_11  and  C8_12 
REMARK       I    between atoms: N2_18  and  C14_20 
REMARK   10  A    between atoms: C14_20  and  C15_22 
REMARK       I    between atoms: C18_25  and  N3_27 
REMARK   11  A    between atoms: N3_27  and  C19_29 
REMARK   12  A    between atoms: C19_29  and  C20_30 
REMARK   13  A    between atoms: C19_29  and  C25_39 
REMARK       I    between atoms: C20_30  and  N4_32 
REMARK   14  A    between atoms: N4_32  and  C21_34 
ROOT
HETATM    1  C4  UNL     1      12.028  33.418   0.357  1.00  0.00     0.177 C 
ENDROOT
BRANCH   1   2
HETATM    2  C3  UNL     1      13.207  32.653  -0.232  1.00  0.00     0.045 C 
BRANCH   2   3
HETATM    3  C2  UNL     1      14.513  33.150   0.361  1.00  0.00     0.076 C 
BRANCH   3   4
HETATM    4  S1  UNL     1      14.820  34.804  -0.316  1.00  0.00    -0.173 SA
HETATM    5  C1  UNL     1      14.620  34.855  -2.095  1.00  0.00     0.089 C 
ENDBRANCH   3   4
ENDBRANCH   2   3
ENDBRANCH   1   2
BRANCH   1   6
HETATM    6  N1  UNL     1      11.268  32.629   1.273  1.00  0.00    -0.346 N 
HETATM    7  C5  UNL     1      10.717  31.356   1.075  1.00  0.00     0.241 C 
HETATM    8  O1  UNL     1      10.853  30.780  -0.004  1.00  0.00    -0.271 OA
ATOM      9  H1  UNL     1      11.105  33.045   2.189  1.00  0.00     0.163 HD
BRANCH   7  10
HETATM   10  C6  UNL     1       9.979  30.735   2.190  1.00  0.00     0.177 C 
BRANCH  10  11
HETATM   11  C7  UNL     1       9.024  31.686   2.851  1.00  0.00     0.039 C 
BRANCH  11  12
HETATM   12  C8  UNL     1       7.980  32.302   2.002  1.00  0.00    -0.012 C 
HETATM   13  C9  UNL     1       6.631  31.785   2.551  1.00  0.00     0.005 C 
HETATM   14  C10 UNL     1       5.644  32.085   1.426  1.00  0.00     0.000 C 
HETATM   15  C11 UNL     1       5.489  33.572   1.356  1.00  0.00     0.000 C 
HETATM   16  C12 UNL     1       6.500  34.347   2.131  1.00  0.00     0.000 C 
HETATM   17  C13 UNL     1       7.899  33.811   2.081  1.00  0.00     0.005 C 
ENDBRANCH  11  12
ENDBRANCH  10  11
BRANCH  10  18
HETATM   18  N2  UNL     1      10.813  29.991   3.093  1.00  0.00    -0.347 N 
HETATM   19  C14 UNL     1      10.925  28.550   2.994  1.00  0.00     0.221 C 
HETATM   20  O2  UNL     1      10.270  27.987   2.091  1.00  0.00    -0.273 OA
ATOM     21  H2  UNL     1      11.336  30.485   3.816  1.00  0.00     0.163 HD
BRANCH  19  22
HETATM   22  C15 UNL     1      11.759  27.748   3.901  1.00  0.00     0.070 C 
HETATM   23  C16 UNL     1      10.893  27.327   5.085  1.00  0.00     0.019 C 
HETATM   24  C17 UNL     1      12.954  28.558   4.392  1.00  0.00     0.019 C 
ENDBRANCH  19  22
ENDBRANCH  10  18
ENDBRANCH   7  10
ENDBRANCH   1   6
BRANCH   1  25
HETATM   25  C18 UNL     1      11.190  33.875  -0.770  1.00  0.00     0.241 C 
HETATM   26  O3  UNL     1      11.445  33.370  -1.923  1.00  0.00    -0.271 OA
HETATM   27  N3  UNL     1      10.145  34.819  -0.651  1.00  0.00    -0.346 N 
ATOM     28  H3  UNL     1       9.926  35.233   0.255  1.00  0.00     0.163 HD
BRANCH  27  29
HETATM   29  C19 UNL     1       9.365  35.206  -1.862  1.00  0.00     0.180 C 
BRANCH  29  30
HETATM   30  C20 UNL     1      10.227  36.044  -2.726  1.00  0.00     0.241 C 
HETATM   31  O4  UNL     1      10.788  37.074  -2.216  1.00  0.00    -0.271 OA
HETATM   32  N4  UNL     1      10.487  35.784  -4.086  1.00  0.00    -0.353 N 
ATOM     33  H4  UNL     1      10.069  34.974  -4.541  1.00  0.00     0.163 HD
BRANCH  32  34
HETATM   34  C21 UNL     1      11.361  36.685  -4.843  1.00  0.00     0.110 C 
HETATM   35  C22 UNL     1      12.547  35.888  -5.402  1.00  0.00     0.053 C 
HETATM   36  C23 UNL     1      12.808  36.577  -6.694  1.00  0.00     0.169 C 
HETATM   37  O5  UNL     1      11.744  37.389  -7.021  1.00  0.00    -0.389 OA
HETATM   38  C24 UNL     1      10.720  37.163  -6.114  1.00  0.00     0.192 C 
ENDBRANCH  32  34
ENDBRANCH  29  30
BRANCH  29  39
HETATM   39  C25 UNL     1       8.146  35.864  -1.334  1.00  0.00     0.018 C 
HETATM   40  C26 UNL     1       7.004  34.861  -1.373  1.00  0.00     0.007 C 
HETATM   41  C27 UNL     1       5.700  35.507  -1.790  1.00  0.00     0.000 C 
HETATM   42  C28 UNL     1       5.777  36.153  -3.162  1.00  0.00     0.000 C 
HETATM   43  C29 UNL     1       7.081  36.912  -3.330  1.00  0.00     0.000 C 
HETATM   44  C30 UNL     1       7.714  37.137  -1.970  1.00  0.00     0.007 C 
ENDBRANCH  29  39
ENDBRANCH  27  29
ENDBRANCH   1  25
TORSDOF 14
ENDMDL
MODEL 3
REMARK VINA RESULT: -7.218200434      2.734      4.172
REMARK  14 active torsions:
REMARK  status: ('A' for Active; 'I' for Inactive)
REMARK    1  A    between atoms: S1_2  and  C2_3 
REMARK    2  A    between atoms: C2_3  and  C3_4 
REMARK    3  A    between atoms: C3_4  and  C4_5 
REMARK    4  A    between atoms: C4_5  and  N1_6 
REMARK    5  A    between atoms: C4_5  and  C18_25 
REMARK       I    between atoms: N1_6  and  C5_8 
REMARK    6  A    between atoms: C5_8  and  C6_10 
REMARK    7  A    between atoms: C6_10  and  C7_11 
REMARK    8  A    between atoms: C6_10  and  N2_18 
REMARK    9  A    between atoms: C7_11  and  C8_12 
REMARK       I    between atoms: N2_18  and  C14_20 
REMARK   10  A    between atoms: C14_20  and  C15_22 
REMARK       I    between atoms: C18_25  and  N3_27 
REMARK   11  A    between atoms: N3_27  and  C19_29 
REMARK   12  A    between atoms: C19_29  and  C20_30 
REMARK   13  A    between atoms: C19_29  and  C25_39 
REMARK       I    between atoms: C20_30  and  N4_32 
REMARK   14  A    between atoms: N4_32  and  C21_34 
ROOT
HETATM    1  C4  UNL     1      10.125  34.398   0.533  1.00  0.00     0.177 C 
ENDROOT
BRANCH   1   2
HETATM    2  C3  UNL     1      11.648  34.351   0.536  1.00  0.00     0.045 C 
BRANCH   2   3
HETATM    3  C2  UNL     1      12.224  35.751   0.641  1.00  0.00     0.076 C 
BRANCH   3   4
HETATM    4  S1  UNL     1      13.178  36.059  -0.870  1.00  0.00    -0.173 SA
HETATM    5  C1  UNL     1      13.393  34.574  -1.849  1.00  0.00     0.089 C 
ENDBRANCH   3   4
ENDBRANCH   2   3
ENDBRANCH   1   2
BRANCH   1   6
HETATM    6  N1  UNL     1       9.540  33.142   0.880  1.00  0.00    -0.346 N 
HETATM    7  C5  UNL     1       8.940  32.766   2.089  1.00  0.00     0.241 C 
HETATM    8  O1  UNL     1       8.879  33.560   3.026  1.00  0.00    -0.271 OA
ATOM      9  H1  UNL     1       9.561  32.427   0.154  1.00  0.00     0.163 HD
BRANCH   7  10
HETATM   10  C6  UNL     1       8.390  31.402   2.198  1.00  0.00     0.177 C 
BRANCH  10  11
HETATM   11  C7  UNL     1       6.899  31.393   2.372  1.00  0.00     0.039 C 
BRANCH  11  12
HETATM   12  C8  UNL     1       6.141  32.531   1.809  1.00  0.00    -0.012 C 
HETATM   13  C9  UNL     1       6.295  32.423   0.275  1.00  0.00     0.005 C 
HETATM   14  C10 UNL     1       5.879  33.803  -0.228  1.00  0.00     0.000 C 
HETATM   15  C11 UNL     1       4.407  33.936   0.004  1.00  0.00     0.000 C 
HETATM   16  C12 UNL     1       3.813  32.894   0.892  1.00  0.00     0.000 C 
HETATM   17  C13 UNL     1       4.650  32.500   2.071  1.00  0.00     0.005 C 
ENDBRANCH  11  12
ENDBRANCH  10  11
BRANCH  10  18
HETATM   18  N2  UNL     1       9.111  30.559   3.112  1.00  0.00    -0.347 N 
HETATM   19  C14 UNL     1      10.365  29.941   2.731  1.00  0.00     0.221 C 
HETATM   20  O2  UNL     1      10.790  30.176   1.580  1.00  0.00    -0.273 OA
ATOM     21  H2  UNL     1       8.734  30.393   4.045  1.00  0.00     0.163 HD
BRANCH  19  22
HETATM   22  C15 UNL     1      11.131  29.066   3.630  1.00  0.00     0.070 C 
HETATM   23  C16 UNL     1      10.786  27.621   3.282  1.00  0.00     0.019 C 
HETATM   24  C17 UNL     1      10.780  29.348   5.087  1.00  0.00     0.019 C 
ENDBRANCH  19  22
ENDBRANCH  10  18
ENDBRANCH   7  10
ENDBRANCH   1   6
BRANCH   1  25
HETATM   25  C18 UNL     1       9.698  34.826  -0.814  1.00  0.00     0.241 C 
HETATM   26  O3  UNL     1       9.919  34.007  -1.778  1.00  0.00    -0.271 OA
HETATM   27  N3  UNL     1       9.076  36.063  -1.095  1.00  0.00    -0.346 N 
ATOM     28  H3  UNL     1       8.892  36.729  -0.343  1.00  0.00     0.163 HD
BRANCH  27  29
HETATM   29  C19 UNL     1       8.690  36.388  -2.497  1.00  0.00     0.180 C 
BRANCH  29  30
HETATM   30  C20 UNL     1       9.919  36.703  -3.260  1.00  0.00     0.241 C 
HETATM   31  O4  UNL     1      10.564  37.767  -2.969  1.00  0.00    -0.271 OA
HETATM   32  N4  UNL     1      10.443  35.902  -4.293  1.00  0.00    -0.353 N 
ATOM     33  H4  UNL     1       9.970  35.039  -4.563  1.00  0.00     0.163 HD
BRANCH  32  34
HETATM   34  C21 UNL     1      11.671  36.313  -4.979  1.00  0.00     0.110 C 
HETATM   35  C22 UNL     1      12.425  35.066  -5.458  1.00  0.00     0.053 C 
HETATM   36  C23 UNL     1      13.048  35.541  -6.723  1.00  0.00     0.169 C 
HETATM   37  O5  UNL     1      12.470  36.728  -7.118  1.00  0.00    -0.389 OA
HETATM   38  C24 UNL     1      11.392  36.993  -6.289  1.00  0.00     0.192 C 
ENDBRANCH  32  34
ENDBRANCH  29  30
BRANCH  29  39
HETATM   39  C25 UNL     1       7.707  37.492  -2.374  1.00  0.00     0.018 C 
HETATM   40  C26 UNL     1       6.808  37.203  -1.182  1.00  0.00     0.007 C 
HETATM   41  C27 UNL     1       5.367  37.577  -1.457  1.00  0.00     0.000 C 
HETATM   42  C28 UNL     1       4.785  36.835  -2.648  1.00  0.00     0.000 C 
HETATM   43  C29 UNL     1       5.782  36.783  -3.791  1.00  0.00     0.000 C 
HETATM   44  C30 UNL     1       6.871  37.812  -3.562  1.00  0.00     0.007 C 
ENDBRANCH  29  39
ENDBRANCH  27  29
ENDBRANCH   1  25
TORSDOF 14
ENDMDL
MODEL 4
REMARK VINA RESULT: -7.152061208      2.090      2.573
REMARK  14 active torsions:
REMARK  status: ('A' for Active; 'I' for Inactive)
REMARK    1  A    between atoms: S1_2  and  C2_3 
REMARK    2  A    between atoms: C2_3  and  C3_4 
REMARK    3  A    between atoms: C3_4  and  C4_5 
REMARK    4  A    between atoms: C4_5  and  N1_6 
REMARK    5  A    between atoms: C4_5  and  C18_25 
REMARK       I    between atoms: N1_6  and  C5_8 
REMARK    6  A    between atoms: C5_8  and  C6_10 
REMARK    7  A    between atoms: C6_10  and  C7_11 
REMARK    8  A    between atoms: C6_10  and  N2_18 
REMARK    9  A    between atoms: C7_11  and  C8_12 
REMARK       I    between atoms: N2_18  and  C14_20 
REMARK   10  A    between atoms: C14_20  and  C15_22 
REMARK       I    between atoms: C18_25  and  N3_27 
REMARK   11  A    between atoms: N3_27  and  C19_29 
REMARK   12  A    between atoms: C19_29  and  C20_30 
REMARK   13  A    between atoms: C19_29  and  C25_39 
REMARK       I    between atoms: C20_30  and  N4_32 
REMARK   14  A    between atoms: N4_32  and  C21_34 
ROOT
HETATM    1  C4  UNL     1      10.961  34.930  -1.428  1.00  0.00     0.177 C 
ENDROOT
BRANCH   1   2
HETATM    2  C3  UNL     1      10.986  34.498  -2.889  1.00  0.00     0.045 C 
BRANCH   2   3
HETATM    3  C2  UNL     1      12.303  34.888  -3.537  1.00  0.00     0.076 C 
BRANCH   3   4
HETATM    4  S1  UNL     1      11.946  35.344  -5.255  1.00  0.00    -0.173 SA
HETATM    5  C1  UNL     1      12.831  34.316  -6.426  1.00  0.00     0.089 C 
ENDBRANCH   3   4
ENDBRANCH   2   3
ENDBRANCH   1   2
BRANCH   1   6
HETATM    6  N1  UNL     1      10.457  33.909  -0.566  1.00  0.00    -0.346 N 
HETATM    7  C5  UNL     1      11.170  33.074   0.303  1.00  0.00     0.241 C 
HETATM    8  O1  UNL     1      12.395  33.161   0.385  1.00  0.00    -0.271 OA
ATOM      9  H1  UNL     1       9.446  33.770  -0.586  1.00  0.00     0.163 HD
BRANCH   7  10
HETATM   10  C6  UNL     1      10.413  32.097   1.108  1.00  0.00     0.177 C 
BRANCH  10  11
HETATM   11  C7  UNL     1       9.345  32.740   1.942  1.00  0.00     0.039 C 
BRANCH  11  12
HETATM   12  C8  UNL     1       7.946  32.605   1.479  1.00  0.00    -0.012 C 
HETATM   13  C9  UNL     1       7.139  32.131   2.709  1.00  0.00     0.005 C 
HETATM   14  C10 UNL     1       5.837  31.609   2.106  1.00  0.00     0.000 C 
HETATM   15  C11 UNL     1       5.084  32.791   1.582  1.00  0.00     0.000 C 
HETATM   16  C12 UNL     1       5.874  34.054   1.498  1.00  0.00     0.000 C 
HETATM   17  C13 UNL     1       7.292  33.897   1.036  1.00  0.00     0.005 C 
ENDBRANCH  11  12
ENDBRANCH  10  11
BRANCH  10  18
HETATM   18  N2  UNL     1      11.245  31.157   1.807  1.00  0.00    -0.347 N 
HETATM   19  C14 UNL     1      10.704  29.915   2.322  1.00  0.00     0.221 C 
HETATM   20  O2  UNL     1       9.489  29.697   2.126  1.00  0.00    -0.273 OA
ATOM     21  H2  UNL     1      12.234  31.367   1.945  1.00  0.00     0.163 HD
BRANCH  19  22
HETATM   22  C15 UNL     1      11.516  28.929   3.050  1.00  0.00     0.070 C 
HETATM   23  C16 UNL     1      11.797  27.765   2.105  1.00  0.00     0.019 C 
HETATM   24  C17 UNL     1      10.778  28.429   4.287  1.00  0.00     0.019 C 
ENDBRANCH  19  22
ENDBRANCH  10  18
ENDBRANCH   7  10
ENDBRANCH   1   6
BRANCH   1  25
HETATM   25  C18 UNL     1      10.134  36.150  -1.341  1.00  0.00     0.241 C 
HETATM   26  O3  UNL     1      10.754  37.275  -1.389  1.00  0.00    -0.271 OA
HETATM   27  N3  UNL     1       8.727  36.149  -1.208  1.00  0.00    -0.346 N 
ATOM     28  H3  UNL     1       8.215  35.268  -1.166  1.00  0.00     0.163 HD
BRANCH  27  29
HETATM   29  C19 UNL     1       7.997  37.446  -1.127  1.00  0.00     0.180 C 
BRANCH  29  30
HETATM   30  C20 UNL     1       8.370  38.116   0.139  1.00  0.00     0.241 C 
HETATM   31  O4  UNL     1       8.170  37.497   1.240  1.00  0.00    -0.271 OA
HETATM   32  N4  UNL     1       8.943  39.400   0.224  1.00  0.00    -0.353 N 
ATOM     33  H4  UNL     1       9.128  39.935  -0.624  1.00  0.00     0.163 HD
BRANCH  32  34
HETATM   34  C21 UNL     1       9.274  39.962   1.536  1.00  0.00     0.110 C 
HETATM   35  C22 UNL     1      10.771  39.766   1.809  1.00  0.00     0.053 C 
HETATM   36  C23 UNL     1      11.110  40.983   2.594  1.00  0.00     0.169 C 
HETATM   37  O5  UNL     1      10.098  41.911   2.489  1.00  0.00    -0.389 OA
HETATM   38  C24 UNL     1       9.180  41.461   1.553  1.00  0.00     0.192 C 
ENDBRANCH  32  34
ENDBRANCH  29  30
BRANCH  29  39
HETATM   39  C25 UNL     1       6.565  37.086  -1.269  1.00  0.00     0.018 C 
HETATM   40  C26 UNL     1       6.474  35.793  -2.065  1.00  0.00     0.007 C 
HETATM   41  C27 UNL     1       5.311  35.809  -3.035  1.00  0.00     0.000 C 
HETATM   42  C28 UNL     1       5.398  36.947  -4.037  1.00  0.00     0.000 C 
HETATM   43  C29 UNL     1       5.829  38.233  -3.357  1.00  0.00     0.000 C 
HETATM   44  C30 UNL     1       5.650  38.099  -1.857  1.00  0.00     0.007 C 
ENDBRANCH  29  39
ENDBRANCH  27  29
ENDBRANCH   1  25
TORSDOF 14
ENDMDL
MODEL 5
REMARK VINA RESULT: -7.136482120      2.391      4.463
REMARK  14 active torsions:
REMARK  status: ('A' for Active; 'I' for Inactive)
REMARK    1  A    between atoms: S1_2  and  C2_3 
REMARK    2  A    between atoms: C2_3  and  C3_4 
REMARK    3  A    between atoms: C3_4  and  C4_5 
REMARK    4  A    between atoms: C4_5  and  N1_6 
REMARK    5  A    between atoms: C4_5  and  C18_25 
REMARK       I    between atoms: N1_6  and  C5_8 
REMARK    6  A    between atoms: C5_8  and  C6_10 
REMARK    7  A    between atoms: C6_10  and  C7_11 
REMARK    8  A    between atoms: C6_10  and  N2_18 
REMARK    9  A    between atoms: C7_11  and  C8_12 
REMARK       I    between atoms: N2_18  and  C14_20 
REMARK   10  A    between atoms: C14_20  and  C15_22 
REMARK       I    between atoms: C18_25  and  N3_27 
REMARK   11  A    between atoms: N3_27  and  C19_29 
REMARK   12  A    between atoms: C19_29  and  C20_30 
REMARK   13  A    between atoms: C19_29  and  C25_39 
REMARK       I    between atoms: C20_30  and  N4_32 
REMARK   14  A    between atoms: N4_32  and  C21_34 
ROOT
HETATM    1  C4  UNL     1       9.978  35.110   1.536  1.00  0.00     0.177 C 
ENDROOT
BRANCH   1   2
HETATM    2  C3  UNL     1      11.302  35.258   0.797  1.00  0.00     0.045 C 
BRANCH   2   3
HETATM    3  C2  UNL     1      12.059  33.942   0.793  1.00  0.00     0.076 C 
BRANCH   3   4
HETATM    4  S1  UNL     1      12.332  33.481  -0.939  1.00  0.00    -0.173 SA
HETATM    5  C1  UNL     1      11.156  34.263  -2.042  1.00  0.00     0.089 C 
ENDBRANCH   3   4
ENDBRANCH   2   3
ENDBRANCH   1   2
BRANCH   1   6
HETATM    6  N1  UNL     1       9.469  33.776   1.481  1.00  0.00    -0.346 N 
HETATM    7  C5  UNL     1       8.845  33.041   2.497  1.00  0.00     0.241 C 
HETATM    8  O1  UNL     1       8.686  33.533   3.613  1.00  0.00    -0.271 OA
ATOM      9  H1  UNL     1       9.574  33.297   0.587  1.00  0.00     0.163 HD
BRANCH   7  10
HETATM   10  C6  UNL     1       8.390  31.673   2.187  1.00  0.00     0.177 C 
BRANCH  10  11
HETATM   11  C7  UNL     1       6.894  31.548   2.182  1.00  0.00     0.039 C 
BRANCH  11  12
HETATM   12  C8  UNL     1       6.117  32.695   1.661  1.00  0.00    -0.012 C 
HETATM   13  C9  UNL     1       6.358  32.708   0.135  1.00  0.00     0.005 C 
HETATM   14  C10 UNL     1       5.909  34.104  -0.289  1.00  0.00     0.000 C 
HETATM   15  C11 UNL     1       4.422  34.160  -0.132  1.00  0.00     0.000 C 
HETATM   16  C12 UNL     1       3.828  33.031   0.643  1.00  0.00     0.000 C 
HETATM   17  C13 UNL     1       4.618  32.584   1.836  1.00  0.00     0.005 C 
ENDBRANCH  11  12
ENDBRANCH  10  11
BRANCH  10  18
HETATM   18  N2  UNL     1       9.080  30.652   2.927  1.00  0.00    -0.347 N 
HETATM   19  C14 UNL     1      10.379  30.170   2.506  1.00  0.00     0.221 C 
HETATM   20  O2  UNL     1      10.872  30.682   1.478  1.00  0.00    -0.273 OA
ATOM     21  H2  UNL     1       8.647  30.260   3.763  1.00  0.00     0.163 HD
BRANCH  19  22
HETATM   22  C15 UNL     1      11.116  29.122   3.228  1.00  0.00     0.070 C 
HETATM   23  C16 UNL     1      10.600  27.770   2.745  1.00  0.00     0.019 C 
HETATM   24  C17 UNL     1      10.905  29.253   4.732  1.00  0.00     0.019 C 
ENDBRANCH  19  22
ENDBRANCH  10  18
ENDBRANCH   7  10
ENDBRANCH   1   6
BRANCH   1  25
HETATM   25  C18 UNL     1       9.025  36.063   0.933  1.00  0.00     0.241 C 
HETATM   26  O3  UNL     1       7.907  36.230   1.543  1.00  0.00    -0.271 OA
HETATM   27  N3  UNL     1       9.270  36.786  -0.257  1.00  0.00    -0.346 N 
ATOM     28  H3  UNL     1      10.151  36.668  -0.758  1.00  0.00     0.163 HD
BRANCH  27  29
HETATM   29  C19 UNL     1       8.231  37.722  -0.774  1.00  0.00     0.180 C 
BRANCH  29  30
HETATM   30  C20 UNL     1       7.729  37.197  -2.064  1.00  0.00     0.241 C 
HETATM   31  O4  UNL     1       8.024  35.997  -2.393  1.00  0.00    -0.271 OA
HETATM   32  N4  UNL     1       6.933  37.929  -2.967  1.00  0.00    -0.353 N 
ATOM     33  H4  UNL     1       6.665  38.889  -2.752  1.00  0.00     0.163 HD
BRANCH  32  34
HETATM   34  C21 UNL     1       6.491  37.304  -4.217  1.00  0.00     0.110 C 
HETATM   35  C22 UNL     1       5.173  37.947  -4.666  1.00  0.00     0.053 C 
HETATM   36  C23 UNL     1       5.291  37.905  -6.148  1.00  0.00     0.169 C 
HETATM   37  O5  UNL     1       6.592  37.633  -6.512  1.00  0.00    -0.389 OA
HETATM   38  C24 UNL     1       7.383  37.653  -5.374  1.00  0.00     0.192 C 
ENDBRANCH  32  34
ENDBRANCH  29  30
BRANCH  29  39
HETATM   39  C25 UNL     1       8.905  39.042  -0.832  1.00  0.00     0.018 C 
HETATM   40  C26 UNL     1      10.407  38.816  -0.778  1.00  0.00     0.007 C 
HETATM   41  C27 UNL     1      11.104  39.858   0.071  1.00  0.00     0.000 C 
HETATM   42  C28 UNL     1      10.601  39.880   1.504  1.00  0.00     0.000 C 
HETATM   43  C29 UNL     1       9.089  39.761   1.548  1.00  0.00     0.000 C 
HETATM   44  C30 UNL     1       8.517  40.063   0.176  1.00  0.00     0.007 C 
ENDBRANCH  29  39
ENDBRANCH  27  29
ENDBRANCH   1  25
TORSDOF 14
ENDMDL
