MODEL 1
REMARK VINA RESULT: -7.570211087      0.000      0.000
REMARK  16 active torsions:
REMARK  status: ('A' for Active; 'I' for Inactive)
REMARK    1  A    between atoms: C2_2  and  C4_4 
REMARK    2  A    between atoms: C4_4  and  C5_5 
REMARK    3  A    between atoms: C5_5  and  C6_7 
REMARK       I    between atoms: C6_7  and  N1_9 
REMARK    4  A    between atoms: N1_9  and  C7_11 
REMARK    5  A    between atoms: C7_11  and  C8_12 
REMARK       I    between atoms: C8_12  and  N2_14 
REMARK    6  A    between atoms: N2_14  and  C9_16 
REMARK    7  A    between atoms: C9_16  and  C10_17 
REMARK    8  A    between atoms: C9_16  and  C14_21 
REMARK    9  A    between atoms: C10_17  and  C11_18 
REMARK       I    between atoms: C14_21  and  N3_23 
REMARK   10  A    between atoms: C18_27  and  C19_28 
REMARK   11  A    between atoms: C19_28  and  O4_29 
REMARK   12  A    between atoms: C19_28  and  N4_31 
REMARK   13  A    between atoms: N4_31  and  C20_33 
REMARK   14  A    between atoms: C20_33  and  C21_34 
REMARK   15  A    between atoms: C20_33  and  C28_42 
REMARK   16  A    between atoms: C21_34  and  C22_36 
ROOT
HETATM    1  C14 UNL     1      10.718  34.650   0.000  1.00  0.00     0.243 C 
HETATM    2  O3  UNL     1      10.230  35.079   1.078  1.00  0.00    -0.271 OA
HETATM    3  N3  UNL     1      10.190  35.066  -1.219  1.00  0.00    -0.338 N 
HETATM    4  C15 UNL     1      10.731  34.527  -2.517  1.00  0.00     0.127 C 
HETATM    5  C16 UNL     1      11.047  35.854  -3.185  1.00  0.00     0.022 C 
HETATM    6  C17 UNL     1      10.128  36.897  -2.534  1.00  0.00     0.035 C 
HETATM    7  C18 UNL     1       9.220  35.965  -1.713  1.00  0.00     0.161 C 
ENDROOT
BRANCH   1   8
HETATM    8  C9  UNL     1      11.857  33.704   0.206  1.00  0.00     0.177 C 
BRANCH   8   9
HETATM    9  N2  UNL     1      11.414  32.745   1.231  1.00  0.00    -0.346 N 
HETATM   10  C8  UNL     1      10.855  31.500   0.866  1.00  0.00     0.236 C 
HETATM   11  O2  UNL     1      10.762  31.243  -0.368  1.00  0.00    -0.272 OA
ATOM     12  H2  UNL     1      11.512  32.983   2.219  1.00  0.00     0.163 HD
BRANCH  10  13
HETATM   13  C7  UNL     1      10.379  30.490   1.828  1.00  0.00     0.225 C 
BRANCH  13  14
HETATM   14  N1  UNL     1      11.488  30.020   2.646  1.00  0.00    -0.351 N 
HETATM   15  C6  UNL     1      12.009  28.715   2.582  1.00  0.00     0.232 C 
HETATM   16  O1  UNL     1      11.516  27.895   1.779  1.00  0.00    -0.272 OA
ATOM     17  H1  UNL     1      11.911  30.675   3.303  1.00  0.00     0.163 HD
BRANCH  15  18
HETATM   18  C5  UNL     1      13.123  28.316   3.450  1.00  0.00     0.151 C 
HETATM   19  S1  UNL     1      13.826  26.770   2.743  1.00  0.00    -0.082 SA
BRANCH  18  20
HETATM   20  C4  UNL     1      12.762  28.014   4.863  1.00  0.00     0.029 C 
BRANCH  20  21
HETATM   21  C2  UNL     1      11.291  27.878   5.135  1.00  0.00    -0.021 C 
HETATM   22  C1  UNL     1      10.793  28.942   6.079  1.00  0.00     0.009 C 
HETATM   23  C3  UNL     1      11.087  26.547   5.878  1.00  0.00     0.009 C 
ENDBRANCH  20  21
ENDBRANCH  18  20
ENDBRANCH  15  18
ENDBRANCH  13  14
ENDBRANCH  10  13
ENDBRANCH   8   9
BRANCH   8  24
HETATM   24  C10 UNL     1      13.000  34.448   0.916  1.00  0.00     0.038 C 
BRANCH  24  25
HETATM   25  C11 UNL     1      14.317  34.340   0.229  1.00  0.00    -0.020 C 
HETATM   26  C12 UNL     1      14.851  32.926   0.575  1.00  0.00     0.009 C 
HETATM   27  C13 UNL     1      14.172  34.297  -1.287  1.00  0.00     0.009 C 
ENDBRANCH  24  25
ENDBRANCH   8  24
ENDBRANCH   1   8
BRANCH   7  28
HETATM   28  C19 UNL     1       8.240  36.651  -0.942  1.00  0.00     0.135 C 
BRANCH  28  29
HETATM   29  O4  UNL     1       8.773  37.635  -0.212  1.00  0.00    -0.348 OA
ATOM     30  H4  UNL     1       8.537  37.566   0.706  1.00  0.00     0.219 HD
ENDBRANCH  28  29
BRANCH  28  31
HETATM   31  N4  UNL     1       6.872  36.563  -0.759  1.00  0.00    -0.361 N 
ATOM     32  H4  UNL     1       6.406  37.294  -0.222  1.00  0.00     0.162 HD
BRANCH  31  33
HETATM   33  C20 UNL     1       6.048  35.456  -1.308  1.00  0.00     0.157 C 
BRANCH  33  34
HETATM   34  C21 UNL     1       5.437  34.661  -0.216  1.00  0.00     0.153 C 
HETATM   35  O5  UNL     1       4.382  35.170   0.241  1.00  0.00    -0.295 OA
BRANCH  34  36
HETATM   36  C22 UNL     1       5.931  33.407   0.350  1.00  0.00     0.057 C 
HETATM   37  C23 UNL     1       7.367  33.260   0.643  1.00  0.00     0.012 C 
HETATM   38  C24 UNL     1       7.665  33.103   2.142  1.00  0.00     0.001 C 
HETATM   39  C25 UNL     1       7.108  31.789   2.590  1.00  0.00     0.000 C 
HETATM   40  C26 UNL     1       5.701  31.662   2.029  1.00  0.00     0.001 C 
HETATM   41  C27 UNL     1       5.168  33.033   1.627  1.00  0.00     0.012 C 
ENDBRANCH  34  36
ENDBRANCH  33  34
BRANCH  33  42
HETATM   42  C28 UNL     1       5.004  36.182  -2.153  1.00  0.00     0.007 C 
HETATM   43  C29 UNL     1       4.879  37.636  -1.791  1.00  0.00     0.012 C 
HETATM   44  C30 UNL     1       5.427  36.122  -3.635  1.00  0.00     0.012 C 
ENDBRANCH  33  42
ENDBRANCH  31  33
ENDBRANCH  28  31
ENDBRANCH   7  28
TORSDOF 16
ENDMDL
MODEL 2
REMARK VINA RESULT: -7.339439604      2.593      5.804
REMARK  16 active torsions:
REMARK  status: ('A' for Active; 'I' for Inactive)
REMARK    1  A    between atoms: C2_2  and  C4_4 
REMARK    2  A    between atoms: C4_4  and  C5_5 
REMARK    3  A    between atoms: C5_5  and  C6_7 
REMARK       I    between atoms: C6_7  and  N1_9 
REMARK    4  A    between atoms: N1_9  and  C7_11 
REMARK    5  A    between atoms: C7_11  and  C8_12 
REMARK       I    between atoms: C8_12  and  N2_14 
REMARK    6  A    between atoms: N2_14  and  C9_16 
REMARK    7  A    between atoms: C9_16  and  C10_17 
REMARK    8  A    between atoms: C9_16  and  C14_21 
REMARK    9  A    between atoms: C10_17  and  C11_18 
REMARK       I    between atoms: C14_21  and  N3_23 
REMARK   10  A    between atoms: C18_27  and  C19_28 
REMARK   11  A    between atoms: C19_28  and  O4_29 
REMARK   12  A    between atoms: C19_28  and  N4_31 
REMARK   13  A    between atoms: N4_31  and  C20_33 
REMARK   14  A    between atoms: C20_33  and  C21_34 
REMARK   15  A    between atoms: C20_33  and  C28_42 
REMARK   16  A    between atoms: C21_34  and  C22_36 
ROOT
HETATM    1  C14 UNL     1       7.882  34.964  -0.498  1.00  0.00     0.243 C 
HETATM    2  O3  UNL     1       7.230  34.727  -1.549  1.00  0.00    -0.271 OA
HETATM    3  N3  UNL     1       8.614  36.143  -0.383  1.00  0.00    -0.338 N 
HETATM    4  C15 UNL     1       9.437  36.423   0.846  1.00  0.00     0.127 C 
HETATM    5  C16 UNL     1       8.842  37.774   1.201  1.00  0.00     0.022 C 
HETATM    6  C17 UNL     1       8.280  38.356  -0.104  1.00  0.00     0.035 C 
HETATM    7  C18 UNL     1       8.843  37.334  -1.106  1.00  0.00     0.161 C 
ENDROOT
BRANCH   1   8
HETATM    8  C9  UNL     1       7.765  33.881   0.525  1.00  0.00     0.177 C 
BRANCH   8   9
HETATM    9  N2  UNL     1       8.790  32.880   0.181  1.00  0.00    -0.346 N 
HETATM   10  C8  UNL     1       9.584  32.282   1.186  1.00  0.00     0.236 C 
HETATM   11  O2  UNL     1       9.371  32.632   2.382  1.00  0.00    -0.272 OA
ATOM     12  H2  UNL     1       8.928  32.615  -0.794  1.00  0.00     0.163 HD
BRANCH  10  13
HETATM   13  C7  UNL     1      10.634  31.281   0.927  1.00  0.00     0.225 C 
BRANCH  13  14
HETATM   14  N1  UNL     1      11.064  30.675   2.178  1.00  0.00    -0.351 N 
HETATM   15  C6  UNL     1      11.434  29.324   2.307  1.00  0.00     0.232 C 
HETATM   16  O1  UNL     1      11.409  28.582   1.303  1.00  0.00    -0.272 OA
ATOM     17  H1  UNL     1      11.100  31.265   3.010  1.00  0.00     0.163 HD
BRANCH  15  18
HETATM   18  C5  UNL     1      11.846  28.786   3.609  1.00  0.00     0.151 C 
HETATM   19  S1  UNL     1      13.609  28.289   3.450  1.00  0.00    -0.082 SA
BRANCH  18  20
HETATM   20  C4  UNL     1      11.102  27.582   4.072  1.00  0.00     0.029 C 
BRANCH  20  21
HETATM   21  C2  UNL     1      10.755  27.564   5.533  1.00  0.00    -0.021 C 
HETATM   22  C1  UNL     1      11.095  28.867   6.208  1.00  0.00     0.009 C 
HETATM   23  C3  UNL     1      11.657  26.513   6.202  1.00  0.00     0.009 C 
ENDBRANCH  20  21
ENDBRANCH  18  20
ENDBRANCH  15  18
ENDBRANCH  13  14
ENDBRANCH  10  13
ENDBRANCH   8   9
BRANCH   8  24
HETATM   24  C10 UNL     1       6.455  33.112   0.286  1.00  0.00     0.038 C 
BRANCH  24  25
HETATM   25  C11 UNL     1       5.538  33.093   1.459  1.00  0.00    -0.020 C 
HETATM   26  C12 UNL     1       4.115  32.910   0.872  1.00  0.00     0.009 C 
HETATM   27  C13 UNL     1       5.725  31.846   2.315  1.00  0.00     0.009 C 
ENDBRANCH  24  25
ENDBRANCH   8  24
ENDBRANCH   1   8
BRANCH   7  28
HETATM   28  C19 UNL     1       8.465  37.584  -2.455  1.00  0.00     0.135 C 
BRANCH  28  29
HETATM   29  O4  UNL     1       9.430  38.202  -3.142  1.00  0.00    -0.348 OA
ATOM     30  H4  UNL     1       9.131  38.493  -3.995  1.00  0.00     0.219 HD
ENDBRANCH  28  29
BRANCH  28  31
HETATM   31  N4  UNL     1       7.351  37.347  -3.240  1.00  0.00    -0.361 N 
ATOM     32  H4  UNL     1       7.348  36.523  -3.842  1.00  0.00     0.162 HD
BRANCH  31  33
HETATM   33  C20 UNL     1       6.159  38.233  -3.251  1.00  0.00     0.157 C 
BRANCH  33  34
HETATM   34  C21 UNL     1       6.037  38.938  -4.548  1.00  0.00     0.153 C 
HETATM   35  O5  UNL     1       7.111  39.468  -4.931  1.00  0.00    -0.295 OA
BRANCH  34  36
HETATM   36  C22 UNL     1       4.839  39.071  -5.375  1.00  0.00     0.057 C 
HETATM   37  C23 UNL     1       4.401  40.409  -5.808  1.00  0.00     0.012 C 
HETATM   38  C24 UNL     1       4.478  40.607  -7.329  1.00  0.00     0.001 C 
HETATM   39  C25 UNL     1       3.460  39.714  -7.965  1.00  0.00     0.000 C 
HETATM   40  C26 UNL     1       3.578  38.341  -7.322  1.00  0.00     0.001 C 
HETATM   41  C27 UNL     1       4.929  38.196  -6.632  1.00  0.00     0.012 C 
ENDBRANCH  34  36
ENDBRANCH  33  34
BRANCH  33  42
HETATM   42  C28 UNL     1       5.003  37.267  -3.002  1.00  0.00     0.007 C 
HETATM   43  C29 UNL     1       5.249  35.908  -3.595  1.00  0.00     0.012 C 
HETATM   44  C30 UNL     1       4.830  37.071  -1.482  1.00  0.00     0.012 C 
ENDBRANCH  33  42
ENDBRANCH  31  33
ENDBRANCH  28  31
ENDBRANCH   7  28
TORSDOF 16
ENDMDL
MODEL 3
REMARK VINA RESULT: -7.317993813      1.509      1.864
REMARK  16 active torsions:
REMARK  status: ('A' for Active; 'I' for Inactive)
REMARK    1  A    between atoms: C2_2  and  C4_4 
REMARK    2  A    between atoms: C4_4  and  C5_5 
REMARK    3  A    between atoms: C5_5  and  C6_7 
REMARK       I    between atoms: C6_7  and  N1_9 
REMARK    4  A    between atoms: N1_9  and  C7_11 
REMARK    5  A    between atoms: C7_11  and  C8_12 
REMARK       I    between atoms: C8_12  and  N2_14 
REMARK    6  A    between atoms: N2_14  and  C9_16 
REMARK    7  A    between atoms: C9_16  and  C10_17 
REMARK    8  A    between atoms: C9_16  and  C14_21 
REMARK    9  A    between atoms: C10_17  and  C11_18 
REMARK       I    between atoms: C14_21  and  N3_23 
REMARK   10  A    between atoms: C18_27  and  C19_28 
REMARK   11  A    between atoms: C19_28  and  O4_29 
REMARK   12  A    between atoms: C19_28  and  N4_31 
REMARK   13  A    between atoms: N4_31  and  C20_33 
REMARK   14  A    between atoms: C20_33  and  C21_34 
REMARK   15  A    between atoms: C20_33  and  C28_42 
REMARK   16  A    between atoms: C21_34  and  C22_36 
ROOT
HETATM    1  C14 UNL     1      10.560  34.958  -0.279  1.00  0.00     0.243 C 
HETATM    2  O3  UNL     1       9.825  35.511   0.580  1.00  0.00    -0.271 OA
HETATM    3  N3  UNL     1      10.497  35.358  -1.612  1.00  0.00    -0.338 N 
HETATM    4  C15 UNL     1      11.334  34.676  -2.661  1.00  0.00     0.127 C 
HETATM    5  C16 UNL     1      12.021  35.908  -3.223  1.00  0.00     0.022 C 
HETATM    6  C17 UNL     1      11.098  37.097  -2.917  1.00  0.00     0.035 C 
HETATM    7  C18 UNL     1       9.862  36.337  -2.405  1.00  0.00     0.161 C 
ENDROOT
BRANCH   1   8
HETATM    8  C9  UNL     1      11.438  33.893   0.295  1.00  0.00     0.177 C 
BRANCH   8   9
HETATM    9  N2  UNL     1      10.635  33.210   1.323  1.00  0.00    -0.346 N 
HETATM   10  C8  UNL     1      10.147  31.901   1.110  1.00  0.00     0.236 C 
HETATM   11  O2  UNL     1      10.436  31.343   0.012  1.00  0.00    -0.272 OA
ATOM     12  H2  UNL     1      10.429  33.687   2.201  1.00  0.00     0.163 HD
BRANCH  10  13
HETATM   13  C7  UNL     1       9.331  31.151   2.082  1.00  0.00     0.225 C 
BRANCH  13  14
HETATM   14  N1  UNL     1       9.789  29.772   2.158  1.00  0.00    -0.351 N 
HETATM   15  C6  UNL     1      10.407  29.214   3.292  1.00  0.00     0.232 C 
HETATM   16  O1  UNL     1      10.575  29.920   4.309  1.00  0.00    -0.272 OA
ATOM     17  H1  UNL     1       9.655  29.175   1.342  1.00  0.00     0.163 HD
BRANCH  15  18
HETATM   18  C5  UNL     1      10.852  27.816   3.285  1.00  0.00     0.151 C 
HETATM   19  S1  UNL     1      11.042  27.305   5.042  1.00  0.00    -0.082 SA
BRANCH  18  20
HETATM   20  C4  UNL     1      12.160  27.559   2.622  1.00  0.00     0.029 C 
BRANCH  20  21
HETATM   21  C2  UNL     1      13.329  27.390   3.549  1.00  0.00    -0.021 C 
HETATM   22  C1  UNL     1      14.177  28.634   3.618  1.00  0.00     0.009 C 
HETATM   23  C3  UNL     1      14.239  26.310   2.942  1.00  0.00     0.009 C 
ENDBRANCH  20  21
ENDBRANCH  18  20
ENDBRANCH  15  18
ENDBRANCH  13  14
ENDBRANCH  10  13
ENDBRANCH   8   9
BRANCH   8  24
HETATM   24  C10 UNL     1      12.547  34.558   1.126  1.00  0.00     0.038 C 
BRANCH  24  25
HETATM   25  C11 UNL     1      13.922  34.327   0.601  1.00  0.00    -0.020 C 
HETATM   26  C12 UNL     1      13.822  33.054  -0.278  1.00  0.00     0.009 C 
HETATM   27  C13 UNL     1      14.348  35.403  -0.390  1.00  0.00     0.009 C 
ENDBRANCH  24  25
ENDBRANCH   8  24
ENDBRANCH   1   8
BRANCH   7  28
HETATM   28  C19 UNL     1       8.795  37.187  -1.997  1.00  0.00     0.135 C 
BRANCH  28  29
HETATM   29  O4  UNL     1       9.180  38.071  -1.073  1.00  0.00    -0.348 OA
ATOM     30  H4  UNL     1       8.729  38.902  -1.163  1.00  0.00     0.219 HD
ENDBRANCH  28  29
BRANCH  28  31
HETATM   31  N4  UNL     1       7.457  37.334  -2.318  1.00  0.00    -0.361 N 
ATOM     32  H4  UNL     1       7.134  38.245  -2.643  1.00  0.00     0.162 HD
BRANCH  31  33
HETATM   33  C20 UNL     1       6.469  36.230  -2.213  1.00  0.00     0.157 C 
BRANCH  33  34
HETATM   34  C21 UNL     1       6.393  35.721  -0.824  1.00  0.00     0.153 C 
HETATM   35  O5  UNL     1       6.732  36.571   0.039  1.00  0.00    -0.295 OA
BRANCH  34  36
HETATM   36  C22 UNL     1       5.985  34.385  -0.391  1.00  0.00     0.057 C 
HETATM   37  C23 UNL     1       6.823  33.646   0.568  1.00  0.00     0.012 C 
HETATM   38  C24 UNL     1       6.128  33.403   1.916  1.00  0.00     0.001 C 
HETATM   39  C25 UNL     1       4.991  32.457   1.687  1.00  0.00     0.000 C 
HETATM   40  C26 UNL     1       4.230  32.932   0.460  1.00  0.00     0.001 C 
HETATM   41  C27 UNL     1       4.556  34.392   0.168  1.00  0.00     0.012 C 
ENDBRANCH  34  36
ENDBRANCH  33  34
BRANCH  33  42
HETATM   42  C28 UNL     1       5.165  36.884  -2.666  1.00  0.00     0.007 C 
HETATM   43  C29 UNL     1       5.104  38.346  -2.324  1.00  0.00     0.012 C 
HETATM   44  C30 UNL     1       5.055  36.774  -4.201  1.00  0.00     0.012 C 
ENDBRANCH  33  42
ENDBRANCH  31  33
ENDBRANCH  28  31
ENDBRANCH   7  28
TORSDOF 16
ENDMDL
MODEL 4
REMARK VINA RESULT: -7.242480486      2.565      5.494
REMARK  16 active torsions:
REMARK  status: ('A' for Active; 'I' for Inactive)
REMARK    1  A    between atoms: C2_2  and  C4_4 
REMARK    2  A    between atoms: C4_4  and  C5_5 
REMARK    3  A    between atoms: C5_5  and  C6_7 
REMARK       I    between atoms: C6_7  and  N1_9 
REMARK    4  A    between atoms: N1_9  and  C7_11 
REMARK    5  A    between atoms: C7_11  and  C8_12 
REMARK       I    between atoms: C8_12  and  N2_14 
REMARK    6  A    between atoms: N2_14  and  C9_16 
REMARK    7  A    between atoms: C9_16  and  C10_17 
REMARK    8  A    between atoms: C9_16  and  C14_21 
REMARK    9  A    between atoms: C10_17  and  C11_18 
REMARK       I    between atoms: C14_21  and  N3_23 
REMARK   10  A    between atoms: C18_27  and  C19_28 
REMARK   11  A    between atoms: C19_28  and  O4_29 
REMARK   12  A    between atoms: C19_28  and  N4_31 
REMARK   13  A    between atoms: N4_31  and  C20_33 
REMARK   14  A    between atoms: C20_33  and  C21_34 
REMARK   15  A    between atoms: C20_33  and  C28_42 
REMARK   16  A    between atoms: C21_34  and  C22_36 
ROOT
HETATM    1  C14 UNL     1       7.665  34.953  -0.647  1.00  0.00     0.243 C 
HETATM    2  O3  UNL     1       6.879  34.720  -1.602  1.00  0.00    -0.271 OA
HETATM    3  N3  UNL     1       8.457  36.098  -0.660  1.00  0.00    -0.338 N 
HETATM    4  C15 UNL     1       9.437  36.370   0.451  1.00  0.00     0.127 C 
HETATM    5  C16 UNL     1       8.951  37.757   0.832  1.00  0.00     0.022 C 
HETATM    6  C17 UNL     1       8.259  38.331  -0.414  1.00  0.00     0.035 C 
HETATM    7  C18 UNL     1       8.649  37.256  -1.443  1.00  0.00     0.161 C 
ENDROOT
BRANCH   1   8
HETATM    8  C9  UNL     1       7.626  33.904   0.417  1.00  0.00     0.177 C 
BRANCH   8   9
HETATM    9  N2  UNL     1       8.697  32.948   0.090  1.00  0.00    -0.346 N 
HETATM   10  C8  UNL     1       9.454  32.330   1.111  1.00  0.00     0.236 C 
HETATM   11  O2  UNL     1       9.167  32.623   2.307  1.00  0.00    -0.272 OA
ATOM     12  H2  UNL     1       8.895  32.728  -0.886  1.00  0.00     0.163 HD
BRANCH  10  13
HETATM   13  C7  UNL     1      10.547  31.371   0.869  1.00  0.00     0.225 C 
BRANCH  13  14
HETATM   14  N1  UNL     1      10.967  30.768   2.125  1.00  0.00    -0.351 N 
HETATM   15  C6  UNL     1      11.401  29.435   2.247  1.00  0.00     0.232 C 
HETATM   16  O1  UNL     1      11.445  28.709   1.232  1.00  0.00    -0.272 OA
ATOM     17  H1  UNL     1      10.947  31.345   2.966  1.00  0.00     0.163 HD
BRANCH  15  18
HETATM   18  C5  UNL     1      11.798  28.898   3.554  1.00  0.00     0.151 C 
HETATM   19  S1  UNL     1      13.550  28.359   3.402  1.00  0.00    -0.082 SA
BRANCH  18  20
HETATM   20  C4  UNL     1      11.026  27.715   4.025  1.00  0.00     0.029 C 
BRANCH  20  21
HETATM   21  C2  UNL     1      10.725  27.688   5.496  1.00  0.00    -0.021 C 
HETATM   22  C1  UNL     1      11.111  28.978   6.172  1.00  0.00     0.009 C 
HETATM   23  C3  UNL     1      11.627  26.613   6.125  1.00  0.00     0.009 C 
ENDBRANCH  20  21
ENDBRANCH  18  20
ENDBRANCH  15  18
ENDBRANCH  13  14
ENDBRANCH  10  13
ENDBRANCH   8   9
BRANCH   8  24
HETATM   24  C10 UNL     1       6.356  33.057   0.234  1.00  0.00     0.038 C 
BRANCH  24  25
HETATM   25  C11 UNL     1       5.405  33.131   1.378  1.00  0.00    -0.020 C 
HETATM   26  C12 UNL     1       3.991  33.014   0.751  1.00  0.00     0.009 C 
HETATM   27  C13 UNL     1       5.490  31.903   2.276  1.00  0.00     0.009 C 
ENDBRANCH  24  25
ENDBRANCH   8  24
ENDBRANCH   1   8
BRANCH   7  28
HETATM   28  C19 UNL     1       8.119  37.489  -2.743  1.00  0.00     0.135 C 
BRANCH  28  29
HETATM   29  O4  UNL     1       8.413  36.498  -3.591  1.00  0.00    -0.348 OA
ATOM     30  H4  UNL     1       9.055  36.761  -4.239  1.00  0.00     0.219 HD
ENDBRANCH  28  29
BRANCH  28  31
HETATM   31  N4  UNL     1       7.372  38.479  -3.355  1.00  0.00    -0.361 N 
ATOM     32  H4  UNL     1       7.860  39.291  -3.733  1.00  0.00     0.162 HD
BRANCH  31  33
HETATM   33  C20 UNL     1       5.894  38.418  -3.489  1.00  0.00     0.157 C 
BRANCH  33  34
HETATM   34  C21 UNL     1       5.234  39.198  -2.416  1.00  0.00     0.153 C 
HETATM   35  O5  UNL     1       4.710  38.479  -1.527  1.00  0.00    -0.295 OA
BRANCH  34  36
HETATM   36  C22 UNL     1       5.138  40.653  -2.310  1.00  0.00     0.057 C 
HETATM   37  C23 UNL     1       3.843  41.272  -1.980  1.00  0.00     0.012 C 
HETATM   38  C24 UNL     1       3.846  41.992  -0.623  1.00  0.00     0.001 C 
HETATM   39  C25 UNL     1       4.752  43.178  -0.730  1.00  0.00     0.000 C 
HETATM   40  C26 UNL     1       6.035  42.725  -1.407  1.00  0.00     0.001 C 
HETATM   41  C27 UNL     1       6.171  41.209  -1.321  1.00  0.00     0.012 C 
ENDBRANCH  34  36
ENDBRANCH  33  34
BRANCH  33  42
HETATM   42  C28 UNL     1       5.643  39.006  -4.875  1.00  0.00     0.007 C 
HETATM   43  C29 UNL     1       6.918  39.285  -5.622  1.00  0.00     0.012 C 
HETATM   44  C30 UNL     1       4.842  37.990  -5.715  1.00  0.00     0.012 C 
ENDBRANCH  33  42
ENDBRANCH  31  33
ENDBRANCH  28  31
ENDBRANCH   7  28
TORSDOF 16
ENDMDL
MODEL 5
REMARK VINA RESULT: -7.197094596      1.687      3.529
REMARK  16 active torsions:
REMARK  status: ('A' for Active; 'I' for Inactive)
REMARK    1  A    between atoms: C2_2  and  C4_4 
REMARK    2  A    between atoms: C4_4  and  C5_5 
REMARK    3  A    between atoms: C5_5  and  C6_7 
REMARK       I    between atoms: C6_7  and  N1_9 
REMARK    4  A    between atoms: N1_9  and  C7_11 
REMARK    5  A    between atoms: C7_11  and  C8_12 
REMARK       I    between atoms: C8_12  and  N2_14 
REMARK    6  A    between atoms: N2_14  and  C9_16 
REMARK    7  A    between atoms: C9_16  and  C10_17 
REMARK    8  A    between atoms: C9_16  and  C14_21 
REMARK    9  A    between atoms: C10_17  and  C11_18 
REMARK       I    between atoms: C14_21  and  N3_23 
REMARK   10  A    between atoms: C18_27  and  C19_28 
REMARK   11  A    between atoms: C19_28  and  O4_29 
REMARK   12  A    between atoms: C19_28  and  N4_31 
REMARK   13  A    between atoms: N4_31  and  C20_33 
REMARK   14  A    between atoms: C20_33  and  C21_34 
REMARK   15  A    between atoms: C20_33  and  C28_42 
REMARK   16  A    between atoms: C21_34  and  C22_36 
ROOT
HETATM    1  C14 UNL     1       9.754  33.957   0.845  1.00  0.00     0.243 C 
HETATM    2  O3  UNL     1       9.052  33.305   1.661  1.00  0.00    -0.271 OA
HETATM    3  N3  UNL     1       9.292  35.170   0.341  1.00  0.00    -0.338 N 
HETATM    4  C15 UNL     1      10.097  35.941  -0.671  1.00  0.00     0.127 C 
HETATM    5  C16 UNL     1      10.167  37.263   0.071  1.00  0.00     0.022 C 
HETATM    6  C17 UNL     1       8.955  37.296   1.014  1.00  0.00     0.035 C 
HETATM    7  C18 UNL     1       8.203  36.052   0.510  1.00  0.00     0.161 C 
ENDROOT
BRANCH   1   8
HETATM    8  C9  UNL     1      11.052  33.290   0.521  1.00  0.00     0.177 C 
BRANCH   8   9
HETATM    9  N2  UNL     1      11.130  32.102   1.387  1.00  0.00    -0.346 N 
HETATM   10  C8  UNL     1      11.184  30.803   0.833  1.00  0.00     0.236 C 
HETATM   11  O2  UNL     1      11.172  30.707  -0.428  1.00  0.00    -0.272 OA
ATOM     12  H2  UNL     1      11.146  32.218   2.401  1.00  0.00     0.163 HD
BRANCH  10  13
HETATM   13  C7  UNL     1      11.254  29.564   1.628  1.00  0.00     0.225 C 
BRANCH  13  14
HETATM   14  N1  UNL     1      12.493  29.531   2.390  1.00  0.00    -0.351 N 
HETATM   15  C6  UNL     1      12.866  28.468   3.232  1.00  0.00     0.232 C 
HETATM   16  O1  UNL     1      12.111  27.478   3.343  1.00  0.00    -0.272 OA
ATOM     17  H1  UNL     1      13.129  30.324   2.308  1.00  0.00     0.163 HD
BRANCH  15  18
HETATM   18  C5  UNL     1      14.130  28.516   3.977  1.00  0.00     0.151 C 
HETATM   19  S1  UNL     1      15.120  27.059   3.447  1.00  0.00    -0.082 SA
BRANCH  18  20
HETATM   20  C4  UNL     1      14.007  28.433   5.459  1.00  0.00     0.029 C 
BRANCH  20  21
HETATM   21  C2  UNL     1      13.419  29.645   6.123  1.00  0.00    -0.021 C 
HETATM   22  C1  UNL     1      14.072  29.931   7.450  1.00  0.00     0.009 C 
HETATM   23  C3  UNL     1      11.953  29.316   6.454  1.00  0.00     0.009 C 
ENDBRANCH  20  21
ENDBRANCH  18  20
ENDBRANCH  15  18
ENDBRANCH  13  14
ENDBRANCH  10  13
ENDBRANCH   8   9
BRANCH   8  24
HETATM   24  C10 UNL     1      12.204  34.162   1.047  1.00  0.00     0.038 C 
BRANCH  24  25
HETATM   25  C11 UNL     1      13.343  34.303   0.098  1.00  0.00    -0.020 C 
HETATM   26  C12 UNL     1      14.456  33.371   0.643  1.00  0.00     0.009 C 
HETATM   27  C13 UNL     1      13.028  33.707  -1.270  1.00  0.00     0.009 C 
ENDBRANCH  24  25
ENDBRANCH   8  24
ENDBRANCH   1   8
BRANCH   7  28
HETATM   28  C19 UNL     1       7.003  35.779   1.225  1.00  0.00     0.135 C 
BRANCH  28  29
HETATM   29  O4  UNL     1       6.638  36.800   2.005  1.00  0.00    -0.348 OA
ATOM     30  H4  UNL     1       7.308  37.022   2.641  1.00  0.00     0.219 HD
ENDBRANCH  28  29
BRANCH  28  31
HETATM   31  N4  UNL     1       6.112  34.724   1.315  1.00  0.00    -0.361 N 
ATOM     32  H4  UNL     1       6.228  34.056   2.077  1.00  0.00     0.162 HD
BRANCH  31  33
HETATM   33  C20 UNL     1       4.996  34.519   0.358  1.00  0.00     0.157 C 
BRANCH  33  34
HETATM   34  C21 UNL     1       5.430  34.806  -1.029  1.00  0.00     0.153 C 
HETATM   35  O5  UNL     1       6.334  34.034  -1.439  1.00  0.00    -0.295 OA
BRANCH  34  36
HETATM   36  C22 UNL     1       4.930  35.857  -1.914  1.00  0.00     0.057 C 
HETATM   37  C23 UNL     1       4.778  37.228  -1.398  1.00  0.00     0.012 C 
HETATM   38  C24 UNL     1       5.717  38.237  -2.077  1.00  0.00     0.001 C 
HETATM   39  C25 UNL     1       5.289  38.381  -3.503  1.00  0.00     0.000 C 
HETATM   40  C26 UNL     1       5.059  36.986  -4.064  1.00  0.00     0.001 C 
HETATM   41  C27 UNL     1       5.764  35.947  -3.199  1.00  0.00     0.012 C 
ENDBRANCH  34  36
ENDBRANCH  33  34
BRANCH  33  42
HETATM   42  C28 UNL     1       4.628  33.050   0.560  1.00  0.00     0.007 C 
HETATM   43  C29 UNL     1       5.194  32.484   1.832  1.00  0.00     0.012 C 
HETATM   44  C30 UNL     1       3.093  32.926   0.655  1.00  0.00     0.012 C 
ENDBRANCH  33  42
ENDBRANCH  31  33
ENDBRANCH  28  31
ENDBRANCH   7  28
TORSDOF 16
ENDMDL
