MODEL 1
REMARK VINA RESULT: -7.043492491      0.000      0.000
REMARK  6 active torsions:
REMARK  status: ('A' for Active; 'I' for Inactive)
REMARK    1  A    between atoms: C1_4  and  N2_5 
REMARK    2  A    between atoms: C1_4  and  C2_9 
REMARK    3  A    between atoms: N2_5  and  O1_7 
REMARK    4  A    between atoms: C3_10  and  C4_11 
REMARK    5  A    between atoms: C4_11  and  O2_12 
REMARK    6  A    between atoms: C5_15  and  O4_16 
ROOT
HETATM    1  C2  UNL     1       2.113   2.963  53.785  1.00  0.00     0.103 C 
HETATM    2  C3  UNL     1       2.739   3.741  54.912  1.00  0.00     0.161 C 
HETATM    3  O3  UNL     1       4.087   3.747  54.638  1.00  0.00    -0.344 OA
HETATM    4  C5  UNL     1       4.430   2.549  54.062  1.00  0.00     0.196 C 
HETATM    5  C6  UNL     1       5.250   2.842  52.826  1.00  0.00     0.246 C 
HETATM    6  O5  UNL     1       4.436   2.499  51.713  1.00  0.00    -0.334 OA
HETATM    7  C7  UNL     1       3.410   1.662  52.105  1.00  0.00     0.121 C 
HETATM    8  N3  UNL     1       2.755   0.824  51.376  1.00  0.00    -0.383 N 
ATOM      9  H31 UNL     1       1.998   0.206  51.665  1.00  0.00     0.158 HD
ATOM     10  H32 UNL     1       2.911   0.661  50.382  1.00  0.00     0.158 HD
HETATM   11  C8  UNL     1       3.187   1.898  53.537  1.00  0.00     0.138 C 
ENDROOT
BRANCH   1  12
HETATM   12  C1  UNL     1       0.836   2.354  54.223  1.00  0.00     0.102 C 
HETATM   13  N1  UNL     1      -0.024   2.012  53.297  1.00  0.00    -0.387 N 
ATOM     14  H12 UNL     1      -0.904   1.592  53.599  1.00  0.00     0.157 HD
ATOM     15  H11 UNL     1       0.218   2.177  52.320  1.00  0.00     0.157 HD
BRANCH  12  16
HETATM   16  N2  UNL     1       0.501   2.126  55.573  1.00  0.00    -0.257 N 
ATOM     17  H2  UNL     1       0.976   1.377  56.077  1.00  0.00     0.195 HD
BRANCH  16  18
HETATM   18  O1  UNL     1      -0.421   2.858  56.220  1.00  0.00    -0.288 OA
ATOM     19  H1  UNL     1      -0.188   3.556  56.820  1.00  0.00     0.244 HD
ENDBRANCH  16  18
ENDBRANCH  12  16
ENDBRANCH   1  12
BRANCH   2  20
HETATM   20  C4  UNL     1       2.226   5.161  54.988  1.00  0.00     0.197 C 
BRANCH  20  21
HETATM   21  O2  UNL     1       1.244   5.288  55.942  1.00  0.00    -0.398 OA
ATOM     22  H2  UNL     1       1.526   5.846  56.657  1.00  0.00     0.209 HD
ENDBRANCH  20  21
ENDBRANCH   2  20
BRANCH   4  23
HETATM   23  O4  UNL     1       5.101   1.752  54.968  1.00  0.00    -0.363 OA
ATOM     24  H4  UNL     1       4.698   1.813  55.826  1.00  0.00     0.213 HD
ENDBRANCH   4  23
TORSDOF 6
ENDMDL
MODEL 2
REMARK VINA RESULT: -6.939859804      0.886      1.200
REMARK  6 active torsions:
REMARK  status: ('A' for Active; 'I' for Inactive)
REMARK    1  A    between atoms: C1_4  and  N2_5 
REMARK    2  A    between atoms: C1_4  and  C2_9 
REMARK    3  A    between atoms: N2_5  and  O1_7 
REMARK    4  A    between atoms: C3_10  and  C4_11 
REMARK    5  A    between atoms: C4_11  and  O2_12 
REMARK    6  A    between atoms: C5_15  and  O4_16 
ROOT
HETATM    1  C2  UNL     1       2.097   2.869  53.737  1.00  0.00     0.103 C 
HETATM    2  C3  UNL     1       2.675   3.643  54.892  1.00  0.00     0.161 C 
HETATM    3  O3  UNL     1       4.027   3.700  54.645  1.00  0.00    -0.344 OA
HETATM    4  C5  UNL     1       4.422   2.527  54.050  1.00  0.00     0.196 C 
HETATM    5  C6  UNL     1       5.254   2.875  52.837  1.00  0.00     0.246 C 
HETATM    6  O5  UNL     1       4.473   2.528  51.701  1.00  0.00    -0.334 OA
HETATM    7  C7  UNL     1       3.469   1.649  52.055  1.00  0.00     0.121 C 
HETATM    8  N3  UNL     1       2.857   0.807  51.296  1.00  0.00    -0.383 N 
ATOM      9  H31 UNL     1       2.115   0.157  51.557  1.00  0.00     0.158 HD
ATOM     10  H32 UNL     1       3.037   0.670  50.302  1.00  0.00     0.158 HD
HETATM   11  C8  UNL     1       3.211   1.846  53.487  1.00  0.00     0.138 C 
ENDROOT
BRANCH   1  12
HETATM   12  C1  UNL     1       0.834   2.209  54.137  1.00  0.00     0.102 C 
HETATM   13  N1  UNL     1       0.746   1.752  55.360  1.00  0.00    -0.387 N 
ATOM     14  H12 UNL     1      -0.124   1.297  55.636  1.00  0.00     0.157 HD
ATOM     15  H11 UNL     1       1.545   1.870  55.983  1.00  0.00     0.157 HD
BRANCH  12  16
HETATM   16  N2  UNL     1      -0.270   2.046  53.276  1.00  0.00    -0.257 N 
ATOM     17  H2  UNL     1      -0.108   1.708  52.327  1.00  0.00     0.195 HD
BRANCH  16  18
HETATM   18  O1  UNL     1      -1.528   2.321  53.658  1.00  0.00    -0.288 OA
ATOM     19  H1  UNL     1      -2.077   2.944  53.197  1.00  0.00     0.244 HD
ENDBRANCH  16  18
ENDBRANCH  12  16
ENDBRANCH   1  12
BRANCH   2  20
HETATM   20  C4  UNL     1       2.113   5.043  54.988  1.00  0.00     0.197 C 
BRANCH  20  21
HETATM   21  O2  UNL     1       3.070   5.939  55.404  1.00  0.00    -0.398 OA
ATOM     22  H2  UNL     1       3.289   5.812  56.320  1.00  0.00     0.209 HD
ENDBRANCH  20  21
ENDBRANCH   2  20
BRANCH   4  23
HETATM   23  O4  UNL     1       5.102   1.733  54.952  1.00  0.00    -0.363 OA
ATOM     24  H4  UNL     1       5.808   1.268  54.519  1.00  0.00     0.213 HD
ENDBRANCH   4  23
TORSDOF 6
ENDMDL
MODEL 3
REMARK VINA RESULT: -6.432319342      1.258      4.213
REMARK  6 active torsions:
REMARK  status: ('A' for Active; 'I' for Inactive)
REMARK    1  A    between atoms: C1_4  and  N2_5 
REMARK    2  A    between atoms: C1_4  and  C2_9 
REMARK    3  A    between atoms: N2_5  and  O1_7 
REMARK    4  A    between atoms: C3_10  and  C4_11 
REMARK    5  A    between atoms: C4_11  and  O2_12 
REMARK    6  A    between atoms: C5_15  and  O4_16 
ROOT
HETATM    1  C2  UNL     1       2.917   1.932  53.696  1.00  0.00     0.103 C 
HETATM    2  C3  UNL     1       4.209   2.621  54.047  1.00  0.00     0.161 C 
HETATM    3  O3  UNL     1       3.848   3.662  54.870  1.00  0.00    -0.344 OA
HETATM    4  C5  UNL     1       2.638   4.160  54.456  1.00  0.00     0.196 C 
HETATM    5  C6  UNL     1       1.742   4.280  55.667  1.00  0.00     0.246 C 
HETATM    6  O5  UNL     1       0.740   3.281  55.525  1.00  0.00    -0.334 OA
HETATM    7  C7  UNL     1       0.664   2.856  54.214  1.00  0.00     0.121 C 
HETATM    8  N3  UNL     1      -0.344   2.317  53.618  1.00  0.00    -0.383 N 
ATOM      9  H31 UNL     1      -0.400   2.003  52.650  1.00  0.00     0.158 HD
ATOM     10  H32 UNL     1      -1.249   2.126  54.047  1.00  0.00     0.158 HD
HETATM   11  C8  UNL     1       1.967   3.131  53.597  1.00  0.00     0.138 C 
ENDROOT
BRANCH   1  12
HETATM   12  C1  UNL     1       3.041   1.230  52.398  1.00  0.00     0.102 C 
HETATM   13  N1  UNL     1       2.088   0.397  52.064  1.00  0.00    -0.387 N 
ATOM     14  H12 UNL     1       2.173  -0.087  51.169  1.00  0.00     0.157 HD
ATOM     15  H11 UNL     1       1.305   0.267  52.705  1.00  0.00     0.157 HD
BRANCH  12  16
HETATM   16  N2  UNL     1       4.122   1.409  51.512  1.00  0.00    -0.257 N 
ATOM     17  H2  UNL     1       4.636   2.290  51.536  1.00  0.00     0.195 HD
BRANCH  16  18
HETATM   18  O1  UNL     1       4.502   0.463  50.637  1.00  0.00    -0.288 OA
ATOM     19  H1  UNL     1       4.087   0.357  49.789  1.00  0.00     0.244 HD
ENDBRANCH  16  18
ENDBRANCH  12  16
ENDBRANCH   1  12
BRANCH   2  20
HETATM   20  C4  UNL     1       5.173   1.707  54.770  1.00  0.00     0.197 C 
BRANCH  20  21
HETATM   21  O2  UNL     1       6.448   2.223  54.769  1.00  0.00    -0.398 OA
ATOM     22  H2  UNL     1       6.636   2.683  55.578  1.00  0.00     0.209 HD
ENDBRANCH  20  21
ENDBRANCH   2  20
BRANCH   4  23
HETATM   23  O4  UNL     1       2.810   5.364  53.801  1.00  0.00    -0.363 OA
ATOM     24  H4  UNL     1       3.724   5.622  53.816  1.00  0.00     0.213 HD
ENDBRANCH   4  23
TORSDOF 6
ENDMDL
MODEL 4
REMARK VINA RESULT: -6.299556478      2.234      4.405
REMARK  6 active torsions:
REMARK  status: ('A' for Active; 'I' for Inactive)
REMARK    1  A    between atoms: C1_4  and  N2_5 
REMARK    2  A    between atoms: C1_4  and  C2_9 
REMARK    3  A    between atoms: N2_5  and  O1_7 
REMARK    4  A    between atoms: C3_10  and  C4_11 
REMARK    5  A    between atoms: C4_11  and  O2_12 
REMARK    6  A    between atoms: C5_15  and  O4_16 
ROOT
HETATM    1  C2  UNL     1       1.550   2.319  53.797  1.00  0.00     0.103 C 
HETATM    2  C3  UNL     1       0.535   1.374  54.385  1.00  0.00     0.161 C 
HETATM    3  O3  UNL     1       0.115   1.977  55.548  1.00  0.00    -0.344 OA
HETATM    4  C5  UNL     1       1.176   2.638  56.116  1.00  0.00     0.196 C 
HETATM    5  C6  UNL     1       0.720   4.035  56.470  1.00  0.00     0.246 C 
HETATM    6  O5  UNL     1       1.384   4.914  55.571  1.00  0.00    -0.334 OA
HETATM    7  C7  UNL     1       2.477   4.290  55.004  1.00  0.00     0.121 C 
HETATM    8  N3  UNL     1       3.529   4.843  54.506  1.00  0.00    -0.383 N 
ATOM      9  H31 UNL     1       4.337   4.382  54.087  1.00  0.00     0.158 HD
ATOM     10  H32 UNL     1       3.702   5.847  54.461  1.00  0.00     0.158 HD
HETATM   11  C8  UNL     1       2.227   2.844  55.068  1.00  0.00     0.138 C 
ENDROOT
BRANCH   1  12
HETATM   12  C1  UNL     1       2.505   1.584  52.937  1.00  0.00     0.102 C 
HETATM   13  N1  UNL     1       3.773   1.628  53.261  1.00  0.00    -0.387 N 
ATOM     14  H12 UNL     1       4.431   1.121  52.669  1.00  0.00     0.157 HD
ATOM     15  H11 UNL     1       4.048   2.162  54.085  1.00  0.00     0.157 HD
BRANCH  12  16
HETATM   16  N2  UNL     1       2.125   0.846  51.799  1.00  0.00    -0.257 N 
ATOM     17  H2  UNL     1       1.290   0.262  51.849  1.00  0.00     0.195 HD
BRANCH  16  18
HETATM   18  O1  UNL     1       2.820   0.884  50.650  1.00  0.00    -0.288 OA
ATOM     19  H1  UNL     1       2.399   0.946  49.801  1.00  0.00     0.244 HD
ENDBRANCH  16  18
ENDBRANCH  12  16
ENDBRANCH   1  12
BRANCH   2  20
HETATM   20  C4  UNL     1      -0.646   1.151  53.468  1.00  0.00     0.197 C 
BRANCH  20  21
HETATM   21  O2  UNL     1      -1.759   1.826  53.913  1.00  0.00    -0.398 OA
ATOM     22  H2  UNL     1      -2.504   1.244  54.000  1.00  0.00     0.209 HD
ENDBRANCH  20  21
ENDBRANCH   2  20
BRANCH   4  23
HETATM   23  O4  UNL     1       1.650   1.941  57.210  1.00  0.00    -0.363 OA
ATOM     24  H4  UNL     1       2.573   1.741  57.101  1.00  0.00     0.213 HD
ENDBRANCH   4  23
TORSDOF 6
ENDMDL
MODEL 5
REMARK VINA RESULT: -6.204422690      1.996      4.155
REMARK  6 active torsions:
REMARK  status: ('A' for Active; 'I' for Inactive)
REMARK    1  A    between atoms: C1_4  and  N2_5 
REMARK    2  A    between atoms: C1_4  and  C2_9 
REMARK    3  A    between atoms: N2_5  and  O1_7 
REMARK    4  A    between atoms: C3_10  and  C4_11 
REMARK    5  A    between atoms: C4_11  and  O2_12 
REMARK    6  A    between atoms: C5_15  and  O4_16 
ROOT
HETATM    1  C2  UNL     1       1.743   2.368  53.572  1.00  0.00     0.103 C 
HETATM    2  C3  UNL     1       0.654   1.551  54.218  1.00  0.00     0.161 C 
HETATM    3  O3  UNL     1       0.317   2.241  55.359  1.00  0.00    -0.344 OA
HETATM    4  C5  UNL     1       1.447   2.821  55.880  1.00  0.00     0.196 C 
HETATM    5  C6  UNL     1       1.135   4.269  56.179  1.00  0.00     0.246 C 
HETATM    6  O5  UNL     1       1.861   5.040  55.231  1.00  0.00    -0.334 OA
HETATM    7  C7  UNL     1       2.878   4.290  54.675  1.00  0.00     0.121 C 
HETATM    8  N3  UNL     1       3.968   4.717  54.137  1.00  0.00    -0.383 N 
ATOM      9  H31 UNL     1       4.719   4.163  53.726  1.00  0.00     0.158 HD
ATOM     10  H32 UNL     1       4.236   5.697  54.045  1.00  0.00     0.158 HD
HETATM   11  C8  UNL     1       2.492   2.879  54.808  1.00  0.00     0.138 C 
ENDROOT
BRANCH   1  12
HETATM   12  C1  UNL     1       2.606   1.508  52.732  1.00  0.00     0.102 C 
HETATM   13  N1  UNL     1       2.019   0.669  51.916  1.00  0.00    -0.387 N 
ATOM     14  H12 UNL     1       2.614   0.076  51.336  1.00  0.00     0.157 HD
ATOM     15  H11 UNL     1       1.000   0.642  51.893  1.00  0.00     0.157 HD
BRANCH  12  16
HETATM   16  N2  UNL     1       4.014   1.544  52.763  1.00  0.00    -0.257 N 
ATOM     17  H2  UNL     1       4.509   0.873  53.351  1.00  0.00     0.195 HD
BRANCH  16  18
HETATM   18  O1  UNL     1       4.729   2.429  52.049  1.00  0.00    -0.288 OA
ATOM     19  H1  UNL     1       5.465   2.171  51.507  1.00  0.00     0.244 HD
ENDBRANCH  16  18
ENDBRANCH  12  16
ENDBRANCH   1  12
BRANCH   2  20
HETATM   20  C4  UNL     1      -0.561   1.404  53.331  1.00  0.00     0.197 C 
BRANCH  20  21
HETATM   21  O2  UNL     1      -1.575   2.244  53.728  1.00  0.00    -0.398 OA
ATOM     22  H2  UNL     1      -1.527   3.080  53.279  1.00  0.00     0.209 HD
ENDBRANCH  20  21
ENDBRANCH   2  20
BRANCH   4  23
HETATM   23  O4  UNL     1       1.874   2.128  56.996  1.00  0.00    -0.363 OA
ATOM     24  H4  UNL     1       2.650   2.537  57.364  1.00  0.00     0.213 HD
ENDBRANCH   4  23
TORSDOF 6
ENDMDL
