MODEL 1
REMARK VINA RESULT: -6.699299912      0.000      0.000
REMARK  7 active torsions:
REMARK  status: ('A' for Active; 'I' for Inactive)
REMARK    1  A    between atoms: C4_4  and  C5_5 
REMARK    2  A    between atoms: C5_5  and  O1_6 
REMARK    3  A    between atoms: C6_9  and  C7_10 
REMARK    4  A    between atoms: C7_10  and  O3_11 
REMARK    5  A    between atoms: C8_13  and  O4_14 
REMARK    6  A    between atoms: C9_16  and  O5_17 
REMARK    7  A    between atoms: C10_19  and  O6_20 
ROOT
HETATM    1  C5  UNL     1       0.016   1.716  55.746  1.00  0.00     0.211 C 
HETATM    2  O2  UNL     1       1.322   2.110  55.919  1.00  0.00    -0.339 OA
HETATM    3  C6  UNL     1       1.827   3.051  55.075  1.00  0.00     0.180 C 
HETATM    4  C8  UNL     1       1.428   2.938  53.653  1.00  0.00     0.180 C 
HETATM    5  C9  UNL     1       0.709   1.648  53.333  1.00  0.00     0.183 C 
HETATM    6  C10 UNL     1      -0.381   1.418  54.350  1.00  0.00     0.215 C 
ENDROOT
BRANCH   1   7
HETATM    7  C4  UNL     1      -0.189   0.468  56.554  1.00  0.00     0.045 C 
HETATM    8  C2  UNL     1      -0.127   0.440  57.872  1.00  0.00    -0.086 C 
HETATM    9  C1  UNL     1      -0.359  -0.906  58.531  1.00  0.00     0.043 C 
HETATM   10  C3  UNL     1       0.139   1.554  58.783  1.00  0.00     0.043 C 
ENDBRANCH   1   7
BRANCH   1  11
HETATM   11  O1  UNL     1      -0.785   2.691  56.366  1.00  0.00    -0.360 OA
ATOM     12  H1  UNL     1      -0.792   3.426  55.764  1.00  0.00     0.213 HD
ENDBRANCH   1  11
BRANCH   6  13
HETATM   13  O6  UNL     1      -1.444   2.267  53.960  1.00  0.00    -0.387 OA
ATOM     14  H6  UNL     1      -2.051   1.790  53.406  1.00  0.00     0.210 HD
ENDBRANCH   6  13
BRANCH   3  15
HETATM   15  C7  UNL     1       1.493   4.482  55.507  1.00  0.00     0.198 C 
BRANCH  15  16
HETATM   16  O3  UNL     1       1.290   4.568  56.872  1.00  0.00    -0.398 OA
ATOM     17  H3  UNL     1       0.856   5.378  57.112  1.00  0.00     0.209 HD
ENDBRANCH  15  16
ENDBRANCH   3  15
BRANCH   5  18
HETATM   18  O5  UNL     1       1.628   0.602  53.274  1.00  0.00    -0.390 OA
ATOM     19  H5  UNL     1       1.177  -0.226  53.390  1.00  0.00     0.210 HD
ENDBRANCH   5  18
BRANCH   4  20
HETATM   20  O4  UNL     1       2.576   2.987  52.863  1.00  0.00    -0.390 OA
ATOM     21  H4  UNL     1       3.254   3.451  53.339  1.00  0.00     0.210 HD
ENDBRANCH   4  20
TORSDOF 7
ENDMDL
MODEL 2
REMARK VINA RESULT: -6.581406677      1.772      2.207
REMARK  7 active torsions:
REMARK  status: ('A' for Active; 'I' for Inactive)
REMARK    1  A    between atoms: C4_4  and  C5_5 
REMARK    2  A    between atoms: C5_5  and  O1_6 
REMARK    3  A    between atoms: C6_9  and  C7_10 
REMARK    4  A    between atoms: C7_10  and  O3_11 
REMARK    5  A    between atoms: C8_13  and  O4_14 
REMARK    6  A    between atoms: C9_16  and  O5_17 
REMARK    7  A    between atoms: C10_19  and  O6_20 
ROOT
HETATM    1  C5  UNL     1       1.622   2.348  54.908  1.00  0.00     0.211 C 
HETATM    2  O2  UNL     1       2.924   2.733  55.129  1.00  0.00    -0.339 OA
HETATM    3  C6  UNL     1       3.605   3.314  54.104  1.00  0.00     0.180 C 
HETATM    4  C8  UNL     1       3.380   2.738  52.758  1.00  0.00     0.180 C 
HETATM    5  C9  UNL     1       2.604   1.441  52.782  1.00  0.00     0.183 C 
HETATM    6  C10 UNL     1       1.381   1.608  53.648  1.00  0.00     0.215 C 
ENDROOT
BRANCH   1   7
HETATM    7  C4  UNL     1       1.216   1.457  56.046  1.00  0.00     0.045 C 
HETATM    8  C2  UNL     1       0.012   0.929  56.159  1.00  0.00    -0.086 C 
HETATM    9  C1  UNL     1      -0.230   0.052  57.371  1.00  0.00     0.043 C 
HETATM   10  C3  UNL     1      -1.126   1.084  55.252  1.00  0.00     0.043 C 
ENDBRANCH   1   7
BRANCH   1  11
HETATM   11  O1  UNL     1       0.832   3.503  55.047  1.00  0.00    -0.360 OA
ATOM     12  H1  UNL     1       1.450   4.212  55.178  1.00  0.00     0.213 HD
ENDBRANCH   1  11
BRANCH   6  13
HETATM   13  O6  UNL     1       0.447   2.310  52.849  1.00  0.00    -0.387 OA
ATOM     14  H6  UNL     1      -0.408   2.294  53.263  1.00  0.00     0.210 HD
ENDBRANCH   6  13
BRANCH   3  15
HETATM   15  C7  UNL     1       3.338   4.816  53.984  1.00  0.00     0.198 C 
BRANCH  15  16
HETATM   16  O3  UNL     1       3.280   5.425  55.225  1.00  0.00    -0.398 OA
ATOM     17  H3  UNL     1       2.465   5.897  55.347  1.00  0.00     0.209 HD
ENDBRANCH  15  16
ENDBRANCH   3  15
BRANCH   5  18
HETATM   18  O5  UNL     1       3.435   0.406  53.208  1.00  0.00    -0.390 OA
ATOM     19  H5  UNL     1       3.097   0.037  54.015  1.00  0.00     0.210 HD
ENDBRANCH   5  18
BRANCH   4  20
HETATM   20  O4  UNL     1       4.618   2.476  52.172  1.00  0.00    -0.390 OA
ATOM     21  H4  UNL     1       5.285   2.966  52.638  1.00  0.00     0.210 HD
ENDBRANCH   4  20
TORSDOF 7
ENDMDL
MODEL 3
REMARK VINA RESULT: -6.503008346      1.110      1.221
REMARK  7 active torsions:
REMARK  status: ('A' for Active; 'I' for Inactive)
REMARK    1  A    between atoms: C4_4  and  C5_5 
REMARK    2  A    between atoms: C5_5  and  O1_6 
REMARK    3  A    between atoms: C6_9  and  C7_10 
REMARK    4  A    between atoms: C7_10  and  O3_11 
REMARK    5  A    between atoms: C8_13  and  O4_14 
REMARK    6  A    between atoms: C9_16  and  O5_17 
REMARK    7  A    between atoms: C10_19  and  O6_20 
ROOT
HETATM    1  C5  UNL     1       0.503   1.827  55.087  1.00  0.00     0.211 C 
HETATM    2  O2  UNL     1       1.766   2.175  55.506  1.00  0.00    -0.339 OA
HETATM    3  C6  UNL     1       2.502   3.000  54.712  1.00  0.00     0.180 C 
HETATM    4  C8  UNL     1       2.409   2.761  53.253  1.00  0.00     0.180 C 
HETATM    5  C9  UNL     1       1.688   1.481  52.900  1.00  0.00     0.183 C 
HETATM    6  C10 UNL     1       0.393   1.408  53.671  1.00  0.00     0.215 C 
ENDROOT
BRANCH   1   7
HETATM    7  C4  UNL     1       0.045   0.680  55.940  1.00  0.00     0.045 C 
HETATM    8  C2  UNL     1      -0.062   0.750  57.253  1.00  0.00    -0.086 C 
HETATM    9  C1  UNL     1      -0.539  -0.503  57.960  1.00  0.00     0.043 C 
HETATM   10  C3  UNL     1       0.223   1.896  58.118  1.00  0.00     0.043 C 
ENDBRANCH   1   7
BRANCH   1  11
HETATM   11  O1  UNL     1      -0.343   2.898  55.428  1.00  0.00    -0.360 OA
ATOM     12  H1  UNL     1      -1.072   2.500  55.890  1.00  0.00     0.213 HD
ENDBRANCH   1  11
BRANCH   6  13
HETATM   13  O6  UNL     1      -0.502   2.262  52.984  1.00  0.00    -0.387 OA
ATOM     14  H6  UNL     1      -0.472   2.079  52.052  1.00  0.00     0.210 HD
ENDBRANCH   6  13
BRANCH   3  15
HETATM   15  C7  UNL     1       2.183   4.481  54.931  1.00  0.00     0.198 C 
BRANCH  15  16
HETATM   16  O3  UNL     1       3.005   5.297  54.176  1.00  0.00    -0.398 OA
ATOM     17  H3  UNL     1       2.813   6.217  54.318  1.00  0.00     0.209 HD
ENDBRANCH  15  16
ENDBRANCH   3  15
BRANCH   5  18
HETATM   18  O5  UNL     1       2.524   0.392  53.137  1.00  0.00    -0.390 OA
ATOM     19  H5  UNL     1       2.756   0.362  54.058  1.00  0.00     0.210 HD
ENDBRANCH   5  18
BRANCH   4  20
HETATM   20  O4  UNL     1       3.699   2.675  52.731  1.00  0.00    -0.390 OA
ATOM     21  H4  UNL     1       3.952   1.760  52.694  1.00  0.00     0.210 HD
ENDBRANCH   4  20
TORSDOF 7
ENDMDL
MODEL 4
REMARK VINA RESULT: -6.313954365      1.970      4.175
REMARK  7 active torsions:
REMARK  status: ('A' for Active; 'I' for Inactive)
REMARK    1  A    between atoms: C4_4  and  C5_5 
REMARK    2  A    between atoms: C5_5  and  O1_6 
REMARK    3  A    between atoms: C6_9  and  C7_10 
REMARK    4  A    between atoms: C7_10  and  O3_11 
REMARK    5  A    between atoms: C8_13  and  O4_14 
REMARK    6  A    between atoms: C9_16  and  O5_17 
REMARK    7  A    between atoms: C10_19  and  O6_20 
ROOT
HETATM    1  C5  UNL     1       2.125   3.452  55.049  1.00  0.00     0.211 C 
HETATM    2  O2  UNL     1       0.994   3.242  54.295  1.00  0.00    -0.339 OA
HETATM    3  C6  UNL     1       0.757   1.985  53.829  1.00  0.00     0.180 C 
HETATM    4  C8  UNL     1       1.937   1.231  53.347  1.00  0.00     0.180 C 
HETATM    5  C9  UNL     1       3.184   2.076  53.234  1.00  0.00     0.183 C 
HETATM    6  C10 UNL     1       3.371   2.861  54.509  1.00  0.00     0.215 C 
ENDROOT
BRANCH   1   7
HETATM    7  C4  UNL     1       2.330   4.935  55.151  1.00  0.00     0.045 C 
HETATM    8  C2  UNL     1       1.913   5.656  56.175  1.00  0.00    -0.086 C 
HETATM    9  C1  UNL     1       2.202   7.142  56.117  1.00  0.00     0.043 C 
HETATM   10  C3  UNL     1       1.201   5.195  57.368  1.00  0.00     0.043 C 
ENDBRANCH   1   7
BRANCH   1  11
HETATM   11  O1  UNL     1       1.821   3.033  56.356  1.00  0.00    -0.360 OA
ATOM     12  H1  UNL     1       1.008   3.475  56.575  1.00  0.00     0.213 HD
ENDBRANCH   1  11
BRANCH   6  13
HETATM   13  O6  UNL     1       3.912   1.943  55.440  1.00  0.00    -0.387 OA
ATOM     14  H6  UNL     1       4.632   1.467  55.043  1.00  0.00     0.210 HD
ENDBRANCH   6  13
BRANCH   3  15
HETATM   15  C7  UNL     1       0.058   1.090  54.856  1.00  0.00     0.198 C 
BRANCH  15  16
HETATM   16  O3  UNL     1      -0.881   1.792  55.590  1.00  0.00    -0.398 OA
ATOM     17  H3  UNL     1      -0.998   2.674  55.257  1.00  0.00     0.209 HD
ENDBRANCH  15  16
ENDBRANCH   3  15
BRANCH   5  18
HETATM   18  O5  UNL     1       3.101   2.886  52.104  1.00  0.00    -0.390 OA
ATOM     19  H5  UNL     1       3.975   3.098  51.797  1.00  0.00     0.210 HD
ENDBRANCH   5  18
BRANCH   4  20
HETATM   20  O4  UNL     1       1.655   0.726  52.078  1.00  0.00    -0.390 OA
ATOM     21  H4  UNL     1       2.019   1.315  51.428  1.00  0.00     0.210 HD
ENDBRANCH   4  20
TORSDOF 7
ENDMDL
MODEL 5
REMARK VINA RESULT: -6.033013166      1.772      4.707
REMARK  7 active torsions:
REMARK  status: ('A' for Active; 'I' for Inactive)
REMARK    1  A    between atoms: C4_4  and  C5_5 
REMARK    2  A    between atoms: C5_5  and  O1_6 
REMARK    3  A    between atoms: C6_9  and  C7_10 
REMARK    4  A    between atoms: C7_10  and  O3_11 
REMARK    5  A    between atoms: C8_13  and  O4_14 
REMARK    6  A    between atoms: C9_16  and  O5_17 
REMARK    7  A    between atoms: C10_19  and  O6_20 
ROOT
HETATM    1  C5  UNL     1       1.689   2.455  54.471  1.00  0.00     0.211 C 
HETATM    2  O2  UNL     1       1.122   1.206  54.378  1.00  0.00    -0.339 OA
HETATM    3  C6  UNL     1      -0.168   1.054  54.784  1.00  0.00     0.180 C 
HETATM    4  C8  UNL     1      -0.562   1.792  56.006  1.00  0.00     0.180 C 
HETATM    5  C9  UNL     1       0.607   2.410  56.737  1.00  0.00     0.183 C 
HETATM    6  C10 UNL     1       1.468   3.163  55.754  1.00  0.00     0.215 C 
ENDROOT
BRANCH   1   7
HETATM    7  C4  UNL     1       3.170   2.293  54.288  1.00  0.00     0.045 C 
HETATM    8  C2  UNL     1       3.978   3.294  53.993  1.00  0.00    -0.086 C 
HETATM    9  C1  UNL     1       5.448   2.954  53.844  1.00  0.00     0.043 C 
HETATM   10  C3  UNL     1       3.629   4.701  53.793  1.00  0.00     0.043 C 
ENDBRANCH   1   7
BRANCH   1  11
HETATM   11  O1  UNL     1       1.258   3.178  53.345  1.00  0.00    -0.360 OA
ATOM     12  H1  UNL     1       0.610   2.623  52.927  1.00  0.00     0.213 HD
ENDBRANCH   1  11
BRANCH   6  13
HETATM   13  O6  UNL     1       0.793   4.384  55.520  1.00  0.00    -0.387 OA
ATOM     14  H6  UNL     1       1.416   5.053  55.261  1.00  0.00     0.210 HD
ENDBRANCH   6  13
BRANCH   3  15
HETATM   15  C7  UNL     1      -1.183   1.432  53.701  1.00  0.00     0.198 C 
BRANCH  15  16
HETATM   16  O3  UNL     1      -2.479   1.389  54.181  1.00  0.00    -0.398 OA
ATOM     17  H3  UNL     1      -3.109   1.631  53.512  1.00  0.00     0.209 HD
ENDBRANCH  15  16
ENDBRANCH   3  15
BRANCH   5  18
HETATM   18  O5  UNL     1       1.305   1.420  57.425  1.00  0.00    -0.390 OA
ATOM     19  H5  UNL     1       0.718   0.705  57.640  1.00  0.00     0.210 HD
ENDBRANCH   5  18
BRANCH   4  20
HETATM   20  O4  UNL     1      -1.184   0.903  56.883  1.00  0.00    -0.390 OA
ATOM     21  H4  UNL     1      -1.951   1.325  57.251  1.00  0.00     0.210 HD
ENDBRANCH   4  20
TORSDOF 7
ENDMDL
