MODEL 1
REMARK VINA RESULT: -6.684015739      0.000      0.000
REMARK  9 active torsions:
REMARK  status: ('A' for Active; 'I' for Inactive)
REMARK       I    between atoms: C2_2  and  N1_4 
REMARK    1  A    between atoms: N1_4  and  C3_6 
REMARK    2  A    between atoms: C3_6  and  C4_7 
REMARK    3  A    between atoms: C3_6  and  C20_30 
REMARK       I    between atoms: C4_7  and  N2_9 
REMARK    4  A    between atoms: C5_10  and  C6_11 
REMARK    5  A    between atoms: C12_17  and  C13_18 
REMARK       I    between atoms: C13_18  and  N3_20 
REMARK    6  A    between atoms: N3_20  and  C14_22 
REMARK    7  A    between atoms: C14_22  and  C15_23 
REMARK    8  A    between atoms: C14_22  and  C19_27 
REMARK    9  A    between atoms: C15_23  and  C16_24 
ROOT
HETATM    1  C4  UNL     1      79.437  37.045  -1.829  1.00  0.00     0.248 C 
HETATM    2  O2  UNL     1      79.309  37.609  -2.972  1.00  0.00    -0.271 OA
HETATM    3  N2  UNL     1      80.672  36.662  -1.294  1.00  0.00    -0.305 N 
HETATM    4  C5  UNL     1      81.990  36.844  -1.774  1.00  0.00     0.018 C 
HETATM    5  C9  UNL     1      82.933  35.986  -0.943  1.00  0.00     0.064 C 
HETATM    6  C10 UNL     1      82.252  36.082   0.398  1.00  0.00     0.020 C 
HETATM    7  C11 UNL     1      82.357  37.416   1.045  1.00  0.00     0.013 C 
HETATM    8  C12 UNL     1      80.792  35.905  -0.051  1.00  0.00     0.189 C 
ENDROOT
BRANCH   8   9
HETATM    9  C13 UNL     1      80.613  34.438  -0.248  1.00  0.00     0.242 C 
HETATM   10  O3  UNL     1      80.188  33.932  -1.308  1.00  0.00    -0.271 OA
HETATM   11  N3  UNL     1      80.950  33.598   0.828  1.00  0.00    -0.345 N 
ATOM     12  H3  UNL     1      81.292  33.998   1.702  1.00  0.00     0.163 HD
BRANCH  11  13
HETATM   13  C14 UNL     1      80.807  32.143   0.687  1.00  0.00     0.185 C 
BRANCH  13  14
HETATM   14  C15 UNL     1      80.515  31.546   2.022  1.00  0.00     0.040 C 
BRANCH  14  15
HETATM   15  C16 UNL     1      79.622  32.427   2.832  1.00  0.00    -0.020 C 
HETATM   16  C17 UNL     1      78.266  31.820   3.079  1.00  0.00     0.009 C 
HETATM   17  C18 UNL     1      80.254  32.735   4.197  1.00  0.00     0.009 C 
ENDBRANCH  14  15
ENDBRANCH  13  14
BRANCH  13  18
HETATM   18  C19 UNL     1      82.125  31.583   0.209  1.00  0.00     0.196 C 
HETATM   19  O4  UNL     1      82.146  30.707  -0.683  1.00  0.00    -0.646 OA
HETATM   20  O5  UNL     1      83.303  32.033   0.751  1.00  0.00    -0.646 OA
ENDBRANCH  13  18
ENDBRANCH  11  13
ENDBRANCH   8   9
BRANCH   1  21
HETATM   21  C3  UNL     1      78.101  36.861  -1.168  1.00  0.00     0.180 C 
BRANCH  21  22
HETATM   22  N1  UNL     1      77.867  35.444  -0.922  1.00  0.00    -0.348 N 
HETATM   23  C2  UNL     1      77.170  34.901   0.161  1.00  0.00     0.214 C 
HETATM   24  C1  UNL     1      76.964  33.449   0.366  1.00  0.00     0.117 C 
HETATM   25  O1  UNL     1      76.685  35.670   1.019  1.00  0.00    -0.274 OA
ATOM     26  H1  UNL     1      78.246  34.786  -1.605  1.00  0.00     0.163 HD
ENDBRANCH  21  22
BRANCH  21  27
HETATM   27  C20 UNL     1      76.972  37.385  -2.055  1.00  0.00     0.009 C 
HETATM   28  C21 UNL     1      76.224  36.313  -2.755  1.00  0.00     0.012 C 
HETATM   29  C22 UNL     1      76.063  38.350  -1.372  1.00  0.00     0.012 C 
ENDBRANCH  21  27
ENDBRANCH   1  21
BRANCH   4  30
HETATM   30  C6  UNL     1      82.318  36.851  -3.202  1.00  0.00    -0.065 C 
HETATM   31  C7  UNL     1      83.408  37.759  -3.667  1.00  0.00     0.045 C 
HETATM   32  C8  UNL     1      82.359  35.553  -3.940  1.00  0.00     0.045 C 
ENDBRANCH   4  30
TORSDOF 9
ENDMDL
MODEL 2
REMARK VINA RESULT: -6.612689911      2.264      3.596
REMARK  9 active torsions:
REMARK  status: ('A' for Active; 'I' for Inactive)
REMARK       I    between atoms: C2_2  and  N1_4 
REMARK    1  A    between atoms: N1_4  and  C3_6 
REMARK    2  A    between atoms: C3_6  and  C4_7 
REMARK    3  A    between atoms: C3_6  and  C20_30 
REMARK       I    between atoms: C4_7  and  N2_9 
REMARK    4  A    between atoms: C5_10  and  C6_11 
REMARK    5  A    between atoms: C12_17  and  C13_18 
REMARK       I    between atoms: C13_18  and  N3_20 
REMARK    6  A    between atoms: N3_20  and  C14_22 
REMARK    7  A    between atoms: C14_22  and  C15_23 
REMARK    8  A    between atoms: C14_22  and  C19_27 
REMARK    9  A    between atoms: C15_23  and  C16_24 
ROOT
HETATM    1  C4  UNL     1      80.862  38.056  -0.829  1.00  0.00     0.248 C 
HETATM    2  O2  UNL     1      81.240  38.580  -1.935  1.00  0.00    -0.271 OA
HETATM    3  N2  UNL     1      81.523  36.983  -0.220  1.00  0.00    -0.305 N 
HETATM    4  C5  UNL     1      82.712  36.303  -0.572  1.00  0.00     0.018 C 
HETATM    5  C9  UNL     1      82.818  35.041   0.272  1.00  0.00     0.064 C 
HETATM    6  C10 UNL     1      82.200  35.538   1.554  1.00  0.00     0.020 C 
HETATM    7  C11 UNL     1      83.038  36.512   2.302  1.00  0.00     0.013 C 
HETATM    8  C12 UNL     1      81.008  36.313   0.971  1.00  0.00     0.189 C 
ENDROOT
BRANCH   8   9
HETATM    9  C13 UNL     1      79.980  35.281   0.655  1.00  0.00     0.242 C 
HETATM   10  O3  UNL     1      79.466  35.143  -0.475  1.00  0.00    -0.271 OA
HETATM   11  N3  UNL     1      79.586  34.425   1.698  1.00  0.00    -0.345 N 
ATOM     12  H3  UNL     1      79.991  34.530   2.629  1.00  0.00     0.163 HD
BRANCH  11  13
HETATM   13  C14 UNL     1      78.586  33.380   1.442  1.00  0.00     0.185 C 
BRANCH  13  14
HETATM   14  C15 UNL     1      77.244  33.866   1.873  1.00  0.00     0.040 C 
BRANCH  14  15
HETATM   15  C16 UNL     1      76.224  33.682   0.797  1.00  0.00    -0.020 C 
HETATM   16  C17 UNL     1      75.023  32.899   1.255  1.00  0.00     0.009 C 
HETATM   17  C18 UNL     1      75.730  35.040   0.277  1.00  0.00     0.009 C 
ENDBRANCH  14  15
ENDBRANCH  13  14
BRANCH  13  18
HETATM   18  C19 UNL     1      78.934  32.177   2.286  1.00  0.00     0.196 C 
HETATM   19  O4  UNL     1      79.899  31.448   1.970  1.00  0.00    -0.646 OA
HETATM   20  O5  UNL     1      78.190  31.879   3.402  1.00  0.00    -0.646 OA
ENDBRANCH  13  18
ENDBRANCH  11  13
ENDBRANCH   8   9
BRANCH   1  21
HETATM   21  C3  UNL     1      79.638  38.746  -0.298  1.00  0.00     0.180 C 
BRANCH  21  22
HETATM   22  N1  UNL     1      78.832  39.238  -1.409  1.00  0.00    -0.348 N 
HETATM   23  C2  UNL     1      77.699  38.618  -1.943  1.00  0.00     0.214 C 
HETATM   24  C1  UNL     1      76.918  39.161  -3.078  1.00  0.00     0.117 C 
HETATM   25  O1  UNL     1      77.306  37.539  -1.446  1.00  0.00    -0.274 OA
ATOM     26  H1  UNL     1      79.122  40.118  -1.837  1.00  0.00     0.163 HD
ENDBRANCH  21  22
BRANCH  21  27
HETATM   27  C20 UNL     1      80.015  39.936   0.582  1.00  0.00     0.009 C 
HETATM   28  C21 UNL     1      79.159  41.127   0.366  1.00  0.00     0.012 C 
HETATM   29  C22 UNL     1      80.155  39.600   2.029  1.00  0.00     0.012 C 
ENDBRANCH  21  27
ENDBRANCH   1  21
BRANCH   4  30
HETATM   30  C6  UNL     1      83.129  36.108  -1.963  1.00  0.00    -0.065 C 
HETATM   31  C7  UNL     1      84.565  35.792  -2.226  1.00  0.00     0.045 C 
HETATM   32  C8  UNL     1      82.240  35.337  -2.882  1.00  0.00     0.045 C 
ENDBRANCH   4  30
TORSDOF 9
ENDMDL
MODEL 3
REMARK VINA RESULT: -6.581664643      1.995      5.847
REMARK  9 active torsions:
REMARK  status: ('A' for Active; 'I' for Inactive)
REMARK       I    between atoms: C2_2  and  N1_4 
REMARK    1  A    between atoms: N1_4  and  C3_6 
REMARK    2  A    between atoms: C3_6  and  C4_7 
REMARK    3  A    between atoms: C3_6  and  C20_30 
REMARK       I    between atoms: C4_7  and  N2_9 
REMARK    4  A    between atoms: C5_10  and  C6_11 
REMARK    5  A    between atoms: C12_17  and  C13_18 
REMARK       I    between atoms: C13_18  and  N3_20 
REMARK    6  A    between atoms: N3_20  and  C14_22 
REMARK    7  A    between atoms: C14_22  and  C15_23 
REMARK    8  A    between atoms: C14_22  and  C19_27 
REMARK    9  A    between atoms: C15_23  and  C16_24 
ROOT
HETATM    1  C4  UNL     1      81.825  34.931   1.580  1.00  0.00     0.248 C 
HETATM    2  O2  UNL     1      82.576  35.096   2.604  1.00  0.00    -0.271 OA
HETATM    3  N2  UNL     1      81.442  35.975   0.730  1.00  0.00    -0.305 N 
HETATM    4  C5  UNL     1      81.803  37.342   0.716  1.00  0.00     0.018 C 
HETATM    5  C9  UNL     1      80.879  38.079  -0.243  1.00  0.00     0.064 C 
HETATM    6  C10 UNL     1      80.681  37.006  -1.283  1.00  0.00     0.020 C 
HETATM    7  C11 UNL     1      81.879  36.732  -2.118  1.00  0.00     0.013 C 
HETATM    8  C12 UNL     1      80.482  35.796  -0.356  1.00  0.00     0.189 C 
ENDROOT
BRANCH   8   9
HETATM    9  C13 UNL     1      79.067  35.876   0.103  1.00  0.00     0.242 C 
HETATM   10  O3  UNL     1      78.737  36.010   1.302  1.00  0.00    -0.271 OA
HETATM   11  N3  UNL     1      78.065  35.797  -0.880  1.00  0.00    -0.345 N 
ATOM     12  H3  UNL     1      78.318  35.679  -1.861  1.00  0.00     0.163 HD
BRANCH  11  13
HETATM   13  C14 UNL     1      76.652  35.883  -0.487  1.00  0.00     0.185 C 
BRANCH  13  14
HETATM   14  C15 UNL     1      76.033  34.530  -0.576  1.00  0.00     0.040 C 
BRANCH  14  15
HETATM   15  C16 UNL     1      75.687  33.997   0.775  1.00  0.00    -0.020 C 
HETATM   16  C17 UNL     1      74.401  33.213   0.785  1.00  0.00     0.009 C 
HETATM   17  C18 UNL     1      76.801  33.079   1.301  1.00  0.00     0.009 C 
ENDBRANCH  14  15
ENDBRANCH  13  14
BRANCH  13  18
HETATM   18  C19 UNL     1      75.943  36.781  -1.471  1.00  0.00     0.196 C 
HETATM   19  O4  UNL     1      75.434  37.856  -1.085  1.00  0.00    -0.646 OA
HETATM   20  O5  UNL     1      75.853  36.421  -2.794  1.00  0.00    -0.646 OA
ENDBRANCH  13  18
ENDBRANCH  11  13
ENDBRANCH   8   9
BRANCH   1  21
HETATM   21  C3  UNL     1      81.428  33.490   1.432  1.00  0.00     0.180 C 
BRANCH  21  22
HETATM   22  N1  UNL     1      81.703  32.775   2.672  1.00  0.00    -0.348 N 
HETATM   23  C2  UNL     1      81.032  31.639   3.133  1.00  0.00     0.214 C 
HETATM   24  C1  UNL     1      81.349  30.952   4.406  1.00  0.00     0.117 C 
HETATM   25  O1  UNL     1      80.106  31.158   2.444  1.00  0.00    -0.274 OA
ATOM     26  H1  UNL     1      82.455  33.138   3.259  1.00  0.00     0.163 HD
ENDBRANCH  21  22
BRANCH  21  27
HETATM   27  C20 UNL     1      82.215  32.816   0.308  1.00  0.00     0.009 C 
HETATM   28  C21 UNL     1      83.499  32.226   0.756  1.00  0.00     0.012 C 
HETATM   29  C22 UNL     1      81.410  31.858  -0.505  1.00  0.00     0.012 C 
ENDBRANCH  21  27
ENDBRANCH   1  21
BRANCH   4  30
HETATM   30  C6  UNL     1      82.093  38.096   1.938  1.00  0.00    -0.065 C 
HETATM   31  C7  UNL     1      83.522  38.382   2.264  1.00  0.00     0.045 C 
HETATM   32  C8  UNL     1      81.226  39.261   2.290  1.00  0.00     0.045 C 
ENDBRANCH   4  30
TORSDOF 9
ENDMDL
MODEL 4
REMARK VINA RESULT: -6.533929822      1.978      2.915
REMARK  9 active torsions:
REMARK  status: ('A' for Active; 'I' for Inactive)
REMARK       I    between atoms: C2_2  and  N1_4 
REMARK    1  A    between atoms: N1_4  and  C3_6 
REMARK    2  A    between atoms: C3_6  and  C4_7 
REMARK    3  A    between atoms: C3_6  and  C20_30 
REMARK       I    between atoms: C4_7  and  N2_9 
REMARK    4  A    between atoms: C5_10  and  C6_11 
REMARK    5  A    between atoms: C12_17  and  C13_18 
REMARK       I    between atoms: C13_18  and  N3_20 
REMARK    6  A    between atoms: N3_20  and  C14_22 
REMARK    7  A    between atoms: C14_22  and  C15_23 
REMARK    8  A    between atoms: C14_22  and  C19_27 
REMARK    9  A    between atoms: C15_23  and  C16_24 
ROOT
HETATM    1  C4  UNL     1      80.983  37.821  -0.845  1.00  0.00     0.248 C 
HETATM    2  O2  UNL     1      81.185  38.338  -1.998  1.00  0.00    -0.271 OA
HETATM    3  N2  UNL     1      81.817  36.850  -0.279  1.00  0.00    -0.305 N 
HETATM    4  C5  UNL     1      83.032  36.288  -0.737  1.00  0.00     0.018 C 
HETATM    5  C9  UNL     1      83.363  35.078   0.126  1.00  0.00     0.064 C 
HETATM    6  C10 UNL     1      82.829  35.556   1.452  1.00  0.00     0.020 C 
HETATM    7  C11 UNL     1      83.626  36.642   2.080  1.00  0.00     0.013 C 
HETATM    8  C12 UNL     1      81.504  36.175   0.977  1.00  0.00     0.189 C 
ENDROOT
BRANCH   8   9
HETATM    9  C13 UNL     1      80.570  35.027   0.801  1.00  0.00     0.242 C 
HETATM   10  O3  UNL     1      79.904  34.834  -0.239  1.00  0.00    -0.271 OA
HETATM   11  N3  UNL     1      80.451  34.124   1.871  1.00  0.00    -0.345 N 
ATOM     12  H3  UNL     1      80.983  34.272   2.729  1.00  0.00     0.163 HD
BRANCH  11  13
HETATM   13  C14 UNL     1      79.555  32.966   1.749  1.00  0.00     0.185 C 
BRANCH  13  14
HETATM   14  C15 UNL     1      78.680  32.891   2.954  1.00  0.00     0.040 C 
BRANCH  14  15
HETATM   15  C16 UNL     1      77.235  32.861   2.579  1.00  0.00    -0.020 C 
HETATM   16  C17 UNL     1      76.964  33.487   1.237  1.00  0.00     0.009 C 
HETATM   17  C18 UNL     1      76.712  31.418   2.539  1.00  0.00     0.009 C 
ENDBRANCH  14  15
ENDBRANCH  13  14
BRANCH  13  18
HETATM   18  C19 UNL     1      80.401  31.716   1.715  1.00  0.00     0.196 C 
HETATM   19  O4  UNL     1      81.255  31.563   0.815  1.00  0.00    -0.646 OA
HETATM   20  O5  UNL     1      80.234  30.744   2.670  1.00  0.00    -0.646 OA
ENDBRANCH  13  18
ENDBRANCH  11  13
ENDBRANCH   8   9
BRANCH   1  21
HETATM   21  C3  UNL     1      79.751  38.395  -0.207  1.00  0.00     0.180 C 
BRANCH  21  22
HETATM   22  N1  UNL     1      78.739  38.642  -1.227  1.00  0.00    -0.348 N 
HETATM   23  C2  UNL     1      77.593  37.874  -1.452  1.00  0.00     0.214 C 
HETATM   24  C1  UNL     1      76.597  38.167  -2.508  1.00  0.00     0.117 C 
HETATM   25  O1  UNL     1      77.377  36.877  -0.729  1.00  0.00    -0.274 OA
ATOM     26  H1  UNL     1      78.881  39.450  -1.834  1.00  0.00     0.163 HD
ENDBRANCH  21  22
BRANCH  21  27
HETATM   27  C20 UNL     1      80.058  39.720   0.490  1.00  0.00     0.009 C 
HETATM   28  C21 UNL     1      79.138  40.818   0.107  1.00  0.00     0.012 C 
HETATM   29  C22 UNL     1      80.212  39.606   1.969  1.00  0.00     0.012 C 
ENDBRANCH  21  27
ENDBRANCH   1  21
BRANCH   4  30
HETATM   30  C6  UNL     1      83.324  36.084  -2.158  1.00  0.00    -0.065 C 
HETATM   31  C7  UNL     1      84.740  35.823  -2.553  1.00  0.00     0.045 C 
HETATM   32  C8  UNL     1      82.385  35.261  -2.977  1.00  0.00     0.045 C 
ENDBRANCH   4  30
TORSDOF 9
ENDMDL
MODEL 5
REMARK VINA RESULT: -6.471875406      2.252      3.700
REMARK  9 active torsions:
REMARK  status: ('A' for Active; 'I' for Inactive)
REMARK       I    between atoms: C2_2  and  N1_4 
REMARK    1  A    between atoms: N1_4  and  C3_6 
REMARK    2  A    between atoms: C3_6  and  C4_7 
REMARK    3  A    between atoms: C3_6  and  C20_30 
REMARK       I    between atoms: C4_7  and  N2_9 
REMARK    4  A    between atoms: C5_10  and  C6_11 
REMARK    5  A    between atoms: C12_17  and  C13_18 
REMARK       I    between atoms: C13_18  and  N3_20 
REMARK    6  A    between atoms: N3_20  and  C14_22 
REMARK    7  A    between atoms: C14_22  and  C15_23 
REMARK    8  A    between atoms: C14_22  and  C19_27 
REMARK    9  A    between atoms: C15_23  and  C16_24 
ROOT
HETATM    1  C4  UNL     1      79.483  37.821  -2.264  1.00  0.00     0.248 C 
HETATM    2  O2  UNL     1      80.069  38.012  -3.386  1.00  0.00    -0.271 OA
HETATM    3  N2  UNL     1      80.151  37.393  -1.110  1.00  0.00    -0.305 N 
HETATM    4  C5  UNL     1      81.523  37.156  -0.865  1.00  0.00     0.018 C 
HETATM    5  C9  UNL     1      81.661  36.435   0.469  1.00  0.00     0.064 C 
HETATM    6  C10 UNL     1      80.526  37.077   1.225  1.00  0.00     0.020 C 
HETATM    7  C11 UNL     1      80.757  38.499   1.589  1.00  0.00     0.013 C 
HETATM    8  C12 UNL     1      79.451  37.054   0.126  1.00  0.00     0.189 C 
ENDROOT
BRANCH   8   9
HETATM    9  C13 UNL     1      78.914  35.664   0.125  1.00  0.00     0.242 C 
HETATM   10  O3  UNL     1      78.805  34.968  -0.907  1.00  0.00    -0.271 OA
HETATM   11  N3  UNL     1      78.519  35.125   1.362  1.00  0.00    -0.345 N 
ATOM     12  H3  UNL     1      78.595  35.684   2.212  1.00  0.00     0.163 HD
BRANCH  11  13
HETATM   13  C14 UNL     1      77.994  33.755   1.424  1.00  0.00     0.185 C 
BRANCH  13  14
HETATM   14  C15 UNL     1      76.555  33.795   1.813  1.00  0.00     0.040 C 
BRANCH  14  15
HETATM   15  C16 UNL     1      75.663  33.706   0.619  1.00  0.00    -0.020 C 
HETATM   16  C17 UNL     1      74.350  33.032   0.917  1.00  0.00     0.009 C 
HETATM   17  C18 UNL     1      75.358  35.104   0.061  1.00  0.00     0.009 C 
ENDBRANCH  14  15
ENDBRANCH  13  14
BRANCH  13  18
HETATM   18  C19 UNL     1      78.744  33.011   2.502  1.00  0.00     0.196 C 
HETATM   19  O4  UNL     1      79.970  33.196   2.655  1.00  0.00    -0.646 OA
HETATM   20  O5  UNL     1      78.081  32.127   3.319  1.00  0.00    -0.646 OA
ENDBRANCH  13  18
ENDBRANCH  11  13
ENDBRANCH   8   9
BRANCH   1  21
HETATM   21  C3  UNL     1      78.015  38.116  -2.367  1.00  0.00     0.180 C 
BRANCH  21  22
HETATM   22  N1  UNL     1      77.672  38.422  -3.750  1.00  0.00    -0.348 N 
HETATM   23  C2  UNL     1      76.675  37.800  -4.507  1.00  0.00     0.214 C 
HETATM   24  C1  UNL     1      76.369  38.147  -5.914  1.00  0.00     0.117 C 
HETATM   25  O1  UNL     1      75.989  36.895  -3.984  1.00  0.00    -0.274 OA
ATOM     26  H1  UNL     1      78.209  39.158  -4.208  1.00  0.00     0.163 HD
ENDBRANCH  21  22
BRANCH  21  27
HETATM   27  C20 UNL     1      77.633  39.318  -1.504  1.00  0.00     0.009 C 
HETATM   28  C21 UNL     1      78.530  40.485  -1.685  1.00  0.00     0.012 C 
HETATM   29  C22 UNL     1      76.193  39.697  -1.594  1.00  0.00     0.012 C 
ENDBRANCH  21  27
ENDBRANCH   1  21
BRANCH   4  30
HETATM   30  C6  UNL     1      82.436  36.652  -1.894  1.00  0.00    -0.065 C 
HETATM   31  C7  UNL     1      83.896  36.917  -1.727  1.00  0.00     0.045 C 
HETATM   32  C8  UNL     1      82.206  35.288  -2.457  1.00  0.00     0.045 C 
ENDBRANCH   4  30
TORSDOF 9
ENDMDL
