MODEL 1
REMARK VINA RESULT: -6.473185786      0.000      0.000
REMARK  8 active torsions:
REMARK  status: ('A' for Active; 'I' for Inactive)
REMARK    1  A    between atoms: N1_1  and  C1_5 
REMARK    2  A    between atoms: C1_5  and  C2_6 
REMARK    3  A    between atoms: C3_7  and  C4_8 
REMARK    4  A    between atoms: C4_8  and  O1_9 
REMARK    5  A    between atoms: C4_8  and  N2_11 
REMARK    6  A    between atoms: N2_11  and  C5_13 
REMARK    7  A    between atoms: C6_16  and  N4_17 
REMARK    8  A    between atoms: N4_17  and  N5_19 
ROOT
HETATM    1  C5  UNL     1       2.758  17.446  23.874  1.00  0.00     0.178 A 
HETATM    2  N3  UNL     1       2.685  18.709  23.460  1.00  0.00    -0.167 N 
ATOM      3  H3  UNL     1       2.736  18.940  22.467  1.00  0.00     0.186 HD
HETATM    4  C6  UNL     1       2.545  19.650  24.366  1.00  0.00     0.704 A 
HETATM    5  N6  UNL     1       2.486  19.274  25.647  1.00  0.00    -0.156 N 
ATOM      6  H6  UNL     1       2.380  19.861  26.474  1.00  0.00     0.193 HD
HETATM    7  S1  UNL     1       2.628  17.604  25.565  1.00  0.00     0.039 SA
ENDROOT
BRANCH   1   8
HETATM    8  N2  UNL     1       2.896  16.368  23.129  1.00  0.00    -0.340 N 
ATOM      9  H2  UNL     1       2.255  16.144  22.368  1.00  0.00     0.164 HD
BRANCH   8  10
HETATM   10  C4  UNL     1       4.025  15.525  23.467  1.00  0.00     0.243 C 
BRANCH  10  11
HETATM   11  C3  UNL     1       3.632  14.168  23.849  1.00  0.00     0.023 C 
HETATM   12  C2  UNL     1       3.237  13.897  25.077  1.00  0.00     0.000 C 
BRANCH  12  13
HETATM   13  C1  UNL     1       2.828  12.519  25.500  1.00  0.00     0.257 C 
BRANCH  13  14
HETATM   14  N1  UNL     1       3.499  11.564  24.645  1.00  0.00    -0.076 N 
ATOM     15  H13 UNL     1       4.462  11.389  24.932  1.00  0.00     0.274 HD
ATOM     16  H12 UNL     1       3.145  10.614  24.763  1.00  0.00     0.274 HD
ATOM     17  H11 UNL     1       3.429  11.891  23.682  1.00  0.00     0.274 HD
ENDBRANCH  13  14
ENDBRANCH  12  13
ENDBRANCH  10  11
BRANCH  10  18
HETATM   18  O1  UNL     1       4.929  15.484  22.383  1.00  0.00    -0.373 OA
ATOM     19  H1  UNL     1       5.496  14.725  22.457  1.00  0.00     0.212 HD
ENDBRANCH  10  18
ENDBRANCH   8  10
ENDBRANCH   1   8
BRANCH   4  20
HETATM   20  N4  UNL     1       2.459  20.952  24.079  1.00  0.00    -0.138 N 
ATOM     21  H4  UNL     1       1.776  21.519  24.582  1.00  0.00     0.205 HD
BRANCH  20  22
HETATM   22  N5  UNL     1       3.245  21.555  23.142  1.00  0.00    -0.331 N 
ATOM     23  H52 UNL     1       3.432  22.551  23.255  1.00  0.00     0.177 HD
ATOM     24  H51 UNL     1       3.643  21.054  22.348  1.00  0.00     0.177 HD
ENDBRANCH  20  22
ENDBRANCH   4  20
TORSDOF 8
ENDMDL
MODEL 2
REMARK VINA RESULT: -6.443269325      0.966      1.221
REMARK  8 active torsions:
REMARK  status: ('A' for Active; 'I' for Inactive)
REMARK    1  A    between atoms: N1_1  and  C1_5 
REMARK    2  A    between atoms: C1_5  and  C2_6 
REMARK    3  A    between atoms: C3_7  and  C4_8 
REMARK    4  A    between atoms: C4_8  and  O1_9 
REMARK    5  A    between atoms: C4_8  and  N2_11 
REMARK    6  A    between atoms: N2_11  and  C5_13 
REMARK    7  A    between atoms: C6_16  and  N4_17 
REMARK    8  A    between atoms: N4_17  and  N5_19 
ROOT
HETATM    1  C5  UNL     1       2.698  17.521  24.152  1.00  0.00     0.178 A 
HETATM    2  N3  UNL     1       2.256  18.773  24.055  1.00  0.00    -0.167 N 
ATOM      3  H3  UNL     1       2.101  19.206  23.145  1.00  0.00     0.186 HD
HETATM    4  C6  UNL     1       2.026  19.435  25.167  1.00  0.00     0.704 A 
HETATM    5  N6  UNL     1       2.252  18.805  26.322  1.00  0.00    -0.156 N 
ATOM      6  H6  UNL     1       2.130  19.159  27.271  1.00  0.00     0.193 HD
HETATM    7  S1  UNL     1       2.786  17.289  25.837  1.00  0.00     0.039 SA
ENDROOT
BRANCH   1   8
HETATM    8  N2  UNL     1       2.984  16.697  23.165  1.00  0.00    -0.340 N 
ATOM      9  H2  UNL     1       2.553  16.776  22.244  1.00  0.00     0.164 HD
BRANCH   8  10
HETATM   10  C4  UNL     1       3.956  15.669  23.481  1.00  0.00     0.243 C 
BRANCH  10  11
HETATM   11  C3  UNL     1       3.354  14.346  23.654  1.00  0.00     0.023 C 
HETATM   12  C2  UNL     1       3.341  13.756  24.832  1.00  0.00     0.000 C 
BRANCH  12  13
HETATM   13  C1  UNL     1       2.733  12.403  25.043  1.00  0.00     0.257 C 
BRANCH  13  14
HETATM   14  N1  UNL     1       3.641  11.409  24.512  1.00  0.00    -0.076 N 
ATOM     15  H13 UNL     1       3.997  11.656  23.589  1.00  0.00     0.274 HD
ATOM     16  H12 UNL     1       4.534  11.390  25.005  1.00  0.00     0.274 HD
ATOM     17  H11 UNL     1       3.168  10.506  24.522  1.00  0.00     0.274 HD
ENDBRANCH  13  14
ENDBRANCH  12  13
ENDBRANCH  10  11
BRANCH  10  18
HETATM   18  O1  UNL     1       4.947  15.626  22.476  1.00  0.00    -0.373 OA
ATOM     19  H1  UNL     1       5.747  15.247  22.820  1.00  0.00     0.212 HD
ENDBRANCH  10  18
ENDBRANCH   8  10
ENDBRANCH   1   8
BRANCH   4  20
HETATM   20  N4  UNL     1       1.581  20.694  25.203  1.00  0.00    -0.138 N 
ATOM     21  H4  UNL     1       1.839  21.325  24.443  1.00  0.00     0.205 HD
BRANCH  20  22
HETATM   22  N5  UNL     1       0.799  21.173  26.211  1.00  0.00    -0.331 N 
ATOM     23  H52 UNL     1       1.041  20.903  27.164  1.00  0.00     0.177 HD
ATOM     24  H51 UNL     1      -0.004  21.780  26.047  1.00  0.00     0.177 HD
ENDBRANCH  20  22
ENDBRANCH   4  20
TORSDOF 8
ENDMDL
MODEL 3
REMARK VINA RESULT: -6.357540381      4.145      6.449
REMARK  8 active torsions:
REMARK  status: ('A' for Active; 'I' for Inactive)
REMARK    1  A    between atoms: N1_1  and  C1_5 
REMARK    2  A    between atoms: C1_5  and  C2_6 
REMARK    3  A    between atoms: C3_7  and  C4_8 
REMARK    4  A    between atoms: C4_8  and  O1_9 
REMARK    5  A    between atoms: C4_8  and  N2_11 
REMARK    6  A    between atoms: N2_11  and  C5_13 
REMARK    7  A    between atoms: C6_16  and  N4_17 
REMARK    8  A    between atoms: N4_17  and  N5_19 
ROOT
HETATM    1  C5  UNL     1       2.160  19.119  25.418  1.00  0.00     0.178 A 
HETATM    2  N3  UNL     1       2.702  17.905  25.491  1.00  0.00    -0.167 N 
ATOM      3  H3  UNL     1       2.984  17.509  26.388  1.00  0.00     0.186 HD
HETATM    4  C6  UNL     1       2.863  17.232  24.374  1.00  0.00     0.704 A 
HETATM    5  N6  UNL     1       2.472  17.813  23.237  1.00  0.00    -0.156 N 
ATOM      6  H6  UNL     1       2.520  17.443  22.288  1.00  0.00     0.193 HD
HETATM    7  S1  UNL     1       1.882  19.299  23.747  1.00  0.00     0.039 SA
ENDROOT
BRANCH   1   8
HETATM    8  N2  UNL     1       1.916  19.945  26.415  1.00  0.00    -0.340 N 
ATOM      9  H2  UNL     1       2.649  20.280  27.039  1.00  0.00     0.164 HD
BRANCH   8  10
HETATM   10  C4  UNL     1       0.531  20.344  26.560  1.00  0.00     0.243 C 
BRANCH  10  11
HETATM   11  C3  UNL     1      -0.094  19.811  27.772  1.00  0.00     0.023 C 
HETATM   12  C2  UNL     1      -1.395  19.904  27.961  1.00  0.00     0.000 C 
BRANCH  12  13
HETATM   13  C1  UNL     1      -2.065  19.368  29.189  1.00  0.00     0.257 C 
BRANCH  13  14
HETATM   14  N1  UNL     1      -3.491  19.324  28.946  1.00  0.00    -0.076 N 
ATOM     15  H13 UNL     1      -3.790  18.443  28.529  1.00  0.00     0.274 HD
ATOM     16  H12 UNL     1      -4.035  19.261  29.807  1.00  0.00     0.274 HD
ATOM     17  H11 UNL     1      -3.745  20.133  28.380  1.00  0.00     0.274 HD
ENDBRANCH  13  14
ENDBRANCH  12  13
ENDBRANCH  10  11
BRANCH  10  18
HETATM   18  O1  UNL     1       0.436  21.753  26.543  1.00  0.00    -0.373 OA
ATOM     19  H1  UNL     1       1.089  22.132  27.119  1.00  0.00     0.212 HD
ENDBRANCH  10  18
ENDBRANCH   8  10
ENDBRANCH   1   8
BRANCH   4  20
HETATM   20  N4  UNL     1       3.393  16.006  24.315  1.00  0.00    -0.138 N 
ATOM     21  H4  UNL     1       3.938  15.671  25.110  1.00  0.00     0.205 HD
BRANCH  20  22
HETATM   22  N5  UNL     1       3.238  15.185  23.239  1.00  0.00    -0.331 N 
ATOM     23  H52 UNL     1       3.659  15.479  22.357  1.00  0.00     0.177 HD
ATOM     24  H51 UNL     1       2.725  14.305  23.284  1.00  0.00     0.177 HD
ENDBRANCH  20  22
ENDBRANCH   4  20
TORSDOF 8
ENDMDL
MODEL 4
REMARK VINA RESULT: -6.330321110      2.922      3.829
REMARK  8 active torsions:
REMARK  status: ('A' for Active; 'I' for Inactive)
REMARK    1  A    between atoms: N1_1  and  C1_5 
REMARK    2  A    between atoms: C1_5  and  C2_6 
REMARK    3  A    between atoms: C3_7  and  C4_8 
REMARK    4  A    between atoms: C4_8  and  O1_9 
REMARK    5  A    between atoms: C4_8  and  N2_11 
REMARK    6  A    between atoms: N2_11  and  C5_13 
REMARK    7  A    between atoms: C6_16  and  N4_17 
REMARK    8  A    between atoms: N4_17  and  N5_19 
ROOT
HETATM    1  C5  UNL     1       1.937  19.236  25.614  1.00  0.00     0.178 A 
HETATM    2  N3  UNL     1       1.198  19.348  26.716  1.00  0.00    -0.167 N 
ATOM      3  H3  UNL     1       1.218  18.627  27.437  1.00  0.00     0.186 HD
HETATM    4  C6  UNL     1       0.444  20.416  26.848  1.00  0.00     0.704 A 
HETATM    5  N6  UNL     1       0.469  21.319  25.864  1.00  0.00    -0.156 N 
ATOM      6  H6  UNL     1      -0.046  22.197  25.797  1.00  0.00     0.193 HD
HETATM    7  S1  UNL     1       1.551  20.660  24.763  1.00  0.00     0.039 SA
ENDROOT
BRANCH   1   8
HETATM    8  N2  UNL     1       2.753  18.251  25.297  1.00  0.00    -0.340 N 
ATOM      9  H2  UNL     1       3.431  18.326  24.540  1.00  0.00     0.164 HD
BRANCH   8  10
HETATM   10  C4  UNL     1       2.617  17.053  26.102  1.00  0.00     0.243 C 
BRANCH  10  11
HETATM   11  C3  UNL     1       3.231  15.876  25.486  1.00  0.00     0.023 C 
HETATM   12  C2  UNL     1       3.330  15.770  24.176  1.00  0.00     0.000 C 
BRANCH  12  13
HETATM   13  C1  UNL     1       3.954  14.580  23.514  1.00  0.00     0.257 C 
BRANCH  13  14
HETATM   14  N1  UNL     1       2.997  14.024  22.582  1.00  0.00    -0.076 N 
ATOM     15  H13 UNL     1       3.366  13.221  22.073  1.00  0.00     0.274 HD
ATOM     16  H12 UNL     1       2.224  13.550  23.048  1.00  0.00     0.274 HD
ATOM     17  H11 UNL     1       2.683  14.771  21.963  1.00  0.00     0.274 HD
ENDBRANCH  13  14
ENDBRANCH  12  13
ENDBRANCH  10  11
BRANCH  10  18
HETATM   18  O1  UNL     1       3.167  17.276  27.383  1.00  0.00    -0.373 OA
ATOM     19  H1  UNL     1       2.735  18.012  27.802  1.00  0.00     0.212 HD
ENDBRANCH  10  18
ENDBRANCH   8  10
ENDBRANCH   1   8
BRANCH   4  20
HETATM   20  N4  UNL     1      -0.340  20.646  27.905  1.00  0.00    -0.138 N 
ATOM     21  H4  UNL     1      -0.378  21.590  28.289  1.00  0.00     0.205 HD
BRANCH  20  22
HETATM   22  N5  UNL     1      -1.091  19.672  28.493  1.00  0.00    -0.331 N 
ATOM     23  H52 UNL     1      -0.926  18.709  28.202  1.00  0.00     0.177 HD
ATOM     24  H51 UNL     1      -1.799  19.871  29.200  1.00  0.00     0.177 HD
ENDBRANCH  20  22
ENDBRANCH   4  20
TORSDOF 8
ENDMDL
MODEL 5
REMARK VINA RESULT: -6.228201594      1.338      2.015
REMARK  8 active torsions:
REMARK  status: ('A' for Active; 'I' for Inactive)
REMARK    1  A    between atoms: N1_1  and  C1_5 
REMARK    2  A    between atoms: C1_5  and  C2_6 
REMARK    3  A    between atoms: C3_7  and  C4_8 
REMARK    4  A    between atoms: C4_8  and  O1_9 
REMARK    5  A    between atoms: C4_8  and  N2_11 
REMARK    6  A    between atoms: N2_11  and  C5_13 
REMARK    7  A    between atoms: C6_16  and  N4_17 
REMARK    8  A    between atoms: N4_17  and  N5_19 
ROOT
HETATM    1  C5  UNL     1       2.602  17.617  23.705  1.00  0.00     0.178 A 
HETATM    2  N3  UNL     1       2.553  17.685  25.034  1.00  0.00    -0.167 N 
ATOM      3  H3  UNL     1       2.762  16.868  25.609  1.00  0.00     0.186 HD
HETATM    4  C6  UNL     1       2.228  18.833  25.582  1.00  0.00     0.704 A 
HETATM    5  N6  UNL     1       1.967  19.859  24.768  1.00  0.00    -0.156 N 
ATOM      6  H6  UNL     1       1.702  20.813  25.015  1.00  0.00     0.193 HD
HETATM    7  S1  UNL     1       2.181  19.201  23.239  1.00  0.00     0.039 SA
ENDROOT
BRANCH   1   8
HETATM    8  N2  UNL     1       2.906  16.567  22.969  1.00  0.00    -0.340 N 
ATOM      9  H2  UNL     1       2.400  16.334  22.115  1.00  0.00     0.164 HD
BRANCH   8  10
HETATM   10  C4  UNL     1       4.010  15.768  23.461  1.00  0.00     0.243 C 
BRANCH  10  11
HETATM   11  C3  UNL     1       3.600  14.432  23.897  1.00  0.00     0.023 C 
HETATM   12  C2  UNL     1       3.283  14.197  25.154  1.00  0.00     0.000 C 
BRANCH  12  13
HETATM   13  C1  UNL     1       2.859  12.841  25.633  1.00  0.00     0.257 C 
BRANCH  13  14
HETATM   14  N1  UNL     1       3.521  11.845  24.818  1.00  0.00    -0.076 N 
ATOM     15  H13 UNL     1       4.337  12.215  24.332  1.00  0.00     0.274 HD
ATOM     16  H12 UNL     1       4.001  11.138  25.375  1.00  0.00     0.274 HD
ATOM     17  H11 UNL     1       2.833  11.443  24.182  1.00  0.00     0.274 HD
ENDBRANCH  13  14
ENDBRANCH  12  13
ENDBRANCH  10  11
BRANCH  10  18
HETATM   18  O1  UNL     1       5.007  15.671  22.466  1.00  0.00    -0.373 OA
ATOM     19  H1  UNL     1       5.143  16.516  22.055  1.00  0.00     0.212 HD
ENDBRANCH  10  18
ENDBRANCH   8  10
ENDBRANCH   1   8
BRANCH   4  20
HETATM   20  N4  UNL     1       2.146  19.029  26.902  1.00  0.00    -0.138 N 
ATOM     21  H4  UNL     1       2.988  18.916  27.466  1.00  0.00     0.205 HD
BRANCH  20  22
HETATM   22  N5  UNL     1       0.984  19.373  27.526  1.00  0.00    -0.331 N 
ATOM     23  H52 UNL     1       0.122  18.948  27.185  1.00  0.00     0.177 HD
ATOM     24  H51 UNL     1       0.949  20.028  28.308  1.00  0.00     0.177 HD
ENDBRANCH  20  22
ENDBRANCH   4  20
TORSDOF 8
ENDMDL
