MODEL 1
REMARK VINA RESULT: -6.933156782      0.000      0.000
REMARK  10 active torsions:
REMARK  status: ('A' for Active; 'I' for Inactive)
REMARK    1  A    between atoms: C2_2  and  O2_4 
REMARK    2  A    between atoms: O2_4  and  C3_5 
REMARK    3  A    between atoms: C9_11  and  C10_12 
REMARK    4  A    between atoms: C11_13  and  C12_14 
REMARK    5  A    between atoms: C13_15  and  O3_16 
REMARK    6  A    between atoms: C16_20  and  C17_21 
REMARK    7  A    between atoms: C17_21  and  C18_22 
REMARK    8  A    between atoms: C18_22  and  C19_23 
REMARK    9  A    between atoms: C19_23  and  N1_24 
REMARK       I    between atoms: N1_24  and  C20_26 
REMARK   10  A    between atoms: N3_28  and  C21_30 
ROOT
HETATM    1  C12 UNL     1      -5.471  45.344   2.806  1.00  0.00     0.041 C 
HETATM    2  C13 UNL     1      -5.428  45.534   4.313  1.00  0.00     0.126 C 
HETATM    3  C14 UNL     1      -4.954  44.126   4.708  1.00  0.00     0.033 C 
HETATM    4  C15 UNL     1      -5.873  43.246   3.908  1.00  0.00     0.008 C 
HETATM    5  C16 UNL     1      -6.183  44.007   2.657  1.00  0.00    -0.004 C 
ENDROOT
BRANCH   1   6
HETATM    6  C11 UNL     1      -6.121  46.428   2.074  1.00  0.00    -0.023 C 
HETATM    7  C10 UNL     1      -7.335  46.439   1.560  1.00  0.00    -0.024 C 
BRANCH   7   8
HETATM    8  C9  UNL     1      -7.862  47.618   0.836  1.00  0.00     0.022 C 
HETATM    9  C6  UNL     1      -9.359  47.689   0.857  1.00  0.00    -0.040 C 
HETATM   10  C5  UNL     1      -9.949  48.168  -0.454  1.00  0.00     0.012 C 
HETATM   11  C7  UNL     1     -10.004  46.365   1.236  1.00  0.00     0.015 C 
HETATM   12  C8  UNL     1      -9.820  48.686   1.923  1.00  0.00     0.015 C 
HETATM   13  C4  UNL     1      -9.103  49.351  -0.896  1.00  0.00     0.034 C 
HETATM   14  C3  UNL     1      -7.801  48.776  -1.390  1.00  0.00     0.136 C 
HETATM   15  C24 UNL     1      -7.271  47.658  -0.552  1.00  0.00     0.019 C 
HETATM   16  C25 UNL     1      -7.337  46.302  -1.228  1.00  0.00     0.013 C 
BRANCH  14  17
HETATM   17  O2  UNL     1      -6.828  49.746  -1.702  1.00  0.00    -0.316 OA
BRANCH  17  18
HETATM   18  C2  UNL     1      -5.712  49.550  -2.476  1.00  0.00     0.255 C 
HETATM   19  C1  UNL     1      -4.425  49.038  -1.945  1.00  0.00     0.126 C 
HETATM   20  O1  UNL     1      -5.797  49.820  -3.680  1.00  0.00    -0.266 OA
ENDBRANCH  17  18
ENDBRANCH  14  17
ENDBRANCH   7   8
ENDBRANCH   1   6
BRANCH   2  21
HETATM   21  O3  UNL     1      -6.708  45.648   4.825  1.00  0.00    -0.395 OA
ATOM     22  H3  UNL     1      -6.684  45.702   5.772  1.00  0.00     0.210 HD
ENDBRANCH   2  21
BRANCH   5  23
HETATM   23  C17 UNL     1      -5.686  43.321   1.425  1.00  0.00     0.007 C 
BRANCH  23  24
HETATM   24  C18 UNL     1      -6.637  42.239   0.962  1.00  0.00     0.020 C 
BRANCH  24  25
HETATM   25  C19 UNL     1      -7.324  42.618  -0.307  1.00  0.00     0.122 C 
BRANCH  25  26
HETATM   26  N1  UNL     1      -8.729  42.867  -0.196  1.00  0.00    -0.365 N 
HETATM   27  C20 UNL     1      -9.547  43.343  -1.253  1.00  0.00     0.184 C 
HETATM   28  N2  UNL     1      -8.996  43.427  -2.559  1.00  0.00    -0.064 NA
HETATM   29  N3  UNL     1     -10.770  43.713  -1.081  1.00  0.00    -0.361 N 
ATOM     30  H3  UNL     1     -11.194  43.670  -0.154  1.00  0.00     0.162 HD
ATOM     31  H1  UNL     1      -9.173  42.691   0.705  1.00  0.00     0.162 HD
BRANCH  29  32
HETATM   32  C21 UNL     1     -11.541  44.191  -2.219  1.00  0.00     0.076 C 
HETATM   33  C22 UNL     1     -12.278  45.460  -1.774  1.00  0.00     0.032 C 
HETATM   34  C23 UNL     1     -12.537  43.143  -2.655  1.00  0.00     0.032 C 
ENDBRANCH  29  32
ENDBRANCH  25  26
ENDBRANCH  24  25
ENDBRANCH  23  24
ENDBRANCH   5  23
TORSDOF 10
ENDMDL
MODEL 2
REMARK VINA RESULT: -6.932893664      2.976      6.580
REMARK  10 active torsions:
REMARK  status: ('A' for Active; 'I' for Inactive)
REMARK    1  A    between atoms: C2_2  and  O2_4 
REMARK    2  A    between atoms: O2_4  and  C3_5 
REMARK    3  A    between atoms: C9_11  and  C10_12 
REMARK    4  A    between atoms: C11_13  and  C12_14 
REMARK    5  A    between atoms: C13_15  and  O3_16 
REMARK    6  A    between atoms: C16_20  and  C17_21 
REMARK    7  A    between atoms: C17_21  and  C18_22 
REMARK    8  A    between atoms: C18_22  and  C19_23 
REMARK    9  A    between atoms: C19_23  and  N1_24 
REMARK       I    between atoms: N1_24  and  C20_26 
REMARK   10  A    between atoms: N3_28  and  C21_30 
ROOT
HETATM    1  C12 UNL     1     -11.382  44.148  -1.120  1.00  0.00     0.041 C 
HETATM    2  C13 UNL     1     -12.217  44.093  -2.388  1.00  0.00     0.126 C 
HETATM    3  C14 UNL     1     -11.643  42.798  -2.985  1.00  0.00     0.033 C 
HETATM    4  C15 UNL     1     -10.161  43.018  -2.856  1.00  0.00     0.008 C 
HETATM    5  C16 UNL     1      -9.978  43.858  -1.631  1.00  0.00    -0.004 C 
ENDROOT
BRANCH   1   6
HETATM    6  C11 UNL     1     -11.479  45.403  -0.381  1.00  0.00    -0.023 C 
HETATM    7  C10 UNL     1     -10.638  46.418  -0.403  1.00  0.00    -0.024 C 
BRANCH   7   8
HETATM    8  C9  UNL     1     -10.868  47.636   0.407  1.00  0.00     0.022 C 
HETATM    9  C6  UNL     1     -10.442  48.889  -0.295  1.00  0.00    -0.040 C 
HETATM   10  C5  UNL     1      -9.787  49.895   0.629  1.00  0.00     0.012 C 
HETATM   11  C7  UNL     1      -9.514  48.617  -1.469  1.00  0.00     0.015 C 
HETATM   12  C8  UNL     1     -11.662  49.592  -0.897  1.00  0.00     0.015 C 
HETATM   13  C4  UNL     1     -10.642  49.940   1.885  1.00  0.00     0.034 C 
HETATM   14  C3  UNL     1     -10.351  48.667   2.637  1.00  0.00     0.136 C 
HETATM   15  C24 UNL     1     -10.236  47.458   1.767  1.00  0.00     0.019 C 
HETATM   16  C25 UNL     1      -8.826  46.910   1.662  1.00  0.00     0.013 C 
BRANCH  14  17
HETATM   17  O2  UNL     1     -11.174  48.466   3.763  1.00  0.00    -0.316 OA
BRANCH  17  18
HETATM   18  C2  UNL     1     -10.759  48.437   5.071  1.00  0.00     0.255 C 
HETATM   19  C1  UNL     1      -9.333  48.421   5.479  1.00  0.00     0.126 C 
HETATM   20  O1  UNL     1     -11.632  48.423   5.947  1.00  0.00    -0.266 OA
ENDBRANCH  17  18
ENDBRANCH  14  17
ENDBRANCH   7   8
ENDBRANCH   1   6
BRANCH   2  21
HETATM   21  O3  UNL     1     -11.841  45.098  -3.261  1.00  0.00    -0.395 OA
ATOM     22  H3  UNL     1     -12.525  45.753  -3.329  1.00  0.00     0.210 HD
ENDBRANCH   2  21
BRANCH   5  23
HETATM   23  C17 UNL     1      -9.202  43.157  -0.562  1.00  0.00     0.007 C 
BRANCH  23  24
HETATM   24  C18 UNL     1      -7.735  43.043  -0.916  1.00  0.00     0.020 C 
BRANCH  24  25
HETATM   25  C19 UNL     1      -6.933  42.517   0.228  1.00  0.00     0.122 C 
BRANCH  25  26
HETATM   26  N1  UNL     1      -7.263  43.058   1.511  1.00  0.00    -0.365 N 
HETATM   27  C20 UNL     1      -6.383  43.837   2.306  1.00  0.00     0.184 C 
HETATM   28  N2  UNL     1      -5.150  44.261   1.744  1.00  0.00    -0.064 NA
HETATM   29  N3  UNL     1      -6.648  44.172   3.522  1.00  0.00    -0.361 N 
ATOM     30  H3  UNL     1      -7.522  43.879   3.957  1.00  0.00     0.162 HD
ATOM     31  H1  UNL     1      -8.195  42.871   1.881  1.00  0.00     0.162 HD
BRANCH  29  32
HETATM   32  C21 UNL     1      -5.689  44.973   4.270  1.00  0.00     0.076 C 
HETATM   33  C22 UNL     1      -4.986  44.039   5.263  1.00  0.00     0.032 C 
HETATM   34  C23 UNL     1      -6.397  46.078   5.015  1.00  0.00     0.032 C 
ENDBRANCH  29  32
ENDBRANCH  25  26
ENDBRANCH  24  25
ENDBRANCH  23  24
ENDBRANCH   5  23
TORSDOF 10
ENDMDL
MODEL 3
REMARK VINA RESULT: -6.713633473      2.242      5.583
REMARK  10 active torsions:
REMARK  status: ('A' for Active; 'I' for Inactive)
REMARK    1  A    between atoms: C2_2  and  O2_4 
REMARK    2  A    between atoms: O2_4  and  C3_5 
REMARK    3  A    between atoms: C9_11  and  C10_12 
REMARK    4  A    between atoms: C11_13  and  C12_14 
REMARK    5  A    between atoms: C13_15  and  O3_16 
REMARK    6  A    between atoms: C16_20  and  C17_21 
REMARK    7  A    between atoms: C17_21  and  C18_22 
REMARK    8  A    between atoms: C18_22  and  C19_23 
REMARK    9  A    between atoms: C19_23  and  N1_24 
REMARK       I    between atoms: N1_24  and  C20_26 
REMARK   10  A    between atoms: N3_28  and  C21_30 
ROOT
HETATM    1  C12 UNL     1     -11.110  44.263  -1.033  1.00  0.00     0.041 C 
HETATM    2  C13 UNL     1     -12.493  44.722  -1.464  1.00  0.00     0.126 C 
HETATM    3  C14 UNL     1     -12.744  43.687  -2.572  1.00  0.00     0.033 C 
HETATM    4  C15 UNL     1     -11.461  43.741  -3.354  1.00  0.00     0.008 C 
HETATM    5  C16 UNL     1     -10.391  44.075  -2.361  1.00  0.00    -0.004 C 
ENDROOT
BRANCH   1   6
HETATM    6  C11 UNL     1     -10.420  45.177  -0.128  1.00  0.00    -0.023 C 
HETATM    7  C10 UNL     1      -9.784  46.290  -0.437  1.00  0.00    -0.024 C 
BRANCH   7   8
HETATM    8  C9  UNL     1      -9.123  47.120   0.596  1.00  0.00     0.022 C 
HETATM    9  C6  UNL     1     -10.000  48.227   1.097  1.00  0.00    -0.040 C 
HETATM   10  C5  UNL     1      -9.245  49.517   1.343  1.00  0.00     0.012 C 
HETATM   11  C7  UNL     1     -11.175  48.509   0.174  1.00  0.00     0.015 C 
HETATM   12  C8  UNL     1     -10.623  47.834   2.439  1.00  0.00     0.015 C 
HETATM   13  C4  UNL     1      -7.963  49.130   2.063  1.00  0.00     0.034 C 
HETATM   14  C3  UNL     1      -7.071  48.500   1.025  1.00  0.00     0.136 C 
HETATM   15  C24 UNL     1      -7.786  47.591   0.079  1.00  0.00     0.019 C 
HETATM   16  C25 UNL     1      -7.891  48.135  -1.332  1.00  0.00     0.013 C 
BRANCH  14  17
HETATM   17  O2  UNL     1      -5.889  47.940   1.549  1.00  0.00    -0.316 OA
BRANCH  17  18
HETATM   18  C2  UNL     1      -4.723  47.727   0.858  1.00  0.00     0.255 C 
HETATM   19  C1  UNL     1      -4.221  48.633  -0.204  1.00  0.00     0.126 C 
HETATM   20  O1  UNL     1      -4.064  46.720   1.146  1.00  0.00    -0.266 OA
ENDBRANCH  17  18
ENDBRANCH  14  17
ENDBRANCH   7   8
ENDBRANCH   1   6
BRANCH   2  21
HETATM   21  O3  UNL     1     -12.420  45.943  -2.110  1.00  0.00    -0.395 OA
ATOM     22  H3  UNL     1     -13.290  46.267  -2.309  1.00  0.00     0.210 HD
ENDBRANCH   2  21
BRANCH   5  23
HETATM   23  C17 UNL     1      -9.375  42.986  -2.219  1.00  0.00     0.007 C 
BRANCH  23  24
HETATM   24  C18 UNL     1      -7.995  43.540  -1.938  1.00  0.00     0.020 C 
BRANCH  24  25
HETATM   25  C19 UNL     1      -7.496  43.115  -0.597  1.00  0.00     0.122 C 
BRANCH  25  26
HETATM   26  N1  UNL     1      -6.921  44.153   0.203  1.00  0.00    -0.365 N 
HETATM   27  C20 UNL     1      -6.661  44.045   1.594  1.00  0.00     0.184 C 
HETATM   28  N2  UNL     1      -6.816  42.781   2.222  1.00  0.00    -0.064 NA
HETATM   29  N3  UNL     1      -6.296  45.047   2.318  1.00  0.00    -0.361 N 
ATOM     30  H3  UNL     1      -6.181  45.969   1.899  1.00  0.00     0.162 HD
ATOM     31  H1  UNL     1      -6.682  45.031  -0.258  1.00  0.00     0.162 HD
BRANCH  29  32
HETATM   32  C21 UNL     1      -6.050  44.852   3.739  1.00  0.00     0.076 C 
HETATM   33  C22 UNL     1      -6.551  46.105   4.469  1.00  0.00     0.032 C 
HETATM   34  C23 UNL     1      -4.575  44.662   3.995  1.00  0.00     0.032 C 
ENDBRANCH  29  32
ENDBRANCH  25  26
ENDBRANCH  24  25
ENDBRANCH  23  24
ENDBRANCH   5  23
TORSDOF 10
ENDMDL
MODEL 4
REMARK VINA RESULT: -6.702582720      2.733      6.321
REMARK  10 active torsions:
REMARK  status: ('A' for Active; 'I' for Inactive)
REMARK    1  A    between atoms: C2_2  and  O2_4 
REMARK    2  A    between atoms: O2_4  and  C3_5 
REMARK    3  A    between atoms: C9_11  and  C10_12 
REMARK    4  A    between atoms: C11_13  and  C12_14 
REMARK    5  A    between atoms: C13_15  and  O3_16 
REMARK    6  A    between atoms: C16_20  and  C17_21 
REMARK    7  A    between atoms: C17_21  and  C18_22 
REMARK    8  A    between atoms: C18_22  and  C19_23 
REMARK    9  A    between atoms: C19_23  and  N1_24 
REMARK       I    between atoms: N1_24  and  C20_26 
REMARK   10  A    between atoms: N3_28  and  C21_30 
ROOT
HETATM    1  C12 UNL     1     -11.072  44.241  -0.807  1.00  0.00     0.041 C 
HETATM    2  C13 UNL     1     -12.110  44.469  -1.893  1.00  0.00     0.126 C 
HETATM    3  C14 UNL     1     -11.929  43.153  -2.665  1.00  0.00     0.033 C 
HETATM    4  C15 UNL     1     -10.434  43.073  -2.809  1.00  0.00     0.008 C 
HETATM    5  C16 UNL     1      -9.870  43.739  -1.594  1.00  0.00    -0.004 C 
ENDROOT
BRANCH   1   6
HETATM    6  C11 UNL     1     -10.778  45.414   0.011  1.00  0.00    -0.023 C 
HETATM    7  C10 UNL     1      -9.823  46.304  -0.172  1.00  0.00    -0.024 C 
BRANCH   7   8
HETATM    8  C9  UNL     1      -9.642  47.450   0.748  1.00  0.00     0.022 C 
HETATM    9  C6  UNL     1      -9.400  48.740   0.026  1.00  0.00    -0.040 C 
HETATM   10  C5  UNL     1      -8.374  49.621   0.711  1.00  0.00     0.012 C 
HETATM   11  C7  UNL     1      -8.986  48.533  -1.423  1.00  0.00     0.015 C 
HETATM   12  C8  UNL     1     -10.693  49.557  -0.033  1.00  0.00     0.015 C 
HETATM   13  C4  UNL     1      -8.708  49.591   2.194  1.00  0.00     0.034 C 
HETATM   14  C3  UNL     1      -8.269  48.240   2.696  1.00  0.00     0.136 C 
HETATM   15  C24 UNL     1      -8.577  47.113   1.763  1.00  0.00     0.019 C 
HETATM   16  C25 UNL     1      -7.351  46.507   1.109  1.00  0.00     0.013 C 
BRANCH  14  17
HETATM   17  O2  UNL     1      -8.640  47.975   4.029  1.00  0.00    -0.316 OA
BRANCH  17  18
HETATM   18  C2  UNL     1      -9.807  48.366   4.634  1.00  0.00     0.255 C 
HETATM   19  C1  UNL     1      -9.863  49.313   5.775  1.00  0.00     0.126 C 
HETATM   20  O1  UNL     1     -10.864  47.895   4.196  1.00  0.00    -0.266 OA
ENDBRANCH  17  18
ENDBRANCH  14  17
ENDBRANCH   7   8
ENDBRANCH   1   6
BRANCH   2  21
HETATM   21  O3  UNL     1     -11.695  45.464  -2.759  1.00  0.00    -0.395 OA
ATOM     22  H3  UNL     1     -10.768  45.638  -2.647  1.00  0.00     0.210 HD
ENDBRANCH   2  21
BRANCH   5  23
HETATM   23  C17 UNL     1      -9.079  42.803  -0.737  1.00  0.00     0.007 C 
BRANCH  23  24
HETATM   24  C18 UNL     1      -7.622  43.206  -0.662  1.00  0.00     0.020 C 
BRANCH  24  25
HETATM   25  C19 UNL     1      -6.833  42.258   0.180  1.00  0.00     0.122 C 
BRANCH  25  26
HETATM   26  N1  UNL     1      -5.851  42.859   1.029  1.00  0.00    -0.365 N 
HETATM   27  C20 UNL     1      -6.079  43.240   2.377  1.00  0.00     0.184 C 
HETATM   28  N2  UNL     1      -7.297  42.859   2.998  1.00  0.00    -0.064 NA
HETATM   29  N3  UNL     1      -5.230  43.925   3.064  1.00  0.00    -0.361 N 
ATOM     30  H3  UNL     1      -4.348  44.219   2.646  1.00  0.00     0.162 HD
ATOM     31  H1  UNL     1      -4.924  43.026   0.639  1.00  0.00     0.162 HD
BRANCH  29  32
HETATM   32  C21 UNL     1      -5.541  44.276   4.442  1.00  0.00     0.076 C 
HETATM   33  C22 UNL     1      -5.847  45.779   4.476  1.00  0.00     0.032 C 
HETATM   34  C23 UNL     1      -4.366  43.970   5.339  1.00  0.00     0.032 C 
ENDBRANCH  29  32
ENDBRANCH  25  26
ENDBRANCH  24  25
ENDBRANCH  23  24
ENDBRANCH   5  23
TORSDOF 10
ENDMDL
MODEL 5
REMARK VINA RESULT: -6.601956863      2.551      6.073
REMARK  10 active torsions:
REMARK  status: ('A' for Active; 'I' for Inactive)
REMARK    1  A    between atoms: C2_2  and  O2_4 
REMARK    2  A    between atoms: O2_4  and  C3_5 
REMARK    3  A    between atoms: C9_11  and  C10_12 
REMARK    4  A    between atoms: C11_13  and  C12_14 
REMARK    5  A    between atoms: C13_15  and  O3_16 
REMARK    6  A    between atoms: C16_20  and  C17_21 
REMARK    7  A    between atoms: C17_21  and  C18_22 
REMARK    8  A    between atoms: C18_22  and  C19_23 
REMARK    9  A    between atoms: C19_23  and  N1_24 
REMARK       I    between atoms: N1_24  and  C20_26 
REMARK   10  A    between atoms: N3_28  and  C21_30 
ROOT
HETATM    1  C12 UNL     1     -11.039  44.763  -1.759  1.00  0.00     0.041 C 
HETATM    2  C13 UNL     1     -12.163  44.609  -2.769  1.00  0.00     0.126 C 
HETATM    3  C14 UNL     1     -12.347  43.086  -2.678  1.00  0.00     0.033 C 
HETATM    4  C15 UNL     1     -10.932  42.588  -2.778  1.00  0.00     0.008 C 
HETATM    5  C16 UNL     1     -10.080  43.648  -2.151  1.00  0.00    -0.004 C 
ENDROOT
BRANCH   1   6
HETATM    6  C11 UNL     1     -10.413  46.082  -1.740  1.00  0.00    -0.023 C 
HETATM    7  C10 UNL     1      -9.899  46.715  -0.704  1.00  0.00    -0.024 C 
BRANCH   7   8
HETATM    8  C9  UNL     1      -9.295  48.061  -0.837  1.00  0.00     0.022 C 
HETATM    9  C6  UNL     1      -7.875  48.107  -0.361  1.00  0.00    -0.040 C 
HETATM   10  C5  UNL     1      -7.539  49.386   0.380  1.00  0.00     0.012 C 
HETATM   11  C7  UNL     1      -7.510  46.918   0.513  1.00  0.00     0.015 C 
HETATM   12  C8  UNL     1      -6.920  48.042  -1.556  1.00  0.00     0.015 C 
HETATM   13  C4  UNL     1      -8.143  50.520  -0.432  1.00  0.00     0.034 C 
HETATM   14  C3  UNL     1      -9.629  50.463  -0.192  1.00  0.00     0.136 C 
HETATM   15  C24 UNL     1     -10.191  49.079  -0.176  1.00  0.00     0.019 C 
HETATM   16  C25 UNL     1     -10.645  48.619   1.197  1.00  0.00     0.013 C 
BRANCH  14  17
HETATM   17  O2  UNL     1     -10.373  51.356  -0.990  1.00  0.00    -0.316 OA
BRANCH  17  18
HETATM   18  C2  UNL     1     -11.090  51.028  -2.113  1.00  0.00     0.255 C 
HETATM   19  C1  UNL     1     -12.572  51.063  -2.177  1.00  0.00     0.126 C 
HETATM   20  O1  UNL     1     -10.456  50.685  -3.117  1.00  0.00    -0.266 OA
ENDBRANCH  17  18
ENDBRANCH  14  17
ENDBRANCH   7   8
ENDBRANCH   1   6
BRANCH   2  21
HETATM   21  O3  UNL     1     -11.699  44.847  -4.051  1.00  0.00    -0.395 OA
ATOM     22  H3  UNL     1     -11.276  44.073  -4.401  1.00  0.00     0.210 HD
ENDBRANCH   2  21
BRANCH   5  23
HETATM   23  C17 UNL     1      -9.363  43.165  -0.931  1.00  0.00     0.007 C 
BRANCH  23  24
HETATM   24  C18 UNL     1      -7.863  43.140  -1.135  1.00  0.00     0.020 C 
BRANCH  24  25
HETATM   25  C19 UNL     1      -7.164  42.495   0.015  1.00  0.00     0.122 C 
BRANCH  25  26
HETATM   26  N1  UNL     1      -7.443  43.060   1.301  1.00  0.00    -0.365 N 
HETATM   27  C20 UNL     1      -6.487  43.724   2.111  1.00  0.00     0.184 C 
HETATM   28  N2  UNL     1      -5.207  44.008   1.565  1.00  0.00    -0.064 NA
HETATM   29  N3  UNL     1      -6.724  44.078   3.328  1.00  0.00    -0.361 N 
ATOM     30  H3  UNL     1      -7.631  43.884   3.752  1.00  0.00     0.162 HD
ATOM     31  H1  UNL     1      -8.394  42.979   1.659  1.00  0.00     0.162 HD
BRANCH  29  32
HETATM   32  C21 UNL     1      -5.687  44.755   4.092  1.00  0.00     0.076 C 
HETATM   33  C22 UNL     1      -5.033  43.711   5.005  1.00  0.00     0.032 C 
HETATM   34  C23 UNL     1      -6.288  45.862   4.924  1.00  0.00     0.032 C 
ENDBRANCH  29  32
ENDBRANCH  25  26
ENDBRANCH  24  25
ENDBRANCH  23  24
ENDBRANCH   5  23
TORSDOF 10
ENDMDL
