MODEL 1
REMARK VINA RESULT: -7.127424577      0.000      0.000
REMARK  13 active torsions:
REMARK  status: ('A' for Active; 'I' for Inactive)
REMARK       I    between atoms: C2_2  and  N1_4 
REMARK    1  A    between atoms: N1_4  and  C3_6 
REMARK    2  A    between atoms: C3_6  and  C4_7 
REMARK    3  A    between atoms: C3_6  and  C23_36 
REMARK    4  A    between atoms: C4_7  and  O2_8 
REMARK    5  A    between atoms: C4_7  and  N2_10 
REMARK    6  A    between atoms: C5_11  and  C6_12 
REMARK    7  A    between atoms: C6_12  and  C7_13 
REMARK    8  A    between atoms: C6_12  and  N3_17 
REMARK    9  A    between atoms: C7_13  and  C8_14 
REMARK       I    between atoms: N3_17  and  C11_19 
REMARK   10  A    between atoms: C11_19  and  C12_21 
REMARK   11  A    between atoms: C12_21  and  O4_22 
REMARK   12  A    between atoms: C12_21  and  C13_24 
REMARK   13  A    between atoms: C13_24  and  N4_25 
ROOT
HETATM    1  N2  UNL     1       7.608  35.918   1.035  1.00  0.00    -0.339 N 
HETATM    2  C5  UNL     1       8.456  34.756   0.831  1.00  0.00     0.119 C 
HETATM    3  C19 UNL     1       9.138  34.867  -0.499  1.00  0.00     0.103 C 
HETATM    4  S1  UNL     1       9.699  36.612  -0.346  1.00  0.00    -0.136 SA
HETATM    5  C20 UNL     1       8.272  37.135   0.731  1.00  0.00     0.076 C 
HETATM    6  C21 UNL     1       7.486  38.073  -0.187  1.00  0.00     0.050 C 
HETATM    7  C22 UNL     1       8.825  37.945   1.830  1.00  0.00     0.050 C 
ENDROOT
BRANCH   2   8
HETATM    8  C6  UNL     1       9.499  34.568   1.946  1.00  0.00     0.108 C 
BRANCH   8   9
HETATM    9  C7  UNL     1       8.934  33.602   2.932  1.00  0.00     0.031 C 
BRANCH   9  10
HETATM   10  C8  UNL     1       9.250  32.171   2.815  1.00  0.00    -0.021 C 
HETATM   11  C9  UNL     1       8.099  31.224   2.909  1.00  0.00     0.009 C 
HETATM   12  C10 UNL     1      10.302  31.847   3.897  1.00  0.00     0.009 C 
ENDBRANCH   9  10
ENDBRANCH   8   9
BRANCH   8  13
HETATM   13  N3  UNL     1      10.726  34.098   1.344  1.00  0.00    -0.352 N 
HETATM   14  C11 UNL     1      12.000  34.605   1.717  1.00  0.00     0.248 C 
HETATM   15  O3  UNL     1      12.072  35.475   2.612  1.00  0.00    -0.271 OA
ATOM     16  H3  UNL     1      10.675  33.377   0.625  1.00  0.00     0.163 HD
BRANCH  14  17
HETATM   17  C12 UNL     1      13.259  34.140   1.076  1.00  0.00     0.238 C 
BRANCH  17  18
HETATM   18  O4  UNL     1      13.622  32.940   1.736  1.00  0.00    -0.384 OA
ATOM     19  H4  UNL     1      13.782  32.299   1.054  1.00  0.00     0.210 HD
ENDBRANCH  17  18
BRANCH  17  20
HETATM   20  C13 UNL     1      13.135  33.855  -0.370  1.00  0.00     0.313 C 
BRANCH  20  21
HETATM   21  N4  UNL     1      13.358  34.961  -1.238  1.00  0.00     0.091 N 
HETATM   22  C14 UNL     1      14.773  35.105  -1.567  1.00  0.00     0.272 C 
HETATM   23  C15 UNL     1      14.948  36.126  -2.655  1.00  0.00     0.030 C 
HETATM   24  C16 UNL     1      13.843  37.161  -2.644  1.00  0.00     0.003 C 
HETATM   25  C17 UNL     1      12.549  36.477  -2.966  1.00  0.00     0.030 C 
HETATM   26  C18 UNL     1      12.516  35.076  -2.368  1.00  0.00     0.272 C 
ENDBRANCH  20  21
ENDBRANCH  17  20
ENDBRANCH  14  17
ENDBRANCH   8  13
ENDBRANCH   2   8
BRANCH   1  27
HETATM   27  C4  UNL     1       6.248  35.791   1.436  1.00  0.00     0.139 C 
BRANCH  27  28
HETATM   28  C3  UNL     1       5.086  35.281   0.721  1.00  0.00     0.162 C 
BRANCH  28  29
HETATM   29  N1  UNL     1       5.374  35.341  -0.754  1.00  0.00    -0.349 N 
HETATM   30  C2  UNL     1       4.819  36.355  -1.561  1.00  0.00     0.214 C 
HETATM   31  C1  UNL     1       5.098  36.420  -3.006  1.00  0.00     0.117 C 
HETATM   32  O1  UNL     1       4.063  37.228  -1.020  1.00  0.00    -0.274 OA
ATOM     33  H1  UNL     1       5.980  34.637  -1.176  1.00  0.00     0.163 HD
ENDBRANCH  28  29
BRANCH  28  34
HETATM   34  C23 UNL     1       4.766  33.817   0.974  1.00  0.00     0.008 C 
HETATM   35  C24 UNL     1       5.304  33.268   2.242  1.00  0.00     0.012 C 
HETATM   36  C25 UNL     1       3.343  33.420   0.779  1.00  0.00     0.012 C 
ENDBRANCH  28  34
ENDBRANCH  27  28
BRANCH  27  37
HETATM   37  O2  UNL     1       6.053  36.213   2.671  1.00  0.00    -0.348 OA
ATOM     38  H2  UNL     1       5.934  35.548   3.339  1.00  0.00     0.219 HD
ENDBRANCH  27  37
ENDBRANCH   1  27
TORSDOF 13
ENDMDL
MODEL 2
REMARK VINA RESULT: -7.016104165      3.143      5.759
REMARK  13 active torsions:
REMARK  status: ('A' for Active; 'I' for Inactive)
REMARK       I    between atoms: C2_2  and  N1_4 
REMARK    1  A    between atoms: N1_4  and  C3_6 
REMARK    2  A    between atoms: C3_6  and  C4_7 
REMARK    3  A    between atoms: C3_6  and  C23_36 
REMARK    4  A    between atoms: C4_7  and  O2_8 
REMARK    5  A    between atoms: C4_7  and  N2_10 
REMARK    6  A    between atoms: C5_11  and  C6_12 
REMARK    7  A    between atoms: C6_12  and  C7_13 
REMARK    8  A    between atoms: C6_12  and  N3_17 
REMARK    9  A    between atoms: C7_13  and  C8_14 
REMARK       I    between atoms: N3_17  and  C11_19 
REMARK   10  A    between atoms: C11_19  and  C12_21 
REMARK   11  A    between atoms: C12_21  and  O4_22 
REMARK   12  A    between atoms: C12_21  and  C13_24 
REMARK   13  A    between atoms: C13_24  and  N4_25 
ROOT
HETATM    1  N2  UNL     1       9.405  34.215   0.420  1.00  0.00    -0.339 N 
HETATM    2  C5  UNL     1       9.234  32.803   0.720  1.00  0.00     0.119 C 
HETATM    3  C19 UNL     1      10.421  32.042   0.214  1.00  0.00     0.103 C 
HETATM    4  S1  UNL     1      11.730  33.147   0.883  1.00  0.00    -0.136 SA
HETATM    5  C20 UNL     1      10.696  34.692   0.769  1.00  0.00     0.076 C 
HETATM    6  C21 UNL     1      11.398  35.484  -0.336  1.00  0.00     0.050 C 
HETATM    7  C22 UNL     1      10.871  35.432   2.030  1.00  0.00     0.050 C 
ENDROOT
BRANCH   2   8
HETATM    8  C6  UNL     1       9.028  32.527   2.219  1.00  0.00     0.108 C 
BRANCH   8   9
HETATM    9  C7  UNL     1       7.649  32.970   2.573  1.00  0.00     0.031 C 
BRANCH   9  10
HETATM   10  C8  UNL     1       6.494  32.397   1.865  1.00  0.00    -0.021 C 
HETATM   11  C9  UNL     1       5.484  33.367   1.344  1.00  0.00     0.009 C 
HETATM   12  C10 UNL     1       5.827  31.390   2.824  1.00  0.00     0.009 C 
ENDBRANCH   9  10
ENDBRANCH   8   9
BRANCH   8  13
HETATM   13  N3  UNL     1       9.239  31.116   2.452  1.00  0.00    -0.352 N 
HETATM   14  C11 UNL     1      10.118  30.634   3.459  1.00  0.00     0.248 C 
HETATM   15  O3  UNL     1      10.721  31.454   4.186  1.00  0.00    -0.271 OA
ATOM     16  H3  UNL     1       8.738  30.443   1.874  1.00  0.00     0.163 HD
BRANCH  14  17
HETATM   17  C12 UNL     1      10.355  29.182   3.678  1.00  0.00     0.238 C 
BRANCH  17  18
HETATM   18  O4  UNL     1      11.372  28.803   2.768  1.00  0.00    -0.384 OA
ATOM     19  H4  UNL     1      11.749  28.001   3.108  1.00  0.00     0.210 HD
ENDBRANCH  17  18
BRANCH  17  20
HETATM   20  C13 UNL     1      10.804  28.839   5.045  1.00  0.00     0.313 C 
BRANCH  20  21
HETATM   21  N4  UNL     1      12.190  29.033   5.306  1.00  0.00     0.091 N 
HETATM   22  C14 UNL     1      12.400  29.807   6.526  1.00  0.00     0.272 C 
HETATM   23  C15 UNL     1      13.855  29.799   6.898  1.00  0.00     0.030 C 
HETATM   24  C16 UNL     1      14.748  29.633   5.685  1.00  0.00     0.003 C 
HETATM   25  C17 UNL     1      14.498  28.280   5.093  1.00  0.00     0.030 C 
HETATM   26  C18 UNL     1      13.029  27.898   5.224  1.00  0.00     0.272 C 
ENDBRANCH  20  21
ENDBRANCH  17  20
ENDBRANCH  14  17
ENDBRANCH   8  13
ENDBRANCH   2   8
BRANCH   1  27
HETATM   27  C4  UNL     1       8.381  34.975  -0.212  1.00  0.00     0.139 C 
BRANCH  27  28
HETATM   28  C3  UNL     1       7.921  36.338   0.020  1.00  0.00     0.162 C 
BRANCH  28  29
HETATM   29  N1  UNL     1       6.479  36.428  -0.399  1.00  0.00    -0.349 N 
HETATM   30  C2  UNL     1       6.010  37.525  -1.152  1.00  0.00     0.214 C 
HETATM   31  C1  UNL     1       4.600  37.619  -1.567  1.00  0.00     0.117 C 
HETATM   32  O1  UNL     1       6.831  38.445  -1.476  1.00  0.00    -0.274 OA
ATOM     33  H1  UNL     1       5.832  35.686  -0.135  1.00  0.00     0.163 HD
ENDBRANCH  28  29
BRANCH  28  34
HETATM   34  C23 UNL     1       7.908  36.773   1.476  1.00  0.00     0.008 C 
HETATM   35  C24 UNL     1       8.406  38.149   1.723  1.00  0.00     0.012 C 
HETATM   36  C25 UNL     1       6.641  36.521   2.218  1.00  0.00     0.012 C 
ENDBRANCH  28  34
ENDBRANCH  27  28
BRANCH  27  37
HETATM   37  O2  UNL     1       7.775  34.295  -1.167  1.00  0.00    -0.348 OA
ATOM     38  H2  UNL     1       8.312  33.703  -1.679  1.00  0.00     0.219 HD
ENDBRANCH  27  37
ENDBRANCH   1  27
TORSDOF 13
ENDMDL
MODEL 3
REMARK VINA RESULT: -6.842654669      1.593      2.309
REMARK  13 active torsions:
REMARK  status: ('A' for Active; 'I' for Inactive)
REMARK       I    between atoms: C2_2  and  N1_4 
REMARK    1  A    between atoms: N1_4  and  C3_6 
REMARK    2  A    between atoms: C3_6  and  C4_7 
REMARK    3  A    between atoms: C3_6  and  C23_36 
REMARK    4  A    between atoms: C4_7  and  O2_8 
REMARK    5  A    between atoms: C4_7  and  N2_10 
REMARK    6  A    between atoms: C5_11  and  C6_12 
REMARK    7  A    between atoms: C6_12  and  C7_13 
REMARK    8  A    between atoms: C6_12  and  N3_17 
REMARK    9  A    between atoms: C7_13  and  C8_14 
REMARK       I    between atoms: N3_17  and  C11_19 
REMARK   10  A    between atoms: C11_19  and  C12_21 
REMARK   11  A    between atoms: C12_21  and  O4_22 
REMARK   12  A    between atoms: C12_21  and  C13_24 
REMARK   13  A    between atoms: C13_24  and  N4_25 
ROOT
HETATM    1  N2  UNL     1       7.629  35.845   0.966  1.00  0.00    -0.339 N 
HETATM    2  C5  UNL     1       8.428  34.664   0.684  1.00  0.00     0.119 C 
HETATM    3  C19 UNL     1       9.065  34.807  -0.665  1.00  0.00     0.103 C 
HETATM    4  S1  UNL     1       9.693  36.524  -0.463  1.00  0.00    -0.136 SA
HETATM    5  C20 UNL     1       8.325  37.050   0.687  1.00  0.00     0.076 C 
HETATM    6  C21 UNL     1       7.540  38.052  -0.163  1.00  0.00     0.050 C 
HETATM    7  C22 UNL     1       8.946  37.794   1.796  1.00  0.00     0.050 C 
ENDROOT
BRANCH   2   8
HETATM    8  C6  UNL     1       9.503  34.394   1.749  1.00  0.00     0.108 C 
BRANCH   8   9
HETATM    9  C7  UNL     1       8.887  33.537   2.803  1.00  0.00     0.031 C 
BRANCH   9  10
HETATM   10  C8  UNL     1       9.155  32.091   2.815  1.00  0.00    -0.021 C 
HETATM   11  C9  UNL     1       7.973  31.195   2.990  1.00  0.00     0.009 C 
HETATM   12  C10 UNL     1      10.194  31.831   3.925  1.00  0.00     0.009 C 
ENDBRANCH   9  10
ENDBRANCH   8   9
BRANCH   8  13
HETATM   13  N3  UNL     1      10.632  33.763   1.105  1.00  0.00    -0.352 N 
HETATM   14  C11 UNL     1      11.976  34.094   1.427  1.00  0.00     0.248 C 
HETATM   15  O3  UNL     1      12.198  34.947   2.314  1.00  0.00    -0.271 OA
ATOM     16  H3  UNL     1      10.458  33.055   0.393  1.00  0.00     0.163 HD
BRANCH  14  17
HETATM   17  C12 UNL     1      13.136  33.463   0.742  1.00  0.00     0.238 C 
BRANCH  17  18
HETATM   18  O4  UNL     1      12.599  32.685  -0.313  1.00  0.00    -0.384 OA
ATOM     19  H4  UNL     1      12.679  33.212  -1.100  1.00  0.00     0.210 HD
ENDBRANCH  17  18
BRANCH  17  20
HETATM   20  C13 UNL     1      14.098  34.426   0.166  1.00  0.00     0.313 C 
BRANCH  20  21
HETATM   21  N4  UNL     1      15.328  34.566   0.869  1.00  0.00     0.091 N 
HETATM   22  C14 UNL     1      15.507  35.928   1.365  1.00  0.00     0.272 C 
HETATM   23  C15 UNL     1      16.689  35.988   2.289  1.00  0.00     0.030 C 
HETATM   24  C16 UNL     1      17.722  34.930   1.958  1.00  0.00     0.003 C 
HETATM   25  C17 UNL     1      17.115  33.582   2.201  1.00  0.00     0.030 C 
HETATM   26  C18 UNL     1      15.636  33.583   1.837  1.00  0.00     0.272 C 
ENDBRANCH  20  21
ENDBRANCH  17  20
ENDBRANCH  14  17
ENDBRANCH   8  13
ENDBRANCH   2   8
BRANCH   1  27
HETATM   27  C4  UNL     1       6.281  35.747   1.413  1.00  0.00     0.139 C 
BRANCH  27  28
HETATM   28  C3  UNL     1       5.083  35.270   0.735  1.00  0.00     0.162 C 
BRANCH  28  29
HETATM   29  N1  UNL     1       5.320  35.339  -0.749  1.00  0.00    -0.349 N 
HETATM   30  C2  UNL     1       4.795  36.397  -1.520  1.00  0.00     0.214 C 
HETATM   31  C1  UNL     1       5.024  36.471  -2.973  1.00  0.00     0.117 C 
HETATM   32  O1  UNL     1       4.111  37.302  -0.937  1.00  0.00    -0.274 OA
ATOM     33  H1  UNL     1       5.870  34.610  -1.204  1.00  0.00     0.163 HD
ENDBRANCH  28  29
BRANCH  28  34
HETATM   34  C23 UNL     1       4.740  33.811   0.984  1.00  0.00     0.008 C 
HETATM   35  C24 UNL     1       5.250  33.257   2.263  1.00  0.00     0.012 C 
HETATM   36  C25 UNL     1       3.317  33.432   0.766  1.00  0.00     0.012 C 
ENDBRANCH  28  34
ENDBRANCH  27  28
BRANCH  27  37
HETATM   37  O2  UNL     1       6.138  36.165   2.656  1.00  0.00    -0.348 OA
ATOM     38  H2  UNL     1       6.929  36.244   3.176  1.00  0.00     0.219 HD
ENDBRANCH  27  37
ENDBRANCH   1  27
TORSDOF 13
ENDMDL
MODEL 4
REMARK VINA RESULT: -6.816275776      3.430      6.042
REMARK  13 active torsions:
REMARK  status: ('A' for Active; 'I' for Inactive)
REMARK       I    between atoms: C2_2  and  N1_4 
REMARK    1  A    between atoms: N1_4  and  C3_6 
REMARK    2  A    between atoms: C3_6  and  C4_7 
REMARK    3  A    between atoms: C3_6  and  C23_36 
REMARK    4  A    between atoms: C4_7  and  O2_8 
REMARK    5  A    between atoms: C4_7  and  N2_10 
REMARK    6  A    between atoms: C5_11  and  C6_12 
REMARK    7  A    between atoms: C6_12  and  C7_13 
REMARK    8  A    between atoms: C6_12  and  N3_17 
REMARK    9  A    between atoms: C7_13  and  C8_14 
REMARK       I    between atoms: N3_17  and  C11_19 
REMARK   10  A    between atoms: C11_19  and  C12_21 
REMARK   11  A    between atoms: C12_21  and  O4_22 
REMARK   12  A    between atoms: C12_21  and  C13_24 
REMARK   13  A    between atoms: C13_24  and  N4_25 
ROOT
HETATM    1  N2  UNL     1      10.279  33.984   0.470  1.00  0.00    -0.339 N 
HETATM    2  C5  UNL     1      10.154  32.540   0.574  1.00  0.00     0.119 C 
HETATM    3  C19 UNL     1      11.491  31.907   0.334  1.00  0.00     0.103 C 
HETATM    4  S1  UNL     1      12.483  32.997   1.434  1.00  0.00    -0.136 SA
HETATM    5  C20 UNL     1      11.390  34.486   1.197  1.00  0.00     0.076 C 
HETATM    6  C21 UNL     1      12.288  35.438   0.404  1.00  0.00     0.050 C 
HETATM    7  C22 UNL     1      11.167  35.083   2.525  1.00  0.00     0.050 C 
ENDROOT
BRANCH   2   8
HETATM    8  C6  UNL     1       9.587  32.080   1.927  1.00  0.00     0.108 C 
BRANCH   8   9
HETATM    9  C7  UNL     1       8.100  32.084   1.818  1.00  0.00     0.031 C 
BRANCH   9  10
HETATM   10  C8  UNL     1       7.279  32.161   3.035  1.00  0.00    -0.021 C 
HETATM   11  C9  UNL     1       5.815  32.385   2.838  1.00  0.00     0.009 C 
HETATM   12  C10 UNL     1       7.879  33.275   3.918  1.00  0.00     0.009 C 
ENDBRANCH   9  10
ENDBRANCH   8   9
BRANCH   8  13
HETATM   13  N3  UNL     1      10.123  30.770   2.221  1.00  0.00    -0.352 N 
HETATM   14  C11 UNL     1      10.547  30.396   3.525  1.00  0.00     0.248 C 
HETATM   15  O3  UNL     1      10.439  31.218   4.461  1.00  0.00    -0.271 OA
ATOM     16  H3  UNL     1      10.198  30.090   1.466  1.00  0.00     0.163 HD
BRANCH  14  17
HETATM   17  C12 UNL     1      11.124  29.057   3.819  1.00  0.00     0.238 C 
BRANCH  17  18
HETATM   18  O4  UNL     1      12.422  29.050   3.251  1.00  0.00    -0.384 OA
ATOM     19  H4  UNL     1      12.301  29.087   2.309  1.00  0.00     0.210 HD
ENDBRANCH  17  18
BRANCH  17  20
HETATM   20  C13 UNL     1      11.246  28.751   5.260  1.00  0.00     0.313 C 
BRANCH  20  21
HETATM   21  N4  UNL     1      12.566  28.791   5.790  1.00  0.00     0.091 N 
HETATM   22  C14 UNL     1      12.738  29.914   6.708  1.00  0.00     0.272 C 
HETATM   23  C15 UNL     1      14.055  29.799   7.422  1.00  0.00     0.030 C 
HETATM   24  C16 UNL     1      15.082  29.051   6.598  1.00  0.00     0.003 C 
HETATM   25  C17 UNL     1      14.616  27.637   6.427  1.00  0.00     0.030 C 
HETATM   26  C18 UNL     1      13.099  27.583   6.294  1.00  0.00     0.272 C 
ENDBRANCH  20  21
ENDBRANCH  17  20
ENDBRANCH  14  17
ENDBRANCH   8  13
ENDBRANCH   2   8
BRANCH   1  27
HETATM   27  C4  UNL     1       9.396  34.755  -0.338  1.00  0.00     0.139 C 
BRANCH  27  28
HETATM   28  C3  UNL     1       8.407  35.762   0.023  1.00  0.00     0.162 C 
BRANCH  28  29
HETATM   29  N1  UNL     1       7.817  36.320  -1.244  1.00  0.00    -0.349 N 
HETATM   30  C2  UNL     1       7.681  37.711  -1.430  1.00  0.00     0.214 C 
HETATM   31  C1  UNL     1       7.105  38.264  -2.667  1.00  0.00     0.117 C 
HETATM   32  O1  UNL     1       8.068  38.497  -0.503  1.00  0.00    -0.274 OA
ATOM     33  H1  UNL     1       7.512  35.682  -1.979  1.00  0.00     0.163 HD
ENDBRANCH  28  29
BRANCH  28  34
HETATM   34  C23 UNL     1       7.204  35.238   0.788  1.00  0.00     0.008 C 
HETATM   35  C24 UNL     1       6.696  36.140   1.851  1.00  0.00     0.012 C 
HETATM   36  C25 UNL     1       6.087  34.706  -0.041  1.00  0.00     0.012 C 
ENDBRANCH  28  34
ENDBRANCH  27  28
BRANCH  27  37
HETATM   37  O2  UNL     1       9.533  34.485  -1.621  1.00  0.00    -0.348 OA
ATOM     38  H2  UNL     1       9.041  33.746  -1.960  1.00  0.00     0.219 HD
ENDBRANCH  27  37
ENDBRANCH   1  27
TORSDOF 13
ENDMDL
MODEL 5
REMARK VINA RESULT: -6.814666108      3.421      5.929
REMARK  13 active torsions:
REMARK  status: ('A' for Active; 'I' for Inactive)
REMARK       I    between atoms: C2_2  and  N1_4 
REMARK    1  A    between atoms: N1_4  and  C3_6 
REMARK    2  A    between atoms: C3_6  and  C4_7 
REMARK    3  A    between atoms: C3_6  and  C23_36 
REMARK    4  A    between atoms: C4_7  and  O2_8 
REMARK    5  A    between atoms: C4_7  and  N2_10 
REMARK    6  A    between atoms: C5_11  and  C6_12 
REMARK    7  A    between atoms: C6_12  and  C7_13 
REMARK    8  A    between atoms: C6_12  and  N3_17 
REMARK    9  A    between atoms: C7_13  and  C8_14 
REMARK       I    between atoms: N3_17  and  C11_19 
REMARK   10  A    between atoms: C11_19  and  C12_21 
REMARK   11  A    between atoms: C12_21  and  O4_22 
REMARK   12  A    between atoms: C12_21  and  C13_24 
REMARK   13  A    between atoms: C13_24  and  N4_25 
ROOT
HETATM    1  N2  UNL     1       9.706  33.744   0.334  1.00  0.00    -0.339 N 
HETATM    2  C5  UNL     1       9.837  32.312   0.550  1.00  0.00     0.119 C 
HETATM    3  C19 UNL     1      11.164  31.851   0.027  1.00  0.00     0.103 C 
HETATM    4  S1  UNL     1      12.202  33.167   0.785  1.00  0.00    -0.136 SA
HETATM    5  C20 UNL     1      10.863  34.461   0.736  1.00  0.00     0.076 C 
HETATM    6  C21 UNL     1      11.390  35.448  -0.308  1.00  0.00     0.050 C 
HETATM    7  C22 UNL     1      10.866  35.146   2.040  1.00  0.00     0.050 C 
ENDROOT
BRANCH   2   8
HETATM    8  C6  UNL     1       9.682  31.910   2.026  1.00  0.00     0.108 C 
BRANCH   8   9
HETATM    9  C7  UNL     1       8.267  31.487   2.231  1.00  0.00     0.031 C 
BRANCH   9  10
HETATM   10  C8  UNL     1       7.444  32.160   3.247  1.00  0.00    -0.021 C 
HETATM   11  C9  UNL     1       6.023  32.434   2.879  1.00  0.00     0.009 C 
HETATM   12  C10 UNL     1       8.165  33.472   3.620  1.00  0.00     0.009 C 
ENDBRANCH   9  10
ENDBRANCH   8   9
BRANCH   8  13
HETATM   13  N3  UNL     1      10.628  30.854   2.310  1.00  0.00    -0.352 N 
HETATM   14  C11 UNL     1      11.115  30.599   3.620  1.00  0.00     0.248 C 
HETATM   15  O3  UNL     1      10.701  31.297   4.571  1.00  0.00    -0.271 OA
ATOM     16  H3  UNL     1      10.957  30.270   1.541  1.00  0.00     0.163 HD
BRANCH  14  17
HETATM   17  C12 UNL     1      12.110  29.530   3.904  1.00  0.00     0.238 C 
BRANCH  17  18
HETATM   18  O4  UNL     1      13.385  30.104   3.679  1.00  0.00    -0.384 OA
ATOM     19  H4  UNL     1      14.021  29.477   4.003  1.00  0.00     0.210 HD
ENDBRANCH  17  18
BRANCH  17  20
HETATM   20  C13 UNL     1      12.070  29.016   5.290  1.00  0.00     0.313 C 
BRANCH  20  21
HETATM   21  N4  UNL     1      13.256  29.205   6.053  1.00  0.00     0.091 N 
HETATM   22  C14 UNL     1      13.058  30.189   7.114  1.00  0.00     0.272 C 
HETATM   23  C15 UNL     1      14.243  30.199   8.036  1.00  0.00     0.030 C 
HETATM   24  C16 UNL     1      15.514  29.773   7.331  1.00  0.00     0.003 C 
HETATM   25  C17 UNL     1      15.367  28.342   6.912  1.00  0.00     0.030 C 
HETATM   26  C18 UNL     1      13.931  28.045   6.499  1.00  0.00     0.272 C 
ENDBRANCH  20  21
ENDBRANCH  17  20
ENDBRANCH  14  17
ENDBRANCH   8  13
ENDBRANCH   2   8
BRANCH   1  27
HETATM   27  C4  UNL     1       8.549  34.305  -0.276  1.00  0.00     0.139 C 
BRANCH  27  28
HETATM   28  C3  UNL     1       8.002  35.654  -0.224  1.00  0.00     0.162 C 
BRANCH  28  29
HETATM   29  N1  UNL     1       6.737  35.683  -1.038  1.00  0.00    -0.349 N 
HETATM   30  C2  UNL     1       6.526  36.676  -2.017  1.00  0.00     0.214 C 
HETATM   31  C1  UNL     1       5.290  36.709  -2.817  1.00  0.00     0.117 C 
HETATM   32  O1  UNL     1       7.429  37.556  -2.205  1.00  0.00    -0.274 OA
ATOM     33  H1  UNL     1       6.022  34.973  -0.879  1.00  0.00     0.163 HD
ENDBRANCH  28  29
BRANCH  28  34
HETATM   34  C23 UNL     1       7.562  36.118   1.154  1.00  0.00     0.008 C 
HETATM   35  C24 UNL     1       8.019  37.478   1.532  1.00  0.00     0.012 C 
HETATM   36  C25 UNL     1       6.120  35.930   1.474  1.00  0.00     0.012 C 
ENDBRANCH  28  34
ENDBRANCH  27  28
BRANCH  27  37
HETATM   37  O2  UNL     1       7.895  33.422  -1.006  1.00  0.00    -0.348 OA
ATOM     38  H2  UNL     1       8.285  33.177  -1.837  1.00  0.00     0.219 HD
ENDBRANCH  27  37
ENDBRANCH   1  27
TORSDOF 13
ENDMDL
