MODEL 1
REMARK VINA RESULT: -6.644478766      0.000      0.000
REMARK  10 active torsions:
REMARK  status: ('A' for Active; 'I' for Inactive)
REMARK       I    between atoms: C2_5  and  N4_7 
REMARK    1  A    between atoms: N4_7  and  C3_9 
REMARK    2  A    between atoms: C3_9  and  C4_10 
REMARK    3  A    between atoms: C4_10  and  C5_11 
REMARK    4  A    between atoms: C5_11  and  C6_12 
REMARK    5  A    between atoms: C6_12  and  C7_13 
REMARK    6  A    between atoms: C7_13  and  C8_14 
REMARK    7  A    between atoms: C8_14  and  C9_15 
REMARK    8  A    between atoms: C9_15  and  C10_16 
REMARK    9  A    between atoms: C10_16  and  C11_17 
REMARK   10  A    between atoms: C11_17  and  C12_18 
REMARK       I    between atoms: C12_18  and  N5_20 
ROOT
HETATM    1  N1  UNL     1      72.338  54.790  -0.837  1.00  0.00    -0.172 NA
HETATM    2  C1  UNL     1      71.409  55.073  -0.208  1.00  0.00     0.184 C 
HETATM    3  N2  UNL     1      70.303  55.428   0.567  1.00  0.00    -0.268 N 
ATOM      4  H2  UNL     1      70.457  55.592   1.561  1.00  0.00     0.180 HD
HETATM    5  C2  UNL     1      69.106  55.563   0.122  1.00  0.00     0.197 C 
HETATM    6  N3  UNL     1      68.086  55.929   1.039  1.00  0.00    -0.063 NA
HETATM    7  N4  UNL     1      68.774  55.365  -1.233  1.00  0.00    -0.364 N 
ATOM      8  H4  UNL     1      68.564  56.184  -1.803  1.00  0.00     0.162 HD
ENDROOT
BRANCH   7   9
HETATM    9  C3  UNL     1      68.717  54.064  -1.855  1.00  0.00     0.122 C 
BRANCH   9  10
HETATM   10  C4  UNL     1      67.402  53.835  -2.570  1.00  0.00     0.020 C 
BRANCH  10  11
HETATM   11  C5  UNL     1      67.171  52.343  -2.628  1.00  0.00     0.002 C 
BRANCH  11  12
HETATM   12  C6  UNL     1      68.162  51.619  -1.735  1.00  0.00     0.000 C 
BRANCH  12  13
HETATM   13  C7  UNL     1      68.547  50.277  -2.258  1.00  0.00     0.000 C 
BRANCH  13  14
HETATM   14  C8  UNL     1      69.301  49.513  -1.202  1.00  0.00     0.000 C 
BRANCH  14  15
HETATM   15  C9  UNL     1      68.399  48.790  -0.232  1.00  0.00     0.000 C 
BRANCH  15  16
HETATM   16  C10 UNL     1      69.180  47.945   0.742  1.00  0.00     0.009 C 
BRANCH  16  17
HETATM   17  C11 UNL     1      69.756  48.716   1.882  1.00  0.00     0.103 C 
BRANCH  17  18
HETATM   18  C12 UNL     1      71.140  48.250   2.137  1.00  0.00     0.219 C 
HETATM   19  O1  UNL     1      71.291  47.183   2.820  1.00  0.00    -0.273 OA
HETATM   20  N5  UNL     1      72.258  48.966   1.639  1.00  0.00    -0.351 N 
HETATM   21  C13 UNL     1      73.640  48.595   1.838  1.00  0.00     0.126 C 
HETATM   22  C19 UNL     1      72.189  50.175   0.854  1.00  0.00     0.137 C 
HETATM   23  C14 UNL     1      74.459  49.810   1.514  1.00  0.00     0.032 C 
HETATM   24  C15 UNL     1      73.523  50.820   0.957  1.00  0.00     0.003 C 
HETATM   25  C16 UNL     1      74.008  51.361  -0.381  1.00  0.00     0.040 C 
HETATM   26  C18 UNL     1      73.491  52.098   1.781  1.00  0.00     0.243 C 
HETATM   27  C17 UNL     1      75.039  52.382   0.082  1.00  0.00     0.233 C 
HETATM   28  N6  UNL     1      74.235  53.098   1.083  1.00  0.00    -0.074 N 
ATOM     29  H62 UNL     1      74.789  53.695   1.697  1.00  0.00     0.277 HD
ATOM     30  H61 UNL     1      73.653  53.834   0.685  1.00  0.00     0.277 HD
ENDBRANCH  17  18
ENDBRANCH  16  17
ENDBRANCH  15  16
ENDBRANCH  14  15
ENDBRANCH  13  14
ENDBRANCH  12  13
ENDBRANCH  11  12
ENDBRANCH  10  11
ENDBRANCH   9  10
ENDBRANCH   7   9
TORSDOF 10
ENDMDL
MODEL 2
REMARK VINA RESULT: -6.612158039      1.325      1.994
REMARK  10 active torsions:
REMARK  status: ('A' for Active; 'I' for Inactive)
REMARK       I    between atoms: C2_5  and  N4_7 
REMARK    1  A    between atoms: N4_7  and  C3_9 
REMARK    2  A    between atoms: C3_9  and  C4_10 
REMARK    3  A    between atoms: C4_10  and  C5_11 
REMARK    4  A    between atoms: C5_11  and  C6_12 
REMARK    5  A    between atoms: C6_12  and  C7_13 
REMARK    6  A    between atoms: C7_13  and  C8_14 
REMARK    7  A    between atoms: C8_14  and  C9_15 
REMARK    8  A    between atoms: C9_15  and  C10_16 
REMARK    9  A    between atoms: C10_16  and  C11_17 
REMARK   10  A    between atoms: C11_17  and  C12_18 
REMARK       I    between atoms: C12_18  and  N5_20 
ROOT
HETATM    1  N1  UNL     1      69.124  53.569   0.983  1.00  0.00    -0.172 NA
HETATM    2  C1  UNL     1      68.801  54.480   0.345  1.00  0.00     0.184 C 
HETATM    3  N2  UNL     1      68.426  55.593  -0.409  1.00  0.00    -0.268 N 
ATOM      4  H2  UNL     1      68.416  56.499   0.060  1.00  0.00     0.180 HD
HETATM    5  C2  UNL     1      68.092  55.563  -1.648  1.00  0.00     0.197 C 
HETATM    6  N3  UNL     1      67.734  56.785  -2.277  1.00  0.00    -0.063 NA
HETATM    7  N4  UNL     1      68.070  54.372  -2.399  1.00  0.00    -0.364 N 
ATOM      8  H4  UNL     1      68.805  54.224  -3.091  1.00  0.00     0.162 HD
ENDROOT
BRANCH   7   9
HETATM    9  C3  UNL     1      67.063  53.350  -2.240  1.00  0.00     0.122 C 
BRANCH   9  10
HETATM   10  C4  UNL     1      67.523  52.012  -2.780  1.00  0.00     0.020 C 
BRANCH  10  11
HETATM   11  C5  UNL     1      68.825  51.669  -2.095  1.00  0.00     0.002 C 
BRANCH  11  12
HETATM   12  C6  UNL     1      68.908  50.175  -1.833  1.00  0.00     0.000 C 
BRANCH  12  13
HETATM   13  C7  UNL     1      68.526  49.804  -0.441  1.00  0.00     0.000 C 
BRANCH  13  14
HETATM   14  C8  UNL     1      68.912  48.375  -0.169  1.00  0.00     0.000 C 
BRANCH  14  15
HETATM   15  C9  UNL     1      68.923  48.030   1.301  1.00  0.00     0.000 C 
BRANCH  15  16
HETATM   16  C10 UNL     1      70.175  47.290   1.698  1.00  0.00     0.009 C 
BRANCH  16  17
HETATM   17  C11 UNL     1      71.013  48.017   2.694  1.00  0.00     0.103 C 
BRANCH  17  18
HETATM   18  C12 UNL     1      72.375  48.209   2.140  1.00  0.00     0.219 C 
HETATM   19  O1  UNL     1      73.245  47.307   2.379  1.00  0.00    -0.273 OA
HETATM   20  N5  UNL     1      72.698  49.355   1.371  1.00  0.00    -0.351 N 
HETATM   21  C13 UNL     1      73.994  49.631   0.794  1.00  0.00     0.126 C 
HETATM   22  C19 UNL     1      71.784  50.421   1.043  1.00  0.00     0.137 C 
HETATM   23  C14 UNL     1      74.000  51.088   0.438  1.00  0.00     0.032 C 
HETATM   24  C15 UNL     1      72.620  51.589   0.662  1.00  0.00     0.003 C 
HETATM   25  C16 UNL     1      72.077  52.313  -0.563  1.00  0.00     0.040 C 
HETATM   26  C18 UNL     1      72.567  52.705   1.694  1.00  0.00     0.243 C 
HETATM   27  C17 UNL     1      72.736  53.677  -0.403  1.00  0.00     0.233 C 
HETATM   28  N6  UNL     1      72.396  53.944   1.002  1.00  0.00    -0.074 N 
ATOM     29  H62 UNL     1      72.927  54.714   1.409  1.00  0.00     0.277 HD
ATOM     30  H61 UNL     1      71.470  54.353   1.125  1.00  0.00     0.277 HD
ENDBRANCH  17  18
ENDBRANCH  16  17
ENDBRANCH  15  16
ENDBRANCH  14  15
ENDBRANCH  13  14
ENDBRANCH  12  13
ENDBRANCH  11  12
ENDBRANCH  10  11
ENDBRANCH   9  10
ENDBRANCH   7   9
TORSDOF 10
ENDMDL
MODEL 3
REMARK VINA RESULT: -6.425633060      1.484      2.383
REMARK  10 active torsions:
REMARK  status: ('A' for Active; 'I' for Inactive)
REMARK       I    between atoms: C2_5  and  N4_7 
REMARK    1  A    between atoms: N4_7  and  C3_9 
REMARK    2  A    between atoms: C3_9  and  C4_10 
REMARK    3  A    between atoms: C4_10  and  C5_11 
REMARK    4  A    between atoms: C5_11  and  C6_12 
REMARK    5  A    between atoms: C6_12  and  C7_13 
REMARK    6  A    between atoms: C7_13  and  C8_14 
REMARK    7  A    between atoms: C8_14  and  C9_15 
REMARK    8  A    between atoms: C9_15  and  C10_16 
REMARK    9  A    between atoms: C10_16  and  C11_17 
REMARK   10  A    between atoms: C11_17  and  C12_18 
REMARK       I    between atoms: C12_18  and  N5_20 
ROOT
HETATM    1  N1  UNL     1      67.313  52.189  -3.137  1.00  0.00    -0.172 NA
HETATM    2  C1  UNL     1      67.388  53.331  -2.964  1.00  0.00     0.184 C 
HETATM    3  N2  UNL     1      67.456  54.711  -2.766  1.00  0.00    -0.268 N 
ATOM      4  H2  UNL     1      66.938  55.306  -3.412  1.00  0.00     0.180 HD
HETATM    5  C2  UNL     1      68.121  55.288  -1.831  1.00  0.00     0.197 C 
HETATM    6  N3  UNL     1      68.090  56.706  -1.762  1.00  0.00    -0.063 NA
HETATM    7  N4  UNL     1      68.871  54.569  -0.880  1.00  0.00    -0.364 N 
ATOM      8  H4  UNL     1      68.511  54.509   0.073  1.00  0.00     0.162 HD
ENDROOT
BRANCH   7   9
HETATM    9  C3  UNL     1      70.120  53.914  -1.182  1.00  0.00     0.122 C 
BRANCH   9  10
HETATM   10  C4  UNL     1      70.108  52.455  -0.777  1.00  0.00     0.020 C 
BRANCH  10  11
HETATM   11  C5  UNL     1      69.301  52.344   0.495  1.00  0.00     0.002 C 
BRANCH  11  12
HETATM   12  C6  UNL     1      68.699  50.956   0.621  1.00  0.00     0.000 C 
BRANCH  12  13
HETATM   13  C7  UNL     1      68.656  50.218  -0.674  1.00  0.00     0.000 C 
BRANCH  13  14
HETATM   14  C8  UNL     1      69.217  48.834  -0.494  1.00  0.00     0.000 C 
BRANCH  14  15
HETATM   15  C9  UNL     1      68.675  48.124   0.724  1.00  0.00     0.000 C 
BRANCH  15  16
HETATM   16  C10 UNL     1      69.760  47.418   1.496  1.00  0.00     0.009 C 
BRANCH  16  17
HETATM   17  C11 UNL     1      70.389  48.258   2.555  1.00  0.00     0.103 C 
BRANCH  17  18
HETATM   18  C12 UNL     1      71.858  48.055   2.531  1.00  0.00     0.219 C 
HETATM   19  O1  UNL     1      72.346  47.154   3.291  1.00  0.00    -0.273 OA
HETATM   20  N5  UNL     1      72.691  48.835   1.690  1.00  0.00    -0.351 N 
HETATM   21  C13 UNL     1      74.128  48.714   1.599  1.00  0.00     0.126 C 
HETATM   22  C19 UNL     1      72.235  49.868   0.792  1.00  0.00     0.137 C 
HETATM   23  C14 UNL     1      74.620  49.964   0.932  1.00  0.00     0.032 C 
HETATM   24  C15 UNL     1      73.417  50.713   0.487  1.00  0.00     0.003 C 
HETATM   25  C16 UNL     1      73.497  51.084  -0.987  1.00  0.00     0.040 C 
HETATM   26  C18 UNL     1      73.326  52.093   1.120  1.00  0.00     0.243 C 
HETATM   27  C17 UNL     1      74.396  52.312  -0.924  1.00  0.00     0.233 C 
HETATM   28  N6  UNL     1      73.707  53.059   0.138  1.00  0.00    -0.074 N 
ATOM     29  H62 UNL     1      74.259  53.829   0.517  1.00  0.00     0.277 HD
ATOM     30  H61 UNL     1      72.927  53.622  -0.202  1.00  0.00     0.277 HD
ENDBRANCH  17  18
ENDBRANCH  16  17
ENDBRANCH  15  16
ENDBRANCH  14  15
ENDBRANCH  13  14
ENDBRANCH  12  13
ENDBRANCH  11  12
ENDBRANCH  10  11
ENDBRANCH   9  10
ENDBRANCH   7   9
TORSDOF 10
ENDMDL
MODEL 4
REMARK VINA RESULT: -6.411704433      1.425      2.616
REMARK  10 active torsions:
REMARK  status: ('A' for Active; 'I' for Inactive)
REMARK       I    between atoms: C2_5  and  N4_7 
REMARK    1  A    between atoms: N4_7  and  C3_9 
REMARK    2  A    between atoms: C3_9  and  C4_10 
REMARK    3  A    between atoms: C4_10  and  C5_11 
REMARK    4  A    between atoms: C5_11  and  C6_12 
REMARK    5  A    between atoms: C6_12  and  C7_13 
REMARK    6  A    between atoms: C7_13  and  C8_14 
REMARK    7  A    between atoms: C8_14  and  C9_15 
REMARK    8  A    between atoms: C9_15  and  C10_16 
REMARK    9  A    between atoms: C10_16  and  C11_17 
REMARK   10  A    between atoms: C11_17  and  C12_18 
REMARK       I    between atoms: C12_18  and  N5_20 
ROOT
HETATM    1  N1  UNL     1      69.350  54.649   1.122  1.00  0.00    -0.172 NA
HETATM    2  C1  UNL     1      68.755  54.884   0.158  1.00  0.00     0.184 C 
HETATM    3  N2  UNL     1      68.039  55.191  -1.001  1.00  0.00    -0.268 N 
ATOM      4  H2  UNL     1      67.521  56.070  -1.016  1.00  0.00     0.180 HD
HETATM    5  C2  UNL     1      67.983  54.452  -2.049  1.00  0.00     0.197 C 
HETATM    6  N3  UNL     1      67.209  54.905  -3.150  1.00  0.00    -0.063 NA
HETATM    7  N4  UNL     1      68.658  53.220  -2.144  1.00  0.00    -0.364 N 
ATOM      8  H4  UNL     1      69.485  53.167  -2.739  1.00  0.00     0.162 HD
ENDROOT
BRANCH   7   9
HETATM    9  C3  UNL     1      68.242  52.028  -1.443  1.00  0.00     0.122 C 
BRANCH   9  10
HETATM   10  C4  UNL     1      68.476  50.777  -2.263  1.00  0.00     0.020 C 
BRANCH  10  11
HETATM   11  C5  UNL     1      69.407  49.885  -1.474  1.00  0.00     0.002 C 
BRANCH  11  12
HETATM   12  C6  UNL     1      68.896  49.713  -0.054  1.00  0.00     0.000 C 
BRANCH  12  13
HETATM   13  C7  UNL     1      68.408  48.333   0.227  1.00  0.00     0.000 C 
BRANCH  13  14
HETATM   14  C8  UNL     1      69.404  47.603   1.087  1.00  0.00     0.000 C 
BRANCH  14  15
HETATM   15  C9  UNL     1      69.688  48.300   2.395  1.00  0.00     0.000 C 
BRANCH  15  16
HETATM   16  C10 UNL     1      70.707  47.558   3.222  1.00  0.00     0.009 C 
BRANCH  16  17
HETATM   17  C11 UNL     1      71.951  47.212   2.475  1.00  0.00     0.103 C 
BRANCH  17  18
HETATM   18  C12 UNL     1      73.026  48.161   2.852  1.00  0.00     0.219 C 
HETATM   19  O1  UNL     1      73.678  47.925   3.923  1.00  0.00    -0.273 OA
HETATM   20  N5  UNL     1      73.320  49.291   2.048  1.00  0.00    -0.351 N 
HETATM   21  C13 UNL     1      74.343  50.270   2.332  1.00  0.00     0.126 C 
HETATM   22  C19 UNL     1      72.646  49.636   0.820  1.00  0.00     0.137 C 
HETATM   23  C14 UNL     1      74.037  51.467   1.481  1.00  0.00     0.032 C 
HETATM   24  C15 UNL     1      72.923  51.076   0.579  1.00  0.00     0.003 C 
HETATM   25  C16 UNL     1      73.250  51.365  -0.879  1.00  0.00     0.040 C 
HETATM   26  C18 UNL     1      71.690  51.946   0.769  1.00  0.00     0.243 C 
HETATM   27  C17 UNL     1      72.952  52.858  -0.947  1.00  0.00     0.233 C 
HETATM   28  N6  UNL     1      71.621  52.865  -0.324  1.00  0.00    -0.074 N 
ATOM     29  H62 UNL     1      71.305  53.796  -0.052  1.00  0.00     0.277 HD
ATOM     30  H61 UNL     1      70.866  52.663  -0.978  1.00  0.00     0.277 HD
ENDBRANCH  17  18
ENDBRANCH  16  17
ENDBRANCH  15  16
ENDBRANCH  14  15
ENDBRANCH  13  14
ENDBRANCH  12  13
ENDBRANCH  11  12
ENDBRANCH  10  11
ENDBRANCH   9  10
ENDBRANCH   7   9
TORSDOF 10
ENDMDL
MODEL 5
REMARK VINA RESULT: -6.388846547      2.774      6.430
REMARK  10 active torsions:
REMARK  status: ('A' for Active; 'I' for Inactive)
REMARK       I    between atoms: C2_5  and  N4_7 
REMARK    1  A    between atoms: N4_7  and  C3_9 
REMARK    2  A    between atoms: C3_9  and  C4_10 
REMARK    3  A    between atoms: C4_10  and  C5_11 
REMARK    4  A    between atoms: C5_11  and  C6_12 
REMARK    5  A    between atoms: C6_12  and  C7_13 
REMARK    6  A    between atoms: C7_13  and  C8_14 
REMARK    7  A    between atoms: C8_14  and  C9_15 
REMARK    8  A    between atoms: C9_15  and  C10_16 
REMARK    9  A    between atoms: C10_16  and  C11_17 
REMARK   10  A    between atoms: C11_17  and  C12_18 
REMARK       I    between atoms: C12_18  and  N5_20 
ROOT
HETATM    1  N1  UNL     1      73.705  49.189   1.261  1.00  0.00    -0.172 NA
HETATM    2  C1  UNL     1      73.078  48.577   2.017  1.00  0.00     0.184 C 
HETATM    3  N2  UNL     1      72.343  47.830   2.940  1.00  0.00    -0.268 N 
ATOM      4  H2  UNL     1      72.788  47.005   3.340  1.00  0.00     0.180 HD
HETATM    5  C2  UNL     1      71.150  48.105   3.324  1.00  0.00     0.197 C 
HETATM    6  N3  UNL     1      70.535  47.246   4.273  1.00  0.00    -0.063 NA
HETATM    7  N4  UNL     1      70.436  49.221   2.844  1.00  0.00    -0.364 N 
ATOM      8  H4  UNL     1      70.304  50.016   3.469  1.00  0.00     0.162 HD
ENDROOT
BRANCH   7   9
HETATM    9  C3  UNL     1      69.884  49.298   1.512  1.00  0.00     0.122 C 
BRANCH   9  10
HETATM   10  C4  UNL     1      69.108  48.049   1.148  1.00  0.00     0.020 C 
BRANCH  10  11
HETATM   11  C5  UNL     1      68.228  48.390  -0.032  1.00  0.00     0.002 C 
BRANCH  11  12
HETATM   12  C6  UNL     1      68.517  49.800  -0.518  1.00  0.00     0.000 C 
BRANCH  12  13
HETATM   13  C7  UNL     1      68.455  49.930  -2.002  1.00  0.00     0.000 C 
BRANCH  13  14
HETATM   14  C8  UNL     1      68.732  51.354  -2.403  1.00  0.00     0.000 C 
BRANCH  14  15
HETATM   15  C9  UNL     1      67.501  52.091  -2.873  1.00  0.00     0.000 C 
BRANCH  15  16
HETATM   16  C10 UNL     1      67.791  53.540  -3.172  1.00  0.00     0.009 C 
BRANCH  16  17
HETATM   17  C11 UNL     1      67.091  54.494  -2.264  1.00  0.00     0.103 C 
BRANCH  17  18
HETATM   18  C12 UNL     1      68.069  55.477  -1.740  1.00  0.00     0.219 C 
HETATM   19  O1  UNL     1      68.012  56.669  -2.190  1.00  0.00    -0.273 OA
HETATM   20  N5  UNL     1      69.034  55.105  -0.771  1.00  0.00    -0.351 N 
HETATM   21  C13 UNL     1      70.028  55.987  -0.204  1.00  0.00     0.126 C 
HETATM   22  C19 UNL     1      69.172  53.788  -0.198  1.00  0.00     0.137 C 
HETATM   23  C14 UNL     1      71.063  55.109   0.436  1.00  0.00     0.032 C 
HETATM   24  C15 UNL     1      70.541  53.720   0.375  1.00  0.00     0.003 C 
HETATM   25  C16 UNL     1      70.564  53.048   1.741  1.00  0.00     0.040 C 
HETATM   26  C18 UNL     1      71.456  52.791  -0.410  1.00  0.00     0.243 C 
HETATM   27  C17 UNL     1      72.027  52.633   1.830  1.00  0.00     0.233 C 
HETATM   28  N6  UNL     1      72.170  51.977   0.523  1.00  0.00    -0.074 N 
ATOM     29  H62 UNL     1      73.140  51.809   0.256  1.00  0.00     0.277 HD
ATOM     30  H61 UNL     1      71.871  51.002   0.523  1.00  0.00     0.277 HD
ENDBRANCH  17  18
ENDBRANCH  16  17
ENDBRANCH  15  16
ENDBRANCH  14  15
ENDBRANCH  13  14
ENDBRANCH  12  13
ENDBRANCH  11  12
ENDBRANCH  10  11
ENDBRANCH   9  10
ENDBRANCH   7   9
TORSDOF 10
ENDMDL
