MODEL 1
REMARK VINA RESULT: -9.460316941      0.000      0.000
REMARK  0 active torsions:
REMARK  status: ('A' for Active; 'I' for Inactive)
ROOT
HETATM    1  C1  UNL     1      34.265  44.958  10.812  1.00  0.00     0.017 C 
HETATM    2  C2  UNL     1      33.617  45.137   9.664  1.00  0.00    -0.057 C 
HETATM    3  C3  UNL     1      33.548  46.516   9.126  1.00  0.00     0.084 C 
HETATM    4  C4  UNL     1      33.352  46.475   7.670  1.00  0.00     0.169 A 
HETATM    5  O1  UNL     1      34.367  46.014   6.893  1.00  0.00    -0.336 OA
HETATM    6  C5  UNL     1      33.203  45.272   6.970  1.00  0.00     0.302 A 
HETATM    7  O2  UNL     1      33.129  44.064   7.575  1.00  0.00    -0.348 OA
HETATM    8  C6  UNL     1      32.977  44.012   8.925  1.00  0.00     0.153 C 
HETATM    9  C7  UNL     1      31.578  43.768   9.410  1.00  0.00     0.037 C 
HETATM   10  C8  UNL     1      30.491  44.158   8.496  1.00  0.00     0.010 C 
HETATM   11  C9  UNL     1      29.794  45.441   8.975  1.00  0.00     0.013 C 
HETATM   12  C10 UNL     1      28.592  45.086   9.829  1.00  0.00     0.012 C 
HETATM   13  C11 UNL     1      29.292  46.222   7.794  1.00  0.00     0.164 C 
HETATM   14  C12 UNL     1      28.169  47.159   8.143  1.00  0.00     0.035 C 
HETATM   15  C13 UNL     1      27.871  47.972   6.876  1.00  0.00     0.004 C 
HETATM   16  C14 UNL     1      27.580  49.405   7.181  1.00  0.00     0.027 C 
HETATM   17  C15 UNL     1      28.032  50.285   6.026  1.00  0.00     0.232 C 
HETATM   18  N1  UNL     1      29.462  50.181   5.902  1.00  0.00    -0.073 N 
ATOM     19  H11 UNL     1      29.723  49.446   5.246  1.00  0.00     0.277 HD
ATOM     20  H12 UNL     1      29.879  49.796   6.750  1.00  0.00     0.277 HD
HETATM   21  C16 UNL     1      30.069  51.441   5.545  1.00  0.00     0.259 C 
HETATM   22  C17 UNL     1      31.567  51.396   5.825  1.00  0.00     0.206 C 
HETATM   23  O3  UNL     1      32.163  50.655   4.779  1.00  0.00    -0.318 OA
HETATM   24  C18 UNL     1      32.815  49.453   4.955  1.00  0.00     0.282 C 
HETATM   25  O4  UNL     1      32.717  48.577   4.067  1.00  0.00    -0.263 OA
HETATM   26  C19 UNL     1      33.621  49.179   6.162  1.00  0.00     0.282 C 
HETATM   27  O5  UNL     1      32.880  48.808   7.257  1.00  0.00    -0.345 OA
HETATM   28  C20 UNL     1      32.376  47.518   7.190  1.00  0.00     0.337 C 
HETATM   29  O6  UNL     1      31.224  47.365   7.965  1.00  0.00    -0.204 OA
HETATM   30  O7  UNL     1      30.273  46.962   7.162  1.00  0.00    -0.233 OA
ENDROOT
TORSDOF 0
ENDMDL
MODEL 2
REMARK VINA RESULT: -8.670146865      1.764      2.524
REMARK  0 active torsions:
REMARK  status: ('A' for Active; 'I' for Inactive)
ROOT
HETATM    1  C1  UNL     1      37.352  45.502   9.480  1.00  0.00     0.017 C 
HETATM    2  C2  UNL     1      36.431  45.506   8.519  1.00  0.00    -0.057 C 
HETATM    3  C3  UNL     1      35.659  46.754   8.317  1.00  0.00     0.084 C 
HETATM    4  C4  UNL     1      35.152  46.810   6.938  1.00  0.00     0.169 A 
HETATM    5  O1  UNL     1      36.045  46.967   5.926  1.00  0.00    -0.336 OA
HETATM    6  C5  UNL     1      35.358  45.771   6.024  1.00  0.00     0.302 A 
HETATM    7  O2  UNL     1      35.949  44.599   6.352  1.00  0.00    -0.348 OA
HETATM    8  C6  UNL     1      36.166  44.314   7.664  1.00  0.00     0.153 C 
HETATM    9  C7  UNL     1      35.164  43.398   8.302  1.00  0.00     0.037 C 
HETATM   10  C8  UNL     1      33.827  43.357   7.684  1.00  0.00     0.010 C 
HETATM   11  C9  UNL     1      32.795  44.107   8.540  1.00  0.00     0.013 C 
HETATM   12  C10 UNL     1      32.101  43.136   9.477  1.00  0.00     0.012 C 
HETATM   13  C11 UNL     1      31.740  44.710   7.657  1.00  0.00     0.164 C 
HETATM   14  C12 UNL     1      30.449  44.976   8.380  1.00  0.00     0.035 C 
HETATM   15  C13 UNL     1      29.538  45.714   7.388  1.00  0.00     0.004 C 
HETATM   16  C14 UNL     1      28.755  46.803   8.044  1.00  0.00     0.027 C 
HETATM   17  C15 UNL     1      28.499  47.928   7.055  1.00  0.00     0.232 C 
HETATM   18  N1  UNL     1      29.763  48.508   6.682  1.00  0.00    -0.073 N 
ATOM     19  H11 UNL     1      30.141  48.063   5.846  1.00  0.00     0.277 HD
ATOM     20  H12 UNL     1      30.495  48.255   7.345  1.00  0.00     0.277 HD
HETATM   21  C16 UNL     1      29.677  49.940   6.518  1.00  0.00     0.259 C 
HETATM   22  C17 UNL     1      31.072  50.552   6.537  1.00  0.00     0.206 C 
HETATM   23  O3  UNL     1      31.651  50.304   5.271  1.00  0.00    -0.318 OA
HETATM   24  C18 UNL     1      32.770  49.523   5.069  1.00  0.00     0.282 C 
HETATM   25  O4  UNL     1      32.837  48.818   4.039  1.00  0.00    -0.263 OA
HETATM   26  C19 UNL     1      33.882  49.501   6.041  1.00  0.00     0.282 C 
HETATM   27  O5  UNL     1      33.658  48.698   7.132  1.00  0.00    -0.345 OA
HETATM   28  C20 UNL     1      33.743  47.340   6.864  1.00  0.00     0.337 C 
HETATM   29  O6  UNL     1      32.989  46.581   7.762  1.00  0.00    -0.204 OA
HETATM   30  O7  UNL     1      32.132  45.891   7.054  1.00  0.00    -0.233 OA
ENDROOT
TORSDOF 0
ENDMDL
MODEL 3
REMARK VINA RESULT: -8.540721671      2.019      5.630
REMARK  0 active torsions:
REMARK  status: ('A' for Active; 'I' for Inactive)
ROOT
HETATM    1  C1  UNL     1      34.248  48.434   3.236  1.00  0.00     0.017 C 
HETATM    2  C2  UNL     1      33.912  48.404   4.523  1.00  0.00    -0.057 C 
HETATM    3  C3  UNL     1      33.637  47.079   5.128  1.00  0.00     0.084 C 
HETATM    4  C4  UNL     1      33.861  47.137   6.580  1.00  0.00     0.169 A 
HETATM    5  O1  UNL     1      35.131  47.299   7.033  1.00  0.00    -0.336 OA
HETATM    6  C5  UNL     1      34.221  48.321   7.233  1.00  0.00     0.302 A 
HETATM    7  O2  UNL     1      34.300  49.519   6.611  1.00  0.00    -0.348 OA
HETATM    8  C6  UNL     1      33.807  49.640   5.349  1.00  0.00     0.153 C 
HETATM    9  C7  UNL     1      32.440  50.252   5.244  1.00  0.00     0.037 C 
HETATM   10  C8  UNL     1      31.579  50.138   6.433  1.00  0.00     0.010 C 
HETATM   11  C9  UNL     1      30.473  49.093   6.222  1.00  0.00     0.013 C 
HETATM   12  C10 UNL     1      29.218  49.769   5.703  1.00  0.00     0.012 C 
HETATM   13  C11 UNL     1      30.125  48.444   7.531  1.00  0.00     0.164 C 
HETATM   14  C12 UNL     1      28.748  47.841   7.541  1.00  0.00     0.035 C 
HETATM   15  C13 UNL     1      28.605  47.105   8.881  1.00  0.00     0.004 C 
HETATM   16  C14 UNL     1      27.884  45.805   8.736  1.00  0.00     0.027 C 
HETATM   17  C15 UNL     1      28.389  44.812   9.770  1.00  0.00     0.232 C 
HETATM   18  N1  UNL     1      29.776  44.536   9.503  1.00  0.00    -0.073 N 
ATOM     19  H11 UNL     1      30.385  45.162  10.028  1.00  0.00     0.277 HD
ATOM     20  H12 UNL     1      30.033  44.818   8.557  1.00  0.00     0.277 HD
HETATM   21  C16 UNL     1      30.112  43.153   9.747  1.00  0.00     0.259 C 
HETATM   22  C17 UNL     1      31.437  42.812   9.075  1.00  0.00     0.206 C 
HETATM   23  O3  UNL     1      32.464  43.348   9.886  1.00  0.00    -0.318 OA
HETATM   24  C18 UNL     1      33.331  44.342   9.484  1.00  0.00     0.282 C 
HETATM   25  O4  UNL     1      33.704  45.192  10.320  1.00  0.00    -0.263 OA
HETATM   26  C19 UNL     1      33.822  44.422   8.093  1.00  0.00     0.282 C 
HETATM   27  O5  UNL     1      32.934  45.000   7.218  1.00  0.00    -0.345 OA
HETATM   28  C20 UNL     1      32.816  46.375   7.354  1.00  0.00     0.337 C 
HETATM   29  O6  UNL     1      31.577  46.840   6.907  1.00  0.00    -0.204 OA
HETATM   30  O7  UNL     1      31.016  47.459   7.914  1.00  0.00    -0.233 OA
ENDROOT
TORSDOF 0
ENDMDL
MODEL 4
REMARK VINA RESULT: -8.194884213      1.704      2.485
REMARK  0 active torsions:
REMARK  status: ('A' for Active; 'I' for Inactive)
ROOT
HETATM    1  C1  UNL     1      34.409  46.924   9.238  1.00  0.00     0.017 C 
HETATM    2  C2  UNL     1      33.517  47.139   8.273  1.00  0.00    -0.057 C 
HETATM    3  C3  UNL     1      32.895  48.482   8.203  1.00  0.00     0.084 C 
HETATM    4  C4  UNL     1      32.430  48.746   6.835  1.00  0.00     0.169 A 
HETATM    5  O1  UNL     1      33.358  48.911   5.856  1.00  0.00    -0.336 OA
HETATM    6  C5  UNL     1      32.540  47.797   5.812  1.00  0.00     0.302 A 
HETATM    7  O2  UNL     1      32.988  46.537   6.013  1.00  0.00    -0.348 OA
HETATM    8  C6  UNL     1      33.141  46.087   7.287  1.00  0.00     0.153 C 
HETATM    9  C7  UNL     1      32.027  45.226   7.808  1.00  0.00     0.037 C 
HETATM   10  C8  UNL     1      30.709  45.406   7.174  1.00  0.00     0.010 C 
HETATM   11  C9  UNL     1      29.747  46.170   8.097  1.00  0.00     0.013 C 
HETATM   12  C10 UNL     1      28.927  45.187   8.912  1.00  0.00     0.012 C 
HETATM   13  C11 UNL     1      28.788  46.983   7.276  1.00  0.00     0.164 C 
HETATM   14  C12 UNL     1      27.518  47.313   8.010  1.00  0.00     0.035 C 
HETATM   15  C13 UNL     1      26.719  48.254   7.097  1.00  0.00     0.004 C 
HETATM   16  C14 UNL     1      26.048  49.347   7.862  1.00  0.00     0.027 C 
HETATM   17  C15 UNL     1      25.943  50.596   7.002  1.00  0.00     0.232 C 
HETATM   18  N1  UNL     1      27.273  51.065   6.711  1.00  0.00    -0.073 N 
ATOM     19  H11 UNL     1      27.618  50.675   5.835  1.00  0.00     0.277 HD
ATOM     20  H12 UNL     1      27.956  50.659   7.349  1.00  0.00     0.277 HD
HETATM   21  C16 UNL     1      27.351  52.507   6.708  1.00  0.00     0.259 C 
HETATM   22  C17 UNL     1      28.806  52.951   6.810  1.00  0.00     0.206 C 
HETATM   23  O3  UNL     1      29.383  52.779   5.530  1.00  0.00    -0.318 OA
HETATM   24  C18 UNL     1      30.412  51.902   5.255  1.00  0.00     0.282 C 
HETATM   25  O4  UNL     1      30.423  51.312   4.153  1.00  0.00    -0.263 OA
HETATM   26  C19 UNL     1      31.491  51.647   6.230  1.00  0.00     0.282 C 
HETATM   27  O5  UNL     1      31.152  50.759   7.222  1.00  0.00    -0.345 OA
HETATM   28  C20 UNL     1      31.091  49.438   6.805  1.00  0.00     0.337 C 
HETATM   29  O6  UNL     1      30.236  48.676   7.603  1.00  0.00    -0.204 OA
HETATM   30  O7  UNL     1      29.324  48.170   6.813  1.00  0.00    -0.233 OA
ENDROOT
TORSDOF 0
ENDMDL
MODEL 5
REMARK VINA RESULT: -8.190206618      2.635      4.561
REMARK  0 active torsions:
REMARK  status: ('A' for Active; 'I' for Inactive)
ROOT
HETATM    1  C1  UNL     1      38.589  46.902   8.495  1.00  0.00     0.017 C 
HETATM    2  C2  UNL     1      37.533  46.508   7.787  1.00  0.00    -0.057 C 
HETATM    3  C3  UNL     1      36.252  47.215   8.015  1.00  0.00     0.084 C 
HETATM    4  C4  UNL     1      35.397  47.097   6.826  1.00  0.00     0.169 A 
HETATM    5  O1  UNL     1      35.775  47.741   5.691  1.00  0.00    -0.336 OA
HETATM    6  C5  UNL     1      35.780  46.359   5.700  1.00  0.00     0.302 A 
HETATM    7  O2  UNL     1      36.912  45.619   5.647  1.00  0.00    -0.348 OA
HETATM    8  C6  UNL     1      37.610  45.399   6.793  1.00  0.00     0.153 C 
HETATM    9  C7  UNL     1      37.380  44.067   7.445  1.00  0.00     0.037 C 
HETATM   10  C8  UNL     1      36.099  43.404   7.147  1.00  0.00     0.010 C 
HETATM   11  C9  UNL     1      35.140  43.484   8.345  1.00  0.00     0.013 C 
HETATM   12  C10 UNL     1      35.282  42.240   9.202  1.00  0.00     0.012 C 
HETATM   13  C11 UNL     1      33.719  43.536   7.860  1.00  0.00     0.164 C 
HETATM   14  C12 UNL     1      32.727  43.077   8.893  1.00  0.00     0.035 C 
HETATM   15  C13 UNL     1      31.334  43.323   8.299  1.00  0.00     0.004 C 
HETATM   16  C14 UNL     1      30.369  43.833   9.317  1.00  0.00     0.027 C 
HETATM   17  C15 UNL     1      29.344  44.741   8.655  1.00  0.00     0.232 C 
HETATM   18  N1  UNL     1      30.026  45.896   8.131  1.00  0.00    -0.073 N 
ATOM     19  H11 UNL     1      30.302  45.752   7.160  1.00  0.00     0.277 HD
ATOM     20  H12 UNL     1      30.950  46.000   8.549  1.00  0.00     0.277 HD
HETATM   21  C16 UNL     1      29.245  47.101   8.279  1.00  0.00     0.259 C 
HETATM   22  C17 UNL     1      30.137  48.325   8.105  1.00  0.00     0.206 C 
HETATM   23  O3  UNL     1      30.365  48.479   6.718  1.00  0.00    -0.318 OA
HETATM   24  C18 UNL     1      31.602  48.374   6.119  1.00  0.00     0.282 C 
HETATM   25  O4  UNL     1      31.681  47.863   4.980  1.00  0.00    -0.263 OA
HETATM   26  C19 UNL     1      32.829  48.848   6.791  1.00  0.00     0.282 C 
HETATM   27  O5  UNL     1      33.332  47.973   7.723  1.00  0.00    -0.345 OA
HETATM   28  C20 UNL     1      33.951  46.858   7.177  1.00  0.00     0.337 C 
HETATM   29  O6  UNL     1      33.933  45.769   8.052  1.00  0.00    -0.204 OA
HETATM   30  O7  UNL     1      33.326  44.790   7.432  1.00  0.00    -0.233 OA
ENDROOT
TORSDOF 0
ENDMDL
