MODEL 1
REMARK VINA RESULT: -5.971051727      0.000      0.000
REMARK  4 active torsions:
REMARK  status: ('A' for Active; 'I' for Inactive)
REMARK    1  A    between atoms: C3_4  and  C4_5 
REMARK    2  A    between atoms: C5_7  and  N2_8 
REMARK    3  A    between atoms: N3_10  and  C6_12 
REMARK    4  A    between atoms: C7_15  and  O1_16 
ROOT
HETATM    1  C1  UNL     1     -14.508  15.695   0.907  1.00  0.00     0.158 C 
HETATM    2  N1  UNL     1     -14.541  14.758   2.021  1.00  0.00    -0.340 N 
HETATM    3  C2  UNL     1     -15.138  13.565   2.100  1.00  0.00     0.103 A 
HETATM    4  C3  UNL     1     -14.945  12.980   3.316  1.00  0.00     0.004 A 
HETATM    5  C5  UNL     1     -14.177  13.859   4.052  1.00  0.00     0.107 A 
HETATM    6  C7  UNL     1     -13.945  14.941   3.230  1.00  0.00     0.171 A 
ENDROOT
BRANCH   5   7
HETATM    7  N2  UNL     1     -13.722  13.674   5.385  1.00  0.00    -0.294 N 
HETATM    8  N3  UNL     1     -14.312  14.223   6.360  1.00  0.00    -0.278 N 
ATOM      9  H3  UNL     1     -13.935  14.048   7.291  1.00  0.00     0.189 HD
ATOM     10  H2  UNL     1     -12.905  13.088   5.559  1.00  0.00     0.187 HD
BRANCH   8  11
HETATM   11  C6  UNL     1     -15.444  15.053   6.271  1.00  0.00     0.199 C 
HETATM   12  N4  UNL     1     -16.734  14.503   6.038  1.00  0.00    -0.068 NA
HETATM   13  S1  UNL     1     -15.343  16.690   6.429  1.00  0.00    -0.043 SA
ENDBRANCH   8  11
ENDBRANCH   5   7
BRANCH   4  14
HETATM   14  C4  UNL     1     -15.426  11.656   3.848  1.00  0.00     0.157 C 
HETATM   15 CL1  UNL     1     -15.471  10.506   2.486  1.00  0.00    -0.125 Cl
ENDBRANCH   4  14
BRANCH   6  16
HETATM   16  O1  UNL     1     -13.205  16.086   3.560  1.00  0.00    -0.344 OA
ATOM     17  H1  UNL     1     -12.658  16.150   4.334  1.00  0.00     0.219 HD
ENDBRANCH   6  16
TORSDOF 4
ENDMDL
MODEL 2
REMARK VINA RESULT: -5.952438599      2.483      3.086
REMARK  4 active torsions:
REMARK  status: ('A' for Active; 'I' for Inactive)
REMARK    1  A    between atoms: C3_4  and  C4_5 
REMARK    2  A    between atoms: C5_7  and  N2_8 
REMARK    3  A    between atoms: N3_10  and  C6_12 
REMARK    4  A    between atoms: C7_15  and  O1_16 
ROOT
HETATM    1  C1  UNL     1     -16.870  11.241   2.353  1.00  0.00     0.158 C 
HETATM    2  N1  UNL     1     -15.889  12.143   2.940  1.00  0.00    -0.340 N 
HETATM    3  C2  UNL     1     -15.196  13.126   2.358  1.00  0.00     0.103 A 
HETATM    4  C3  UNL     1     -14.366  13.752   3.240  1.00  0.00     0.004 A 
HETATM    5  C5  UNL     1     -14.547  13.124   4.456  1.00  0.00     0.107 A 
HETATM    6  C7  UNL     1     -15.487  12.140   4.240  1.00  0.00     0.171 A 
ENDROOT
BRANCH   5   7
HETATM    7  N2  UNL     1     -13.891  13.439   5.676  1.00  0.00    -0.294 N 
HETATM    8  N3  UNL     1     -14.308  14.371   6.422  1.00  0.00    -0.278 N 
ATOM      9  H3  UNL     1     -13.792  14.545   7.284  1.00  0.00     0.189 HD
ATOM     10  H2  UNL     1     -13.068  12.904   5.955  1.00  0.00     0.187 HD
BRANCH   8  11
HETATM   11  C6  UNL     1     -15.423  15.190   6.166  1.00  0.00     0.199 C 
HETATM   12  N4  UNL     1     -16.744  14.710   6.385  1.00  0.00    -0.068 NA
HETATM   13  S1  UNL     1     -15.267  16.730   5.603  1.00  0.00    -0.043 SA
ENDBRANCH   8  11
ENDBRANCH   5   7
BRANCH   4  14
HETATM   14  C4  UNL     1     -13.411  14.897   3.034  1.00  0.00     0.157 C 
HETATM   15 CL1  UNL     1     -14.195  16.072   1.946  1.00  0.00    -0.125 Cl
ENDBRANCH   4  14
BRANCH   6  16
HETATM   16  O1  UNL     1     -15.984  11.247   5.199  1.00  0.00    -0.344 OA
ATOM     17  H1  UNL     1     -15.456  10.886   5.902  1.00  0.00     0.219 HD
ENDBRANCH   6  16
TORSDOF 4
ENDMDL
MODEL 3
REMARK VINA RESULT: -5.750401036      3.324      3.758
REMARK  4 active torsions:
REMARK  status: ('A' for Active; 'I' for Inactive)
REMARK    1  A    between atoms: C3_4  and  C4_5 
REMARK    2  A    between atoms: C5_7  and  N2_8 
REMARK    3  A    between atoms: N3_10  and  C6_12 
REMARK    4  A    between atoms: C7_15  and  O1_16 
ROOT
HETATM    1  C1  UNL     1     -19.515  13.444   1.481  1.00  0.00     0.158 C 
HETATM    2  N1  UNL     1     -18.413  12.630   1.972  1.00  0.00    -0.340 N 
HETATM    3  C2  UNL     1     -17.528  11.906   1.280  1.00  0.00     0.103 A 
HETATM    4  C3  UNL     1     -16.638  11.276   2.097  1.00  0.00     0.004 A 
HETATM    5  C5  UNL     1     -16.983  11.623   3.388  1.00  0.00     0.107 A 
HETATM    6  C7  UNL     1     -18.076  12.455   3.279  1.00  0.00     0.171 A 
ENDROOT
BRANCH   5   7
HETATM    7  N2  UNL     1     -16.333  11.203   4.580  1.00  0.00    -0.294 N 
HETATM    8  N3  UNL     1     -15.649  12.010   5.272  1.00  0.00    -0.278 N 
ATOM      9  H3  UNL     1     -15.210  11.644   6.117  1.00  0.00     0.189 HD
ATOM     10  H2  UNL     1     -16.419  10.232   4.882  1.00  0.00     0.187 HD
BRANCH   8  11
HETATM   11  C6  UNL     1     -15.442  13.370   4.979  1.00  0.00     0.199 C 
HETATM   12  N4  UNL     1     -16.215  14.379   5.618  1.00  0.00    -0.068 NA
HETATM   13  S1  UNL     1     -14.309  13.869   3.892  1.00  0.00    -0.043 SA
ENDBRANCH   8  11
ENDBRANCH   5   7
BRANCH   4  14
HETATM   14  C4  UNL     1     -15.485  10.366   1.766  1.00  0.00     0.157 C 
HETATM   15 CL1  UNL     1     -15.126  10.554   0.029  1.00  0.00    -0.125 Cl
ENDBRANCH   4  14
BRANCH   6  16
HETATM   16  O1  UNL     1     -18.768  13.055   4.340  1.00  0.00    -0.344 OA
ATOM     17  H1  UNL     1     -19.375  13.777   4.227  1.00  0.00     0.219 HD
ENDBRANCH   6  16
TORSDOF 4
ENDMDL
MODEL 4
REMARK VINA RESULT: -5.715216188      2.881      3.508
REMARK  4 active torsions:
REMARK  status: ('A' for Active; 'I' for Inactive)
REMARK    1  A    between atoms: C3_4  and  C4_5 
REMARK    2  A    between atoms: C5_7  and  N2_8 
REMARK    3  A    between atoms: N3_10  and  C6_12 
REMARK    4  A    between atoms: C7_15  and  O1_16 
ROOT
HETATM    1  C1  UNL     1     -15.483  10.553   1.577  1.00  0.00     0.158 C 
HETATM    2  N1  UNL     1     -15.265  11.697   2.452  1.00  0.00    -0.340 N 
HETATM    3  C2  UNL     1     -14.581  12.820   2.212  1.00  0.00     0.103 A 
HETATM    4  C3  UNL     1     -14.601  13.663   3.284  1.00  0.00     0.004 A 
HETATM    5  C5  UNL     1     -15.344  13.032   4.261  1.00  0.00     0.107 A 
HETATM    6  C7  UNL     1     -15.737  11.826   3.721  1.00  0.00     0.171 A 
ENDROOT
BRANCH   5   7
HETATM    7  N2  UNL     1     -15.638  13.534   5.557  1.00  0.00    -0.294 N 
HETATM    8  N3  UNL     1     -16.647  14.268   5.761  1.00  0.00    -0.278 N 
ATOM      9  H3  UNL     1     -16.801  14.594   6.716  1.00  0.00     0.189 HD
ATOM     10  H2  UNL     1     -15.023  13.299   6.337  1.00  0.00     0.187 HD
BRANCH   8  11
HETATM   11  C6  UNL     1     -17.577  14.673   4.787  1.00  0.00     0.199 C 
HETATM   12  N4  UNL     1     -18.605  13.793   4.351  1.00  0.00    -0.068 NA
HETATM   13  S1  UNL     1     -17.529  16.170   4.101  1.00  0.00    -0.043 SA
ENDBRANCH   8  11
ENDBRANCH   5   7
BRANCH   4  14
HETATM   14  C4  UNL     1     -13.975  15.020   3.468  1.00  0.00     0.157 C 
HETATM   15 CL1  UNL     1     -14.173  15.922   1.942  1.00  0.00    -0.125 Cl
ENDBRANCH   4  14
BRANCH   6  16
HETATM   16  O1  UNL     1     -16.515  10.849   4.358  1.00  0.00    -0.344 OA
ATOM     17  H1  UNL     1     -17.448  10.941   4.511  1.00  0.00     0.219 HD
ENDBRANCH   6  16
TORSDOF 4
ENDMDL
MODEL 5
REMARK VINA RESULT: -5.604580575      3.321      3.870
REMARK  4 active torsions:
REMARK  status: ('A' for Active; 'I' for Inactive)
REMARK    1  A    between atoms: C3_4  and  C4_5 
REMARK    2  A    between atoms: C5_7  and  N2_8 
REMARK    3  A    between atoms: N3_10  and  C6_12 
REMARK    4  A    between atoms: C7_15  and  O1_16 
ROOT
HETATM    1  C1  UNL     1     -19.629  13.332   1.284  1.00  0.00     0.158 C 
HETATM    2  N1  UNL     1     -18.494  12.602   1.832  1.00  0.00    -0.340 N 
HETATM    3  C2  UNL     1     -17.482  12.014   1.188  1.00  0.00     0.103 A 
HETATM    4  C3  UNL     1     -16.606  11.426   2.050  1.00  0.00     0.004 A 
HETATM    5  C5  UNL     1     -17.096  11.656   3.320  1.00  0.00     0.107 A 
HETATM    6  C7  UNL     1     -18.256  12.381   3.153  1.00  0.00     0.171 A 
ENDROOT
BRANCH   5   7
HETATM    7  N2  UNL     1     -16.512  11.229   4.543  1.00  0.00    -0.294 N 
HETATM    8  N3  UNL     1     -15.730  11.981   5.192  1.00  0.00    -0.278 N 
ATOM      9  H3  UNL     1     -15.346  11.614   6.063  1.00  0.00     0.189 HD
ATOM     10  H2  UNL     1     -16.728  10.299   4.903  1.00  0.00     0.187 HD
BRANCH   8  11
HETATM   11  C6  UNL     1     -15.344  13.281   4.819  1.00  0.00     0.199 C 
HETATM   12  N4  UNL     1     -14.260  13.488   3.921  1.00  0.00    -0.068 NA
HETATM   13  S1  UNL     1     -16.111  14.621   5.391  1.00  0.00    -0.043 SA
ENDBRANCH   8  11
ENDBRANCH   5   7
BRANCH   4  14
HETATM   14  C4  UNL     1     -15.339  10.657   1.780  1.00  0.00     0.157 C 
HETATM   15 CL1  UNL     1     -15.147  10.531   0.011  1.00  0.00    -0.125 Cl
ENDBRANCH   4  14
BRANCH   6  16
HETATM   16  O1  UNL     1     -19.097  12.843   4.176  1.00  0.00    -0.344 OA
ATOM     17  H1  UNL     1     -19.663  13.600   4.086  1.00  0.00     0.219 HD
ENDBRANCH   6  16
TORSDOF 4
ENDMDL
