MODEL 1
REMARK VINA RESULT: -7.006244369      0.000      0.000
REMARK  2 active torsions:
REMARK  status: ('A' for Active; 'I' for Inactive)
REMARK    1  A    between atoms: N4_11  and  N5_12 
REMARK    2  A    between atoms: N5_12  and  C3_14 
ROOT
HETATM    1  N1  UNL     1     -13.670  13.678   5.886  1.00  0.00    -0.231 N 
ATOM      2  H11 UNL     1     -12.886  14.330   5.927  1.00  0.00     0.174 HD
ATOM      3  H12 UNL     1     -13.383  12.756   6.215  1.00  0.00     0.174 HD
HETATM    4  C1  UNL     1     -14.875  13.972   5.473  1.00  0.00     0.714 A 
HETATM    5  N2  UNL     1     -15.908  13.115   5.420  1.00  0.00    -0.128 N 
ATOM      6  H2  UNL     1     -15.906  12.130   5.687  1.00  0.00     0.205 HD
HETATM    7  N3  UNL     1     -16.926  13.812   4.949  1.00  0.00    -0.260 N 
ATOM      8  H3  UNL     1     -17.862  13.440   4.791  1.00  0.00     0.190 HD
HETATM    9  C2  UNL     1     -16.555  15.080   4.707  1.00  0.00     0.230 A 
HETATM   10  S1  UNL     1     -17.467  16.316   4.119  1.00  0.00    -0.037 SA
HETATM   11  N4  UNL     1     -15.254  15.191   5.037  1.00  0.00    -0.057 N 
ENDROOT
BRANCH  11  12
HETATM   12  N5  UNL     1     -14.462  16.313   4.951  1.00  0.00    -0.284 N 
ATOM     13  H5  UNL     1     -13.836  16.376   4.148  1.00  0.00     0.187 HD
BRANCH  12  14
HETATM   14  C3  UNL     1     -14.435  17.285   5.784  1.00  0.00     0.023 C 
HETATM   15  C4  UNL     1     -15.156  17.161   7.059  1.00  0.00     0.056 C 
HETATM   16  C5  UNL     1     -15.701  18.459   7.575  1.00  0.00     0.006 C 
HETATM   17  C6  UNL     1     -14.703  19.574   7.457  1.00  0.00     0.002 C 
HETATM   18  C7  UNL     1     -14.121  19.735   6.100  1.00  0.00     0.026 C 
HETATM   19  C8  UNL     1     -13.687  18.482   5.435  1.00  0.00     0.129 C 
HETATM   20 CL1  UNL     1     -13.758  18.776   3.661  1.00  0.00    -0.119 Cl
ENDBRANCH  12  14
ENDBRANCH  11  12
TORSDOF 2
ENDMDL
MODEL 2
REMARK VINA RESULT: -6.974446159      3.542      4.568
REMARK  2 active torsions:
REMARK  status: ('A' for Active; 'I' for Inactive)
REMARK    1  A    between atoms: N4_11  and  N5_12 
REMARK    2  A    between atoms: N5_12  and  C3_14 
ROOT
HETATM    1  N1  UNL     1     -14.685  15.354   6.612  1.00  0.00    -0.231 N 
ATOM      2  H11 UNL     1     -15.490  15.975   6.694  1.00  0.00     0.174 HD
ATOM      3  H12 UNL     1     -13.893  15.728   7.136  1.00  0.00     0.174 HD
HETATM    4  C1  UNL     1     -14.659  14.236   5.936  1.00  0.00     0.714 A 
HETATM    5  N2  UNL     1     -13.599  13.418   5.829  1.00  0.00    -0.128 N 
ATOM      6  H2  UNL     1     -12.678  13.544   6.249  1.00  0.00     0.205 HD
HETATM    7  N3  UNL     1     -13.998  12.416   5.066  1.00  0.00    -0.260 N 
ATOM      8  H3  UNL     1     -13.416  11.623   4.796  1.00  0.00     0.190 HD
HETATM    9  C2  UNL     1     -15.278  12.588   4.695  1.00  0.00     0.230 A 
HETATM   10  S1  UNL     1     -16.207  11.613   3.751  1.00  0.00    -0.037 SA
HETATM   11  N4  UNL     1     -15.706  13.741   5.243  1.00  0.00    -0.057 N 
ENDROOT
BRANCH  11  12
HETATM   12  N5  UNL     1     -16.954  14.310   5.127  1.00  0.00    -0.284 N 
ATOM     13  H5  UNL     1     -17.643  14.061   5.837  1.00  0.00     0.187 HD
BRANCH  12  14
HETATM   14  C3  UNL     1     -17.331  15.123   4.213  1.00  0.00     0.023 C 
HETATM   15  C4  UNL     1     -16.843  16.510   4.237  1.00  0.00     0.056 C 
HETATM   16  C5  UNL     1     -17.823  17.506   3.692  1.00  0.00     0.006 C 
HETATM   17  C6  UNL     1     -18.467  17.025   2.424  1.00  0.00     0.002 C 
HETATM   18  C7  UNL     1     -19.070  15.671   2.517  1.00  0.00     0.026 C 
HETATM   19  C8  UNL     1     -18.234  14.641   3.180  1.00  0.00     0.129 C 
HETATM   20 CL1  UNL     1     -19.357  13.405   3.850  1.00  0.00    -0.119 Cl
ENDBRANCH  12  14
ENDBRANCH  11  12
TORSDOF 2
ENDMDL
MODEL 3
REMARK VINA RESULT: -6.746310588      3.629      5.968
REMARK  2 active torsions:
REMARK  status: ('A' for Active; 'I' for Inactive)
REMARK    1  A    between atoms: N4_11  and  N5_12 
REMARK    2  A    between atoms: N5_12  and  C3_14 
ROOT
HETATM    1  N1  UNL     1     -13.894  13.406   5.339  1.00  0.00    -0.231 N 
ATOM      2  H11 UNL     1     -13.366  13.112   4.516  1.00  0.00     0.174 HD
ATOM      3  H12 UNL     1     -13.348  13.249   6.186  1.00  0.00     0.174 HD
HETATM    4  C1  UNL     1     -15.099  13.913   5.321  1.00  0.00     0.714 A 
HETATM    5  N2  UNL     1     -15.794  14.300   6.403  1.00  0.00    -0.128 N 
ATOM      6  H2  UNL     1     -15.492  14.258   7.377  1.00  0.00     0.205 HD
HETATM    7  N3  UNL     1     -16.949  14.748   5.944  1.00  0.00    -0.260 N 
ATOM      8  H3  UNL     1     -17.702  15.116   6.525  1.00  0.00     0.190 HD
HETATM    9  C2  UNL     1     -16.992  14.649   4.605  1.00  0.00     0.230 A 
HETATM   10  S1  UNL     1     -18.213  15.075   3.589  1.00  0.00    -0.037 SA
HETATM   11  N4  UNL     1     -15.822  14.120   4.201  1.00  0.00    -0.057 N 
ENDROOT
BRANCH  11  12
HETATM   12  N5  UNL     1     -15.430  13.841   2.911  1.00  0.00    -0.284 N 
ATOM     13  H5  UNL     1     -14.789  14.500   2.471  1.00  0.00     0.187 HD
BRANCH  12  14
HETATM   14  C3  UNL     1     -15.795  12.832   2.212  1.00  0.00     0.023 C 
HETATM   15  C4  UNL     1     -15.325  11.490   2.585  1.00  0.00     0.056 C 
HETATM   16  C5  UNL     1     -15.136  10.568   1.418  1.00  0.00     0.006 C 
HETATM   17  C6  UNL     1     -16.278  10.651   0.446  1.00  0.00     0.002 C 
HETATM   18  C7  UNL     1     -16.604  12.029  -0.002  1.00  0.00     0.026 C 
HETATM   19  C8  UNL     1     -16.665  13.054   1.069  1.00  0.00     0.129 C 
HETATM   20 CL1  UNL     1     -16.305  14.640   0.299  1.00  0.00    -0.119 Cl
ENDBRANCH  12  14
ENDBRANCH  11  12
TORSDOF 2
ENDMDL
MODEL 4
REMARK VINA RESULT: -6.699667851      3.297      4.597
REMARK  2 active torsions:
REMARK  status: ('A' for Active; 'I' for Inactive)
REMARK    1  A    between atoms: N4_11  and  N5_12 
REMARK    2  A    between atoms: N5_12  and  C3_14 
ROOT
HETATM    1  N1  UNL     1     -15.284  12.862   4.455  1.00  0.00    -0.231 N 
ATOM      2  H11 UNL     1     -16.142  12.795   3.906  1.00  0.00     0.174 HD
ATOM      3  H12 UNL     1     -14.601  12.178   4.132  1.00  0.00     0.174 HD
HETATM    4  C1  UNL     1     -15.079  13.703   5.436  1.00  0.00     0.714 A 
HETATM    5  N2  UNL     1     -13.951  13.792   6.158  1.00  0.00    -0.128 N 
ATOM      6  H2  UNL     1     -13.105  13.231   6.052  1.00  0.00     0.205 HD
HETATM    7  N3  UNL     1     -14.164  14.757   7.034  1.00  0.00    -0.260 N 
ATOM      8  H3  UNL     1     -13.488  15.068   7.732  1.00  0.00     0.190 HD
HETATM    9  C2  UNL     1     -15.395  15.271   6.877  1.00  0.00     0.230 A 
HETATM   10  S1  UNL     1     -16.111  16.484   7.727  1.00  0.00    -0.037 SA
HETATM   11  N4  UNL     1     -15.984  14.608   5.864  1.00  0.00    -0.057 N 
ENDROOT
BRANCH  11  12
HETATM   12  N5  UNL     1     -17.249  14.803   5.359  1.00  0.00    -0.284 N 
ATOM     13  H5  UNL     1     -18.026  14.424   5.901  1.00  0.00     0.187 HD
BRANCH  12  14
HETATM   14  C3  UNL     1     -17.544  15.414   4.274  1.00  0.00     0.023 C 
HETATM   15  C4  UNL     1     -17.215  16.840   4.139  1.00  0.00     0.056 C 
HETATM   16  C5  UNL     1     -18.184  17.607   3.288  1.00  0.00     0.006 C 
HETATM   17  C6  UNL     1     -18.541  16.862   2.034  1.00  0.00     0.002 C 
HETATM   18  C7  UNL     1     -19.006  15.469   2.259  1.00  0.00     0.026 C 
HETATM   19  C8  UNL     1     -18.196  14.668   3.209  1.00  0.00     0.129 C 
HETATM   20 CL1  UNL     1     -19.283  13.409   3.894  1.00  0.00    -0.119 Cl
ENDBRANCH  12  14
ENDBRANCH  11  12
TORSDOF 2
ENDMDL
MODEL 5
REMARK VINA RESULT: -6.597222085      4.119      6.567
REMARK  2 active torsions:
REMARK  status: ('A' for Active; 'I' for Inactive)
REMARK    1  A    between atoms: N4_11  and  N5_12 
REMARK    2  A    between atoms: N5_12  and  C3_14 
ROOT
HETATM    1  N1  UNL     1     -15.635  11.818   5.340  1.00  0.00    -0.231 N 
ATOM      2  H11 UNL     1     -16.505  11.440   4.963  1.00  0.00     0.174 HD
ATOM      3  H12 UNL     1     -15.382  11.334   6.201  1.00  0.00     0.174 HD
HETATM    4  C1  UNL     1     -14.936  12.784   4.804  1.00  0.00     0.714 A 
HETATM    5  N2  UNL     1     -13.792  13.282   5.300  1.00  0.00    -0.128 N 
ATOM      6  H2  UNL     1     -13.308  12.987   6.148  1.00  0.00     0.205 HD
HETATM    7  N3  UNL     1     -13.423  14.232   4.460  1.00  0.00    -0.260 N 
ATOM      8  H3  UNL     1     -12.584  14.804   4.561  1.00  0.00     0.190 HD
HETATM    9  C2  UNL     1     -14.307  14.340   3.455  1.00  0.00     0.230 A 
HETATM   10  S1  UNL     1     -14.278  15.375   2.176  1.00  0.00    -0.037 SA
HETATM   11  N4  UNL     1     -15.272  13.425   3.665  1.00  0.00    -0.057 N 
ENDROOT
BRANCH  11  12
HETATM   12  N5  UNL     1     -16.380  13.182   2.885  1.00  0.00    -0.284 N 
ATOM     13  H5  UNL     1     -17.238  13.674   3.136  1.00  0.00     0.187 HD
BRANCH  12  14
HETATM   14  C3  UNL     1     -16.436  12.398   1.875  1.00  0.00     0.023 C 
HETATM   15  C4  UNL     1     -15.621  11.175   1.868  1.00  0.00     0.056 C 
HETATM   16  C5  UNL     1     -15.160  10.763   0.501  1.00  0.00     0.006 C 
HETATM   17  C6  UNL     1     -16.259  10.862  -0.516  1.00  0.00     0.002 C 
HETATM   18  C7  UNL     1     -16.944  12.180  -0.553  1.00  0.00     0.026 C 
HETATM   19  C8  UNL     1     -17.310  12.750   0.767  1.00  0.00     0.129 C 
HETATM   20 CL1  UNL     1     -17.386  14.536   0.565  1.00  0.00    -0.119 Cl
ENDBRANCH  12  14
ENDBRANCH  11  12
TORSDOF 2
ENDMDL
