MODEL 1
REMARK VINA RESULT: -7.057908039      0.000      0.000
REMARK  8 active torsions:
REMARK  status: ('A' for Active; 'I' for Inactive)
REMARK    1  A    between atoms: C1_2  and  C2_3 
REMARK    2  A    between atoms: C1_2  and  C12_18 
REMARK    3  A    between atoms: C2_3  and  C3_4 
REMARK    4  A    between atoms: C3_4  and  N1_5 
REMARK    5  A    between atoms: C4_6  and  O2_7 
REMARK    6  A    between atoms: C7_11  and  O3_12 
REMARK    7  A    between atoms: C12_18  and  C13_19 
REMARK    8  A    between atoms: C12_18  and  N2_21 
ROOT
HETATM    1  O1  UNL     1      32.611  49.096   5.634  1.00  0.00    -0.296 OA
HETATM    2  C1  UNL     1      32.675  49.156   6.847  1.00  0.00     0.154 C 
ENDROOT
BRANCH   2   3
HETATM    3  C2  UNL     1      31.419  49.416   7.584  1.00  0.00     0.101 C 
BRANCH   3   4
HETATM    4  C3  UNL     1      30.323  48.622   6.933  1.00  0.00     0.140 C 
BRANCH   4   5
HETATM    5  N1  UNL     1      30.172  47.297   7.464  1.00  0.00    -0.307 N 
HETATM    6  C4  UNL     1      30.766  46.146   7.107  1.00  0.00     0.151 A 
HETATM    7  C5  UNL     1      30.327  45.106   7.885  1.00  0.00     0.004 A 
HETATM    8  C6  UNL     1      29.413  45.650   8.768  1.00  0.00     0.004 A 
HETATM    9  C11 UNL     1      30.570  43.646   8.007  1.00  0.00     0.044 C 
HETATM   10  C7  UNL     1      29.344  46.998   8.480  1.00  0.00     0.151 A 
HETATM   11  C8  UNL     1      28.775  44.730   9.736  1.00  0.00     0.044 C 
HETATM   12  C9  UNL     1      29.698  43.698  10.304  1.00  0.00     0.005 C 
HETATM   13  C10 UNL     1      30.900  43.398   9.473  1.00  0.00     0.005 C 
BRANCH   6  14
HETATM   14  O2  UNL     1      31.690  46.026   6.098  1.00  0.00    -0.345 OA
ATOM     15  H2  UNL     1      31.612  45.427   5.364  1.00  0.00     0.219 HD
ENDBRANCH   6  14
BRANCH  10  16
HETATM   16  O3  UNL     1      28.511  47.872   9.182  1.00  0.00    -0.345 OA
ATOM     17  H3  UNL     1      27.594  48.055   9.015  1.00  0.00     0.219 HD
ENDBRANCH  10  16
ENDBRANCH   4   5
ENDBRANCH   3   4
ENDBRANCH   2   3
BRANCH   2  18
HETATM   18  C12 UNL     1      33.999  48.966   7.503  1.00  0.00     0.192 C 
BRANCH  18  19
HETATM   19  C13 UNL     1      34.968  49.854   6.817  1.00  0.00     0.149 C 
HETATM   20 CL1  UNL     1      36.363  50.270   7.866  1.00  0.00    -0.128 Cl
ENDBRANCH  18  19
BRANCH  18  21
HETATM   21  N2  UNL     1      34.289  47.597   7.586  1.00  0.00    -0.267 N 
HETATM   22  N3  UNL     1      34.417  46.831   6.515  1.00  0.00    -0.239 N 
HETATM   23  N4  UNL     1      34.686  45.610   6.845  1.00  0.00    -0.288 N 
ATOM     24  H3  UNL     1      34.317  47.160   5.555  1.00  0.00     0.208 HD
HETATM   25  C14 UNL     1      34.739  45.560   8.185  1.00  0.00     0.051 A 
ATOM     26  H4  UNL     1      34.832  44.829   6.206  1.00  0.00     0.188 HD
HETATM   27  C15 UNL     1      34.490  46.815   8.688  1.00  0.00     0.055 A 
HETATM   28  C19 UNL     1      35.008  44.438   9.117  1.00  0.00     0.061 C 
HETATM   29  C16 UNL     1      34.454  47.201  10.091  1.00  0.00     0.061 C 
HETATM   30  C17 UNL     1      34.790  45.981  10.966  1.00  0.00     0.006 C 
HETATM   31  C18 UNL     1      34.215  44.720  10.375  1.00  0.00     0.006 C 
ENDBRANCH  18  21
ENDBRANCH   2  18
TORSDOF 8
ENDMDL
MODEL 2
REMARK VINA RESULT: -6.982604725      1.191      2.209
REMARK  8 active torsions:
REMARK  status: ('A' for Active; 'I' for Inactive)
REMARK    1  A    between atoms: C1_2  and  C2_3 
REMARK    2  A    between atoms: C1_2  and  C12_18 
REMARK    3  A    between atoms: C2_3  and  C3_4 
REMARK    4  A    between atoms: C3_4  and  N1_5 
REMARK    5  A    between atoms: C4_6  and  O2_7 
REMARK    6  A    between atoms: C7_11  and  O3_12 
REMARK    7  A    between atoms: C12_18  and  C13_19 
REMARK    8  A    between atoms: C12_18  and  N2_21 
ROOT
HETATM    1  O1  UNL     1      33.628  49.046   5.147  1.00  0.00    -0.296 OA
HETATM    2  C1  UNL     1      33.391  49.114   6.338  1.00  0.00     0.154 C 
ENDROOT
BRANCH   2   3
HETATM    3  C2  UNL     1      31.970  49.160   6.749  1.00  0.00     0.101 C 
BRANCH   3   4
HETATM    4  C3  UNL     1      31.259  48.009   6.098  1.00  0.00     0.140 C 
BRANCH   4   5
HETATM    5  N1  UNL     1      31.407  46.764   6.798  1.00  0.00    -0.307 N 
HETATM    6  C4  UNL     1      30.764  46.295   7.880  1.00  0.00     0.151 A 
HETATM    7  C5  UNL     1      31.222  45.048   8.219  1.00  0.00     0.004 A 
HETATM    8  C6  UNL     1      32.200  44.735   7.294  1.00  0.00     0.004 A 
HETATM    9  C11 UNL     1      30.949  44.023   9.259  1.00  0.00     0.044 C 
HETATM   10  C7  UNL     1      32.286  45.813   6.436  1.00  0.00     0.151 A 
HETATM   11  C8  UNL     1      32.871  43.423   7.432  1.00  0.00     0.044 C 
HETATM   12  C9  UNL     1      31.957  42.303   7.820  1.00  0.00     0.005 C 
HETATM   13  C10 UNL     1      30.700  42.721   8.508  1.00  0.00     0.005 C 
BRANCH   6  14
HETATM   14  O2  UNL     1      29.780  46.972   8.556  1.00  0.00    -0.345 OA
ATOM     15  H2  UNL     1      29.158  46.569   9.151  1.00  0.00     0.219 HD
ENDBRANCH   6  14
BRANCH  10  16
HETATM   16  O3  UNL     1      33.181  45.847   5.365  1.00  0.00    -0.345 OA
ATOM     17  H3  UNL     1      33.402  45.137   4.773  1.00  0.00     0.219 HD
ENDBRANCH  10  16
ENDBRANCH   4   5
ENDBRANCH   3   4
ENDBRANCH   2   3
BRANCH   2  18
HETATM   18  C12 UNL     1      34.534  49.145   7.294  1.00  0.00     0.192 C 
BRANCH  18  19
HETATM   19  C13 UNL     1      35.503  50.149   6.796  1.00  0.00     0.149 C 
HETATM   20 CL1  UNL     1      36.713  50.596   8.043  1.00  0.00    -0.128 Cl
ENDBRANCH  18  19
BRANCH  18  21
HETATM   21  N2  UNL     1      34.985  47.838   7.528  1.00  0.00    -0.267 N 
HETATM   22  N3  UNL     1      35.555  47.104   6.588  1.00  0.00    -0.239 N 
HETATM   23  N4  UNL     1      35.887  45.940   7.043  1.00  0.00    -0.288 N 
ATOM     24  H3  UNL     1      35.713  47.414   5.629  1.00  0.00     0.208 HD
HETATM   25  C14 UNL     1      35.525  45.897   8.334  1.00  0.00     0.051 A 
ATOM     26  H4  UNL     1      36.341  45.193   6.518  1.00  0.00     0.188 HD
HETATM   27  C15 UNL     1      34.945  47.096   8.674  1.00  0.00     0.055 A 
HETATM   28  C19 UNL     1      35.653  44.830   9.356  1.00  0.00     0.061 C 
HETATM   29  C16 UNL     1      34.414  47.470   9.977  1.00  0.00     0.061 C 
HETATM   30  C17 UNL     1      34.638  46.317  10.970  1.00  0.00     0.006 C 
HETATM   31  C18 UNL     1      34.473  44.982  10.292  1.00  0.00     0.006 C 
ENDBRANCH  18  21
ENDBRANCH   2  18
TORSDOF 8
ENDMDL
MODEL 3
REMARK VINA RESULT: -6.965255140      1.882      2.783
REMARK  8 active torsions:
REMARK  status: ('A' for Active; 'I' for Inactive)
REMARK    1  A    between atoms: C1_2  and  C2_3 
REMARK    2  A    between atoms: C1_2  and  C12_18 
REMARK    3  A    between atoms: C2_3  and  C3_4 
REMARK    4  A    between atoms: C3_4  and  N1_5 
REMARK    5  A    between atoms: C4_6  and  O2_7 
REMARK    6  A    between atoms: C7_11  and  O3_12 
REMARK    7  A    between atoms: C12_18  and  C13_19 
REMARK    8  A    between atoms: C12_18  and  N2_21 
ROOT
HETATM    1  O1  UNL     1      35.682  46.959   6.216  1.00  0.00    -0.296 OA
HETATM    2  C1  UNL     1      35.578  47.283   7.383  1.00  0.00     0.154 C 
ENDROOT
BRANCH   2   3
HETATM    3  C2  UNL     1      34.639  48.379   7.706  1.00  0.00     0.101 C 
BRANCH   3   4
HETATM    4  C3  UNL     1      33.550  48.381   6.673  1.00  0.00     0.140 C 
BRANCH   4   5
HETATM    5  N1  UNL     1      32.356  47.698   7.086  1.00  0.00    -0.307 N 
HETATM    6  C4  UNL     1      32.005  46.408   6.955  1.00  0.00     0.151 A 
HETATM    7  C5  UNL     1      30.766  46.181   7.496  1.00  0.00     0.004 A 
HETATM    8  C6  UNL     1      30.334  47.400   7.985  1.00  0.00     0.004 A 
HETATM    9  C11 UNL     1      29.838  45.035   7.674  1.00  0.00     0.044 C 
HETATM   10  C7  UNL     1      31.337  48.308   7.715  1.00  0.00     0.151 A 
HETATM   11  C8  UNL     1      29.002  47.438   8.630  1.00  0.00     0.044 C 
HETATM   12  C9  UNL     1      28.696  46.247   9.482  1.00  0.00     0.005 C 
HETATM   13  C10 UNL     1      29.474  45.017   9.153  1.00  0.00     0.005 C 
BRANCH   6  14
HETATM   14  O2  UNL     1      32.783  45.445   6.361  1.00  0.00    -0.345 OA
ATOM     15  H2  UNL     1      32.523  44.935   5.601  1.00  0.00     0.219 HD
ENDBRANCH   6  14
BRANCH  10  16
HETATM   16  O3  UNL     1      31.243  49.655   8.072  1.00  0.00    -0.345 OA
ATOM     17  H3  UNL     1      30.856  50.361   7.567  1.00  0.00     0.219 HD
ENDBRANCH  10  16
ENDBRANCH   4   5
ENDBRANCH   3   4
ENDBRANCH   2   3
BRANCH   2  18
HETATM   18  C12 UNL     1      36.395  46.561   8.400  1.00  0.00     0.192 C 
BRANCH  18  19
HETATM   19  C13 UNL     1      37.816  46.899   8.152  1.00  0.00     0.149 C 
HETATM   20 CL1  UNL     1      38.080  48.671   8.045  1.00  0.00    -0.128 Cl
ENDBRANCH  18  19
BRANCH  18  21
HETATM   21  N2  UNL     1      36.022  45.210   8.426  1.00  0.00    -0.267 N 
HETATM   22  N3  UNL     1      36.745  44.262   7.853  1.00  0.00    -0.239 N 
HETATM   23  N4  UNL     1      36.201  43.100   8.014  1.00  0.00    -0.288 N 
ATOM     24  H3  UNL     1      37.617  44.426   7.351  1.00  0.00     0.208 HD
HETATM   25  C14 UNL     1      35.075  43.280   8.720  1.00  0.00     0.051 A 
ATOM     26  H4  UNL     1      36.562  42.211   7.669  1.00  0.00     0.188 HD
HETATM   27  C15 UNL     1      34.933  44.618   9.000  1.00  0.00     0.055 A 
HETATM   28  C19 UNL     1      34.052  42.319   9.201  1.00  0.00     0.061 C 
HETATM   29  C16 UNL     1      33.850  45.244   9.745  1.00  0.00     0.061 C 
HETATM   30  C17 UNL     1      32.874  44.160  10.235  1.00  0.00     0.006 C 
HETATM   31  C18 UNL     1      32.734  43.061   9.215  1.00  0.00     0.006 C 
ENDBRANCH  18  21
ENDBRANCH   2  18
TORSDOF 8
ENDMDL
MODEL 4
REMARK VINA RESULT: -6.741500927      2.370      4.272
REMARK  8 active torsions:
REMARK  status: ('A' for Active; 'I' for Inactive)
REMARK    1  A    between atoms: C1_2  and  C2_3 
REMARK    2  A    between atoms: C1_2  and  C12_18 
REMARK    3  A    between atoms: C2_3  and  C3_4 
REMARK    4  A    between atoms: C3_4  and  N1_5 
REMARK    5  A    between atoms: C4_6  and  O2_7 
REMARK    6  A    between atoms: C7_11  and  O3_12 
REMARK    7  A    between atoms: C12_18  and  C13_19 
REMARK    8  A    between atoms: C12_18  and  N2_21 
ROOT
HETATM    1  O1  UNL     1      34.820  43.378   7.432  1.00  0.00    -0.296 OA
HETATM    2  C1  UNL     1      34.422  43.463   8.577  1.00  0.00     0.154 C 
ENDROOT
BRANCH   2   3
HETATM    3  C2  UNL     1      33.305  42.579   8.979  1.00  0.00     0.101 C 
BRANCH   3   4
HETATM    4  C3  UNL     1      32.212  42.717   7.959  1.00  0.00     0.140 C 
BRANCH   4   5
HETATM    5  N1  UNL     1      31.485  43.953   8.050  1.00  0.00    -0.307 N 
HETATM    6  C4  UNL     1      31.623  45.094   7.355  1.00  0.00     0.151 A 
HETATM    7  C5  UNL     1      30.713  46.032   7.769  1.00  0.00     0.004 A 
HETATM    8  C6  UNL     1      29.978  45.433   8.775  1.00  0.00     0.004 A 
HETATM    9  C11 UNL     1      30.348  47.431   7.432  1.00  0.00     0.044 C 
HETATM   10  C7  UNL     1      30.480  44.156   8.920  1.00  0.00     0.151 A 
HETATM   11  C8  UNL     1      28.911  46.240   9.407  1.00  0.00     0.044 C 
HETATM   12  C9  UNL     1      28.137  47.095   8.453  1.00  0.00     0.005 C 
HETATM   13  C10 UNL     1      28.846  47.423   7.181  1.00  0.00     0.005 C 
BRANCH   6  14
HETATM   14  O2  UNL     1      32.550  45.294   6.362  1.00  0.00    -0.345 OA
ATOM     15  H2  UNL     1      32.523  44.879   5.507  1.00  0.00     0.219 HD
ENDBRANCH   6  14
BRANCH  10  16
HETATM   16  O3  UNL     1      29.971  43.253   9.856  1.00  0.00    -0.345 OA
ATOM     17  H3  UNL     1      29.163  43.327  10.350  1.00  0.00     0.219 HD
ENDBRANCH  10  16
ENDBRANCH   4   5
ENDBRANCH   3   4
ENDBRANCH   2   3
BRANCH   2  18
HETATM   18  C12 UNL     1      35.079  44.440   9.491  1.00  0.00     0.192 C 
BRANCH  18  19
HETATM   19  C13 UNL     1      34.033  44.979  10.393  1.00  0.00     0.149 C 
HETATM   20 CL1  UNL     1      34.725  46.006  11.691  1.00  0.00    -0.128 Cl
ENDBRANCH  18  19
BRANCH  18  21
HETATM   21  N2  UNL     1      35.844  45.342   8.740  1.00  0.00    -0.267 N 
HETATM   22  N3  UNL     1      37.080  45.074   8.351  1.00  0.00    -0.239 N 
HETATM   23  N4  UNL     1      37.577  46.055   7.671  1.00  0.00    -0.288 N 
ATOM     24  H3  UNL     1      37.575  44.208   8.561  1.00  0.00     0.208 HD
HETATM   25  C14 UNL     1      36.639  47.012   7.603  1.00  0.00     0.051 A 
ATOM     26  H4  UNL     1      38.510  46.095   7.261  1.00  0.00     0.188 HD
HETATM   27  C15 UNL     1      35.519  46.586   8.277  1.00  0.00     0.055 A 
HETATM   28  C19 UNL     1      36.641  48.347   6.958  1.00  0.00     0.061 C 
HETATM   29  C16 UNL     1      34.271  47.317   8.446  1.00  0.00     0.061 C 
HETATM   30  C17 UNL     1      34.362  48.661   7.703  1.00  0.00     0.006 C 
HETATM   31  C18 UNL     1      35.751  49.236   7.799  1.00  0.00     0.006 C 
ENDBRANCH  18  21
ENDBRANCH   2  18
TORSDOF 8
ENDMDL
MODEL 5
REMARK VINA RESULT: -6.734359185      2.769      4.611
REMARK  8 active torsions:
REMARK  status: ('A' for Active; 'I' for Inactive)
REMARK    1  A    between atoms: C1_2  and  C2_3 
REMARK    2  A    between atoms: C1_2  and  C12_18 
REMARK    3  A    between atoms: C2_3  and  C3_4 
REMARK    4  A    between atoms: C3_4  and  N1_5 
REMARK    5  A    between atoms: C4_6  and  O2_7 
REMARK    6  A    between atoms: C7_11  and  O3_12 
REMARK    7  A    between atoms: C12_18  and  C13_19 
REMARK    8  A    between atoms: C12_18  and  N2_21 
ROOT
HETATM    1  O1  UNL     1      35.213  42.356   8.514  1.00  0.00    -0.296 OA
HETATM    2  C1  UNL     1      34.552  43.184   9.110  1.00  0.00     0.154 C 
ENDROOT
BRANCH   2   3
HETATM    3  C2  UNL     1      33.179  42.804   9.507  1.00  0.00     0.101 C 
BRANCH   3   4
HETATM    4  C3  UNL     1      32.322  42.794   8.274  1.00  0.00     0.140 C 
BRANCH   4   5
HETATM    5  N1  UNL     1      31.353  43.852   8.231  1.00  0.00    -0.307 N 
HETATM    6  C4  UNL     1      30.238  44.038   8.957  1.00  0.00     0.151 A 
HETATM    7  C5  UNL     1      29.599  45.192   8.586  1.00  0.00     0.004 A 
HETATM    8  C6  UNL     1      30.365  45.745   7.576  1.00  0.00     0.004 A 
HETATM    9  C11 UNL     1      28.376  45.943   8.970  1.00  0.00     0.044 C 
HETATM   10  C7  UNL     1      31.434  44.894   7.385  1.00  0.00     0.151 A 
HETATM   11  C8  UNL     1      29.891  47.017   6.985  1.00  0.00     0.044 C 
HETATM   12  C9  UNL     1      29.324  47.983   7.977  1.00  0.00     0.005 C 
HETATM   13  C10 UNL     1      28.831  47.370   9.246  1.00  0.00     0.005 C 
BRANCH   6  14
HETATM   14  O2  UNL     1      29.797  43.186   9.939  1.00  0.00    -0.345 OA
ATOM     15  H2  UNL     1      29.314  43.457  10.712  1.00  0.00     0.219 HD
ENDBRANCH   6  14
BRANCH  10  16
HETATM   16  O3  UNL     1      32.425  45.139   6.432  1.00  0.00    -0.345 OA
ATOM     17  H3  UNL     1      32.697  44.570   5.722  1.00  0.00     0.219 HD
ENDBRANCH  10  16
ENDBRANCH   4   5
ENDBRANCH   3   4
ENDBRANCH   2   3
BRANCH   2  18
HETATM   18  C12 UNL     1      35.163  44.513   9.397  1.00  0.00     0.192 C 
BRANCH  18  19
HETATM   19  C13 UNL     1      34.169  45.305  10.160  1.00  0.00     0.149 C 
HETATM   20 CL1  UNL     1      34.911  46.158  11.554  1.00  0.00    -0.128 Cl
ENDBRANCH  18  19
BRANCH  18  21
HETATM   21  N2  UNL     1      35.684  45.055   8.214  1.00  0.00    -0.267 N 
HETATM   22  N3  UNL     1      35.142  44.827   7.029  1.00  0.00    -0.239 N 
HETATM   23  N4  UNL     1      35.797  45.435   6.094  1.00  0.00    -0.288 N 
ATOM     24  H3  UNL     1      34.317  44.249   6.873  1.00  0.00     0.208 HD
HETATM   25  C14 UNL     1      36.811  46.092   6.677  1.00  0.00     0.051 A 
ATOM     26  H4  UNL     1      35.581  45.418   5.097  1.00  0.00     0.188 HD
HETATM   27  C15 UNL     1      36.766  45.869   8.032  1.00  0.00     0.055 A 
HETATM   28  C19 UNL     1      37.880  46.950   6.111  1.00  0.00     0.061 C 
HETATM   29  C16 UNL     1      37.681  46.396   9.034  1.00  0.00     0.061 C 
HETATM   30  C17 UNL     1      38.717  47.306   8.352  1.00  0.00     0.006 C 
HETATM   31  C18 UNL     1      39.094  46.770   6.996  1.00  0.00     0.006 C 
ENDBRANCH  18  21
ENDBRANCH   2  18
TORSDOF 8
ENDMDL
