MODEL 1
REMARK VINA RESULT: -5.275190166      0.000      0.000
REMARK  10 active torsions:
REMARK  status: ('A' for Active; 'I' for Inactive)
REMARK    1  A    between atoms: O1_2  and  N1_3 
REMARK    2  A    between atoms: C2_5  and  C3_6 
REMARK    3  A    between atoms: C2_5  and  C6_15 
REMARK    4  A    between atoms: C5_9  and  N2_10 
REMARK    5  A    between atoms: C6_15  and  N4_16 
REMARK    6  A    between atoms: C6_15  and  C17_39 
REMARK    7  A    between atoms: N4_16  and  C7_18 
REMARK    8  A    between atoms: C7_18  and  C9_20 
REMARK       I    between atoms: C9_20  and  N5_22 
REMARK    9  A    between atoms: N8_29  and  N9_30 
REMARK   10  A    between atoms: C13_33  and  C14_34 
ROOT
HETATM    1  N4  UNL     1      -8.510  12.764  30.516  1.00  0.00    -0.395 N 
ATOM      2  H4  UNL     1      -7.584  13.171  30.382  1.00  0.00     0.155 HD
ENDROOT
BRANCH   1   3
HETATM    3  C6  UNL     1      -9.396  12.627  29.429  1.00  0.00     0.184 C 
BRANCH   3   4
HETATM    4  C2  UNL     1      -8.759  11.800  28.364  1.00  0.00     0.087 C 
HETATM    5  N1  UNL     1      -7.556  12.076  28.092  1.00  0.00    -0.267 N 
ATOM      6  H1  UNL     1      -7.177  12.848  28.640  1.00  0.00     0.194 HD
BRANCH   5   7
HETATM    7  O1  UNL     1      -6.693  11.554  27.232  1.00  0.00    -0.285 OA
HETATM    8  C1  UNL     1      -5.277  11.685  27.351  1.00  0.00     0.237 C 
ENDBRANCH   5   7
BRANCH   4   9
HETATM    9  C3  UNL     1      -9.544  10.705  27.698  1.00  0.00     0.068 A 
HETATM   10  C4  UNL     1     -10.852  10.497  28.085  1.00  0.00     0.085 A 
HETATM   11  S1  UNL     1     -11.339   9.183  27.105  1.00  0.00    -0.064 SA
HETATM   12  C5  UNL     1      -9.885   8.965  26.263  1.00  0.00     0.142 A 
HETATM   13  N3  UNL     1      -9.086   9.897  26.760  1.00  0.00    -0.335 N 
ATOM     14  H3  UNL     1      -8.128   9.989  26.422  1.00  0.00     0.168 HD
BRANCH  12  15
HETATM   15  N2  UNL     1      -9.597   8.076  25.325  1.00  0.00    -0.380 N 
ATOM     16  H22 UNL     1      -9.463   7.072  25.444  1.00  0.00     0.158 HD
ATOM     17  H21 UNL     1      -9.458   8.227  24.326  1.00  0.00     0.158 HD
ENDBRANCH  12  15
ENDBRANCH   4   9
ENDBRANCH   3   4
BRANCH   3  18
HETATM   18  C17 UNL     1      -9.713  13.963  28.791  1.00  0.00     0.056 A 
HETATM   19  C18 UNL     1      -8.750  14.878  28.419  1.00  0.00     0.116 A 
HETATM   20  N11 UNL     1      -9.394  15.923  27.887  1.00  0.00    -0.360 N 
HETATM   21  C19 UNL     1     -10.708  15.682  27.922  1.00  0.00     0.182 A 
ATOM     22  H11 UNL     1      -8.955  16.766  27.517  1.00  0.00     0.166 HD
HETATM   23  N12 UNL     1     -10.896  14.463  28.484  1.00  0.00    -0.348 N 
HETATM   24  C20 UNL     1     -12.194  13.833  28.690  1.00  0.00     0.157 C 
ENDBRANCH   3  18
ENDBRANCH   1   3
BRANCH   1  25
HETATM   25  C7  UNL     1      -8.923  12.332  31.793  1.00  0.00     0.166 C 
HETATM   26  C8  UNL     1     -10.374  12.435  32.111  1.00  0.00     0.042 C 
BRANCH  25  27
HETATM   27  C9  UNL     1      -8.471  10.926  32.041  1.00  0.00     0.244 C 
HETATM   28  O2  UNL     1      -7.401  10.772  32.726  1.00  0.00    -0.271 OA
HETATM   29  N5  UNL     1      -9.126   9.802  31.586  1.00  0.00    -0.322 N 
HETATM   30  C10 UNL     1      -8.870   8.903  30.756  1.00  0.00     0.089 A 
ATOM     31  H5  UNL     1     -10.033   9.673  32.033  1.00  0.00     0.169 HD
HETATM   32  C11 UNL     1      -9.844   7.901  30.584  1.00  0.00     0.118 A 
HETATM   33  C16 UNL     1      -7.751   8.748  29.972  1.00  0.00     0.107 A 
HETATM   34  N6  UNL     1     -11.039   7.975  31.352  1.00  0.00    -0.096 NA
HETATM   35  C12 UNL     1      -9.701   6.866  29.720  1.00  0.00     0.164 A 
HETATM   36  N7  UNL     1     -10.714   5.864  29.569  1.00  0.00    -0.079 NA
HETATM   37  N8  UNL     1      -8.571   6.755  28.960  1.00  0.00    -0.241 N 
HETATM   38  C13 UNL     1      -7.610   7.687  29.088  1.00  0.00     0.129 A 
HETATM   39  N10 UNL     1      -6.703   9.691  30.058  1.00  0.00    -0.097 NA
BRANCH  37  40
HETATM   40  N9  UNL     1      -8.494   5.663  28.093  1.00  0.00    -0.337 N 
ATOM     41  H92 UNL     1      -9.088   4.837  28.158  1.00  0.00     0.177 HD
ATOM     42  H91 UNL     1      -7.795   5.709  27.351  1.00  0.00     0.177 HD
ENDBRANCH  37  40
BRANCH  38  43
HETATM   43  C14 UNL     1      -6.390   7.616  28.303  1.00  0.00     0.176 C 
HETATM   44  C15 UNL     1      -5.109   7.039  28.768  1.00  0.00     0.098 C 
HETATM   45  O3  UNL     1      -6.375   8.076  27.106  1.00  0.00    -0.291 OA
ENDBRANCH  38  43
ENDBRANCH  25  27
ENDBRANCH   1  25
TORSDOF 10
ENDMDL
MODEL 2
REMARK VINA RESULT: -5.025248641      3.192      6.525
REMARK  10 active torsions:
REMARK  status: ('A' for Active; 'I' for Inactive)
REMARK    1  A    between atoms: O1_2  and  N1_3 
REMARK    2  A    between atoms: C2_5  and  C3_6 
REMARK    3  A    between atoms: C2_5  and  C6_15 
REMARK    4  A    between atoms: C5_9  and  N2_10 
REMARK    5  A    between atoms: C6_15  and  N4_16 
REMARK    6  A    between atoms: C6_15  and  C17_39 
REMARK    7  A    between atoms: N4_16  and  C7_18 
REMARK    8  A    between atoms: C7_18  and  C9_20 
REMARK       I    between atoms: C9_20  and  N5_22 
REMARK    9  A    between atoms: N8_29  and  N9_30 
REMARK   10  A    between atoms: C13_33  and  C14_34 
ROOT
HETATM    1  N4  UNL     1     -13.770   8.886  29.780  1.00  0.00    -0.395 N 
ATOM      2  H4  UNL     1     -13.758   8.035  29.217  1.00  0.00     0.155 HD
ENDROOT
BRANCH   1   3
HETATM    3  C6  UNL     1     -13.135   8.921  31.038  1.00  0.00     0.184 C 
BRANCH   3   4
HETATM    4  C2  UNL     1     -11.767   8.338  30.925  1.00  0.00     0.087 C 
HETATM    5  N1  UNL     1     -11.705   7.142  30.519  1.00  0.00    -0.267 N 
ATOM      6  H1  UNL     1     -12.615   6.724  30.329  1.00  0.00     0.194 HD
BRANCH   5   7
HETATM    7  O1  UNL     1     -10.684   6.328  30.294  1.00  0.00    -0.285 OA
HETATM    8  C1  UNL     1     -10.105   6.119  29.006  1.00  0.00     0.237 C 
ENDBRANCH   5   7
BRANCH   4   9
HETATM    9  C3  UNL     1     -10.567   9.173  31.272  1.00  0.00     0.068 A 
HETATM   10  C4  UNL     1     -10.759  10.362  31.945  1.00  0.00     0.085 A 
HETATM   11  S1  UNL     1      -9.169  10.971  32.112  1.00  0.00    -0.064 SA
HETATM   12  C5  UNL     1      -8.351   9.708  31.335  1.00  0.00     0.142 A 
HETATM   13  N3  UNL     1      -9.315   8.874  30.977  1.00  0.00    -0.335 N 
ATOM     14  H3  UNL     1      -9.094   8.012  30.480  1.00  0.00     0.168 HD
BRANCH  12  15
HETATM   15  N2  UNL     1      -7.051   9.570  31.125  1.00  0.00    -0.380 N 
ATOM     16  H22 UNL     1      -6.307   9.573  31.823  1.00  0.00     0.158 HD
ATOM     17  H21 UNL     1      -6.558   9.437  30.242  1.00  0.00     0.158 HD
ENDBRANCH  12  15
ENDBRANCH   4   9
ENDBRANCH   3   4
BRANCH   3  18
HETATM   18  C17 UNL     1     -13.868   8.079  32.061  1.00  0.00     0.056 A 
HETATM   19  C18 UNL     1     -14.564   6.930  31.745  1.00  0.00     0.116 A 
HETATM   20  N11 UNL     1     -15.067   6.455  32.891  1.00  0.00    -0.360 N 
HETATM   21  C19 UNL     1     -14.707   7.268  33.889  1.00  0.00     0.182 A 
ATOM     22  H11 UNL     1     -15.632   5.612  32.986  1.00  0.00     0.166 HD
HETATM   23  N12 UNL     1     -13.963   8.272  33.363  1.00  0.00    -0.348 N 
HETATM   24  C20 UNL     1     -13.371   9.359  34.133  1.00  0.00     0.157 C 
ENDBRANCH   3  18
ENDBRANCH   1   3
BRANCH   1  25
HETATM   25  C7  UNL     1     -14.424  10.044  29.312  1.00  0.00     0.166 C 
HETATM   26  C8  UNL     1     -14.886  11.024  30.334  1.00  0.00     0.042 C 
BRANCH  25  27
HETATM   27  C9  UNL     1     -13.571  10.756  28.309  1.00  0.00     0.244 C 
HETATM   28  O2  UNL     1     -13.807  10.520  27.073  1.00  0.00    -0.271 OA
HETATM   29  N5  UNL     1     -12.562  11.640  28.625  1.00  0.00    -0.322 N 
HETATM   30  C10 UNL     1     -11.318  11.641  28.514  1.00  0.00     0.089 A 
ATOM     31  H5  UNL     1     -12.916  12.497  29.051  1.00  0.00     0.169 HD
HETATM   32  C11 UNL     1     -10.638  12.783  28.979  1.00  0.00     0.118 A 
HETATM   33  C16 UNL     1     -10.499  10.667  27.990  1.00  0.00     0.107 A 
HETATM   34  N6  UNL     1     -11.399  13.847  29.539  1.00  0.00    -0.096 NA
HETATM   35  C12 UNL     1      -9.290  12.921  28.921  1.00  0.00     0.164 A 
HETATM   36  N7  UNL     1      -8.631  14.097  29.404  1.00  0.00    -0.079 NA
HETATM   37  N8  UNL     1      -8.518  11.925  28.393  1.00  0.00    -0.241 N 
HETATM   38  C13 UNL     1      -9.120  10.813  27.934  1.00  0.00     0.129 A 
HETATM   39  N10 UNL     1     -11.067   9.475  27.490  1.00  0.00    -0.097 NA
BRANCH  37  40
HETATM   40  N9  UNL     1      -7.139  12.137  28.366  1.00  0.00    -0.337 N 
ATOM     41  H92 UNL     1      -6.633  12.520  27.567  1.00  0.00     0.177 HD
ATOM     42  H91 UNL     1      -6.615  11.889  29.206  1.00  0.00     0.177 HD
ENDBRANCH  37  40
BRANCH  38  43
HETATM   43  C14 UNL     1      -8.345   9.724  27.365  1.00  0.00     0.176 C 
HETATM   44  C15 UNL     1      -8.085   9.526  25.921  1.00  0.00     0.098 C 
HETATM   45  O3  UNL     1      -7.826   8.841  28.135  1.00  0.00    -0.291 OA
ENDBRANCH  38  43
ENDBRANCH  25  27
ENDBRANCH   1  25
TORSDOF 10
ENDMDL
MODEL 3
REMARK VINA RESULT: -5.002615253      2.222      6.426
REMARK  10 active torsions:
REMARK  status: ('A' for Active; 'I' for Inactive)
REMARK    1  A    between atoms: O1_2  and  N1_3 
REMARK    2  A    between atoms: C2_5  and  C3_6 
REMARK    3  A    between atoms: C2_5  and  C6_15 
REMARK    4  A    between atoms: C5_9  and  N2_10 
REMARK    5  A    between atoms: C6_15  and  N4_16 
REMARK    6  A    between atoms: C6_15  and  C17_39 
REMARK    7  A    between atoms: N4_16  and  C7_18 
REMARK    8  A    between atoms: C7_18  and  C9_20 
REMARK       I    between atoms: C9_20  and  N5_22 
REMARK    9  A    between atoms: N8_29  and  N9_30 
REMARK   10  A    between atoms: C13_33  and  C14_34 
ROOT
HETATM    1  N4  UNL     1      -8.945   8.834  30.989  1.00  0.00    -0.395 N 
ATOM      2  H4  UNL     1      -9.788   8.368  31.323  1.00  0.00     0.155 HD
ENDROOT
BRANCH   1   3
HETATM    3  C6  UNL     1      -8.580   8.768  29.629  1.00  0.00     0.184 C 
BRANCH   3   4
HETATM    4  C2  UNL     1      -9.793   8.930  28.776  1.00  0.00     0.087 C 
HETATM    5  N1  UNL     1     -10.905   8.785  29.359  1.00  0.00    -0.267 N 
ATOM      6  H1  UNL     1     -10.824   8.563  30.351  1.00  0.00     0.194 HD
BRANCH   5   7
HETATM    7  O1  UNL     1     -12.156   8.867  28.929  1.00  0.00    -0.285 OA
HETATM    8  C1  UNL     1     -13.294   8.847  29.790  1.00  0.00     0.237 C 
ENDBRANCH   5   7
BRANCH   4   9
HETATM    9  C3  UNL     1      -9.643   9.260  27.318  1.00  0.00     0.068 A 
HETATM   10  C4  UNL     1      -9.453  10.576  26.952  1.00  0.00     0.085 A 
HETATM   11  S1  UNL     1      -9.351  10.492  25.247  1.00  0.00    -0.064 SA
HETATM   12  C5  UNL     1      -9.549   8.817  25.083  1.00  0.00     0.142 A 
HETATM   13  N3  UNL     1      -9.686   8.388  26.327  1.00  0.00    -0.335 N 
ATOM     14  H3  UNL     1      -9.825   7.395  26.519  1.00  0.00     0.168 HD
BRANCH  12  15
HETATM   15  N2  UNL     1      -9.566   8.091  23.975  1.00  0.00    -0.380 N 
ATOM     16  H22 UNL     1      -9.685   8.424  23.019  1.00  0.00     0.158 HD
ATOM     17  H21 UNL     1      -9.464   7.081  23.874  1.00  0.00     0.158 HD
ENDBRANCH  12  15
ENDBRANCH   4   9
ENDBRANCH   3   4
BRANCH   3  18
HETATM   18  C17 UNL     1      -7.991   7.419  29.271  1.00  0.00     0.056 A 
HETATM   19  C18 UNL     1      -8.561   6.217  29.636  1.00  0.00     0.116 A 
HETATM   20  N11 UNL     1      -7.777   5.252  29.143  1.00  0.00    -0.360 N 
HETATM   21  C19 UNL     1      -6.754   5.817  28.494  1.00  0.00     0.182 A 
ATOM     22  H11 UNL     1      -7.934   4.249  29.245  1.00  0.00     0.166 HD
HETATM   23  N12 UNL     1      -6.897   7.162  28.579  1.00  0.00    -0.348 N 
HETATM   24  C20 UNL     1      -5.986   8.134  27.986  1.00  0.00     0.157 C 
ENDBRANCH   3  18
ENDBRANCH   1   3
BRANCH   1  25
HETATM   25  C7  UNL     1      -8.125   9.555  31.881  1.00  0.00     0.166 C 
HETATM   26  C8  UNL     1      -6.659   9.536  31.625  1.00  0.00     0.042 C 
BRANCH  25  27
HETATM   27  C9  UNL     1      -8.582  10.977  31.978  1.00  0.00     0.244 C 
HETATM   28  O2  UNL     1      -9.283  11.294  33.001  1.00  0.00    -0.271 OA
HETATM   29  N5  UNL     1      -8.299  11.956  31.050  1.00  0.00    -0.322 N 
HETATM   30  C10 UNL     1      -8.969  12.621  30.232  1.00  0.00     0.089 A 
ATOM     31  H5  UNL     1      -7.307  12.193  31.026  1.00  0.00     0.169 HD
HETATM   32  C11 UNL     1      -8.266  13.552  29.443  1.00  0.00     0.118 A 
HETATM   33  C16 UNL     1     -10.321  12.576  29.987  1.00  0.00     0.107 A 
HETATM   34  N6  UNL     1      -6.860  13.673  29.622  1.00  0.00    -0.096 NA
HETATM   35  C12 UNL     1      -8.864  14.341  28.516  1.00  0.00     0.164 A 
HETATM   36  N7  UNL     1      -8.118  15.277  27.729  1.00  0.00    -0.079 NA
HETATM   37  N8  UNL     1     -10.212  14.259  28.307  1.00  0.00    -0.241 N 
HETATM   38  C13 UNL     1     -10.928  13.386  29.037  1.00  0.00     0.129 A 
HETATM   39  N10 UNL     1     -11.133  11.681  30.720  1.00  0.00    -0.097 NA
BRANCH  37  40
HETATM   40  N9  UNL     1     -10.757  15.102  27.337  1.00  0.00    -0.337 N 
ATOM     41  H92 UNL     1     -10.209  15.739  26.758  1.00  0.00     0.177 HD
ATOM     42  H91 UNL     1     -11.768  15.070  27.209  1.00  0.00     0.177 HD
ENDBRANCH  37  40
BRANCH  38  43
HETATM   43  C14 UNL     1     -12.363  13.258  28.853  1.00  0.00     0.176 C 
HETATM   44  C15 UNL     1     -13.030  12.204  28.055  1.00  0.00     0.098 C 
HETATM   45  O3  UNL     1     -13.154  14.101  29.406  1.00  0.00    -0.291 OA
ENDBRANCH  38  43
ENDBRANCH  25  27
ENDBRANCH   1  25
TORSDOF 10
ENDMDL
MODEL 4
REMARK VINA RESULT: -4.992325179      2.720      5.809
REMARK  10 active torsions:
REMARK  status: ('A' for Active; 'I' for Inactive)
REMARK    1  A    between atoms: O1_2  and  N1_3 
REMARK    2  A    between atoms: C2_5  and  C3_6 
REMARK    3  A    between atoms: C2_5  and  C6_15 
REMARK    4  A    between atoms: C5_9  and  N2_10 
REMARK    5  A    between atoms: C6_15  and  N4_16 
REMARK    6  A    between atoms: C6_15  and  C17_39 
REMARK    7  A    between atoms: N4_16  and  C7_18 
REMARK    8  A    between atoms: C7_18  and  C9_20 
REMARK       I    between atoms: C9_20  and  N5_22 
REMARK    9  A    between atoms: N8_29  and  N9_30 
REMARK   10  A    between atoms: C13_33  and  C14_34 
ROOT
HETATM    1  N4  UNL     1     -10.770   7.114  29.397  1.00  0.00    -0.395 N 
ATOM      2  H4  UNL     1     -10.916   6.465  30.171  1.00  0.00     0.155 HD
ENDROOT
BRANCH   1   3
HETATM    3  C6  UNL     1     -11.316   8.412  29.439  1.00  0.00     0.184 C 
BRANCH   3   4
HETATM    4  C2  UNL     1     -10.509   9.267  30.356  1.00  0.00     0.087 C 
HETATM    5  N1  UNL     1     -10.562   8.970  31.584  1.00  0.00    -0.267 N 
ATOM      6  H1  UNL     1     -11.170   8.177  31.789  1.00  0.00     0.194 HD
BRANCH   5   7
HETATM    7  O1  UNL     1      -9.981   9.490  32.654  1.00  0.00    -0.285 OA
HETATM    8  C1  UNL     1     -10.380   9.201  33.994  1.00  0.00     0.237 C 
ENDBRANCH   5   7
BRANCH   4   9
HETATM    9  C3  UNL     1      -9.685  10.393  29.797  1.00  0.00     0.068 A 
HETATM   10  C4  UNL     1     -10.096  10.998  28.627  1.00  0.00     0.085 A 
HETATM   11  S1  UNL     1      -8.889  12.180  28.361  1.00  0.00    -0.064 SA
HETATM   12  C5  UNL     1      -7.938  11.857  29.725  1.00  0.00     0.142 A 
HETATM   13  N3  UNL     1      -8.572  10.864  30.329  1.00  0.00    -0.335 N 
ATOM     14  H3  UNL     1      -8.205  10.467  31.194  1.00  0.00     0.168 HD
BRANCH  12  15
HETATM   15  N2  UNL     1      -6.819  12.450  30.112  1.00  0.00    -0.380 N 
ATOM     16  H22 UNL     1      -5.958  12.556  29.577  1.00  0.00     0.158 HD
ATOM     17  H21 UNL     1      -6.613  12.904  31.002  1.00  0.00     0.158 HD
ENDBRANCH  12  15
ENDBRANCH   4   9
ENDBRANCH   3   4
BRANCH   3  18
HETATM   18  C17 UNL     1     -12.725   8.411  29.997  1.00  0.00     0.056 A 
HETATM   19  C18 UNL     1     -13.202   7.449  30.862  1.00  0.00     0.116 A 
HETATM   20  N11 UNL     1     -14.468   7.775  31.145  1.00  0.00    -0.360 N 
HETATM   21  C19 UNL     1     -14.781   8.896  30.487  1.00  0.00     0.182 A 
ATOM     22  H11 UNL     1     -15.092   7.255  31.761  1.00  0.00     0.166 HD
HETATM   23  N12 UNL     1     -13.692   9.283  29.778  1.00  0.00    -0.348 N 
HETATM   24  C20 UNL     1     -13.627  10.471  28.936  1.00  0.00     0.157 C 
ENDBRANCH   3  18
ENDBRANCH   1   3
BRANCH   1  25
HETATM   25  C7  UNL     1     -10.020   6.725  28.269  1.00  0.00     0.166 C 
HETATM   26  C8  UNL     1      -9.995   7.661  27.112  1.00  0.00     0.042 C 
BRANCH  25  27
HETATM   27  C9  UNL     1      -8.611   6.405  28.664  1.00  0.00     0.244 C 
HETATM   28  O2  UNL     1      -8.440   5.411  29.453  1.00  0.00    -0.271 OA
HETATM   29  N5  UNL     1      -7.501   7.100  28.237  1.00  0.00    -0.322 N 
HETATM   30  C10 UNL     1      -6.653   7.837  28.784  1.00  0.00     0.089 A 
ATOM     31  H5  UNL     1      -7.331   6.986  27.238  1.00  0.00     0.169 HD
HETATM   32  C11 UNL     1      -5.643   8.367  27.958  1.00  0.00     0.118 A 
HETATM   33  C16 UNL     1      -6.562   8.213  30.104  1.00  0.00     0.107 A 
HETATM   34  N6  UNL     1      -5.653   8.036  26.575  1.00  0.00    -0.096 NA
HETATM   35  C12 UNL     1      -4.659   9.181  28.415  1.00  0.00     0.164 A 
HETATM   36  N7  UNL     1      -3.648   9.702  27.546  1.00  0.00    -0.079 NA
HETATM   37  N8  UNL     1      -4.611   9.527  29.736  1.00  0.00    -0.241 N 
HETATM   38  C13 UNL     1      -5.553   9.046  30.567  1.00  0.00     0.129 A 
HETATM   39  N10 UNL     1      -7.518   7.742  31.030  1.00  0.00    -0.097 NA
BRANCH  37  40
HETATM   40  N9  UNL     1      -3.569  10.368  30.134  1.00  0.00    -0.337 N 
ATOM     41  H92 UNL     1      -3.281  11.203  29.625  1.00  0.00     0.177 HD
ATOM     42  H91 UNL     1      -3.073  10.119  30.990  1.00  0.00     0.177 HD
ENDBRANCH  37  40
BRANCH  38  43
HETATM   43  C14 UNL     1      -5.547   9.385  31.979  1.00  0.00     0.176 C 
HETATM   44  C15 UNL     1      -4.959   8.554  33.054  1.00  0.00     0.098 C 
HETATM   45  O3  UNL     1      -6.083  10.481  32.373  1.00  0.00    -0.291 OA
ENDBRANCH  38  43
ENDBRANCH  25  27
ENDBRANCH   1  25
TORSDOF 10
ENDMDL
MODEL 5
REMARK VINA RESULT: -4.991154347      3.322      6.732
REMARK  10 active torsions:
REMARK  status: ('A' for Active; 'I' for Inactive)
REMARK    1  A    between atoms: O1_2  and  N1_3 
REMARK    2  A    between atoms: C2_5  and  C3_6 
REMARK    3  A    between atoms: C2_5  and  C6_15 
REMARK    4  A    between atoms: C5_9  and  N2_10 
REMARK    5  A    between atoms: C6_15  and  N4_16 
REMARK    6  A    between atoms: C6_15  and  C17_39 
REMARK    7  A    between atoms: N4_16  and  C7_18 
REMARK    8  A    between atoms: C7_18  and  C9_20 
REMARK       I    between atoms: C9_20  and  N5_22 
REMARK    9  A    between atoms: N8_29  and  N9_30 
REMARK   10  A    between atoms: C13_33  and  C14_34 
ROOT
HETATM    1  N4  UNL     1      -9.020   8.369  30.787  1.00  0.00    -0.395 N 
ATOM      2  H4  UNL     1      -9.920   7.992  31.085  1.00  0.00     0.155 HD
ENDROOT
BRANCH   1   3
HETATM    3  C6  UNL     1      -8.593   8.232  29.452  1.00  0.00     0.184 C 
BRANCH   3   4
HETATM    4  C2  UNL     1      -9.778   8.101  28.557  1.00  0.00     0.087 C 
HETATM    5  N1  UNL     1      -9.531   7.898  27.334  1.00  0.00    -0.267 N 
ATOM      6  H1  UNL     1      -8.535   7.859  27.116  1.00  0.00     0.194 HD
BRANCH   5   7
HETATM    7  O1  UNL     1     -10.317   7.724  26.281  1.00  0.00    -0.285 OA
HETATM    8  C1  UNL     1     -10.608   8.749  25.331  1.00  0.00     0.237 C 
ENDBRANCH   5   7
BRANCH   4   9
HETATM    9  C3  UNL     1     -11.163   8.198  29.131  1.00  0.00     0.068 A 
HETATM   10  C4  UNL     1     -11.950   9.277  28.786  1.00  0.00     0.085 A 
HETATM   11  S1  UNL     1     -13.394   8.995  29.657  1.00  0.00    -0.064 SA
HETATM   12  C5  UNL     1     -12.939   7.544  30.404  1.00  0.00     0.142 A 
HETATM   13  N3  UNL     1     -11.709   7.331  29.965  1.00  0.00    -0.335 N 
ATOM     14  H3  UNL     1     -11.188   6.508  30.267  1.00  0.00     0.168 HD
BRANCH  12  15
HETATM   15  N2  UNL     1     -13.638   6.787  31.235  1.00  0.00    -0.380 N 
ATOM     16  H22 UNL     1     -14.653   6.748  31.332  1.00  0.00     0.158 HD
ATOM     17  H21 UNL     1     -13.299   6.113  31.921  1.00  0.00     0.158 HD
ENDBRANCH  12  15
ENDBRANCH   4   9
ENDBRANCH   3   4
BRANCH   3  18
HETATM   18  C17 UNL     1      -7.773   6.974  29.251  1.00  0.00     0.056 A 
HETATM   19  C18 UNL     1      -8.196   5.719  29.636  1.00  0.00     0.116 A 
HETATM   20  N11 UNL     1      -7.227   4.862  29.295  1.00  0.00    -0.360 N 
HETATM   21  C19 UNL     1      -6.232   5.545  28.720  1.00  0.00     0.182 A 
ATOM     22  H11 UNL     1      -7.244   3.854  29.449  1.00  0.00     0.166 HD
HETATM   23  N12 UNL     1      -6.581   6.854  28.697  1.00  0.00    -0.348 N 
HETATM   24  C20 UNL     1      -5.763   7.923  28.137  1.00  0.00     0.157 C 
ENDBRANCH   3  18
ENDBRANCH   1   3
BRANCH   1  25
HETATM   25  C7  UNL     1      -8.185   9.035  31.707  1.00  0.00     0.166 C 
HETATM   26  C8  UNL     1      -7.135   9.931  31.148  1.00  0.00     0.042 C 
BRANCH  25  27
HETATM   27  C9  UNL     1      -9.004   9.805  32.696  1.00  0.00     0.244 C 
HETATM   28  O2  UNL     1      -8.537   9.909  33.883  1.00  0.00    -0.271 OA
HETATM   29  N5  UNL     1     -10.213  10.404  32.413  1.00  0.00    -0.322 N 
HETATM   30  C10 UNL     1     -11.397  10.217  32.764  1.00  0.00     0.089 A 
ATOM     31  H5  UNL     1     -10.117  11.184  31.764  1.00  0.00     0.169 HD
HETATM   32  C11 UNL     1     -12.366  11.084  32.223  1.00  0.00     0.118 A 
HETATM   33  C16 UNL     1     -11.902   9.267  33.622  1.00  0.00     0.107 A 
HETATM   34  N6  UNL     1     -11.941  12.101  31.324  1.00  0.00    -0.096 NA
HETATM   35  C12 UNL     1     -13.687  10.998  32.515  1.00  0.00     0.164 A 
HETATM   36  N7  UNL     1     -14.645  11.897  31.945  1.00  0.00    -0.079 NA
HETATM   37  N8  UNL     1     -14.141  10.036  33.373  1.00  0.00    -0.241 N 
HETATM   38  C13 UNL     1     -13.255   9.183  33.917  1.00  0.00     0.129 A 
HETATM   39  N10 UNL     1     -11.026   8.341  34.229  1.00  0.00    -0.097 NA
BRANCH  37  40
HETATM   40  N9  UNL     1     -15.514  10.009  33.626  1.00  0.00    -0.337 N 
ATOM     41  H92 UNL     1     -16.231  10.108  32.908  1.00  0.00     0.177 HD
ATOM     42  H91 UNL     1     -15.804   9.880  34.596  1.00  0.00     0.177 HD
ENDBRANCH  37  40
BRANCH  38  43
HETATM   43  C14 UNL     1     -13.687   8.141  34.833  1.00  0.00     0.176 C 
HETATM   44  C15 UNL     1     -13.442   8.135  36.293  1.00  0.00     0.098 C 
HETATM   45  O3  UNL     1     -14.333   7.128  34.387  1.00  0.00    -0.291 OA
ENDBRANCH  38  43
ENDBRANCH  25  27
ENDBRANCH   1  25
TORSDOF 10
ENDMDL
