MODEL 1
REMARK VINA RESULT: -6.199793002      0.000      0.000
REMARK  11 active torsions:
REMARK  status: ('A' for Active; 'I' for Inactive)
REMARK    1  A    between atoms: N3_4  and  C2_6 
REMARK    2  A    between atoms: C2_6  and  C3_7 
REMARK    3  A    between atoms: C3_7  and  C4_8 
REMARK    4  A    between atoms: C4_8  and  C5_9 
REMARK    5  A    between atoms: C5_9  and  C6_10 
REMARK    6  A    between atoms: C6_10  and  C7_11 
REMARK    7  A    between atoms: C7_11  and  C8_12 
REMARK    8  A    between atoms: C9_13  and  C10_14 
REMARK    9  A    between atoms: N4_17  and  O1_18 
REMARK   10  A    between atoms: C14_21  and  C15_22 
REMARK   11  A    between atoms: C15_22  and  O2_23 
ROOT
HETATM    1  C8  UNL     1     -18.208  90.051  16.201  1.00  0.00    -0.101 C 
HETATM    2  C9  UNL     1     -18.163  90.822  15.290  1.00  0.00    -0.066 C 
ENDROOT
BRANCH   1   3
HETATM    3  C7  UNL     1     -18.283  89.063  17.339  1.00  0.00     0.098 C 
BRANCH   3   4
HETATM    4  C6  UNL     1     -19.569  89.342  18.003  1.00  0.00     0.039 C 
BRANCH   4   5
HETATM    5  C5  UNL     1     -20.785  89.065  17.245  1.00  0.00    -0.030 C 
BRANCH   5   6
HETATM    6  C4  UNL     1     -20.998  87.860  16.449  1.00  0.00    -0.029 C 
BRANCH   6   7
HETATM    7  C3  UNL     1     -21.339  87.915  15.016  1.00  0.00     0.046 C 
BRANCH   7   8
HETATM    8  C2  UNL     1     -21.680  89.422  14.743  1.00  0.00     0.125 C 
BRANCH   8   9
HETATM    9  N3  UNL     1     -22.643  89.400  13.663  1.00  0.00    -0.367 N 
HETATM   10  C1  UNL     1     -22.736  90.407  12.890  1.00  0.00     0.196 C 
HETATM   11  N1  UNL     1     -21.910  91.531  13.084  1.00  0.00    -0.067 NA
HETATM   12  N2  UNL     1     -23.674  90.393  11.834  1.00  0.00    -0.067 NA
ATOM     13  H3  UNL     1     -23.242  88.585  13.523  1.00  0.00     0.161 HD
ENDBRANCH   8   9
ENDBRANCH   7   8
ENDBRANCH   6   7
ENDBRANCH   5   6
ENDBRANCH   4   5
ENDBRANCH   3   4
ENDBRANCH   1   3
BRANCH   2  14
HETATM   14  C10 UNL     1     -18.120  91.765  14.207  1.00  0.00     0.029 A 
HETATM   15  C11 UNL     1     -17.907  93.121  14.445  1.00  0.00     0.041 A 
HETATM   16  C12 UNL     1     -17.870  94.002  13.385  1.00  0.00     0.124 A 
HETATM   17  N4  UNL     1     -18.041  93.555  12.133  1.00  0.00    -0.247 N 
HETATM   18  C13 UNL     1     -18.248  92.249  11.892  1.00  0.00     0.133 A 
HETATM   19  C14 UNL     1     -18.293  91.322  12.920  1.00  0.00     0.002 A 
BRANCH  17  20
HETATM   20  O1  UNL     1     -17.994  94.488  11.121  1.00  0.00    -0.284 OA
ATOM     21  H1  UNL     1     -17.200  95.006  11.046  1.00  0.00     0.245 HD
ENDBRANCH  17  20
BRANCH  19  22
HETATM   22  C15 UNL     1     -18.517  89.885  12.697  1.00  0.00     0.205 C 
BRANCH  22  23
HETATM   23  O2  UNL     1     -19.688  89.639  11.980  1.00  0.00    -0.396 OA
ATOM     24  H2  UNL     1     -19.868  88.710  11.896  1.00  0.00     0.209 HD
ENDBRANCH  22  23
ENDBRANCH  19  22
ENDBRANCH   2  14
TORSDOF 11
ENDMDL
MODEL 2
REMARK VINA RESULT: -6.176758936      2.448      5.202
REMARK  11 active torsions:
REMARK  status: ('A' for Active; 'I' for Inactive)
REMARK    1  A    between atoms: N3_4  and  C2_6 
REMARK    2  A    between atoms: C2_6  and  C3_7 
REMARK    3  A    between atoms: C3_7  and  C4_8 
REMARK    4  A    between atoms: C4_8  and  C5_9 
REMARK    5  A    between atoms: C5_9  and  C6_10 
REMARK    6  A    between atoms: C6_10  and  C7_11 
REMARK    7  A    between atoms: C7_11  and  C8_12 
REMARK    8  A    between atoms: C9_13  and  C10_14 
REMARK    9  A    between atoms: N4_17  and  O1_18 
REMARK   10  A    between atoms: C14_21  and  C15_22 
REMARK   11  A    between atoms: C15_22  and  O2_23 
ROOT
HETATM    1  C8  UNL     1     -17.302  91.022  14.633  1.00  0.00    -0.101 C 
HETATM    2  C9  UNL     1     -18.192  90.585  15.300  1.00  0.00    -0.066 C 
ENDROOT
BRANCH   1   3
HETATM    3  C7  UNL     1     -16.193  91.597  13.787  1.00  0.00     0.098 C 
BRANCH   3   4
HETATM    4  C6  UNL     1     -16.732  91.620  12.415  1.00  0.00     0.039 C 
BRANCH   4   5
HETATM    5  C5  UNL     1     -17.562  92.762  12.045  1.00  0.00    -0.030 C 
BRANCH   5   6
HETATM    6  C4  UNL     1     -19.014  92.708  11.898  1.00  0.00    -0.029 C 
BRANCH   6   7
HETATM    7  C3  UNL     1     -19.929  93.121  12.977  1.00  0.00     0.046 C 
BRANCH   7   8
HETATM    8  C2  UNL     1     -21.262  93.507  12.245  1.00  0.00     0.125 C 
BRANCH   8   9
HETATM    9  N3  UNL     1     -22.006  92.270  12.141  1.00  0.00    -0.367 N 
HETATM   10  C1  UNL     1     -22.430  91.893  11.002  1.00  0.00     0.196 C 
HETATM   11  N1  UNL     1     -22.178  92.670   9.855  1.00  0.00    -0.067 NA
HETATM   12  N2  UNL     1     -23.157  90.687  10.893  1.00  0.00    -0.067 NA
ATOM     13  H3  UNL     1     -22.188  91.707  12.972  1.00  0.00     0.161 HD
ENDBRANCH   8   9
ENDBRANCH   7   8
ENDBRANCH   6   7
ENDBRANCH   5   6
ENDBRANCH   4   5
ENDBRANCH   3   4
ENDBRANCH   1   3
BRANCH   2  14
HETATM   14  C10 UNL     1     -19.266  90.042  16.083  1.00  0.00     0.029 A 
HETATM   15  C11 UNL     1     -19.191  90.002  17.473  1.00  0.00     0.041 A 
HETATM   16  C12 UNL     1     -20.239  89.476  18.199  1.00  0.00     0.124 A 
HETATM   17  N4  UNL     1     -21.324  89.006  17.568  1.00  0.00    -0.247 N 
HETATM   18  C13 UNL     1     -21.408  89.039  16.227  1.00  0.00     0.133 A 
HETATM   19  C14 UNL     1     -20.384  89.557  15.451  1.00  0.00     0.002 A 
BRANCH  17  20
HETATM   20  O1  UNL     1     -22.334  88.493  18.352  1.00  0.00    -0.284 OA
ATOM     21  H1  UNL     1     -23.086  89.052  18.509  1.00  0.00     0.245 HD
ENDBRANCH  17  20
BRANCH  19  22
HETATM   22  C15 UNL     1     -20.438  89.612  13.982  1.00  0.00     0.205 C 
BRANCH  22  23
HETATM   23  O2  UNL     1     -21.747  89.601  13.502  1.00  0.00    -0.396 OA
ATOM     24  H2  UNL     1     -22.049  90.470  13.265  1.00  0.00     0.209 HD
ENDBRANCH  22  23
ENDBRANCH  19  22
ENDBRANCH   2  14
TORSDOF 11
ENDMDL
MODEL 3
REMARK VINA RESULT: -6.171095402      2.983      5.220
REMARK  11 active torsions:
REMARK  status: ('A' for Active; 'I' for Inactive)
REMARK    1  A    between atoms: N3_4  and  C2_6 
REMARK    2  A    between atoms: C2_6  and  C3_7 
REMARK    3  A    between atoms: C3_7  and  C4_8 
REMARK    4  A    between atoms: C4_8  and  C5_9 
REMARK    5  A    between atoms: C5_9  and  C6_10 
REMARK    6  A    between atoms: C6_10  and  C7_11 
REMARK    7  A    between atoms: C7_11  and  C8_12 
REMARK    8  A    between atoms: C9_13  and  C10_14 
REMARK    9  A    between atoms: N4_17  and  O1_18 
REMARK   10  A    between atoms: C14_21  and  C15_22 
REMARK   11  A    between atoms: C15_22  and  O2_23 
ROOT
HETATM    1  C8  UNL     1     -17.034  90.766  13.881  1.00  0.00    -0.101 C 
HETATM    2  C9  UNL     1     -17.817  90.113  14.504  1.00  0.00    -0.066 C 
ENDROOT
BRANCH   1   3
HETATM    3  C7  UNL     1     -16.037  91.603  13.117  1.00  0.00     0.098 C 
BRANCH   3   4
HETATM    4  C6  UNL     1     -16.727  91.974  11.869  1.00  0.00     0.039 C 
BRANCH   4   5
HETATM    5  C5  UNL     1     -17.807  92.951  11.969  1.00  0.00    -0.030 C 
BRANCH   5   6
HETATM    6  C4  UNL     1     -19.218  92.640  11.758  1.00  0.00    -0.029 C 
BRANCH   6   7
HETATM    7  C3  UNL     1     -20.176  92.539  12.873  1.00  0.00     0.046 C 
BRANCH   7   8
HETATM    8  C2  UNL     1     -20.963  91.209  12.605  1.00  0.00     0.125 C 
BRANCH   8   9
HETATM    9  N3  UNL     1     -22.357  91.596  12.577  1.00  0.00    -0.367 N 
HETATM   10  C1  UNL     1     -23.043  91.378  11.527  1.00  0.00     0.196 C 
HETATM   11  N1  UNL     1     -22.451  90.767  10.405  1.00  0.00    -0.067 NA
HETATM   12  N2  UNL     1     -24.404  91.753  11.492  1.00  0.00    -0.067 NA
ATOM     13  H3  UNL     1     -22.786  92.038  13.391  1.00  0.00     0.161 HD
ENDBRANCH   8   9
ENDBRANCH   7   8
ENDBRANCH   6   7
ENDBRANCH   5   6
ENDBRANCH   4   5
ENDBRANCH   3   4
ENDBRANCH   1   3
BRANCH   2  14
HETATM   14  C10 UNL     1     -18.776  89.341  15.243  1.00  0.00     0.029 A 
HETATM   15  C11 UNL     1     -19.821  89.958  15.926  1.00  0.00     0.041 A 
HETATM   16  C12 UNL     1     -20.728  89.189  16.626  1.00  0.00     0.124 A 
HETATM   17  N4  UNL     1     -20.602  87.856  16.648  1.00  0.00    -0.247 N 
HETATM   18  C13 UNL     1     -19.597  87.249  15.993  1.00  0.00     0.133 A 
HETATM   19  C14 UNL     1     -18.660  87.973  15.275  1.00  0.00     0.002 A 
BRANCH  17  20
HETATM   20  O1  UNL     1     -21.540  87.148  17.367  1.00  0.00    -0.284 OA
ATOM     21  H1  UNL     1     -21.292  86.860  18.238  1.00  0.00     0.245 HD
ENDBRANCH  17  20
BRANCH  19  22
HETATM   22  C15 UNL     1     -17.547  87.347  14.546  1.00  0.00     0.205 C 
BRANCH  22  23
HETATM   23  O2  UNL     1     -17.537  85.960  14.689  1.00  0.00    -0.396 OA
ATOM     24  H2  UNL     1     -17.122  85.526  13.953  1.00  0.00     0.209 HD
ENDBRANCH  22  23
ENDBRANCH  19  22
ENDBRANCH   2  14
TORSDOF 11
ENDMDL
MODEL 4
REMARK VINA RESULT: -6.112113326      1.781      2.614
REMARK  11 active torsions:
REMARK  status: ('A' for Active; 'I' for Inactive)
REMARK    1  A    between atoms: N3_4  and  C2_6 
REMARK    2  A    between atoms: C2_6  and  C3_7 
REMARK    3  A    between atoms: C3_7  and  C4_8 
REMARK    4  A    between atoms: C4_8  and  C5_9 
REMARK    5  A    between atoms: C5_9  and  C6_10 
REMARK    6  A    between atoms: C6_10  and  C7_11 
REMARK    7  A    between atoms: C7_11  and  C8_12 
REMARK    8  A    between atoms: C9_13  and  C10_14 
REMARK    9  A    between atoms: N4_17  and  O1_18 
REMARK   10  A    between atoms: C14_21  and  C15_22 
REMARK   11  A    between atoms: C15_22  and  O2_23 
ROOT
HETATM    1  C8  UNL     1     -18.240  88.977  14.752  1.00  0.00    -0.101 C 
HETATM    2  C9  UNL     1     -18.408  89.858  13.962  1.00  0.00    -0.066 C 
ENDROOT
BRANCH   1   3
HETATM    3  C7  UNL     1     -18.046  87.877  15.767  1.00  0.00     0.098 C 
BRANCH   3   4
HETATM    4  C6  UNL     1     -17.634  88.567  17.003  1.00  0.00     0.039 C 
BRANCH   4   5
HETATM    5  C5  UNL     1     -18.660  88.783  18.019  1.00  0.00    -0.030 C 
BRANCH   5   6
HETATM    6  C4  UNL     1     -19.810  89.666  17.849  1.00  0.00    -0.029 C 
BRANCH   6   7
HETATM    7  C3  UNL     1     -21.190  89.218  18.107  1.00  0.00     0.046 C 
BRANCH   7   8
HETATM    8  C2  UNL     1     -21.516  88.229  16.934  1.00  0.00     0.125 C 
BRANCH   8   9
HETATM    9  N3  UNL     1     -22.099  89.055  15.897  1.00  0.00    -0.367 N 
HETATM   10  C1  UNL     1     -22.059  88.657  14.689  1.00  0.00     0.196 C 
HETATM   11  N1  UNL     1     -21.455  87.428  14.363  1.00  0.00    -0.067 NA
HETATM   12  N2  UNL     1     -22.625  89.458  13.672  1.00  0.00    -0.067 NA
ATOM     13  H3  UNL     1     -22.537  89.945  16.133  1.00  0.00     0.161 HD
ENDBRANCH   8   9
ENDBRANCH   7   8
ENDBRANCH   6   7
ENDBRANCH   5   6
ENDBRANCH   4   5
ENDBRANCH   3   4
ENDBRANCH   1   3
BRANCH   2  14
HETATM   14  C10 UNL     1     -18.587  90.924  13.017  1.00  0.00     0.029 A 
HETATM   15  C11 UNL     1     -19.802  91.105  12.361  1.00  0.00     0.041 A 
HETATM   16  C12 UNL     1     -19.944  92.139  11.459  1.00  0.00     0.124 A 
HETATM   17  N4  UNL     1     -18.916  92.964  11.216  1.00  0.00    -0.247 N 
HETATM   18  C13 UNL     1     -17.739  92.799  11.842  1.00  0.00     0.133 A 
HETATM   19  C14 UNL     1     -17.543  91.777  12.757  1.00  0.00     0.002 A 
BRANCH  17  20
HETATM   20  O1  UNL     1     -19.125  93.975  10.304  1.00  0.00    -0.284 OA
ATOM     21  H1  UNL     1     -19.155  93.731   9.386  1.00  0.00     0.245 HD
ENDBRANCH  17  20
BRANCH  19  22
HETATM   22  C15 UNL     1     -16.270  91.564  13.463  1.00  0.00     0.205 C 
BRANCH  22  23
HETATM   23  O2  UNL     1     -15.229  91.253  12.590  1.00  0.00    -0.396 OA
ATOM     24  H2  UNL     1     -14.638  91.986  12.461  1.00  0.00     0.209 HD
ENDBRANCH  22  23
ENDBRANCH  19  22
ENDBRANCH   2  14
TORSDOF 11
ENDMDL
MODEL 5
REMARK VINA RESULT: -6.066939532      0.826      1.127
REMARK  11 active torsions:
REMARK  status: ('A' for Active; 'I' for Inactive)
REMARK    1  A    between atoms: N3_4  and  C2_6 
REMARK    2  A    between atoms: C2_6  and  C3_7 
REMARK    3  A    between atoms: C3_7  and  C4_8 
REMARK    4  A    between atoms: C4_8  and  C5_9 
REMARK    5  A    between atoms: C5_9  and  C6_10 
REMARK    6  A    between atoms: C6_10  and  C7_11 
REMARK    7  A    between atoms: C7_11  and  C8_12 
REMARK    8  A    between atoms: C9_13  and  C10_14 
REMARK    9  A    between atoms: N4_17  and  O1_18 
REMARK   10  A    between atoms: C14_21  and  C15_22 
REMARK   11  A    between atoms: C15_22  and  O2_23 
ROOT
HETATM    1  C8  UNL     1     -18.298  90.432  16.084  1.00  0.00    -0.101 C 
HETATM    2  C9  UNL     1     -18.269  91.171  15.145  1.00  0.00    -0.066 C 
ENDROOT
BRANCH   1   3
HETATM    3  C7  UNL     1     -18.360  89.493  17.263  1.00  0.00     0.098 C 
BRANCH   3   4
HETATM    4  C6  UNL     1     -19.794  89.381  17.588  1.00  0.00     0.039 C 
BRANCH   4   5
HETATM    5  C5  UNL     1     -20.597  88.490  16.756  1.00  0.00    -0.030 C 
BRANCH   5   6
HETATM    6  C4  UNL     1     -21.618  88.944  15.817  1.00  0.00    -0.029 C 
BRANCH   6   7
HETATM    7  C3  UNL     1     -21.360  89.059  14.370  1.00  0.00     0.046 C 
BRANCH   7   8
HETATM    8  C2  UNL     1     -22.460  90.045  13.844  1.00  0.00     0.125 C 
BRANCH   8   9
HETATM    9  N3  UNL     1     -21.849  90.726  12.723  1.00  0.00    -0.367 N 
HETATM   10  C1  UNL     1     -22.513  90.873  11.646  1.00  0.00     0.196 C 
HETATM   11  N1  UNL     1     -23.827  90.378  11.548  1.00  0.00    -0.067 NA
HETATM   12  N2  UNL     1     -21.923  91.537  10.548  1.00  0.00    -0.067 NA
ATOM     13  H3  UNL     1     -20.896  91.085  12.794  1.00  0.00     0.161 HD
ENDBRANCH   8   9
ENDBRANCH   7   8
ENDBRANCH   6   7
ENDBRANCH   5   6
ENDBRANCH   4   5
ENDBRANCH   3   4
ENDBRANCH   1   3
BRANCH   2  14
HETATM   14  C10 UNL     1     -18.235  92.078  14.032  1.00  0.00     0.029 A 
HETATM   15  C11 UNL     1     -18.141  93.454  14.231  1.00  0.00     0.041 A 
HETATM   16  C12 UNL     1     -18.109  94.300  13.141  1.00  0.00     0.124 A 
HETATM   17  N4  UNL     1     -18.169  93.799  11.900  1.00  0.00    -0.247 N 
HETATM   18  C13 UNL     1     -18.260  92.474  11.696  1.00  0.00     0.133 A 
HETATM   19  C14 UNL     1     -18.295  91.580  12.754  1.00  0.00     0.002 A 
BRANCH  17  20
HETATM   20  O1  UNL     1     -18.133  94.699  10.858  1.00  0.00    -0.284 OA
ATOM     21  H1  UNL     1     -17.438  94.594  10.218  1.00  0.00     0.245 HD
ENDBRANCH  17  20
BRANCH  19  22
HETATM   22  C15 UNL     1     -18.394  90.124  12.573  1.00  0.00     0.205 C 
BRANCH  22  23
HETATM   23  O2  UNL     1     -19.345  89.775  11.615  1.00  0.00    -0.396 OA
ATOM     24  H2  UNL     1     -19.006  89.151  10.984  1.00  0.00     0.209 HD
ENDBRANCH  22  23
ENDBRANCH  19  22
ENDBRANCH   2  14
TORSDOF 11
ENDMDL
