MODEL 1
REMARK VINA RESULT: -8.085215455      0.000      0.000
REMARK  8 active torsions:
REMARK  status: ('A' for Active; 'I' for Inactive)
REMARK    1  A    between atoms: N3_4  and  C2_6 
REMARK    2  A    between atoms: C2_6  and  C3_7 
REMARK    3  A    between atoms: C3_7  and  C4_8 
REMARK    4  A    between atoms: C4_8  and  N4_9 
REMARK       I    between atoms: C5_11  and  N6_13 
REMARK    5  A    between atoms: N6_13  and  C6_15 
REMARK    6  A    between atoms: N10_27  and  C10_29 
REMARK    7  A    between atoms: C10_29  and  C11_30 
REMARK    8  A    between atoms: C11_30  and  O3_31 
ROOT
HETATM    1  C6  UNL     1      -4.559  46.946  54.217  1.00  0.00     0.156 C 
HETATM    2  N7  UNL     1      -5.579  47.571  53.578  1.00  0.00    -0.291 N 
ATOM      3  H7  UNL     1      -6.476  47.085  53.602  1.00  0.00     0.172 HD
HETATM    4  C7  UNL     1      -5.575  48.733  52.922  1.00  0.00     0.329 C 
HETATM    5  O1  UNL     1      -6.665  48.978  52.345  1.00  0.00    -0.246 OA
HETATM    6  N8  UNL     1      -4.573  49.610  52.830  1.00  0.00    -0.260 N 
ATOM      7  H8  UNL     1      -4.829  50.543  52.505  1.00  0.00     0.175 HD
HETATM    8  C8  UNL     1      -3.251  49.421  53.113  1.00  0.00     0.329 C 
HETATM    9  O2  UNL     1      -2.508  50.344  52.739  1.00  0.00    -0.246 OA
HETATM   10  N9  UNL     1      -2.644  48.395  53.733  1.00  0.00    -0.291 N 
ATOM     11  H9  UNL     1      -1.672  48.531  54.010  1.00  0.00     0.172 HD
HETATM   12  C9  UNL     1      -3.214  47.184  54.027  1.00  0.00     0.150 C 
HETATM   13  N10 UNL     1      -2.386  46.232  54.115  1.00  0.00    -0.371 N 
ATOM     14  H10 UNL     1      -1.417  46.512  53.959  1.00  0.00     0.161 HD
ENDROOT
BRANCH   1  15
HETATM   15  N6  UNL     1      -4.820  46.057  55.077  1.00  0.00    -0.314 N 
HETATM   16  C5  UNL     1      -5.566  46.154  56.243  1.00  0.00     0.189 C 
HETATM   17  N4  UNL     1      -5.087  46.687  57.309  1.00  0.00    -0.364 N 
HETATM   18  N5  UNL     1      -6.883  45.654  56.261  1.00  0.00    -0.063 NA
ATOM     19  H4  UNL     1      -4.131  47.042  57.271  1.00  0.00     0.162 HD
ATOM     20  H6  UNL     1      -4.425  45.137  54.887  1.00  0.00     0.170 HD
BRANCH  17  21
HETATM   21  C4  UNL     1      -5.795  46.820  58.542  1.00  0.00     0.124 C 
BRANCH  21  22
HETATM   22  C3  UNL     1      -5.264  47.934  59.413  1.00  0.00     0.039 C 
BRANCH  22  23
HETATM   23  C2  UNL     1      -4.914  47.316  60.755  1.00  0.00     0.123 C 
BRANCH  23  24
HETATM   24  N3  UNL     1      -3.639  46.653  60.606  1.00  0.00    -0.367 N 
HETATM   25  C1  UNL     1      -3.517  45.401  60.860  1.00  0.00     0.196 C 
HETATM   26  N1  UNL     1      -2.243  44.768  60.704  1.00  0.00    -0.067 NA
HETATM   27  N2  UNL     1      -4.663  44.687  61.290  1.00  0.00    -0.067 NA
ATOM     28  H3  UNL     1      -2.827  47.186  60.295  1.00  0.00     0.161 HD
ENDBRANCH  23  24
ENDBRANCH  22  23
ENDBRANCH  21  22
ENDBRANCH  17  21
ENDBRANCH   1  15
BRANCH  13  29
HETATM   29  C10 UNL     1      -2.545  44.858  54.389  1.00  0.00     0.147 C 
BRANCH  29  30
HETATM   30  C11 UNL     1      -1.133  44.242  54.455  1.00  0.00     0.183 C 
BRANCH  30  31
HETATM   31  O3  UNL     1      -0.683  44.356  55.769  1.00  0.00    -0.399 OA
ATOM     32  H3  UNL     1       0.263  44.266  55.759  1.00  0.00     0.209 HD
ENDBRANCH  30  31
ENDBRANCH  29  30
ENDBRANCH  13  29
TORSDOF 8
ENDMDL
MODEL 2
REMARK VINA RESULT: -8.025938135      2.157      3.607
REMARK  8 active torsions:
REMARK  status: ('A' for Active; 'I' for Inactive)
REMARK    1  A    between atoms: N3_4  and  C2_6 
REMARK    2  A    between atoms: C2_6  and  C3_7 
REMARK    3  A    between atoms: C3_7  and  C4_8 
REMARK    4  A    between atoms: C4_8  and  N4_9 
REMARK       I    between atoms: C5_11  and  N6_13 
REMARK    5  A    between atoms: N6_13  and  C6_15 
REMARK    6  A    between atoms: N10_27  and  C10_29 
REMARK    7  A    between atoms: C10_29  and  C11_30 
REMARK    8  A    between atoms: C11_30  and  O3_31 
ROOT
HETATM    1  C6  UNL     1      -4.198  46.319  54.067  1.00  0.00     0.156 C 
HETATM    2  N7  UNL     1      -5.301  46.576  53.320  1.00  0.00    -0.291 N 
ATOM      3  H7  UNL     1      -6.117  45.999  53.530  1.00  0.00     0.172 HD
HETATM    4  C7  UNL     1      -5.470  47.476  52.350  1.00  0.00     0.329 C 
HETATM    5  O1  UNL     1      -6.587  47.381  51.779  1.00  0.00    -0.246 OA
HETATM    6  N8  UNL     1      -4.609  48.415  51.954  1.00  0.00    -0.260 N 
ATOM      7  H8  UNL     1      -5.000  49.162  51.380  1.00  0.00     0.175 HD
HETATM    8  C8  UNL     1      -3.273  48.506  52.218  1.00  0.00     0.329 C 
HETATM    9  O2  UNL     1      -2.674  49.367  51.552  1.00  0.00    -0.246 OA
HETATM   10  N9  UNL     1      -2.518  47.809  53.084  1.00  0.00    -0.291 N 
ATOM     11  H9  UNL     1      -1.576  48.155  53.262  1.00  0.00     0.172 HD
HETATM   12  C9  UNL     1      -2.903  46.674  53.751  1.00  0.00     0.150 C 
HETATM   13  N10 UNL     1      -1.943  45.918  54.078  1.00  0.00    -0.371 N 
ATOM     14  H10 UNL     1      -1.028  46.270  53.800  1.00  0.00     0.161 HD
ENDROOT
BRANCH   1  15
HETATM   15  N6  UNL     1      -4.322  45.703  55.163  1.00  0.00    -0.314 N 
HETATM   16  C5  UNL     1      -5.248  45.893  56.179  1.00  0.00     0.189 C 
HETATM   17  N4  UNL     1      -5.137  46.855  57.022  1.00  0.00    -0.364 N 
HETATM   18  N5  UNL     1      -6.339  45.008  56.290  1.00  0.00    -0.063 NA
ATOM     19  H4  UNL     1      -4.340  47.483  56.921  1.00  0.00     0.162 HD
ATOM     20  H6  UNL     1      -3.643  44.959  55.325  1.00  0.00     0.170 HD
BRANCH  17  21
HETATM   21  C4  UNL     1      -6.049  47.110  58.091  1.00  0.00     0.124 C 
BRANCH  21  22
HETATM   22  C3  UNL     1      -7.215  47.980  57.680  1.00  0.00     0.039 C 
BRANCH  22  23
HETATM   23  C2  UNL     1      -6.642  49.337  57.309  1.00  0.00     0.123 C 
BRANCH  23  24
HETATM   24  N3  UNL     1      -7.211  49.711  56.035  1.00  0.00    -0.367 N 
HETATM   25  C1  UNL     1      -6.476  49.787  54.986  1.00  0.00     0.196 C 
HETATM   26  N1  UNL     1      -7.063  50.160  53.735  1.00  0.00    -0.067 NA
HETATM   27  N2  UNL     1      -5.094  49.494  55.110  1.00  0.00    -0.067 NA
ATOM     28  H3  UNL     1      -8.207  49.918  55.969  1.00  0.00     0.161 HD
ENDBRANCH  23  24
ENDBRANCH  22  23
ENDBRANCH  21  22
ENDBRANCH  17  21
ENDBRANCH   1  15
BRANCH  13  29
HETATM   29  C10 UNL     1      -1.898  44.681  54.754  1.00  0.00     0.147 C 
BRANCH  29  30
HETATM   30  C11 UNL     1      -0.738  43.872  54.141  1.00  0.00     0.183 C 
BRANCH  30  31
HETATM   31  O3  UNL     1       0.184  43.619  55.156  1.00  0.00    -0.399 OA
ATOM     32  H3  UNL     1       0.639  44.433  55.341  1.00  0.00     0.209 HD
ENDBRANCH  30  31
ENDBRANCH  29  30
ENDBRANCH  13  29
TORSDOF 8
ENDMDL
MODEL 3
REMARK VINA RESULT: -7.987875548      1.886      3.184
REMARK  8 active torsions:
REMARK  status: ('A' for Active; 'I' for Inactive)
REMARK    1  A    between atoms: N3_4  and  C2_6 
REMARK    2  A    between atoms: C2_6  and  C3_7 
REMARK    3  A    between atoms: C3_7  and  C4_8 
REMARK    4  A    between atoms: C4_8  and  N4_9 
REMARK       I    between atoms: C5_11  and  N6_13 
REMARK    5  A    between atoms: N6_13  and  C6_15 
REMARK    6  A    between atoms: N10_27  and  C10_29 
REMARK    7  A    between atoms: C10_29  and  C11_30 
REMARK    8  A    between atoms: C11_30  and  O3_31 
ROOT
HETATM    1  C6  UNL     1      -4.292  46.408  54.086  1.00  0.00     0.156 C 
HETATM    2  N7  UNL     1      -5.402  46.822  53.423  1.00  0.00    -0.291 N 
ATOM      3  H7  UNL     1      -6.241  46.263  53.581  1.00  0.00     0.172 HD
HETATM    4  C7  UNL     1      -5.550  47.857  52.594  1.00  0.00     0.329 C 
HETATM    5  O1  UNL     1      -6.686  47.899  52.057  1.00  0.00    -0.246 OA
HETATM    6  N8  UNL     1      -4.651  48.798  52.301  1.00  0.00    -0.260 N 
ATOM      7  H8  UNL     1      -5.017  49.637  51.851  1.00  0.00     0.175 HD
HETATM    8  C8  UNL     1      -3.304  48.784  52.526  1.00  0.00     0.329 C 
HETATM    9  O2  UNL     1      -2.680  49.700  51.965  1.00  0.00    -0.246 OA
HETATM   10  N9  UNL     1      -2.564  47.936  53.259  1.00  0.00    -0.291 N 
ATOM     11  H9  UNL     1      -1.599  48.206  53.449  1.00  0.00     0.172 HD
HETATM   12  C9  UNL     1      -2.990  46.739  53.775  1.00  0.00     0.150 C 
HETATM   13  N10 UNL     1      -2.064  45.898  53.959  1.00  0.00    -0.371 N 
ATOM     14  H10 UNL     1      -1.139  46.239  53.699  1.00  0.00     0.161 HD
ENDROOT
BRANCH   1  15
HETATM   15  N6  UNL     1      -4.418  45.651  55.090  1.00  0.00    -0.314 N 
HETATM   16  C5  UNL     1      -5.243  45.787  56.197  1.00  0.00     0.189 C 
HETATM   17  N4  UNL     1      -4.959  46.592  57.156  1.00  0.00    -0.364 N 
HETATM   18  N5  UNL     1      -6.425  45.024  56.273  1.00  0.00    -0.063 NA
ATOM     19  H4  UNL     1      -4.098  47.135  57.079  1.00  0.00     0.162 HD
ATOM     20  H6  UNL     1      -3.827  44.820  55.086  1.00  0.00     0.170 HD
BRANCH  17  21
HETATM   21  C4  UNL     1      -5.759  46.783  58.324  1.00  0.00     0.124 C 
BRANCH  21  22
HETATM   22  C3  UNL     1      -5.633  48.172  58.907  1.00  0.00     0.039 C 
BRANCH  22  23
HETATM   23  C2  UNL     1      -6.011  49.147  57.806  1.00  0.00     0.123 C 
BRANCH  23  24
HETATM   24  N3  UNL     1      -7.453  49.160  57.718  1.00  0.00    -0.367 N 
HETATM   25  C1  UNL     1      -8.046  48.849  56.623  1.00  0.00     0.196 C 
HETATM   26  N1  UNL     1      -9.476  48.870  56.562  1.00  0.00    -0.067 NA
HETATM   27  N2  UNL     1      -7.251  48.494  55.505  1.00  0.00    -0.067 NA
ATOM     28  H3  UNL     1      -8.006  49.420  58.535  1.00  0.00     0.161 HD
ENDBRANCH  23  24
ENDBRANCH  22  23
ENDBRANCH  21  22
ENDBRANCH  17  21
ENDBRANCH   1  15
BRANCH  13  29
HETATM   29  C10 UNL     1      -2.066  44.577  54.455  1.00  0.00     0.147 C 
BRANCH  29  30
HETATM   30  C11 UNL     1      -0.622  44.254  54.887  1.00  0.00     0.183 C 
BRANCH  30  31
HETATM   31  O3  UNL     1      -0.585  44.266  56.280  1.00  0.00    -0.399 OA
ATOM     32  H3  UNL     1      -0.490  45.170  56.558  1.00  0.00     0.209 HD
ENDBRANCH  30  31
ENDBRANCH  29  30
ENDBRANCH  13  29
TORSDOF 8
ENDMDL
MODEL 4
REMARK VINA RESULT: -7.941100519      3.040      5.416
REMARK  8 active torsions:
REMARK  status: ('A' for Active; 'I' for Inactive)
REMARK    1  A    between atoms: N3_4  and  C2_6 
REMARK    2  A    between atoms: C2_6  and  C3_7 
REMARK    3  A    between atoms: C3_7  and  C4_8 
REMARK    4  A    between atoms: C4_8  and  N4_9 
REMARK       I    between atoms: C5_11  and  N6_13 
REMARK    5  A    between atoms: N6_13  and  C6_15 
REMARK    6  A    between atoms: N10_27  and  C10_29 
REMARK    7  A    between atoms: C10_29  and  C11_30 
REMARK    8  A    between atoms: C11_30  and  O3_31 
ROOT
HETATM    1  C6  UNL     1      -2.984  47.754  53.234  1.00  0.00     0.156 C 
HETATM    2  N7  UNL     1      -1.721  47.355  53.528  1.00  0.00    -0.291 N 
ATOM      3  H7  UNL     1      -1.008  48.084  53.480  1.00  0.00     0.172 HD
HETATM    4  C7  UNL     1      -1.279  46.144  53.871  1.00  0.00     0.329 C 
HETATM    5  O1  UNL     1      -0.027  46.085  53.969  1.00  0.00    -0.246 OA
HETATM    6  N8  UNL     1      -2.007  45.051  54.106  1.00  0.00    -0.260 N 
ATOM      7  H8  UNL     1      -1.527  44.294  54.594  1.00  0.00     0.175 HD
HETATM    8  C8  UNL     1      -3.311  44.813  53.779  1.00  0.00     0.329 C 
HETATM    9  O2  UNL     1      -3.673  43.634  53.932  1.00  0.00    -0.246 OA
HETATM   10  N9  UNL     1      -4.251  45.658  53.324  1.00  0.00    -0.291 N 
ATOM     11  H9  UNL     1      -5.213  45.322  53.316  1.00  0.00     0.172 HD
HETATM   12  C9  UNL     1      -4.031  46.933  52.870  1.00  0.00     0.150 C 
HETATM   13  N10 UNL     1      -4.895  47.342  52.042  1.00  0.00    -0.371 N 
ATOM     14  H10 UNL     1      -5.627  46.661  51.840  1.00  0.00     0.161 HD
ENDROOT
BRANCH   1  15
HETATM   15  N6  UNL     1      -3.274  48.983  53.290  1.00  0.00    -0.314 N 
HETATM   16  C5  UNL     1      -3.571  49.767  54.396  1.00  0.00     0.189 C 
HETATM   17  N4  UNL     1      -4.724  49.729  54.961  1.00  0.00    -0.364 N 
HETATM   18  N5  UNL     1      -2.584  50.630  54.914  1.00  0.00    -0.063 NA
ATOM     19  H4  UNL     1      -5.422  49.096  54.568  1.00  0.00     0.162 HD
ATOM     20  H6  UNL     1      -3.292  49.468  52.394  1.00  0.00     0.170 HD
BRANCH  17  21
HETATM   21  C4  UNL     1      -5.100  50.506  56.098  1.00  0.00     0.124 C 
BRANCH  21  22
HETATM   22  C3  UNL     1      -5.773  49.690  57.177  1.00  0.00     0.039 C 
BRANCH  22  23
HETATM   23  C2  UNL     1      -6.977  49.022  56.536  1.00  0.00     0.123 C 
BRANCH  23  24
HETATM   24  N3  UNL     1      -6.972  47.637  56.949  1.00  0.00    -0.367 N 
HETATM   25  C1  UNL     1      -6.848  46.696  56.086  1.00  0.00     0.196 C 
HETATM   26  N1  UNL     1      -6.846  45.332  56.521  1.00  0.00    -0.067 NA
HETATM   27  N2  UNL     1      -6.717  47.049  54.719  1.00  0.00    -0.067 NA
ATOM     28  H3  UNL     1      -7.068  47.405  57.938  1.00  0.00     0.161 HD
ENDBRANCH  23  24
ENDBRANCH  22  23
ENDBRANCH  21  22
ENDBRANCH  17  21
ENDBRANCH   1  15
BRANCH  13  29
HETATM   29  C10 UNL     1      -5.039  48.558  51.343  1.00  0.00     0.147 C 
BRANCH  29  30
HETATM   30  C11 UNL     1      -6.324  49.231  51.865  1.00  0.00     0.183 C 
BRANCH  30  31
HETATM   31  O3  UNL     1      -6.567  50.351  51.073  1.00  0.00    -0.399 OA
ATOM     32  H3  UNL     1      -6.323  51.119  51.577  1.00  0.00     0.209 HD
ENDBRANCH  30  31
ENDBRANCH  29  30
ENDBRANCH  13  29
TORSDOF 8
ENDMDL
MODEL 5
REMARK VINA RESULT: -7.568237667      1.750      3.076
REMARK  8 active torsions:
REMARK  status: ('A' for Active; 'I' for Inactive)
REMARK    1  A    between atoms: N3_4  and  C2_6 
REMARK    2  A    between atoms: C2_6  and  C3_7 
REMARK    3  A    between atoms: C3_7  and  C4_8 
REMARK    4  A    between atoms: C4_8  and  N4_9 
REMARK       I    between atoms: C5_11  and  N6_13 
REMARK    5  A    between atoms: N6_13  and  C6_15 
REMARK    6  A    between atoms: N10_27  and  C10_29 
REMARK    7  A    between atoms: C10_29  and  C11_30 
REMARK    8  A    between atoms: C11_30  and  O3_31 
ROOT
HETATM    1  C6  UNL     1      -4.540  46.900  54.203  1.00  0.00     0.156 C 
HETATM    2  N7  UNL     1      -5.563  47.524  53.566  1.00  0.00    -0.291 N 
ATOM      3  H7  UNL     1      -6.456  47.030  53.584  1.00  0.00     0.172 HD
HETATM    4  C7  UNL     1      -5.565  48.690  52.919  1.00  0.00     0.329 C 
HETATM    5  O1  UNL     1      -6.656  48.932  52.341  1.00  0.00    -0.246 OA
HETATM    6  N8  UNL     1      -4.570  49.575  52.837  1.00  0.00    -0.260 N 
ATOM      7  H8  UNL     1      -4.831  50.508  52.519  1.00  0.00     0.175 HD
HETATM    8  C8  UNL     1      -3.248  49.394  53.123  1.00  0.00     0.329 C 
HETATM    9  O2  UNL     1      -2.510  50.324  52.758  1.00  0.00    -0.246 OA
HETATM   10  N9  UNL     1      -2.634  48.368  53.736  1.00  0.00    -0.291 N 
ATOM     11  H9  UNL     1      -1.664  48.508  54.017  1.00  0.00     0.172 HD
HETATM   12  C9  UNL     1      -3.196  47.150  54.018  1.00  0.00     0.150 C 
HETATM   13  N10 UNL     1      -2.361  46.203  54.102  1.00  0.00    -0.371 N 
ATOM     14  H10 UNL     1      -1.395  46.491  53.951  1.00  0.00     0.161 HD
ENDROOT
BRANCH   1  15
HETATM   15  N6  UNL     1      -4.797  46.003  55.055  1.00  0.00    -0.314 N 
HETATM   16  C5  UNL     1      -5.555  46.082  56.214  1.00  0.00     0.189 C 
HETATM   17  N4  UNL     1      -5.094  46.616  57.288  1.00  0.00    -0.364 N 
HETATM   18  N5  UNL     1      -6.866  45.565  56.217  1.00  0.00    -0.063 NA
ATOM     19  H4  UNL     1      -4.143  46.984  57.262  1.00  0.00     0.162 HD
ATOM     20  H6  UNL     1      -4.387  45.089  54.864  1.00  0.00     0.170 HD
BRANCH  17  21
HETATM   21  C4  UNL     1      -5.815  46.731  58.515  1.00  0.00     0.124 C 
BRANCH  21  22
HETATM   22  C3  UNL     1      -5.796  48.131  59.084  1.00  0.00     0.039 C 
BRANCH  22  23
HETATM   23  C2  UNL     1      -6.918  48.897  58.404  1.00  0.00     0.123 C 
BRANCH  23  24
HETATM   24  N3  UNL     1      -6.307  49.890  57.551  1.00  0.00    -0.367 N 
HETATM   25  C1  UNL     1      -6.597  49.948  56.302  1.00  0.00     0.196 C 
HETATM   26  N1  UNL     1      -5.978  50.941  55.477  1.00  0.00    -0.067 NA
HETATM   27  N2  UNL     1      -7.529  49.015  55.783  1.00  0.00    -0.067 NA
ATOM     28  H3  UNL     1      -5.639  50.551  57.945  1.00  0.00     0.161 HD
ENDBRANCH  23  24
ENDBRANCH  22  23
ENDBRANCH  21  22
ENDBRANCH  17  21
ENDBRANCH   1  15
BRANCH  13  29
HETATM   29  C10 UNL     1      -2.512  44.826  54.364  1.00  0.00     0.147 C 
BRANCH  29  30
HETATM   30  C11 UNL     1      -1.095  44.224  54.454  1.00  0.00     0.183 C 
BRANCH  30  31
HETATM   31  O3  UNL     1      -0.665  44.348  55.774  1.00  0.00    -0.399 OA
ATOM     32  H3  UNL     1      -0.949  45.198  56.091  1.00  0.00     0.209 HD
ENDBRANCH  30  31
ENDBRANCH  29  30
ENDBRANCH  13  29
TORSDOF 8
ENDMDL
