MODEL 1
REMARK VINA RESULT: -5.115267995      0.000      0.000
REMARK  2 active torsions:
REMARK  status: ('A' for Active; 'I' for Inactive)
REMARK    1  A    between atoms: N1_1  and  C1_5 
REMARK    2  A    between atoms: C1_5  and  C2_6 
ROOT
HETATM    1  C2  UNL     1     -21.057 -51.211 -12.494  1.00  0.00    -0.013 C 
HETATM    2  C3  UNL     1     -21.144 -51.555 -13.977  1.00  0.00     0.016 C 
HETATM    3  C4  UNL     1     -20.992 -53.057 -14.138  1.00  0.00    -0.010 C 
HETATM    4  C5  UNL     1     -22.154 -53.689 -13.389  1.00  0.00     0.009 C 
HETATM    5  C6  UNL     1     -22.046 -53.385 -11.920  1.00  0.00    -0.010 C 
HETATM    6  C7  UNL     1     -20.703 -53.868 -11.422  1.00  0.00     0.048 C 
HETATM    7  C8  UNL     1     -19.604 -53.123 -12.105  1.00  0.00     0.105 C 
HETATM    8  F1  UNL     1     -18.374 -53.534 -11.617  1.00  0.00    -0.243 F 
HETATM    9  C9  UNL     1     -19.658 -53.485 -13.591  1.00  0.00     0.048 C 
HETATM   10  C10 UNL     1     -19.715 -51.635 -11.997  1.00  0.00     0.054 C 
HETATM   11  C11 UNL     1     -22.153 -51.909 -11.716  1.00  0.00     0.016 C 
ENDROOT
BRANCH   1  12
HETATM   12  C1  UNL     1     -21.304 -49.728 -12.378  1.00  0.00     0.239 C 
BRANCH  12  13
HETATM   13  N1  UNL     1     -22.700 -49.378 -12.438  1.00  0.00    -0.079 N 
ATOM     14  H13 UNL     1     -23.111 -49.675 -13.323  1.00  0.00     0.274 HD
ATOM     15  H12 UNL     1     -23.246 -49.953 -11.797  1.00  0.00     0.274 HD
ATOM     16  H11 UNL     1     -22.874 -48.386 -12.272  1.00  0.00     0.274 HD
ENDBRANCH  12  13
ENDBRANCH   1  12
TORSDOF 2
ENDMDL
MODEL 2
REMARK VINA RESULT: -5.013523215      1.277      2.395
REMARK  2 active torsions:
REMARK  status: ('A' for Active; 'I' for Inactive)
REMARK    1  A    between atoms: N1_1  and  C1_5 
REMARK    2  A    between atoms: C1_5  and  C2_6 
ROOT
HETATM    1  C2  UNL     1     -21.072 -51.240 -12.500  1.00  0.00    -0.013 C 
HETATM    2  C3  UNL     1     -22.208 -51.967 -11.789  1.00  0.00     0.016 C 
HETATM    3  C4  UNL     1     -22.010 -53.463 -11.956  1.00  0.00    -0.010 C 
HETATM    4  C5  UNL     1     -20.684 -53.797 -11.293  1.00  0.00     0.009 C 
HETATM    5  C6  UNL     1     -19.558 -53.114 -12.020  1.00  0.00    -0.010 C 
HETATM    6  C7  UNL     1     -19.599 -53.524 -13.474  1.00  0.00     0.048 C 
HETATM    7  C8  UNL     1     -20.872 -53.059 -14.103  1.00  0.00     0.105 C 
HETATM    8  F1  UNL     1     -20.891 -53.397 -15.447  1.00  0.00    -0.243 F 
HETATM    9  C9  UNL     1     -22.020 -53.806 -13.421  1.00  0.00     0.048 C 
HETATM   10  C10 UNL     1     -21.130 -51.593 -13.949  1.00  0.00     0.054 C 
HETATM   11  C11 UNL     1     -19.733 -51.634 -11.913  1.00  0.00     0.016 C 
ENDROOT
BRANCH   1  12
HETATM   12  C1  UNL     1     -21.261 -49.769 -12.229  1.00  0.00     0.239 C 
BRANCH  12  13
HETATM   13  N1  UNL     1     -22.612 -49.319 -12.446  1.00  0.00    -0.079 N 
ATOM     14  H13 UNL     1     -22.622 -48.432 -12.950  1.00  0.00     0.274 HD
ATOM     15  H12 UNL     1     -23.084 -49.907 -13.132  1.00  0.00     0.274 HD
ATOM     16  H11 UNL     1     -23.158 -49.255 -11.587  1.00  0.00     0.274 HD
ENDBRANCH  12  13
ENDBRANCH   1  12
TORSDOF 2
ENDMDL
MODEL 3
REMARK VINA RESULT: -4.987985330      1.521      2.643
REMARK  2 active torsions:
REMARK  status: ('A' for Active; 'I' for Inactive)
REMARK    1  A    between atoms: N1_1  and  C1_5 
REMARK    2  A    between atoms: C1_5  and  C2_6 
ROOT
HETATM    1  C2  UNL     1     -21.475 -51.578 -12.418  1.00  0.00    -0.013 C 
HETATM    2  C3  UNL     1     -20.321 -51.759 -11.439  1.00  0.00     0.016 C 
HETATM    3  C4  UNL     1     -19.776 -53.169 -11.582  1.00  0.00    -0.010 C 
HETATM    4  C5  UNL     1     -19.270 -53.291 -13.010  1.00  0.00     0.009 C 
HETATM    5  C6  UNL     1     -20.414 -53.155 -13.976  1.00  0.00    -0.010 C 
HETATM    6  C7  UNL     1     -21.459 -54.194 -13.640  1.00  0.00     0.048 C 
HETATM    7  C8  UNL     1     -22.008 -53.948 -12.273  1.00  0.00     0.105 C 
HETATM    8  F1  UNL     1     -22.997 -54.874 -11.982  1.00  0.00    -0.243 F 
HETATM    9  C9  UNL     1     -20.867 -54.158 -11.276  1.00  0.00     0.048 C 
HETATM   10  C10 UNL     1     -22.540 -52.564 -12.068  1.00  0.00     0.054 C 
HETATM   11  C11 UNL     1     -21.007 -51.790 -13.843  1.00  0.00     0.016 C 
ENDROOT
BRANCH   1  12
HETATM   12  C1  UNL     1     -21.920 -50.142 -12.304  1.00  0.00     0.239 C 
BRANCH  12  13
HETATM   13  N1  UNL     1     -22.814 -49.910 -11.200  1.00  0.00    -0.079 N 
ATOM     14  H13 UNL     1     -23.663 -49.438 -11.514  1.00  0.00     0.274 HD
ATOM     15  H12 UNL     1     -23.221 -50.786 -10.872  1.00  0.00     0.274 HD
ATOM     16  H11 UNL     1     -22.380 -49.401 -10.430  1.00  0.00     0.274 HD
ENDBRANCH  12  13
ENDBRANCH   1  12
TORSDOF 2
ENDMDL
MODEL 4
REMARK VINA RESULT: -4.901691541      1.437      2.424
REMARK  2 active torsions:
REMARK  status: ('A' for Active; 'I' for Inactive)
REMARK    1  A    between atoms: N1_1  and  C1_5 
REMARK    2  A    between atoms: C1_5  and  C2_6 
ROOT
HETATM    1  C2  UNL     1     -21.230 -52.005 -12.788  1.00  0.00    -0.013 C 
HETATM    2  C3  UNL     1     -22.161 -52.983 -12.080  1.00  0.00     0.016 C 
HETATM    3  C4  UNL     1     -21.416 -54.286 -11.851  1.00  0.00    -0.010 C 
HETATM    4  C5  UNL     1     -20.235 -53.952 -10.955  1.00  0.00     0.009 C 
HETATM    5  C6  UNL     1     -19.294 -53.021 -11.668  1.00  0.00    -0.010 C 
HETATM    6  C7  UNL     1     -18.872 -53.660 -12.971  1.00  0.00     0.048 C 
HETATM    7  C8  UNL     1     -20.058 -53.849 -13.858  1.00  0.00     0.105 C 
HETATM    8  F1  UNL     1     -19.665 -54.396 -15.070  1.00  0.00    -0.243 F 
HETATM    9  C9  UNL     1     -20.987 -54.855 -13.175  1.00  0.00     0.048 C 
HETATM   10  C10 UNL     1     -20.845 -52.600 -14.102  1.00  0.00     0.054 C 
HETATM   11  C11 UNL     1     -19.999 -51.734 -11.949  1.00  0.00     0.016 C 
ENDROOT
BRANCH   1  12
HETATM   12  C1  UNL     1     -21.981 -50.703 -12.911  1.00  0.00     0.239 C 
BRANCH  12  13
HETATM   13  N1  UNL     1     -23.242 -50.836 -13.593  1.00  0.00    -0.079 N 
ATOM     14  H13 UNL     1     -23.228 -50.337 -14.483  1.00  0.00     0.274 HD
ATOM     15  H12 UNL     1     -23.371 -51.788 -13.936  1.00  0.00     0.274 HD
ATOM     16  H11 UNL     1     -24.039 -50.544 -13.026  1.00  0.00     0.274 HD
ENDBRANCH  12  13
ENDBRANCH   1  12
TORSDOF 2
ENDMDL
MODEL 5
REMARK VINA RESULT: -4.895679275      1.726      1.990
REMARK  2 active torsions:
REMARK  status: ('A' for Active; 'I' for Inactive)
REMARK    1  A    between atoms: N1_1  and  C1_5 
REMARK    2  A    between atoms: C1_5  and  C2_6 
ROOT
HETATM    1  C2  UNL     1     -21.088 -51.537 -11.934  1.00  0.00    -0.013 C 
HETATM    2  C3  UNL     1     -20.725 -51.482 -13.414  1.00  0.00     0.016 C 
HETATM    3  C4  UNL     1     -21.508 -52.556 -14.148  1.00  0.00    -0.010 C 
HETATM    4  C5  UNL     1     -22.978 -52.218 -13.961  1.00  0.00     0.009 C 
HETATM    5  C6  UNL     1     -23.348 -52.312 -12.507  1.00  0.00    -0.010 C 
HETATM    6  C7  UNL     1     -23.003 -53.696 -12.006  1.00  0.00     0.048 C 
HETATM    7  C8  UNL     1     -21.530 -53.923 -12.100  1.00  0.00     0.105 C 
HETATM    8  F1  UNL     1     -21.209 -55.176 -11.601  1.00  0.00    -0.243 F 
HETATM    9  C9  UNL     1     -21.156 -53.905 -13.583  1.00  0.00     0.048 C 
HETATM   10  C10 UNL     1     -20.706 -52.881 -11.411  1.00  0.00     0.054 C 
HETATM   11  C11 UNL     1     -22.571 -51.295 -11.736  1.00  0.00     0.016 C 
ENDROOT
BRANCH   1  12
HETATM   12  C1  UNL     1     -20.359 -50.399 -11.266  1.00  0.00     0.239 C 
BRANCH  12  13
HETATM   13  N1  UNL     1     -19.033 -50.189 -11.787  1.00  0.00    -0.079 N 
ATOM     14  H13 UNL     1     -18.377 -50.862 -11.391  1.00  0.00     0.274 HD
ATOM     15  H12 UNL     1     -18.982 -50.462 -12.769  1.00  0.00     0.274 HD
ATOM     16  H11 UNL     1     -18.696 -49.234 -11.658  1.00  0.00     0.274 HD
ENDBRANCH  12  13
ENDBRANCH   1  12
TORSDOF 2
ENDMDL
