MODEL 1
REMARK VINA RESULT: -7.761587803      0.000      0.000
REMARK  10 active torsions:
REMARK  status: ('A' for Active; 'I' for Inactive)
REMARK    1  A    between atoms: C2_2  and  C3_3 
REMARK    2  A    between atoms: C2_2  and  C10_16 
REMARK    3  A    between atoms: C3_3  and  C4_4 
REMARK    4  A    between atoms: C4_4  and  O1_5 
REMARK    5  A    between atoms: C4_4  and  C5_7 
REMARK    6  A    between atoms: C6_8  and  C7_9 
REMARK    7  A    between atoms: C7_9  and  S1_12 
REMARK    8  A    between atoms: C10_16  and  O5_17 
REMARK    9  A    between atoms: C10_16  and  C11_19 
REMARK   10  A    between atoms: C21_29  and  O6_30 
ROOT
HETATM    1  C11 UNL     1     -19.872 -51.829 -11.804  1.00  0.00     0.154 C 
HETATM    2  C12 UNL     1     -20.371 -53.090 -11.226  1.00  0.00     0.073 C 
HETATM    3  C13 UNL     1     -20.368 -53.603 -12.619  1.00  0.00     0.071 C 
HETATM    4  C14 UNL     1     -21.659 -54.316 -12.927  1.00  0.00     0.039 C 
HETATM    5  C15 UNL     1     -21.317 -55.763 -12.876  1.00  0.00     0.009 C 
HETATM    6  C16 UNL     1     -19.818 -55.877 -12.736  1.00  0.00     0.007 C 
HETATM    7  C17 UNL     1     -19.232 -57.053 -13.413  1.00  0.00    -0.011 C 
HETATM    8  C18 UNL     1     -20.387 -58.000 -13.770  1.00  0.00     0.018 C 
HETATM    9  C19 UNL     1     -18.327 -57.904 -12.512  1.00  0.00     0.016 C 
HETATM   10  C20 UNL     1     -17.187 -58.509 -13.238  1.00  0.00     0.062 C 
HETATM   11  C21 UNL     1     -17.377 -58.841 -14.672  1.00  0.00     0.319 C 
HETATM   12  N1  UNL     1     -18.289 -57.966 -15.387  1.00  0.00    -0.044 N 
ATOM     13  H11 UNL     1     -19.195 -58.396 -15.574  1.00  0.00     0.280 HD
ATOM     14  H12 UNL     1     -18.017 -57.811 -16.357  1.00  0.00     0.280 HD
HETATM   15  C22 UNL     1     -18.386 -56.753 -14.628  1.00  0.00     0.197 C 
HETATM   16  C23 UNL     1     -18.838 -55.562 -15.384  1.00  0.00     0.035 C 
HETATM   17  C24 UNL     1     -19.232 -54.393 -14.595  1.00  0.00     0.014 C 
HETATM   18  C25 UNL     1     -19.307 -54.530 -13.105  1.00  0.00    -0.008 C 
HETATM   19  C26 UNL     1     -17.997 -54.161 -12.494  1.00  0.00     0.019 C 
HETATM   20  O7  UNL     1     -20.304 -52.272 -13.050  1.00  0.00    -0.371 OA
ENDROOT
BRANCH   1  21
HETATM   21  C10 UNL     1     -20.425 -50.527 -11.297  1.00  0.00     0.151 C 
BRANCH  21  22
HETATM   22  C2  UNL     1     -21.438 -49.858 -12.150  1.00  0.00     0.015 C 
HETATM   23  C1  UNL     1     -21.446 -48.341 -11.910  1.00  0.00     0.012 C 
BRANCH  22  24
HETATM   24  C3  UNL     1     -22.826 -50.314 -11.799  1.00  0.00     0.042 C 
BRANCH  24  25
HETATM   25  C4  UNL     1     -23.653 -50.962 -12.829  1.00  0.00     0.141 C 
BRANCH  25  26
HETATM   26  O1  UNL     1     -23.023 -51.366 -13.992  1.00  0.00    -0.392 OA
ATOM     27  H1  UNL     1     -22.188 -50.965 -14.201  1.00  0.00     0.210 HD
ENDBRANCH  25  26
BRANCH  25  28
HETATM   28  C5  UNL     1     -24.282 -52.194 -12.219  1.00  0.00     0.002 C 
HETATM   29  C6  UNL     1     -25.229 -52.894 -12.792  1.00  0.00    -0.001 C 
BRANCH  29  30
HETATM   30  C7  UNL     1     -25.862 -54.092 -12.232  1.00  0.00     0.093 C 
HETATM   31  C8  UNL     1     -24.953 -54.817 -11.266  1.00  0.00     0.039 C 
HETATM   32  C9  UNL     1     -26.218 -55.095 -13.329  1.00  0.00     0.039 C 
BRANCH  30  33
HETATM   33  S1  UNL     1     -27.419 -53.679 -11.434  1.00  0.00     0.114 S 
HETATM   34  O2  UNL     1     -28.307 -53.062 -12.479  1.00  0.00    -0.594 OA
HETATM   35  O3  UNL     1     -28.014 -54.943 -10.873  1.00  0.00    -0.594 OA
HETATM   36  O4  UNL     1     -27.128 -52.567 -10.227  1.00  0.00    -0.594 OA
ENDBRANCH  30  33
ENDBRANCH  29  30
ENDBRANCH  25  28
ENDBRANCH  24  25
ENDBRANCH  22  24
ENDBRANCH  21  22
BRANCH  21  37
HETATM   37  O5  UNL     1     -19.341 -49.659 -11.030  1.00  0.00    -0.393 OA
ATOM     38  H5  UNL     1     -18.616 -50.133 -10.641  1.00  0.00     0.210 HD
ENDBRANCH  21  37
ENDBRANCH   1  21
BRANCH  11  39
HETATM   39  O6  UNL     1     -17.651 -60.199 -14.909  1.00  0.00    -0.370 OA
ATOM     40  H6  UNL     1     -17.478 -60.475 -15.801  1.00  0.00     0.212 HD
ENDBRANCH  11  39
TORSDOF 10
ENDMDL
MODEL 2
REMARK VINA RESULT: -7.553302351      3.338      6.638
REMARK  10 active torsions:
REMARK  status: ('A' for Active; 'I' for Inactive)
REMARK    1  A    between atoms: C2_2  and  C3_3 
REMARK    2  A    between atoms: C2_2  and  C10_16 
REMARK    3  A    between atoms: C3_3  and  C4_4 
REMARK    4  A    between atoms: C4_4  and  O1_5 
REMARK    5  A    between atoms: C4_4  and  C5_7 
REMARK    6  A    between atoms: C6_8  and  C7_9 
REMARK    7  A    between atoms: C7_9  and  S1_12 
REMARK    8  A    between atoms: C10_16  and  O5_17 
REMARK    9  A    between atoms: C10_16  and  C11_19 
REMARK   10  A    between atoms: C21_29  and  O6_30 
ROOT
HETATM    1  C11 UNL     1     -24.887 -55.326 -15.959  1.00  0.00     0.154 C 
HETATM    2  C12 UNL     1     -24.819 -55.372 -14.487  1.00  0.00     0.073 C 
HETATM    3  C13 UNL     1     -23.428 -54.880 -14.645  1.00  0.00     0.071 C 
HETATM    4  C14 UNL     1     -22.480 -55.676 -13.786  1.00  0.00     0.039 C 
HETATM    5  C15 UNL     1     -22.179 -54.793 -12.628  1.00  0.00     0.009 C 
HETATM    6  C16 UNL     1     -22.785 -53.439 -12.913  1.00  0.00     0.007 C 
HETATM    7  C17 UNL     1     -22.013 -52.302 -12.370  1.00  0.00    -0.011 C 
HETATM    8  C18 UNL     1     -20.995 -52.872 -11.372  1.00  0.00     0.018 C 
HETATM    9  C19 UNL     1     -22.848 -51.329 -11.524  1.00  0.00     0.016 C 
HETATM   10  C20 UNL     1     -22.409 -49.922 -11.653  1.00  0.00     0.062 C 
HETATM   11  C21 UNL     1     -20.973 -49.667 -11.926  1.00  0.00     0.319 C 
HETATM   12  N1  UNL     1     -20.307 -50.691 -12.711  1.00  0.00    -0.044 N 
ATOM     13  H11 UNL     1     -19.691 -51.285 -12.156  1.00  0.00     0.280 HD
ATOM     14  H12 UNL     1     -19.596 -50.317 -13.338  1.00  0.00     0.280 HD
HETATM   15  C22 UNL     1     -21.332 -51.426 -13.394  1.00  0.00     0.197 C 
HETATM   16  C23 UNL     1     -20.892 -52.162 -14.602  1.00  0.00     0.035 C 
HETATM   17  C24 UNL     1     -21.826 -53.148 -15.148  1.00  0.00     0.014 C 
HETATM   18  C25 UNL     1     -23.069 -53.459 -14.373  1.00  0.00    -0.008 C 
HETATM   19  C26 UNL     1     -24.180 -52.566 -14.813  1.00  0.00     0.019 C 
HETATM   20  O7  UNL     1     -23.497 -55.279 -15.985  1.00  0.00    -0.371 OA
ENDROOT
BRANCH   1  21
HETATM   21  C10 UNL     1     -25.561 -56.451 -16.692  1.00  0.00     0.151 C 
BRANCH  21  22
HETATM   22  C2  UNL     1     -26.947 -56.204 -17.159  1.00  0.00     0.015 C 
HETATM   23  C1  UNL     1     -27.232 -54.698 -17.268  1.00  0.00     0.012 C 
BRANCH  22  24
HETATM   24  C3  UNL     1     -27.951 -56.718 -16.166  1.00  0.00     0.042 C 
BRANCH  24  25
HETATM   25  C4  UNL     1     -28.693 -55.760 -15.332  1.00  0.00     0.141 C 
BRANCH  25  26
HETATM   26  O1  UNL     1     -30.072 -55.861 -15.317  1.00  0.00    -0.392 OA
ATOM     27  H1  UNL     1     -30.486 -56.096 -14.494  1.00  0.00     0.210 HD
ENDBRANCH  25  26
BRANCH  25  28
HETATM   28  C5  UNL     1     -28.225 -55.922 -13.903  1.00  0.00     0.002 C 
HETATM   29  C6  UNL     1     -28.155 -54.941 -13.039  1.00  0.00    -0.001 C 
BRANCH  29  30
HETATM   30  C7  UNL     1     -27.708 -55.059 -11.648  1.00  0.00     0.093 C 
HETATM   31  C8  UNL     1     -26.935 -56.335 -11.405  1.00  0.00     0.039 C 
HETATM   32  C9  UNL     1     -28.893 -55.079 -10.684  1.00  0.00     0.039 C 
BRANCH  30  33
HETATM   33  S1  UNL     1     -26.723 -53.633 -11.169  1.00  0.00     0.114 S 
HETATM   34  O2  UNL     1     -25.492 -54.151 -10.478  1.00  0.00    -0.594 OA
HETATM   35  O3  UNL     1     -26.379 -52.856 -12.412  1.00  0.00    -0.594 OA
HETATM   36  O4  UNL     1     -27.606 -52.701 -10.106  1.00  0.00    -0.594 OA
ENDBRANCH  30  33
ENDBRANCH  29  30
ENDBRANCH  25  28
ENDBRANCH  24  25
ENDBRANCH  22  24
ENDBRANCH  21  22
BRANCH  21  37
HETATM   37  O5  UNL     1     -25.501 -57.608 -15.882  1.00  0.00    -0.393 OA
ATOM     38  H5  UNL     1     -26.091 -57.533 -15.141  1.00  0.00     0.210 HD
ENDBRANCH  21  37
ENDBRANCH   1  21
BRANCH  11  39
HETATM   39  O6  UNL     1     -20.233 -49.309 -10.786  1.00  0.00    -0.370 OA
ATOM     40  H6  UNL     1     -19.577 -48.641 -10.948  1.00  0.00     0.212 HD
ENDBRANCH  11  39
TORSDOF 10
ENDMDL
MODEL 3
REMARK VINA RESULT: -7.484834166      2.932      6.137
REMARK  10 active torsions:
REMARK  status: ('A' for Active; 'I' for Inactive)
REMARK    1  A    between atoms: C2_2  and  C3_3 
REMARK    2  A    between atoms: C2_2  and  C10_16 
REMARK    3  A    between atoms: C3_3  and  C4_4 
REMARK    4  A    between atoms: C4_4  and  O1_5 
REMARK    5  A    between atoms: C4_4  and  C5_7 
REMARK    6  A    between atoms: C6_8  and  C7_9 
REMARK    7  A    between atoms: C7_9  and  S1_12 
REMARK    8  A    between atoms: C10_16  and  O5_17 
REMARK    9  A    between atoms: C10_16  and  C11_19 
REMARK   10  A    between atoms: C21_29  and  O6_30 
ROOT
HETATM    1  C11 UNL     1     -24.593 -55.477 -15.952  1.00  0.00     0.154 C 
HETATM    2  C12 UNL     1     -24.275 -55.725 -14.533  1.00  0.00     0.073 C 
HETATM    3  C13 UNL     1     -22.924 -55.202 -14.858  1.00  0.00     0.071 C 
HETATM    4  C14 UNL     1     -21.855 -56.100 -14.292  1.00  0.00     0.039 C 
HETATM    5  C15 UNL     1     -21.348 -55.382 -13.092  1.00  0.00     0.009 C 
HETATM    6  C16 UNL     1     -21.974 -54.007 -13.080  1.00  0.00     0.007 C 
HETATM    7  C17 UNL     1     -21.105 -52.949 -12.526  1.00  0.00    -0.011 C 
HETATM    8  C18 UNL     1     -19.940 -53.641 -11.805  1.00  0.00     0.018 C 
HETATM    9  C19 UNL     1     -21.770 -52.110 -11.424  1.00  0.00     0.016 C 
HETATM   10  C20 UNL     1     -21.339 -50.694 -11.432  1.00  0.00     0.062 C 
HETATM   11  C21 UNL     1     -19.967 -50.390 -11.909  1.00  0.00     0.319 C 
HETATM   12  N1  UNL     1     -19.460 -51.290 -12.929  1.00  0.00    -0.044 N 
ATOM     13  H11 UNL     1     -18.766 -51.949 -12.575  1.00  0.00     0.280 HD
ATOM     14  H12 UNL     1     -18.861 -50.826 -13.611  1.00  0.00     0.280 HD
HETATM   15  C22 UNL     1     -20.597 -51.933 -13.522  1.00  0.00     0.197 C 
HETATM   16  C23 UNL     1     -20.380 -52.492 -14.877  1.00  0.00     0.035 C 
HETATM   17  C24 UNL     1     -21.407 -53.402 -15.385  1.00  0.00     0.014 C 
HETATM   18  C25 UNL     1     -22.504 -53.829 -14.459  1.00  0.00    -0.008 C 
HETATM   19  C26 UNL     1     -23.661 -52.895 -14.575  1.00  0.00     0.019 C 
HETATM   20  O7  UNL     1     -23.227 -55.413 -16.209  1.00  0.00    -0.371 OA
ENDROOT
BRANCH   1  21
HETATM   21  C10 UNL     1     -25.398 -56.497 -16.707  1.00  0.00     0.151 C 
BRANCH  21  22
HETATM   22  C2  UNL     1     -26.824 -56.169 -16.951  1.00  0.00     0.015 C 
HETATM   23  C1  UNL     1     -27.000 -54.676 -17.267  1.00  0.00     0.012 C 
BRANCH  22  24
HETATM   24  C3  UNL     1     -27.651 -56.405 -15.719  1.00  0.00     0.042 C 
BRANCH  24  25
HETATM   25  C4  UNL     1     -28.137 -55.251 -14.946  1.00  0.00     0.141 C 
BRANCH  25  26
HETATM   26  O1  UNL     1     -29.502 -55.142 -14.753  1.00  0.00    -0.392 OA
ATOM     27  H1  UNL     1     -29.861 -55.503 -13.950  1.00  0.00     0.210 HD
ENDBRANCH  25  26
BRANCH  25  28
HETATM   28  C5  UNL     1     -27.502 -55.303 -13.575  1.00  0.00     0.002 C 
HETATM   29  C6  UNL     1     -27.082 -54.250 -12.921  1.00  0.00    -0.001 C 
BRANCH  29  30
HETATM   30  C7  UNL     1     -26.463 -54.262 -11.592  1.00  0.00     0.093 C 
HETATM   31  C8  UNL     1     -25.336 -53.260 -11.481  1.00  0.00     0.039 C 
HETATM   32  C9  UNL     1     -25.861 -55.629 -11.272  1.00  0.00     0.039 C 
BRANCH  30  33
HETATM   33  S1  UNL     1     -27.690 -53.964 -10.312  1.00  0.00     0.114 S 
HETATM   34  O2  UNL     1     -27.265 -54.739  -9.096  1.00  0.00    -0.594 OA
HETATM   35  O3  UNL     1     -27.742 -52.484 -10.040  1.00  0.00    -0.594 OA
HETATM   36  O4  UNL     1     -29.167 -54.528 -10.841  1.00  0.00    -0.594 OA
ENDBRANCH  30  33
ENDBRANCH  29  30
ENDBRANCH  25  28
ENDBRANCH  24  25
ENDBRANCH  22  24
ENDBRANCH  21  22
BRANCH  21  37
HETATM   37  O5  UNL     1     -25.273 -57.739 -16.045  1.00  0.00    -0.393 OA
ATOM     38  H5  UNL     1     -24.651 -58.300 -16.494  1.00  0.00     0.210 HD
ENDBRANCH  21  37
ENDBRANCH   1  21
BRANCH  11  39
HETATM   39  O6  UNL     1     -19.039 -50.186 -10.874  1.00  0.00    -0.370 OA
ATOM     40  H6  UNL     1     -18.341 -50.830 -10.851  1.00  0.00     0.212 HD
ENDBRANCH  11  39
TORSDOF 10
ENDMDL
MODEL 4
REMARK VINA RESULT: -7.469136593      4.399      8.487
REMARK  10 active torsions:
REMARK  status: ('A' for Active; 'I' for Inactive)
REMARK    1  A    between atoms: C2_2  and  C3_3 
REMARK    2  A    between atoms: C2_2  and  C10_16 
REMARK    3  A    between atoms: C3_3  and  C4_4 
REMARK    4  A    between atoms: C4_4  and  O1_5 
REMARK    5  A    between atoms: C4_4  and  C5_7 
REMARK    6  A    between atoms: C6_8  and  C7_9 
REMARK    7  A    between atoms: C7_9  and  S1_12 
REMARK    8  A    between atoms: C10_16  and  O5_17 
REMARK    9  A    between atoms: C10_16  and  C11_19 
REMARK   10  A    between atoms: C21_29  and  O6_30 
ROOT
HETATM    1  C11 UNL     1     -26.615 -55.312 -15.495  1.00  0.00     0.154 C 
HETATM    2  C12 UNL     1     -26.310 -56.466 -14.630  1.00  0.00     0.073 C 
HETATM    3  C13 UNL     1     -26.212 -55.476 -13.529  1.00  0.00     0.071 C 
HETATM    4  C14 UNL     1     -24.973 -55.715 -12.706  1.00  0.00     0.039 C 
HETATM    5  C15 UNL     1     -25.460 -56.372 -11.463  1.00  0.00     0.009 C 
HETATM    6  C16 UNL     1     -26.970 -56.332 -11.484  1.00  0.00     0.007 C 
HETATM    7  C17 UNL     1     -27.592 -56.190 -10.151  1.00  0.00    -0.011 C 
HETATM    8  C18 UNL     1     -26.506 -56.474  -9.104  1.00  0.00     0.018 C 
HETATM    9  C19 UNL     1     -28.671 -57.241  -9.852  1.00  0.00     0.016 C 
HETATM   10  C20 UNL     1     -29.779 -56.717  -9.022  1.00  0.00     0.062 C 
HETATM   11  C21 UNL     1     -29.468 -55.636  -8.054  1.00  0.00     0.319 C 
HETATM   12  N1  UNL     1     -28.401 -54.739  -8.461  1.00  0.00    -0.044 N 
ATOM     13  H11 UNL     1     -27.528 -54.900  -7.959  1.00  0.00     0.280 HD
ATOM     14  H12 UNL     1     -28.549 -53.777  -8.156  1.00  0.00     0.280 HD
HETATM   15  C22 UNL     1     -28.267 -54.866  -9.883  1.00  0.00     0.197 C 
HETATM   16  C23 UNL     1     -27.619 -53.723 -10.567  1.00  0.00     0.035 C 
HETATM   17  C24 UNL     1     -27.199 -53.939 -11.953  1.00  0.00     0.014 C 
HETATM   18  C25 UNL     1     -27.301 -55.321 -12.523  1.00  0.00    -0.008 C 
HETATM   19  C26 UNL     1     -28.626 -55.502 -13.183  1.00  0.00     0.019 C 
HETATM   20  O7  UNL     1     -26.096 -54.481 -14.507  1.00  0.00    -0.371 OA
ENDROOT
BRANCH   1  21
HETATM   21  C10 UNL     1     -25.994 -55.242 -16.862  1.00  0.00     0.151 C 
BRANCH  21  22
HETATM   22  C2  UNL     1     -25.592 -53.896 -17.340  1.00  0.00     0.015 C 
HETATM   23  C1  UNL     1     -25.835 -53.754 -18.851  1.00  0.00     0.012 C 
BRANCH  22  24
HETATM   24  C3  UNL     1     -24.117 -53.678 -17.162  1.00  0.00     0.042 C 
BRANCH  24  25
HETATM   25  C4  UNL     1     -23.644 -52.436 -16.530  1.00  0.00     0.141 C 
BRANCH  25  26
HETATM   26  O1  UNL     1     -24.588 -51.468 -16.239  1.00  0.00    -0.392 OA
ATOM     27  H1  UNL     1     -24.735 -51.261 -15.324  1.00  0.00     0.210 HD
ENDBRANCH  25  26
BRANCH  25  28
HETATM   28  C5  UNL     1     -22.972 -52.801 -15.225  1.00  0.00     0.002 C 
HETATM   29  C6  UNL     1     -23.147 -52.149 -14.103  1.00  0.00    -0.001 C 
BRANCH  29  30
HETATM   30  C7  UNL     1     -22.515 -52.473 -12.821  1.00  0.00     0.093 C 
HETATM   31  C8  UNL     1     -21.835 -53.822 -12.846  1.00  0.00     0.039 C 
HETATM   32  C9  UNL     1     -23.544 -52.526 -11.693  1.00  0.00     0.039 C 
BRANCH  30  33
HETATM   33  S1  UNL     1     -21.345 -51.193 -12.344  1.00  0.00     0.114 S 
HETATM   34  O2  UNL     1     -20.887 -51.505 -10.946  1.00  0.00    -0.594 OA
HETATM   35  O3  UNL     1     -20.200 -51.210 -13.322  1.00  0.00    -0.594 OA
HETATM   36  O4  UNL     1     -22.123 -49.719 -12.357  1.00  0.00    -0.594 OA
ENDBRANCH  30  33
ENDBRANCH  29  30
ENDBRANCH  25  28
ENDBRANCH  24  25
ENDBRANCH  22  24
ENDBRANCH  21  22
BRANCH  21  37
HETATM   37  O5  UNL     1     -26.872 -55.861 -17.780  1.00  0.00    -0.393 OA
ATOM     38  H5  UNL     1     -26.685 -56.789 -17.854  1.00  0.00     0.210 HD
ENDBRANCH  21  37
ENDBRANCH   1  21
BRANCH  11  39
HETATM   39  O6  UNL     1     -29.307 -56.086  -6.733  1.00  0.00    -0.370 OA
ATOM     40  H6  UNL     1     -28.911 -55.445  -6.154  1.00  0.00     0.212 HD
ENDBRANCH  11  39
TORSDOF 10
ENDMDL
MODEL 5
REMARK VINA RESULT: -7.420774173      7.022     11.355
REMARK  10 active torsions:
REMARK  status: ('A' for Active; 'I' for Inactive)
REMARK    1  A    between atoms: C2_2  and  C3_3 
REMARK    2  A    between atoms: C2_2  and  C10_16 
REMARK    3  A    between atoms: C3_3  and  C4_4 
REMARK    4  A    between atoms: C4_4  and  O1_5 
REMARK    5  A    between atoms: C4_4  and  C5_7 
REMARK    6  A    between atoms: C6_8  and  C7_9 
REMARK    7  A    between atoms: C7_9  and  S1_12 
REMARK    8  A    between atoms: C10_16  and  O5_17 
REMARK    9  A    between atoms: C10_16  and  C11_19 
REMARK   10  A    between atoms: C21_29  and  O6_30 
ROOT
HETATM    1  C11 UNL     1     -30.140 -57.527  -7.608  1.00  0.00     0.154 C 
HETATM    2  C12 UNL     1     -30.336 -56.685  -8.802  1.00  0.00     0.073 C 
HETATM    3  C13 UNL     1     -30.182 -57.939  -9.578  1.00  0.00     0.071 C 
HETATM    4  C14 UNL     1     -29.238 -57.738 -10.735  1.00  0.00     0.039 C 
HETATM    5  C15 UNL     1     -30.115 -57.640 -11.932  1.00  0.00     0.009 C 
HETATM    6  C16 UNL     1     -31.523 -57.975 -11.499  1.00  0.00     0.007 C 
HETATM    7  C17 UNL     1     -32.325 -58.669 -12.527  1.00  0.00    -0.011 C 
HETATM    8  C18 UNL     1     -31.580 -58.531 -13.863  1.00  0.00     0.018 C 
HETATM    9  C19 UNL     1     -33.688 -58.016 -12.800  1.00  0.00     0.016 C 
HETATM   10  C20 UNL     1     -34.747 -58.997 -13.130  1.00  0.00     0.062 C 
HETATM   11  C21 UNL     1     -34.342 -60.249 -13.816  1.00  0.00     0.319 C 
HETATM   12  N1  UNL     1     -33.012 -60.728 -13.482  1.00  0.00    -0.044 N 
ATOM     13  H11 UNL     1     -32.330 -60.567 -14.223  1.00  0.00     0.280 HD
ATOM     14  H12 UNL     1     -32.945 -61.745 -13.464  1.00  0.00     0.280 HD
HETATM   15  C22 UNL     1     -32.648 -60.116 -12.237  1.00  0.00     0.197 C 
HETATM   16  C23 UNL     1     -31.592 -60.814 -11.468  1.00  0.00     0.035 C 
HETATM   17  C24 UNL     1     -30.991 -60.075 -10.357  1.00  0.00     0.014 C 
HETATM   18  C25 UNL     1     -31.357 -58.634 -10.176  1.00  0.00    -0.008 C 
HETATM   19  C26 UNL     1     -32.530 -58.518  -9.261  1.00  0.00     0.019 C 
HETATM   20  O7  UNL     1     -29.611 -58.513  -8.435  1.00  0.00    -0.371 OA
ENDROOT
BRANCH   1  21
HETATM   21  C10 UNL     1     -29.273 -57.017  -6.491  1.00  0.00     0.151 C 
BRANCH  21  22
HETATM   22  C2  UNL     1     -27.933 -57.639  -6.353  1.00  0.00     0.015 C 
HETATM   23  C1  UNL     1     -27.644 -58.005  -4.889  1.00  0.00     0.012 C 
BRANCH  22  24
HETATM   24  C3  UNL     1     -26.848 -56.672  -6.733  1.00  0.00     0.042 C 
BRANCH  24  25
HETATM   25  C4  UNL     1     -26.233 -56.768  -8.066  1.00  0.00     0.141 C 
BRANCH  25  26
HETATM   26  O1  UNL     1     -26.440 -57.933  -8.782  1.00  0.00    -0.392 OA
ATOM     27  H1  UNL     1     -27.030 -58.577  -8.409  1.00  0.00     0.210 HD
ENDBRANCH  25  26
BRANCH  25  28
HETATM   28  C5  UNL     1     -26.764 -55.633  -8.911  1.00  0.00     0.002 C 
HETATM   29  C6  UNL     1     -26.349 -55.363 -10.123  1.00  0.00    -0.001 C 
BRANCH  29  30
HETATM   30  C7  UNL     1     -26.840 -54.273 -10.971  1.00  0.00     0.093 C 
HETATM   31  C8  UNL     1     -27.892 -53.440 -10.275  1.00  0.00     0.039 C 
HETATM   32  C9  UNL     1     -27.487 -54.812 -12.247  1.00  0.00     0.039 C 
BRANCH  30  33
HETATM   33  S1  UNL     1     -25.483 -53.231 -11.523  1.00  0.00     0.114 S 
HETATM   34  O2  UNL     1     -25.379 -52.084 -10.556  1.00  0.00    -0.594 OA
HETATM   35  O3  UNL     1     -24.226 -54.059 -11.541  1.00  0.00    -0.594 OA
HETATM   36  O4  UNL     1     -25.837 -52.645 -13.043  1.00  0.00    -0.594 OA
ENDBRANCH  30  33
ENDBRANCH  29  30
ENDBRANCH  25  28
ENDBRANCH  24  25
ENDBRANCH  22  24
ENDBRANCH  21  22
BRANCH  21  37
HETATM   37  O5  UNL     1     -30.001 -57.118  -5.283  1.00  0.00    -0.393 OA
ATOM     38  H5  UNL     1     -29.543 -56.681  -4.575  1.00  0.00     0.210 HD
ENDBRANCH  21  37
ENDBRANCH   1  21
BRANCH  11  39
HETATM   39  O6  UNL     1     -34.567 -60.235 -15.203  1.00  0.00    -0.370 OA
ATOM     40  H6  UNL     1     -35.476 -60.366 -15.446  1.00  0.00     0.212 HD
ENDBRANCH  11  39
TORSDOF 10
ENDMDL
