MODEL 1
REMARK VINA RESULT: -8.466153405      0.000      0.000
REMARK  10 active torsions:
REMARK  status: ('A' for Active; 'I' for Inactive)
REMARK    1  A    between atoms: C2_2  and  N1_3 
REMARK    2  A    between atoms: C5_6  and  C6_7 
REMARK    3  A    between atoms: C6_7  and  C7_8 
REMARK    4  A    between atoms: C7_8  and  C8_9 
REMARK    5  A    between atoms: C7_8  and  O4_16 
REMARK    6  A    between atoms: C8_9  and  C9_10 
REMARK    7  A    between atoms: C9_10  and  O1_11 
REMARK    8  A    between atoms: C9_10  and  C10_13 
REMARK    9  A    between atoms: O4_16  and  C11_17 
REMARK   10  A    between atoms: C27_38  and  O5_39 
ROOT
HETATM    1  C11 UNL     1     -20.018 -52.436 -12.437  1.00  0.00     0.151 C 
HETATM    2  C12 UNL     1     -19.293 -53.535 -11.662  1.00  0.00     0.035 C 
HETATM    3  C13 UNL     1     -18.269 -54.224 -12.532  1.00  0.00     0.014 C 
HETATM    4  C14 UNL     1     -18.923 -55.103 -13.571  1.00  0.00    -0.013 C 
HETATM    5  C15 UNL     1     -19.163 -56.429 -12.853  1.00  0.00     0.018 C 
HETATM    6  C16 UNL     1     -17.954 -55.394 -14.686  1.00  0.00     0.101 C 
HETATM    7  N2  UNL     1     -17.277 -54.257 -15.223  1.00  0.00    -0.373 N 
ATOM      8  H2  UNL     1     -16.833 -53.525 -14.668  1.00  0.00     0.161 HD
HETATM    9  C17 UNL     1     -17.314 -54.298 -16.665  1.00  0.00     0.080 C 
HETATM   10  N3  UNL     1     -17.023 -53.363 -17.484  1.00  0.00    -0.388 N 
ATOM     11  H31 UNL     1     -17.048 -53.391 -18.503  1.00  0.00     0.157 HD
ATOM     12  H32 UNL     1     -16.712 -52.423 -17.237  1.00  0.00     0.157 HD
HETATM   13  C18 UNL     1     -17.761 -55.650 -17.020  1.00  0.00     0.019 C 
HETATM   14  C19 UNL     1     -18.550 -55.589 -18.284  1.00  0.00     0.024 C 
HETATM   15  C20 UNL     1     -16.516 -56.478 -17.272  1.00  0.00     0.024 C 
HETATM   16  C21 UNL     1     -18.536 -56.153 -15.823  1.00  0.00    -0.009 C 
HETATM   17  C22 UNL     1     -18.278 -57.646 -15.736  1.00  0.00     0.018 C 
HETATM   18  C23 UNL     1     -20.024 -55.962 -15.979  1.00  0.00     0.013 C 
HETATM   19  C24 UNL     1     -20.431 -54.612 -15.508  1.00  0.00     0.013 C 
HETATM   20  C25 UNL     1     -20.186 -54.433 -13.998  1.00  0.00    -0.006 C 
HETATM   21  C26 UNL     1     -21.434 -54.940 -13.333  1.00  0.00     0.019 C 
HETATM   22  C27 UNL     1     -20.088 -52.908 -13.856  1.00  0.00     0.156 C 
ENDROOT
BRANCH   1  23
HETATM   23  O4  UNL     1     -21.194 -52.027 -11.872  1.00  0.00    -0.378 OA
BRANCH  23  24
HETATM   24  C7  UNL     1     -21.644 -50.775 -12.162  1.00  0.00     0.125 C 
BRANCH  24  25
HETATM   25  C6  UNL     1     -23.154 -50.813 -12.476  1.00  0.00     0.037 C 
BRANCH  25  26
HETATM   26  C5  UNL     1     -23.722 -52.208 -12.350  1.00  0.00    -0.009 C 
HETATM   27  C4  UNL     1     -24.415 -52.462 -13.701  1.00  0.00     0.035 C 
HETATM   28  C3  UNL     1     -25.434 -53.538 -13.500  1.00  0.00     0.272 C 
HETATM   29  N1  UNL     1     -24.949 -54.482 -12.524  1.00  0.00     0.088 N 
HETATM   30  C29 UNL     1     -25.100 -53.856 -11.224  1.00  0.00     0.272 C 
HETATM   31  C28 UNL     1     -24.769 -52.359 -11.303  1.00  0.00     0.035 C 
BRANCH  29  32
HETATM   32  C2  UNL     1     -25.744 -55.696 -12.547  1.00  0.00     0.268 C 
HETATM   33  C1  UNL     1     -25.549 -56.483 -11.286  1.00  0.00     0.037 C 
ENDBRANCH  29  32
ENDBRANCH  25  26
ENDBRANCH  24  25
BRANCH  24  34
HETATM   34  C8  UNL     1     -21.369 -49.677 -11.212  1.00  0.00     0.074 C 
BRANCH  34  35
HETATM   35  C9  UNL     1     -20.166 -48.844 -11.366  1.00  0.00     0.221 C 
BRANCH  35  36
HETATM   36  O1  UNL     1     -19.146 -49.500 -12.002  1.00  0.00    -0.385 OA
ATOM     37  H1  UNL     1     -18.324 -49.448 -11.528  1.00  0.00     0.210 HD
ENDBRANCH  35  36
BRANCH  35  38
HETATM   38  C10 UNL     1     -20.413 -47.475 -11.896  1.00  0.00     0.203 C 
HETATM   39  O2  UNL     1     -19.509 -46.619 -11.732  1.00  0.00    -0.646 OA
HETATM   40  O3  UNL     1     -21.558 -47.104 -12.541  1.00  0.00    -0.646 OA
ENDBRANCH  35  38
ENDBRANCH  34  35
ENDBRANCH  24  34
ENDBRANCH  23  24
ENDBRANCH   1  23
BRANCH  22  41
HETATM   41  O5  UNL     1     -21.047 -52.307 -14.642  1.00  0.00    -0.392 OA
ATOM     42  H5  UNL     1     -21.697 -52.888 -15.020  1.00  0.00     0.210 HD
ENDBRANCH  22  41
TORSDOF 10
ENDMDL
MODEL 2
REMARK VINA RESULT: -8.259299117      4.022      8.197
REMARK  10 active torsions:
REMARK  status: ('A' for Active; 'I' for Inactive)
REMARK    1  A    between atoms: C2_2  and  N1_3 
REMARK    2  A    between atoms: C5_6  and  C6_7 
REMARK    3  A    between atoms: C6_7  and  C7_8 
REMARK    4  A    between atoms: C7_8  and  C8_9 
REMARK    5  A    between atoms: C7_8  and  O4_16 
REMARK    6  A    between atoms: C8_9  and  C9_10 
REMARK    7  A    between atoms: C9_10  and  O1_11 
REMARK    8  A    between atoms: C9_10  and  C10_13 
REMARK    9  A    between atoms: O4_16  and  C11_17 
REMARK   10  A    between atoms: C27_38  and  O5_39 
ROOT
HETATM    1  C11 UNL     1     -24.190 -54.289 -12.653  1.00  0.00     0.151 C 
HETATM    2  C12 UNL     1     -24.035 -55.733 -12.179  1.00  0.00     0.035 C 
HETATM    3  C13 UNL     1     -25.102 -56.616 -12.781  1.00  0.00     0.014 C 
HETATM    4  C14 UNL     1     -26.458 -56.343 -12.174  1.00  0.00    -0.013 C 
HETATM    5  C15 UNL     1     -26.492 -57.208 -10.915  1.00  0.00     0.018 C 
HETATM    6  C16 UNL     1     -27.543 -56.865 -13.077  1.00  0.00     0.101 C 
HETATM    7  N2  UNL     1     -27.431 -56.491 -14.450  1.00  0.00    -0.373 N 
ATOM      8  H2  UNL     1     -26.575 -56.544 -15.004  1.00  0.00     0.161 HD
HETATM    9  C17 UNL     1     -28.707 -56.026 -14.940  1.00  0.00     0.080 C 
HETATM   10  N3  UNL     1     -28.950 -55.405 -16.027  1.00  0.00    -0.388 N 
ATOM     11  H31 UNL     1     -29.852 -55.077 -16.374  1.00  0.00     0.157 HD
ATOM     12  H32 UNL     1     -28.264 -55.136 -16.733  1.00  0.00     0.157 HD
HETATM   13  C18 UNL     1     -29.694 -56.412 -13.925  1.00  0.00     0.019 C 
HETATM   14  C19 UNL     1     -30.787 -55.397 -13.892  1.00  0.00     0.024 C 
HETATM   15  C20 UNL     1     -30.285 -57.739 -14.361  1.00  0.00     0.024 C 
HETATM   16  C21 UNL     1     -28.922 -56.542 -12.630  1.00  0.00    -0.009 C 
HETATM   17  C22 UNL     1     -29.574 -57.666 -11.848  1.00  0.00     0.018 C 
HETATM   18  C23 UNL     1     -29.007 -55.296 -11.783  1.00  0.00     0.013 C 
HETATM   19  C24 UNL     1     -27.944 -54.330 -12.166  1.00  0.00     0.013 C 
HETATM   20  C25 UNL     1     -26.535 -54.883 -11.881  1.00  0.00    -0.006 C 
HETATM   21  C26 UNL     1     -26.243 -54.501 -10.458  1.00  0.00     0.019 C 
HETATM   22  C27 UNL     1     -25.658 -54.069 -12.842  1.00  0.00     0.156 C 
ENDROOT
BRANCH   1  23
HETATM   23  O4  UNL     1     -23.530 -53.368 -11.887  1.00  0.00    -0.378 OA
BRANCH  23  24
HETATM   24  C7  UNL     1     -22.456 -52.732 -12.430  1.00  0.00     0.125 C 
BRANCH  24  25
HETATM   25  C6  UNL     1     -21.295 -52.689 -11.415  1.00  0.00     0.037 C 
BRANCH  25  26
HETATM   26  C5  UNL     1     -20.716 -51.300 -11.277  1.00  0.00    -0.009 C 
HETATM   27  C4  UNL     1     -21.858 -50.365 -11.716  1.00  0.00     0.035 C 
HETATM   28  C3  UNL     1     -21.252 -49.061 -12.128  1.00  0.00     0.272 C 
HETATM   29  N1  UNL     1     -20.103 -48.784 -11.302  1.00  0.00     0.088 N 
HETATM   30  C29 UNL     1     -19.028 -49.633 -11.781  1.00  0.00     0.272 C 
HETATM   31  C28 UNL     1     -19.566 -51.014 -12.179  1.00  0.00     0.035 C 
BRANCH  29  32
HETATM   32  C2  UNL     1     -19.694 -47.398 -11.443  1.00  0.00     0.268 C 
HETATM   33  C1  UNL     1     -20.732 -46.611 -12.186  1.00  0.00     0.037 C 
ENDBRANCH  29  32
ENDBRANCH  25  26
ENDBRANCH  24  25
BRANCH  24  34
HETATM   34  C8  UNL     1     -21.944 -53.183 -13.741  1.00  0.00     0.074 C 
BRANCH  34  35
HETATM   35  C9  UNL     1     -21.967 -52.277 -14.899  1.00  0.00     0.221 C 
BRANCH  35  36
HETATM   36  O1  UNL     1     -20.805 -52.312 -15.623  1.00  0.00    -0.385 OA
ATOM     37  H1  UNL     1     -20.232 -51.577 -15.435  1.00  0.00     0.210 HD
ENDBRANCH  35  36
BRANCH  35  38
HETATM   38  C10 UNL     1     -23.192 -52.361 -15.740  1.00  0.00     0.203 C 
HETATM   39  O2  UNL     1     -23.061 -52.786 -16.914  1.00  0.00    -0.646 OA
HETATM   40  O3  UNL     1     -24.438 -52.005 -15.307  1.00  0.00    -0.646 OA
ENDBRANCH  35  38
ENDBRANCH  34  35
ENDBRANCH  24  34
ENDBRANCH  23  24
ENDBRANCH   1  23
BRANCH  22  41
HETATM   41  O5  UNL     1     -26.074 -52.756 -12.850  1.00  0.00    -0.392 OA
ATOM     42  H5  UNL     1     -26.798 -52.553 -13.429  1.00  0.00     0.210 HD
ENDBRANCH  22  41
TORSDOF 10
ENDMDL
MODEL 3
REMARK VINA RESULT: -8.179218269      2.825      7.631
REMARK  10 active torsions:
REMARK  status: ('A' for Active; 'I' for Inactive)
REMARK    1  A    between atoms: C2_2  and  N1_3 
REMARK    2  A    between atoms: C5_6  and  C6_7 
REMARK    3  A    between atoms: C6_7  and  C7_8 
REMARK    4  A    between atoms: C7_8  and  C8_9 
REMARK    5  A    between atoms: C7_8  and  O4_16 
REMARK    6  A    between atoms: C8_9  and  C9_10 
REMARK    7  A    between atoms: C9_10  and  O1_11 
REMARK    8  A    between atoms: C9_10  and  C10_13 
REMARK    9  A    between atoms: O4_16  and  C11_17 
REMARK   10  A    between atoms: C27_38  and  O5_39 
ROOT
HETATM    1  C11 UNL     1     -24.292 -54.127 -12.619  1.00  0.00     0.151 C 
HETATM    2  C12 UNL     1     -24.022 -55.583 -12.242  1.00  0.00     0.035 C 
HETATM    3  C13 UNL     1     -25.005 -56.507 -12.918  1.00  0.00     0.014 C 
HETATM    4  C14 UNL     1     -26.384 -56.391 -12.314  1.00  0.00    -0.013 C 
HETATM    5  C15 UNL     1     -26.357 -57.341 -11.117  1.00  0.00     0.018 C 
HETATM    6  C16 UNL     1     -27.414 -56.938 -13.266  1.00  0.00     0.101 C 
HETATM    7  N2  UNL     1     -27.321 -56.461 -14.609  1.00  0.00    -0.373 N 
ATOM      8  H2  UNL     1     -26.460 -56.405 -15.152  1.00  0.00     0.161 HD
HETATM    9  C17 UNL     1     -28.628 -56.072 -15.084  1.00  0.00     0.080 C 
HETATM   10  N3  UNL     1     -28.913 -55.399 -16.130  1.00  0.00    -0.388 N 
ATOM     11  H31 UNL     1     -29.836 -55.123 -16.466  1.00  0.00     0.157 HD
ATOM     12  H32 UNL     1     -28.245 -55.026 -16.806  1.00  0.00     0.157 HD
HETATM   13  C18 UNL     1     -29.587 -56.608 -14.112  1.00  0.00     0.019 C 
HETATM   14  C19 UNL     1     -30.762 -55.691 -14.026  1.00  0.00     0.024 C 
HETATM   15  C20 UNL     1     -30.062 -57.945 -14.646  1.00  0.00     0.024 C 
HETATM   16  C21 UNL     1     -28.819 -56.761 -12.818  1.00  0.00    -0.009 C 
HETATM   17  C22 UNL     1     -29.382 -57.987 -12.124  1.00  0.00     0.018 C 
HETATM   18  C23 UNL     1     -29.015 -55.589 -11.890  1.00  0.00     0.013 C 
HETATM   19  C24 UNL     1     -28.034 -54.513 -12.190  1.00  0.00     0.013 C 
HETATM   20  C25 UNL     1     -26.586 -54.966 -11.923  1.00  0.00    -0.006 C 
HETATM   21  C26 UNL     1     -26.339 -54.660 -10.473  1.00  0.00     0.019 C 
HETATM   22  C27 UNL     1     -25.772 -54.018 -12.814  1.00  0.00     0.156 C 
ENDROOT
BRANCH   1  23
HETATM   23  O4  UNL     1     -23.719 -53.210 -11.782  1.00  0.00    -0.378 OA
BRANCH  23  24
HETATM   24  C7  UNL     1     -22.655 -52.496 -12.244  1.00  0.00     0.125 C 
BRANCH  24  25
HETATM   25  C6  UNL     1     -22.950 -51.960 -13.660  1.00  0.00     0.037 C 
BRANCH  25  26
HETATM   26  C5  UNL     1     -21.859 -52.324 -14.641  1.00  0.00    -0.009 C 
HETATM   27  C4  UNL     1     -22.603 -52.564 -15.968  1.00  0.00     0.035 C 
HETATM   28  C3  UNL     1     -21.736 -53.424 -16.831  1.00  0.00     0.272 C 
HETATM   29  N1  UNL     1     -20.352 -53.096 -16.600  1.00  0.00     0.088 N 
HETATM   30  C29 UNL     1     -19.984 -53.698 -15.332  1.00  0.00     0.272 C 
HETATM   31  C28 UNL     1     -21.138 -53.588 -14.326  1.00  0.00     0.035 C 
BRANCH  29  32
HETATM   32  C2  UNL     1     -19.512 -53.660 -17.640  1.00  0.00     0.268 C 
HETATM   33  C1  UNL     1     -18.299 -52.807 -17.866  1.00  0.00     0.037 C 
ENDBRANCH  29  32
ENDBRANCH  25  26
ENDBRANCH  24  25
BRANCH  24  34
HETATM   34  C8  UNL     1     -22.110 -51.404 -11.411  1.00  0.00     0.074 C 
BRANCH  34  35
HETATM   35  C9  UNL     1     -22.489 -50.007 -11.678  1.00  0.00     0.221 C 
BRANCH  35  36
HETATM   36  O1  UNL     1     -23.314 -49.489 -10.716  1.00  0.00    -0.385 OA
ATOM     37  H1  UNL     1     -23.006 -48.656 -10.378  1.00  0.00     0.210 HD
ENDBRANCH  35  36
BRANCH  35  38
HETATM   38  C10 UNL     1     -21.359 -49.108 -12.038  1.00  0.00     0.203 C 
HETATM   39  O2  UNL     1     -21.630 -47.906 -12.281  1.00  0.00    -0.646 OA
HETATM   40  O3  UNL     1     -20.058 -49.515 -12.119  1.00  0.00    -0.646 OA
ENDBRANCH  35  38
ENDBRANCH  34  35
ENDBRANCH  24  34
ENDBRANCH  23  24
ENDBRANCH   1  23
BRANCH  22  41
HETATM   41  O5  UNL     1     -26.296 -52.746 -12.738  1.00  0.00    -0.392 OA
ATOM     42  H5  UNL     1     -27.186 -52.683 -12.412  1.00  0.00     0.210 HD
ENDBRANCH  22  41
TORSDOF 10
ENDMDL
MODEL 4
REMARK VINA RESULT: -8.024431488      2.447      7.400
REMARK  10 active torsions:
REMARK  status: ('A' for Active; 'I' for Inactive)
REMARK    1  A    between atoms: C2_2  and  N1_3 
REMARK    2  A    between atoms: C5_6  and  C6_7 
REMARK    3  A    between atoms: C6_7  and  C7_8 
REMARK    4  A    between atoms: C7_8  and  C8_9 
REMARK    5  A    between atoms: C7_8  and  O4_16 
REMARK    6  A    between atoms: C8_9  and  C9_10 
REMARK    7  A    between atoms: C9_10  and  O1_11 
REMARK    8  A    between atoms: C9_10  and  C10_13 
REMARK    9  A    between atoms: O4_16  and  C11_17 
REMARK   10  A    between atoms: C27_38  and  O5_39 
ROOT
HETATM    1  C11 UNL     1     -23.658 -53.967 -12.988  1.00  0.00     0.151 C 
HETATM    2  C12 UNL     1     -23.461 -55.418 -12.550  1.00  0.00     0.035 C 
HETATM    3  C13 UNL     1     -24.542 -56.304 -13.120  1.00  0.00     0.014 C 
HETATM    4  C14 UNL     1     -25.872 -56.064 -12.446  1.00  0.00    -0.013 C 
HETATM    5  C15 UNL     1     -25.836 -56.954 -11.204  1.00  0.00     0.018 C 
HETATM    6  C16 UNL     1     -26.991 -56.585 -13.308  1.00  0.00     0.101 C 
HETATM    7  N2  UNL     1     -26.947 -56.183 -14.678  1.00  0.00    -0.373 N 
ATOM      8  H2  UNL     1     -26.118 -56.213 -15.271  1.00  0.00     0.161 HD
HETATM    9  C17 UNL     1     -28.251 -55.728 -15.099  1.00  0.00     0.080 C 
HETATM   10  N3  UNL     1     -28.553 -55.089 -16.161  1.00  0.00    -0.388 N 
ATOM     11  H31 UNL     1     -29.474 -54.768 -16.459  1.00  0.00     0.157 HD
ATOM     12  H32 UNL     1     -27.904 -54.796 -16.892  1.00  0.00     0.157 HD
HETATM   13  C18 UNL     1     -29.184 -56.148 -14.047  1.00  0.00     0.019 C 
HETATM   14  C19 UNL     1     -30.289 -55.150 -13.944  1.00  0.00     0.024 C 
HETATM   15  C20 UNL     1     -29.777 -57.474 -14.482  1.00  0.00     0.024 C 
HETATM   16  C21 UNL     1     -28.352 -56.291 -12.792  1.00  0.00    -0.009 C 
HETATM   17  C22 UNL     1     -28.951 -57.440 -12.004  1.00  0.00     0.018 C 
HETATM   18  C23 UNL     1     -28.415 -55.064 -11.917  1.00  0.00     0.013 C 
HETATM   19  C24 UNL     1     -27.384 -54.074 -12.329  1.00  0.00     0.013 C 
HETATM   20  C25 UNL     1     -25.956 -54.612 -12.120  1.00  0.00    -0.006 C 
HETATM   21  C26 UNL     1     -25.604 -54.252 -10.705  1.00  0.00     0.019 C 
HETATM   22  C27 UNL     1     -25.136 -53.766 -13.105  1.00  0.00     0.156 C 
ENDROOT
BRANCH   1  23
HETATM   23  O4  UNL     1     -22.976 -53.052 -12.235  1.00  0.00    -0.378 OA
BRANCH  23  24
HETATM   24  C7  UNL     1     -22.025 -52.296 -12.848  1.00  0.00     0.125 C 
BRANCH  24  25
HETATM   25  C6  UNL     1     -21.538 -52.996 -14.134  1.00  0.00     0.037 C 
BRANCH  25  26
HETATM   26  C5  UNL     1     -20.166 -53.605 -13.960  1.00  0.00    -0.009 C 
HETATM   27  C4  UNL     1     -20.325 -55.053 -14.462  1.00  0.00     0.035 C 
HETATM   28  C3  UNL     1     -19.231 -55.872 -13.854  1.00  0.00     0.272 C 
HETATM   29  N1  UNL     1     -18.041 -55.068 -13.731  1.00  0.00     0.088 N 
HETATM   30  C29 UNL     1     -18.247 -54.186 -12.596  1.00  0.00     0.272 C 
HETATM   31  C28 UNL     1     -19.701 -53.695 -12.550  1.00  0.00     0.035 C 
BRANCH  29  32
HETATM   32  C2  UNL     1     -16.885 -55.903 -13.462  1.00  0.00     0.268 C 
HETATM   33  C1  UNL     1     -17.309 -57.265 -12.999  1.00  0.00     0.037 C 
ENDBRANCH  29  32
ENDBRANCH  25  26
ENDBRANCH  24  25
BRANCH  24  34
HETATM   34  C8  UNL     1     -22.319 -50.878 -13.145  1.00  0.00     0.074 C 
BRANCH  34  35
HETATM   35  C9  UNL     1     -22.780 -49.976 -12.078  1.00  0.00     0.221 C 
BRANCH  35  36
HETATM   36  O1  UNL     1     -23.308 -50.648 -11.008  1.00  0.00    -0.385 OA
ATOM     37  H1  UNL     1     -22.727 -50.657 -10.256  1.00  0.00     0.210 HD
ENDBRANCH  35  36
BRANCH  35  38
HETATM   38  C10 UNL     1     -21.813 -48.912 -11.692  1.00  0.00     0.203 C 
HETATM   39  O2  UNL     1     -21.164 -49.076 -10.630  1.00  0.00    -0.646 OA
HETATM   40  O3  UNL     1     -21.597 -47.779 -12.424  1.00  0.00    -0.646 OA
ENDBRANCH  35  38
ENDBRANCH  34  35
ENDBRANCH  24  34
ENDBRANCH  23  24
ENDBRANCH   1  23
BRANCH  22  41
HETATM   41  O5  UNL     1     -25.570 -52.460 -13.067  1.00  0.00    -0.392 OA
ATOM     42  H5  UNL     1     -25.097 -51.849 -13.619  1.00  0.00     0.210 HD
ENDBRANCH  22  41
TORSDOF 10
ENDMDL
MODEL 5
REMARK VINA RESULT: -8.020706745      3.796      6.815
REMARK  10 active torsions:
REMARK  status: ('A' for Active; 'I' for Inactive)
REMARK    1  A    between atoms: C2_2  and  N1_3 
REMARK    2  A    between atoms: C5_6  and  C6_7 
REMARK    3  A    between atoms: C6_7  and  C7_8 
REMARK    4  A    between atoms: C7_8  and  C8_9 
REMARK    5  A    between atoms: C7_8  and  O4_16 
REMARK    6  A    between atoms: C8_9  and  C9_10 
REMARK    7  A    between atoms: C9_10  and  O1_11 
REMARK    8  A    between atoms: C9_10  and  C10_13 
REMARK    9  A    between atoms: O4_16  and  C11_17 
REMARK   10  A    between atoms: C27_38  and  O5_39 
ROOT
HETATM    1  C11 UNL     1     -23.296 -53.567 -13.972  1.00  0.00     0.151 C 
HETATM    2  C12 UNL     1     -22.668 -52.526 -14.896  1.00  0.00     0.035 C 
HETATM    3  C13 UNL     1     -23.482 -52.362 -16.157  1.00  0.00     0.014 C 
HETATM    4  C14 UNL     1     -23.343 -53.557 -17.069  1.00  0.00    -0.013 C 
HETATM    5  C15 UNL     1     -22.080 -53.272 -17.881  1.00  0.00     0.018 C 
HETATM    6  C16 UNL     1     -24.481 -53.593 -18.054  1.00  0.00     0.101 C 
HETATM    7  N2  UNL     1     -25.783 -53.435 -17.490  1.00  0.00    -0.373 N 
ATOM      8  H2  UNL     1     -26.044 -52.723 -16.808  1.00  0.00     0.161 HD
HETATM    9  C17 UNL     1     -26.678 -54.431 -18.031  1.00  0.00     0.080 C 
HETATM   10  N3  UNL     1     -27.840 -54.751 -17.612  1.00  0.00    -0.388 N 
ATOM     11  H31 UNL     1     -28.472 -55.455 -17.994  1.00  0.00     0.157 HD
ATOM     12  H32 UNL     1     -28.325 -54.342 -16.813  1.00  0.00     0.157 HD
HETATM   13  C18 UNL     1     -25.979 -55.020 -19.179  1.00  0.00     0.019 C 
HETATM   14  C19 UNL     1     -26.373 -56.453 -19.309  1.00  0.00     0.024 C 
HETATM   15  C20 UNL     1     -26.451 -54.279 -20.415  1.00  0.00     0.024 C 
HETATM   16  C21 UNL     1     -24.505 -54.798 -18.921  1.00  0.00    -0.009 C 
HETATM   17  C22 UNL     1     -23.859 -54.570 -20.275  1.00  0.00     0.018 C 
HETATM   18  C23 UNL     1     -23.841 -56.002 -18.302  1.00  0.00     0.013 C 
HETATM   19  C24 UNL     1     -23.970 -55.967 -16.821  1.00  0.00     0.013 C 
HETATM   20  C25 UNL     1     -23.221 -54.769 -16.208  1.00  0.00    -0.006 C 
HETATM   21  C26 UNL     1     -21.818 -55.255 -15.983  1.00  0.00     0.019 C 
HETATM   22  C27 UNL     1     -23.942 -54.579 -14.866  1.00  0.00     0.156 C 
ENDROOT
BRANCH   1  23
HETATM   23  O4  UNL     1     -22.453 -54.053 -13.011  1.00  0.00    -0.378 OA
BRANCH  23  24
HETATM   24  C7  UNL     1     -21.210 -53.507 -12.912  1.00  0.00     0.125 C 
BRANCH  24  25
HETATM   25  C6  UNL     1     -21.113 -52.634 -11.644  1.00  0.00     0.037 C 
BRANCH  25  26
HETATM   26  C5  UNL     1     -21.205 -51.160 -11.965  1.00  0.00    -0.009 C 
HETATM   27  C4  UNL     1     -19.991 -50.537 -11.249  1.00  0.00     0.035 C 
HETATM   28  C3  UNL     1     -20.274 -49.082 -11.047  1.00  0.00     0.272 C 
HETATM   29  N1  UNL     1     -21.040 -48.583 -12.162  1.00  0.00     0.088 N 
HETATM   30  C29 UNL     1     -22.401 -49.050 -11.978  1.00  0.00     0.272 C 
HETATM   31  C28 UNL     1     -22.411 -50.480 -11.420  1.00  0.00     0.035 C 
BRANCH  29  32
HETATM   32  C2  UNL     1     -21.047 -47.132 -12.168  1.00  0.00     0.268 C 
HETATM   33  C1  UNL     1     -19.700 -46.591 -11.790  1.00  0.00     0.037 C 
ENDBRANCH  29  32
ENDBRANCH  25  26
ENDBRANCH  24  25
BRANCH  24  34
HETATM   34  C8  UNL     1     -20.031 -54.395 -12.986  1.00  0.00     0.074 C 
BRANCH  34  35
HETATM   35  C9  UNL     1     -18.787 -53.926 -13.617  1.00  0.00     0.221 C 
BRANCH  35  36
HETATM   36  O1  UNL     1     -18.037 -53.136 -12.787  1.00  0.00    -0.385 OA
ATOM     37  H1  UNL     1     -18.266 -52.216 -12.849  1.00  0.00     0.210 HD
ENDBRANCH  35  36
BRANCH  35  38
HETATM   38  C10 UNL     1     -17.996 -54.980 -14.308  1.00  0.00     0.203 C 
HETATM   39  O2  UNL     1     -18.530 -56.109 -14.444  1.00  0.00    -0.646 OA
HETATM   40  O3  UNL     1     -16.735 -54.789 -14.796  1.00  0.00    -0.646 OA
ENDBRANCH  35  38
ENDBRANCH  34  35
ENDBRANCH  24  34
ENDBRANCH  23  24
ENDBRANCH   1  23
BRANCH  22  41
HETATM   41  O5  UNL     1     -24.194 -55.809 -14.298  1.00  0.00    -0.392 OA
ATOM     42  H5  UNL     1     -25.088 -56.123 -14.371  1.00  0.00     0.210 HD
ENDBRANCH  22  41
TORSDOF 10
ENDMDL
