MODEL 1
REMARK VINA RESULT: -8.320246196      0.000      0.000
REMARK  10 active torsions:
REMARK  status: ('A' for Active; 'I' for Inactive)
REMARK    1  A    between atoms: C2_2  and  C3_3 
REMARK    2  A    between atoms: C6_7  and  N2_8 
REMARK    3  A    between atoms: C10_17  and  C11_18 
REMARK    4  A    between atoms: C13_20  and  C14_21 
REMARK    5  A    between atoms: C14_21  and  N5_22 
REMARK    6  A    between atoms: N5_22  and  C15_23 
REMARK    7  A    between atoms: N5_22  and  C18_27 
REMARK    8  A    between atoms: C15_23  and  C16_24 
REMARK    9  A    between atoms: C18_27  and  C19_28 
REMARK   10  A    between atoms: C23_36  and  O3_37 
ROOT
HETATM    1  C3  UNL     1     -49.134 -10.003 -20.156  1.00  0.00    -0.005 A 
HETATM    2  C4  UNL     1     -49.306 -10.336 -18.824  1.00  0.00     0.096 A 
HETATM    3  C5  UNL     1     -48.213 -10.117 -17.927  1.00  0.00     0.104 C 
HETATM    4  N1  UNL     1     -47.299  -9.968 -17.192  1.00  0.00    -0.191 NA
HETATM    5  C6  UNL     1     -50.516 -10.874 -18.438  1.00  0.00     0.121 A 
HETATM    6  N3  UNL     1     -51.465 -11.052 -19.374  1.00  0.00    -0.338 N 
ATOM      7  H3  UNL     1     -52.355 -11.452 -19.076  1.00  0.00     0.167 HD
HETATM    8  C7  UNL     1     -51.327 -10.743 -20.659  1.00  0.00     0.084 A 
HETATM    9  C8  UNL     1     -52.080 -10.894 -21.835  1.00  0.00     0.101 A 
HETATM   10  C9  UNL     1     -53.384 -11.431 -21.869  1.00  0.00     0.104 C 
HETATM   11  N4  UNL     1     -54.453 -11.897 -21.873  1.00  0.00    -0.191 NA
HETATM   12  C10 UNL     1     -51.361 -10.458 -22.919  1.00  0.00     0.069 A 
HETATM   13  N9  UNL     1     -50.169 -10.032 -22.402  1.00  0.00    -0.352 N 
ATOM     14  H9  UNL     1     -49.405  -9.639 -22.951  1.00  0.00     0.166 HD
HETATM   15  C27 UNL     1     -50.142 -10.203 -21.074  1.00  0.00     0.069 A 
ENDROOT
BRANCH   1  16
HETATM   16  C2  UNL     1     -47.832  -9.525 -20.669  1.00  0.00     0.038 C 
HETATM   17  C1  UNL     1     -47.043 -10.722 -21.233  1.00  0.00     0.010 C 
ENDBRANCH   1  16
BRANCH   5  18
HETATM   18  N2  UNL     1     -50.693 -11.170 -17.175  1.00  0.00    -0.384 N 
ATOM     19  H22 UNL     1     -50.022 -11.710 -16.629  1.00  0.00     0.157 HD
ATOM     20  H21 UNL     1     -51.550 -10.857 -16.718  1.00  0.00     0.157 HD
ENDBRANCH   5  18
BRANCH  12  21
HETATM   21  C11 UNL     1     -51.607 -10.647 -24.347  1.00  0.00     0.032 A 
HETATM   22  C12 UNL     1     -52.249  -9.782 -25.188  1.00  0.00     0.028 A 
HETATM   23  C13 UNL     1     -52.632 -10.096 -26.462  1.00  0.00    -0.010 A 
HETATM   24  C23 UNL     1     -52.307 -11.432 -26.872  1.00  0.00     0.078 A 
HETATM   25  C25 UNL     1     -51.672 -12.305 -26.071  1.00  0.00     0.080 A 
HETATM   26  C26 UNL     1     -51.299 -11.964 -24.805  1.00  0.00     0.131 A 
HETATM   27  F1  UNL     1     -50.692 -12.853 -24.002  1.00  0.00    -0.205 F 
BRANCH  23  28
HETATM   28  C14 UNL     1     -53.448  -9.426 -27.459  1.00  0.00     0.136 C 
BRANCH  28  29
HETATM   29  N5  UNL     1     -54.823  -9.130 -27.114  1.00  0.00    -0.285 NA
BRANCH  29  30
HETATM   30  C15 UNL     1     -54.989  -7.692 -27.430  1.00  0.00     0.109 C 
BRANCH  30  31
HETATM   31  C16 UNL     1     -54.545  -6.872 -26.263  1.00  0.00     0.138 C 
HETATM   32  C17 UNL     1     -55.360  -7.279 -25.089  1.00  0.00     0.060 C 
HETATM   33  N6  UNL     1     -56.027  -7.618 -24.175  1.00  0.00    -0.197 NA
ENDBRANCH  30  31
ENDBRANCH  29  30
BRANCH  29  34
HETATM   34  C18 UNL     1     -55.872  -9.873 -27.561  1.00  0.00     0.094 C 
BRANCH  34  35
HETATM   35  C19 UNL     1     -56.288 -11.197 -27.131  1.00  0.00     0.088 C 
HETATM   36  C20 UNL     1     -56.054 -12.395 -27.978  1.00  0.00     0.212 C 
HETATM   37  N7  UNL     1     -55.604 -13.448 -27.060  1.00  0.00    -0.224 N 
HETATM   38  C21 UNL     1     -55.422 -14.767 -27.442  1.00  0.00     0.189 C 
HETATM   39  C22 UNL     1     -55.410 -12.850 -25.804  1.00  0.00     0.381 C 
HETATM   40  N8  UNL     1     -55.281 -15.889 -27.740  1.00  0.00    -0.172 NA
HETATM   41  O1  UNL     1     -54.808 -13.347 -24.829  1.00  0.00    -0.237 OA
HETATM   42  O2  UNL     1     -56.009 -11.609 -25.827  1.00  0.00    -0.262 OA
ENDBRANCH  34  35
ENDBRANCH  29  34
ENDBRANCH  28  29
ENDBRANCH  23  28
BRANCH  24  43
HETATM   43  O3  UNL     1     -52.658 -11.806 -28.123  1.00  0.00    -0.355 OA
HETATM   44  C24 UNL     1     -52.414 -12.960 -28.849  1.00  0.00     0.210 C 
ENDBRANCH  24  43
ENDBRANCH  12  21
TORSDOF 10
ENDMDL
MODEL 2
REMARK VINA RESULT: -8.146278881      1.870      2.460
REMARK  10 active torsions:
REMARK  status: ('A' for Active; 'I' for Inactive)
REMARK    1  A    between atoms: C2_2  and  C3_3 
REMARK    2  A    between atoms: C6_7  and  N2_8 
REMARK    3  A    between atoms: C10_17  and  C11_18 
REMARK    4  A    between atoms: C13_20  and  C14_21 
REMARK    5  A    between atoms: C14_21  and  N5_22 
REMARK    6  A    between atoms: N5_22  and  C15_23 
REMARK    7  A    between atoms: N5_22  and  C18_27 
REMARK    8  A    between atoms: C15_23  and  C16_24 
REMARK    9  A    between atoms: C18_27  and  C19_28 
REMARK   10  A    between atoms: C23_36  and  O3_37 
ROOT
HETATM    1  C3  UNL     1     -49.093  -9.974 -20.278  1.00  0.00    -0.005 A 
HETATM    2  C4  UNL     1     -49.238 -10.271 -18.934  1.00  0.00     0.096 A 
HETATM    3  C5  UNL     1     -48.132 -10.017 -18.063  1.00  0.00     0.104 C 
HETATM    4  N1  UNL     1     -47.207  -9.839 -17.349  1.00  0.00    -0.191 NA
HETATM    5  C6  UNL     1     -50.436 -10.810 -18.512  1.00  0.00     0.121 A 
HETATM    6  N3  UNL     1     -51.400 -11.022 -19.425  1.00  0.00    -0.338 N 
ATOM      7  H3  UNL     1     -52.280 -11.421 -19.100  1.00  0.00     0.167 HD
HETATM    8  C7  UNL     1     -51.287 -10.748 -20.721  1.00  0.00     0.084 A 
HETATM    9  C8  UNL     1     -52.059 -10.939 -21.878  1.00  0.00     0.101 A 
HETATM   10  C9  UNL     1     -53.359 -11.488 -21.874  1.00  0.00     0.104 C 
HETATM   11  N4  UNL     1     -54.423 -11.965 -21.846  1.00  0.00    -0.191 NA
HETATM   12  C10 UNL     1     -51.363 -10.527 -22.987  1.00  0.00     0.069 A 
HETATM   13  N9  UNL     1     -50.167 -10.076 -22.503  1.00  0.00    -0.352 N 
ATOM     14  H9  UNL     1     -49.417  -9.691 -23.077  1.00  0.00     0.166 HD
HETATM   15  C27 UNL     1     -50.115 -10.209 -21.172  1.00  0.00     0.069 A 
ENDROOT
BRANCH   1  16
HETATM   16  C2  UNL     1     -47.805  -9.499 -20.827  1.00  0.00     0.038 C 
HETATM   17  C1  UNL     1     -46.991 -10.709 -21.322  1.00  0.00     0.010 C 
ENDBRANCH   1  16
BRANCH   5  18
HETATM   18  N2  UNL     1     -50.587 -11.071 -17.237  1.00  0.00    -0.384 N 
ATOM     19  H22 UNL     1     -51.287 -10.614 -16.653  1.00  0.00     0.157 HD
ATOM     20  H21 UNL     1     -49.964 -11.753 -16.805  1.00  0.00     0.157 HD
ENDBRANCH   5  18
BRANCH  12  21
HETATM   21  C11 UNL     1     -51.633 -10.758 -24.404  1.00  0.00     0.032 A 
HETATM   22  C12 UNL     1     -52.283  -9.915 -25.261  1.00  0.00     0.028 A 
HETATM   23  C13 UNL     1     -52.688 -10.266 -26.519  1.00  0.00    -0.010 A 
HETATM   24  C23 UNL     1     -52.377 -11.616 -26.892  1.00  0.00     0.078 A 
HETATM   25  C25 UNL     1     -51.735 -12.468 -26.075  1.00  0.00     0.080 A 
HETATM   26  C26 UNL     1     -51.340 -12.091 -24.826  1.00  0.00     0.131 A 
HETATM   27  F1  UNL     1     -50.726 -12.959 -24.005  1.00  0.00    -0.205 F 
BRANCH  23  28
HETATM   28  C14 UNL     1     -53.515  -9.622 -27.523  1.00  0.00     0.136 C 
BRANCH  28  29
HETATM   29  N5  UNL     1     -54.755  -9.016 -27.086  1.00  0.00    -0.285 NA
BRANCH  29  30
HETATM   30  C15 UNL     1     -54.673  -7.612 -27.549  1.00  0.00     0.109 C 
BRANCH  30  31
HETATM   31  C16 UNL     1     -54.585  -6.703 -26.367  1.00  0.00     0.138 C 
HETATM   32  C17 UNL     1     -55.861  -5.946 -26.283  1.00  0.00     0.060 C 
HETATM   33  N6  UNL     1     -56.882  -5.355 -26.245  1.00  0.00    -0.197 NA
ENDBRANCH  30  31
ENDBRANCH  29  30
BRANCH  29  34
HETATM   34  C18 UNL     1     -55.974  -9.566 -27.343  1.00  0.00     0.094 C 
BRANCH  34  35
HETATM   35  C19 UNL     1     -57.068  -9.808 -26.417  1.00  0.00     0.088 C 
HETATM   36  C20 UNL     1     -56.905 -10.703 -25.244  1.00  0.00     0.212 C 
HETATM   37  N7  UNL     1     -57.577 -10.023 -24.130  1.00  0.00    -0.224 N 
HETATM   38  C21 UNL     1     -57.775 -10.605 -22.889  1.00  0.00     0.189 C 
HETATM   39  C22 UNL     1     -57.938  -8.743 -24.581  1.00  0.00     0.381 C 
HETATM   40  N8  UNL     1     -57.970 -11.085 -21.840  1.00  0.00    -0.172 NA
HETATM   41  O1  UNL     1     -58.308  -7.782 -23.874  1.00  0.00    -0.237 OA
HETATM   42  O2  UNL     1     -57.820  -8.727 -25.954  1.00  0.00    -0.262 OA
ENDBRANCH  34  35
ENDBRANCH  29  34
ENDBRANCH  28  29
ENDBRANCH  23  28
BRANCH  24  43
HETATM   43  O3  UNL     1     -52.750 -12.027 -28.126  1.00  0.00    -0.355 OA
HETATM   44  C24 UNL     1     -52.493 -13.189 -28.834  1.00  0.00     0.210 C 
ENDBRANCH  24  43
ENDBRANCH  12  21
TORSDOF 10
ENDMDL
MODEL 3
REMARK VINA RESULT: -8.108396480      2.478      4.536
REMARK  10 active torsions:
REMARK  status: ('A' for Active; 'I' for Inactive)
REMARK    1  A    between atoms: C2_2  and  C3_3 
REMARK    2  A    between atoms: C6_7  and  N2_8 
REMARK    3  A    between atoms: C10_17  and  C11_18 
REMARK    4  A    between atoms: C13_20  and  C14_21 
REMARK    5  A    between atoms: C14_21  and  N5_22 
REMARK    6  A    between atoms: N5_22  and  C15_23 
REMARK    7  A    between atoms: N5_22  and  C18_27 
REMARK    8  A    between atoms: C15_23  and  C16_24 
REMARK    9  A    between atoms: C18_27  and  C19_28 
REMARK   10  A    between atoms: C23_36  and  O3_37 
ROOT
HETATM    1  C3  UNL     1     -49.045 -11.288 -20.513  1.00  0.00    -0.005 A 
HETATM    2  C4  UNL     1     -49.165 -10.930 -19.181  1.00  0.00     0.096 A 
HETATM    3  C5  UNL     1     -48.077 -10.230 -18.570  1.00  0.00     0.104 C 
HETATM    4  N1  UNL     1     -47.166  -9.681 -18.055  1.00  0.00    -0.191 NA
HETATM    5  C6  UNL     1     -50.320 -11.282 -18.514  1.00  0.00     0.121 A 
HETATM    6  N3  UNL     1     -51.268 -11.957 -19.188  1.00  0.00    -0.338 N 
ATOM      7  H3  UNL     1     -52.116 -12.212 -18.683  1.00  0.00     0.167 HD
HETATM    8  C7  UNL     1     -51.179 -12.315 -20.465  1.00  0.00     0.084 A 
HETATM    9  C8  UNL     1     -51.937 -13.073 -21.371  1.00  0.00     0.101 A 
HETATM   10  C9  UNL     1     -53.194 -13.636 -21.065  1.00  0.00     0.104 C 
HETATM   11  N4  UNL     1     -54.221 -14.110 -20.779  1.00  0.00    -0.191 NA
HETATM   12  C10 UNL     1     -51.276 -13.185 -22.568  1.00  0.00     0.069 A 
HETATM   13  N9  UNL     1     -50.113 -12.487 -22.394  1.00  0.00    -0.352 N 
ATOM     14  H9  UNL     1     -49.394 -12.369 -23.107  1.00  0.00     0.166 HD
HETATM   15  C27 UNL     1     -50.049 -11.978 -21.157  1.00  0.00     0.069 A 
ENDROOT
BRANCH   1  16
HETATM   16  C2  UNL     1     -47.795 -11.046 -21.267  1.00  0.00     0.038 C 
HETATM   17  C1  UNL     1     -47.831  -9.624 -21.857  1.00  0.00     0.010 C 
ENDBRANCH   1  16
BRANCH   5  18
HETATM   18  N2  UNL     1     -50.449 -10.926 -17.261  1.00  0.00    -0.384 N 
ATOM     19  H22 UNL     1     -49.720 -10.437 -16.742  1.00  0.00     0.157 HD
ATOM     20  H21 UNL     1     -51.314 -11.163 -16.776  1.00  0.00     0.157 HD
ENDBRANCH   5  18
BRANCH  12  21
HETATM   21  C11 UNL     1     -51.532 -14.069 -23.702  1.00  0.00     0.032 A 
HETATM   22  C12 UNL     1     -52.244 -13.769 -24.830  1.00  0.00     0.028 A 
HETATM   23  C13 UNL     1     -52.625 -14.692 -25.763  1.00  0.00    -0.010 A 
HETATM   24  C23 UNL     1     -52.217 -16.037 -25.475  1.00  0.00     0.078 A 
HETATM   25  C25 UNL     1     -51.511 -16.365 -24.378  1.00  0.00     0.080 A 
HETATM   26  C26 UNL     1     -51.143 -15.423 -23.465  1.00  0.00     0.131 A 
HETATM   27  F1  UNL     1     -50.464 -15.765 -22.358  1.00  0.00    -0.205 F 
BRANCH  23  28
HETATM   28  C14 UNL     1     -53.500 -14.647 -26.920  1.00  0.00     0.136 C 
BRANCH  28  29
HETATM   29  N5  UNL     1     -53.295 -13.580 -27.878  1.00  0.00    -0.285 NA
BRANCH  29  30
HETATM   30  C15 UNL     1     -53.440 -14.229 -29.201  1.00  0.00     0.109 C 
BRANCH  30  31
HETATM   31  C16 UNL     1     -54.867 -14.617 -29.411  1.00  0.00     0.138 C 
HETATM   32  C17 UNL     1     -55.268 -14.148 -30.764  1.00  0.00     0.060 C 
HETATM   33  N6  UNL     1     -55.561 -13.758 -31.838  1.00  0.00    -0.197 NA
ENDBRANCH  30  31
ENDBRANCH  29  30
BRANCH  29  34
HETATM   34  C18 UNL     1     -53.964 -12.396 -27.815  1.00  0.00     0.094 C 
BRANCH  34  35
HETATM   35  C19 UNL     1     -53.418 -11.057 -27.667  1.00  0.00     0.088 C 
HETATM   36  C20 UNL     1     -54.277  -9.911 -27.275  1.00  0.00     0.212 C 
HETATM   37  N7  UNL     1     -53.492  -9.142 -26.302  1.00  0.00    -0.224 N 
HETATM   38  C21 UNL     1     -53.887  -7.911 -25.805  1.00  0.00     0.189 C 
HETATM   39  C22 UNL     1     -52.341  -9.892 -26.011  1.00  0.00     0.381 C 
HETATM   40  N8  UNL     1     -54.193  -6.861 -25.389  1.00  0.00    -0.172 NA
HETATM   41  O1  UNL     1     -51.550  -9.702 -25.063  1.00  0.00    -0.237 OA
HETATM   42  O2  UNL     1     -52.227 -10.882 -26.962  1.00  0.00    -0.262 OA
ENDBRANCH  34  35
ENDBRANCH  29  34
ENDBRANCH  28  29
ENDBRANCH  23  28
BRANCH  24  43
HETATM   43  O3  UNL     1     -52.562 -17.000 -26.360  1.00  0.00    -0.355 OA
HETATM   44  C24 UNL     1     -52.242 -18.345 -26.439  1.00  0.00     0.210 C 
ENDBRANCH  24  43
ENDBRANCH  12  21
TORSDOF 10
ENDMDL
MODEL 4
REMARK VINA RESULT: -8.076940742      2.568      4.261
REMARK  10 active torsions:
REMARK  status: ('A' for Active; 'I' for Inactive)
REMARK    1  A    between atoms: C2_2  and  C3_3 
REMARK    2  A    between atoms: C6_7  and  N2_8 
REMARK    3  A    between atoms: C10_17  and  C11_18 
REMARK    4  A    between atoms: C13_20  and  C14_21 
REMARK    5  A    between atoms: C14_21  and  N5_22 
REMARK    6  A    between atoms: N5_22  and  C15_23 
REMARK    7  A    between atoms: N5_22  and  C18_27 
REMARK    8  A    between atoms: C15_23  and  C16_24 
REMARK    9  A    between atoms: C18_27  and  C19_28 
REMARK   10  A    between atoms: C23_36  and  O3_37 
ROOT
HETATM    1  C3  UNL     1     -48.556 -11.178 -20.424  1.00  0.00    -0.005 A 
HETATM    2  C4  UNL     1     -48.568 -10.779 -19.098  1.00  0.00     0.096 A 
HETATM    3  C5  UNL     1     -47.464 -10.009 -18.614  1.00  0.00     0.104 C 
HETATM    4  N1  UNL     1     -46.535  -9.402 -18.205  1.00  0.00    -0.191 NA
HETATM    5  C6  UNL     1     -49.638 -11.158 -18.314  1.00  0.00     0.121 A 
HETATM    6  N3  UNL     1     -50.611 -11.898 -18.874  1.00  0.00    -0.338 N 
ATOM      7  H3  UNL     1     -51.396 -12.173 -18.284  1.00  0.00     0.167 HD
HETATM    8  C7  UNL     1     -50.624 -12.296 -20.142  1.00  0.00     0.084 A 
HETATM    9  C8  UNL     1     -51.427 -13.119 -20.949  1.00  0.00     0.101 A 
HETATM   10  C9  UNL     1     -52.621 -13.727 -20.508  1.00  0.00     0.104 C 
HETATM   11  N4  UNL     1     -53.594 -14.235 -20.112  1.00  0.00    -0.191 NA
HETATM   12  C10 UNL     1     -50.875 -13.244 -22.199  1.00  0.00     0.069 A 
HETATM   13  N9  UNL     1     -49.736 -12.488 -22.157  1.00  0.00    -0.352 N 
ATOM     14  H9  UNL     1     -49.093 -12.363 -22.938  1.00  0.00     0.166 HD
HETATM   15  C27 UNL     1     -49.582 -11.934 -20.948  1.00  0.00     0.069 A 
ENDROOT
BRANCH   1  16
HETATM   16  C2  UNL     1     -47.395 -10.906 -21.299  1.00  0.00     0.038 C 
HETATM   17  C1  UNL     1     -47.565  -9.519 -21.946  1.00  0.00     0.010 C 
ENDBRANCH   1  16
BRANCH   5  18
HETATM   18  N2  UNL     1     -49.667 -10.764 -17.066  1.00  0.00    -0.384 N 
ATOM     19  H22 UNL     1     -49.030 -11.121 -16.353  1.00  0.00     0.157 HD
ATOM     20  H21 UNL     1     -50.370 -10.079 -16.789  1.00  0.00     0.157 HD
ENDBRANCH   5  18
BRANCH  12  21
HETATM   21  C11 UNL     1     -51.193 -14.177 -23.276  1.00  0.00     0.032 A 
HETATM   22  C12 UNL     1     -52.073 -13.974 -24.302  1.00  0.00     0.028 A 
HETATM   23  C13 UNL     1     -52.484 -14.953 -25.163  1.00  0.00    -0.010 A 
HETATM   24  C23 UNL     1     -51.915 -16.247 -24.913  1.00  0.00     0.078 A 
HETATM   25  C25 UNL     1     -51.043 -16.478 -23.917  1.00  0.00     0.080 A 
HETATM   26  C26 UNL     1     -50.648 -15.482 -23.074  1.00  0.00     0.131 A 
HETATM   27  F1  UNL     1     -49.799 -15.730 -22.063  1.00  0.00    -0.205 F 
BRANCH  23  28
HETATM   28  C14 UNL     1     -53.504 -15.021 -26.193  1.00  0.00     0.136 C 
BRANCH  28  29
HETATM   29  N5  UNL     1     -53.702 -13.850 -27.022  1.00  0.00    -0.285 NA
BRANCH  29  30
HETATM   30  C15 UNL     1     -52.985 -14.153 -28.281  1.00  0.00     0.109 C 
BRANCH  30  31
HETATM   31  C16 UNL     1     -52.334 -12.911 -28.794  1.00  0.00     0.138 C 
HETATM   32  C17 UNL     1     -51.605 -12.282 -27.662  1.00  0.00     0.060 C 
HETATM   33  N6  UNL     1     -51.042 -11.801 -26.743  1.00  0.00    -0.197 NA
ENDBRANCH  30  31
ENDBRANCH  29  30
BRANCH  29  34
HETATM   34  C18 UNL     1     -54.931 -13.310 -27.253  1.00  0.00     0.094 C 
BRANCH  34  35
HETATM   35  C19 UNL     1     -55.336 -11.917 -27.167  1.00  0.00     0.088 C 
HETATM   36  C20 UNL     1     -54.844 -11.035 -26.079  1.00  0.00     0.212 C 
HETATM   37  N7  UNL     1     -54.527  -9.753 -26.719  1.00  0.00    -0.224 N 
HETATM   38  C21 UNL     1     -54.176  -8.614 -26.014  1.00  0.00     0.189 C 
HETATM   39  C22 UNL     1     -54.647  -9.940 -28.106  1.00  0.00     0.381 C 
HETATM   40  N8  UNL     1     -53.897  -7.635 -25.437  1.00  0.00    -0.172 NA
HETATM   41  O1  UNL     1     -54.233  -9.171 -28.999  1.00  0.00    -0.237 OA
HETATM   42  O2  UNL     1     -55.312 -11.128 -28.318  1.00  0.00    -0.262 OA
ENDBRANCH  34  35
ENDBRANCH  29  34
ENDBRANCH  28  29
ENDBRANCH  23  28
BRANCH  24  43
HETATM   43  O3  UNL     1     -52.279 -17.260 -25.730  1.00  0.00    -0.355 OA
HETATM   44  C24 UNL     1     -51.933 -18.601 -25.758  1.00  0.00     0.210 C 
ENDBRANCH  24  43
ENDBRANCH  12  21
TORSDOF 10
ENDMDL
MODEL 5
REMARK VINA RESULT: -8.060695199      1.255      1.503
REMARK  10 active torsions:
REMARK  status: ('A' for Active; 'I' for Inactive)
REMARK    1  A    between atoms: C2_2  and  C3_3 
REMARK    2  A    between atoms: C6_7  and  N2_8 
REMARK    3  A    between atoms: C10_17  and  C11_18 
REMARK    4  A    between atoms: C13_20  and  C14_21 
REMARK    5  A    between atoms: C14_21  and  N5_22 
REMARK    6  A    between atoms: N5_22  and  C15_23 
REMARK    7  A    between atoms: N5_22  and  C18_27 
REMARK    8  A    between atoms: C15_23  and  C16_24 
REMARK    9  A    between atoms: C18_27  and  C19_28 
REMARK   10  A    between atoms: C23_36  and  O3_37 
ROOT
HETATM    1  C3  UNL     1     -49.116 -10.013 -20.124  1.00  0.00    -0.005 A 
HETATM    2  C4  UNL     1     -49.297 -10.342 -18.792  1.00  0.00     0.096 A 
HETATM    3  C5  UNL     1     -48.211 -10.122 -17.888  1.00  0.00     0.104 C 
HETATM    4  N1  UNL     1     -47.302  -9.972 -17.146  1.00  0.00    -0.191 NA
HETATM    5  C6  UNL     1     -50.511 -10.879 -18.414  1.00  0.00     0.121 A 
HETATM    6  N3  UNL     1     -51.453 -11.057 -19.356  1.00  0.00    -0.338 N 
ATOM      7  H3  UNL     1     -52.345 -11.456 -19.064  1.00  0.00     0.167 HD
HETATM    8  C7  UNL     1     -51.306 -10.752 -20.641  1.00  0.00     0.084 A 
HETATM    9  C8  UNL     1     -52.050 -10.905 -21.822  1.00  0.00     0.101 A 
HETATM   10  C9  UNL     1     -53.355 -11.441 -21.864  1.00  0.00     0.104 C 
HETATM   11  N4  UNL     1     -54.424 -11.906 -21.875  1.00  0.00    -0.191 NA
HETATM   12  C10 UNL     1     -51.322 -10.473 -22.902  1.00  0.00     0.069 A 
HETATM   13  N9  UNL     1     -50.134 -10.046 -22.377  1.00  0.00    -0.352 N 
ATOM     14  H9  UNL     1     -49.366  -9.655 -22.922  1.00  0.00     0.166 HD
HETATM   15  C27 UNL     1     -50.117 -10.214 -21.049  1.00  0.00     0.069 A 
ENDROOT
BRANCH   1  16
HETATM   16  C2  UNL     1     -47.809  -9.537 -20.629  1.00  0.00     0.038 C 
HETATM   17  C1  UNL     1     -47.001 -10.742 -21.148  1.00  0.00     0.010 C 
ENDBRANCH   1  16
BRANCH   5  18
HETATM   18  N2  UNL     1     -50.697 -11.171 -17.151  1.00  0.00    -0.384 N 
ATOM     19  H22 UNL     1     -50.658 -12.122 -16.786  1.00  0.00     0.157 HD
ATOM     20  H21 UNL     1     -50.906 -10.411 -16.503  1.00  0.00     0.157 HD
ENDBRANCH   5  18
BRANCH  12  21
HETATM   21  C11 UNL     1     -51.559 -10.665 -24.330  1.00  0.00     0.032 A 
HETATM   22  C12 UNL     1     -52.233  -9.822 -25.169  1.00  0.00     0.028 A 
HETATM   23  C13 UNL     1     -52.602 -10.145 -26.446  1.00  0.00    -0.010 A 
HETATM   24  C23 UNL     1     -52.223 -11.466 -26.860  1.00  0.00     0.078 A 
HETATM   25  C25 UNL     1     -51.554 -12.316 -26.062  1.00  0.00     0.080 A 
HETATM   26  C26 UNL     1     -51.198 -11.966 -24.794  1.00  0.00     0.131 A 
HETATM   27  F1  UNL     1     -50.557 -12.834 -23.994  1.00  0.00    -0.205 F 
BRANCH  23  28
HETATM   28  C14 UNL     1     -53.441  -9.505 -27.440  1.00  0.00     0.136 C 
BRANCH  28  29
HETATM   29  N5  UNL     1     -54.835  -9.292 -27.109  1.00  0.00    -0.285 NA
BRANCH  29  30
HETATM   30  C15 UNL     1     -55.077  -7.860 -27.397  1.00  0.00     0.109 C 
BRANCH  30  31
HETATM   31  C16 UNL     1     -54.578  -7.033 -26.258  1.00  0.00     0.138 C 
HETATM   32  C17 UNL     1     -55.404  -7.358 -25.066  1.00  0.00     0.060 C 
HETATM   33  N6  UNL     1     -56.081  -7.632 -24.139  1.00  0.00    -0.197 NA
ENDBRANCH  30  31
ENDBRANCH  29  30
BRANCH  29  34
HETATM   34  C18 UNL     1     -55.835 -10.084 -27.587  1.00  0.00     0.094 C 
BRANCH  34  35
HETATM   35  C19 UNL     1     -55.758 -11.463 -28.037  1.00  0.00     0.088 C 
HETATM   36  C20 UNL     1     -56.477 -12.550 -27.327  1.00  0.00     0.212 C 
HETATM   37  N7  UNL     1     -57.050 -13.400 -28.377  1.00  0.00    -0.224 N 
HETATM   38  C21 UNL     1     -57.675 -14.609 -28.124  1.00  0.00     0.189 C 
HETATM   39  C22 UNL     1     -56.837 -12.747 -29.602  1.00  0.00     0.381 C 
HETATM   40  N8  UNL     1     -58.190 -15.643 -27.933  1.00  0.00    -0.172 NA
HETATM   41  O1  UNL     1     -57.379 -13.020 -30.694  1.00  0.00    -0.237 OA
HETATM   42  O2  UNL     1     -55.914 -11.745 -29.395  1.00  0.00    -0.262 OA
ENDBRANCH  34  35
ENDBRANCH  29  34
ENDBRANCH  28  29
ENDBRANCH  23  28
BRANCH  24  43
HETATM   43  O3  UNL     1     -52.556 -11.848 -28.114  1.00  0.00    -0.355 OA
HETATM   44  C24 UNL     1     -52.464 -13.065 -28.768  1.00  0.00     0.210 C 
ENDBRANCH  24  43
ENDBRANCH  12  21
TORSDOF 10
ENDMDL
