MODEL 1
REMARK VINA RESULT: -9.032508814      0.000      0.000
REMARK  1 active torsions:
REMARK  status: ('A' for Active; 'I' for Inactive)
REMARK    1  A    between atoms: C1_2  and  C2_4 
ROOT
HETATM    1  C2  UNL     1      -4.996  11.285  -8.722  1.00  0.00     0.282 C 
HETATM    2  C3  UNL     1      -3.740  11.110  -7.899  1.00  0.00     0.251 C 
HETATM    3  O2  UNL     1      -3.148   9.999  -7.926  1.00  0.00    -0.271 OA
HETATM    4  N2  UNL     1      -3.195  12.143  -7.094  1.00  0.00    -0.359 N 
ATOM      5  H2  UNL     1      -2.179  12.241  -7.072  1.00  0.00     0.162 HD
HETATM    6  C4  UNL     1      -3.979  13.068  -6.300  1.00  0.00     0.122 C 
HETATM    7  C5  UNL     1      -3.646  12.817  -4.836  1.00  0.00     0.020 C 
HETATM    8  C6  UNL     1      -3.364  14.099  -4.105  1.00  0.00     0.002 C 
HETATM    9  C7  UNL     1      -1.932  14.533  -4.325  1.00  0.00     0.000 C 
HETATM   10  C8  UNL     1      -1.328  15.090  -3.066  1.00  0.00     0.000 C 
HETATM   11  C9  UNL     1      -0.164  14.250  -2.591  1.00  0.00     0.000 C 
HETATM   12  C10 UNL     1       0.988  14.287  -3.565  1.00  0.00     0.000 C 
HETATM   13  C11 UNL     1       1.479  15.665  -3.867  1.00  0.00     0.000 C 
HETATM   14  C12 UNL     1       1.168  16.045  -5.307  1.00  0.00     0.000 C 
HETATM   15  C13 UNL     1       2.335  16.757  -5.957  1.00  0.00     0.000 C 
HETATM   16  C14 UNL     1       2.734  16.100  -7.266  1.00  0.00     0.000 C 
HETATM   17  C15 UNL     1       1.555  15.866  -8.160  1.00  0.00     0.000 C 
HETATM   18  C16 UNL     1       1.777  16.422  -9.548  1.00  0.00     0.000 C 
HETATM   19  C17 UNL     1       1.847  15.363 -10.604  1.00  0.00     0.000 C 
HETATM   20  C18 UNL     1       0.555  15.186 -11.366  1.00  0.00     0.000 C 
HETATM   21  C19 UNL     1      -0.592  14.822 -10.458  1.00  0.00     0.000 C 
HETATM   22  C20 UNL     1      -1.859  14.845 -11.268  1.00  0.00     0.000 C 
HETATM   23  C21 UNL     1      -2.191  13.545 -11.924  1.00  0.00     0.007 C 
HETATM   24  C22 UNL     1      -3.626  13.162 -11.558  1.00  0.00     0.010 C 
HETATM   25  C23 UNL     1      -3.539  12.435 -10.236  1.00  0.00     0.149 C 
HETATM   26  N3  UNL     1      -4.598  11.465 -10.075  1.00  0.00    -0.302 N 
HETATM   27  N4  UNL     1      -5.578  11.560 -11.024  1.00  0.00    -0.271 N 
ATOM     28  H4  UNL     1      -5.820  10.684 -11.487  1.00  0.00     0.189 HD
HETATM   29  C24 UNL     1      -6.312  12.698 -11.462  1.00  0.00     0.240 C 
HETATM   30  O3  UNL     1      -7.474  12.406 -11.864  1.00  0.00    -0.271 OA
HETATM   31  C25 UNL     1      -5.918  14.130 -11.510  1.00  0.00     0.084 A 
HETATM   32  C26 UNL     1      -5.285  14.816 -10.386  1.00  0.00     0.020 A 
HETATM   33  C27 UNL     1      -4.475  14.387 -11.535  1.00  0.00     0.005 A 
ENDROOT
BRANCH   1  34
HETATM   34  C1  UNL     1      -5.939  10.187  -8.474  1.00  0.00     0.264 C 
HETATM   35  N1  UNL     1      -7.070  10.235  -7.618  1.00  0.00    -0.060 NA
HETATM   36  O1  UNL     1      -5.784   9.056  -9.055  1.00  0.00    -0.274 OA
ENDBRANCH   1  34
TORSDOF 1
ENDMDL
MODEL 2
REMARK VINA RESULT: -8.382747377      4.806      8.747
REMARK  1 active torsions:
REMARK  status: ('A' for Active; 'I' for Inactive)
REMARK    1  A    between atoms: C1_2  and  C2_4 
ROOT
HETATM    1  C2  UNL     1       1.393  15.695  -8.372  1.00  0.00     0.282 C 
HETATM    2  C3  UNL     1       2.452  16.727  -8.054  1.00  0.00     0.251 C 
HETATM    3  O2  UNL     1       2.215  17.936  -8.312  1.00  0.00    -0.271 OA
HETATM    4  N2  UNL     1       3.704  16.395  -7.476  1.00  0.00    -0.359 N 
ATOM      5  H2  UNL     1       4.081  17.027  -6.769  1.00  0.00     0.162 HD
HETATM    6  C4  UNL     1       4.484  15.223  -7.819  1.00  0.00     0.122 C 
HETATM    7  C5  UNL     1       5.782  15.702  -8.453  1.00  0.00     0.020 C 
HETATM    8  C6  UNL     1       6.976  15.006  -7.862  1.00  0.00     0.002 C 
HETATM    9  C7  UNL     1       7.395  15.671  -6.570  1.00  0.00     0.000 C 
HETATM   10  C8  UNL     1       8.892  15.745  -6.453  1.00  0.00     0.000 C 
HETATM   11  C9  UNL     1       9.376  17.178  -6.420  1.00  0.00     0.000 C 
HETATM   12  C10 UNL     1       8.902  17.900  -5.183  1.00  0.00     0.000 C 
HETATM   13  C11 UNL     1       9.291  17.231  -3.906  1.00  0.00     0.000 C 
HETATM   14  C12 UNL     1       8.067  16.674  -3.193  1.00  0.00     0.000 C 
HETATM   15  C13 UNL     1       8.126  16.936  -1.705  1.00  0.00     0.000 C 
HETATM   16  C14 UNL     1       6.868  17.625  -1.206  1.00  0.00     0.000 C 
HETATM   17  C15 UNL     1       5.624  16.938  -1.682  1.00  0.00     0.000 C 
HETATM   18  C16 UNL     1       4.679  16.625  -0.544  1.00  0.00     0.000 C 
HETATM   19  C17 UNL     1       3.394  17.389  -0.619  1.00  0.00     0.000 C 
HETATM   20  C18 UNL     1       2.251  16.588  -1.197  1.00  0.00     0.000 C 
HETATM   21  C19 UNL     1       2.551  16.102  -2.592  1.00  0.00     0.000 C 
HETATM   22  C20 UNL     1       1.445  15.172  -3.014  1.00  0.00     0.000 C 
HETATM   23  C21 UNL     1       0.295  15.851  -3.683  1.00  0.00     0.007 C 
HETATM   24  C22 UNL     1       0.021  15.154  -5.016  1.00  0.00     0.010 C 
HETATM   25  C23 UNL     1       0.945  15.800  -6.022  1.00  0.00     0.149 C 
HETATM   26  N3  UNL     1       0.399  15.777  -7.359  1.00  0.00    -0.302 N 
HETATM   27  N4  UNL     1      -0.710  14.987  -7.486  1.00  0.00    -0.271 N 
ATOM     28  H4  UNL     1      -1.510  15.431  -7.938  1.00  0.00     0.189 HD
HETATM   29  C24 UNL     1      -0.917  13.638  -7.080  1.00  0.00     0.240 C 
HETATM   30  O3  UNL     1      -1.745  13.028  -7.815  1.00  0.00    -0.271 OA
HETATM   31  C25 UNL     1      -0.317  12.874  -5.956  1.00  0.00     0.084 A 
HETATM   32  C26 UNL     1       1.118  12.869  -5.678  1.00  0.00     0.020 A 
HETATM   33  C27 UNL     1       0.213  13.684  -4.855  1.00  0.00     0.005 A 
ENDROOT
BRANCH   1  34
HETATM   34  C1  UNL     1       0.914  15.848  -9.752  1.00  0.00     0.264 C 
HETATM   35  N1  UNL     1       1.464  16.710 -10.736  1.00  0.00    -0.060 NA
HETATM   36  O1  UNL     1      -0.089  15.169 -10.169  1.00  0.00    -0.274 OA
ENDBRANCH   1  34
TORSDOF 1
ENDMDL
MODEL 3
REMARK VINA RESULT: -8.269016535      3.910      8.265
REMARK  1 active torsions:
REMARK  status: ('A' for Active; 'I' for Inactive)
REMARK    1  A    between atoms: C1_2  and  C2_4 
ROOT
HETATM    1  C2  UNL     1      -1.240  16.393  -2.935  1.00  0.00     0.282 C 
HETATM    2  C3  UNL     1      -2.305  16.453  -4.007  1.00  0.00     0.251 C 
HETATM    3  O2  UNL     1      -3.037  17.475  -4.076  1.00  0.00    -0.271 OA
HETATM    4  N2  UNL     1      -2.519  15.408  -4.941  1.00  0.00    -0.359 N 
ATOM      5  H2  UNL     1      -2.735  15.670  -5.904  1.00  0.00     0.162 HD
HETATM    6  C4  UNL     1      -2.454  13.995  -4.625  1.00  0.00     0.122 C 
HETATM    7  C5  UNL     1      -3.845  13.411  -4.831  1.00  0.00     0.020 C 
HETATM    8  C6  UNL     1      -3.798  12.141  -5.632  1.00  0.00     0.002 C 
HETATM    9  C7  UNL     1      -3.740  12.446  -7.112  1.00  0.00     0.000 C 
HETATM   10  C8  UNL     1      -4.592  11.492  -7.902  1.00  0.00     0.000 C 
HETATM   11  C9  UNL     1      -5.720  12.212  -8.608  1.00  0.00     0.000 C 
HETATM   12  C10 UNL     1      -5.206  13.161  -9.661  1.00  0.00     0.000 C 
HETATM   13  C11 UNL     1      -4.333  12.512 -10.685  1.00  0.00     0.000 C 
HETATM   14  C12 UNL     1      -2.895  12.996 -10.554  1.00  0.00     0.000 C 
HETATM   15  C13 UNL     1      -2.277  13.268 -11.907  1.00  0.00     0.000 C 
HETATM   16  C14 UNL     1      -1.687  14.665 -11.984  1.00  0.00     0.000 C 
HETATM   17  C15 UNL     1      -0.808  14.971 -10.810  1.00  0.00     0.000 C 
HETATM   18  C16 UNL     1       0.551  15.476 -11.235  1.00  0.00     0.000 C 
HETATM   19  C17 UNL     1       0.799  16.900 -10.846  1.00  0.00     0.000 C 
HETATM   20  C18 UNL     1       1.633  17.046  -9.595  1.00  0.00     0.000 C 
HETATM   21  C19 UNL     1       0.991  16.374  -8.408  1.00  0.00     0.000 C 
HETATM   22  C20 UNL     1       1.966  16.413  -7.262  1.00  0.00     0.000 C 
HETATM   23  C21 UNL     1       1.861  17.635  -6.409  1.00  0.00     0.007 C 
HETATM   24  C22 UNL     1       1.715  17.204  -4.949  1.00  0.00     0.010 C 
HETATM   25  C23 UNL     1       0.239  16.966  -4.731  1.00  0.00     0.149 C 
HETATM   26  N3  UNL     1      -0.158  17.211  -3.363  1.00  0.00    -0.302 N 
HETATM   27  N4  UNL     1       0.895  17.378  -2.507  1.00  0.00    -0.271 N 
ATOM     28  H4  UNL     1       0.847  18.208  -1.916  1.00  0.00     0.189 HD
HETATM   29  C24 UNL     1       2.050  16.567  -2.318  1.00  0.00     0.240 C 
HETATM   30  O3  UNL     1       2.500  16.625  -1.138  1.00  0.00    -0.271 OA
HETATM   31  C25 UNL     1       2.774  15.694  -3.278  1.00  0.00     0.084 A 
HETATM   32  C26 UNL     1       2.093  14.739  -4.148  1.00  0.00     0.020 A 
HETATM   33  C27 UNL     1       2.577  16.014  -4.695  1.00  0.00     0.005 A 
ENDROOT
BRANCH   1  34
HETATM   34  C1  UNL     1      -1.805  16.718  -1.620  1.00  0.00     0.264 C 
HETATM   35  N1  UNL     1      -1.495  17.861  -0.837  1.00  0.00    -0.060 NA
HETATM   36  O1  UNL     1      -2.663  15.940  -1.072  1.00  0.00    -0.274 OA
ENDBRANCH   1  34
TORSDOF 1
ENDMDL
MODEL 4
REMARK VINA RESULT: -7.912458435      4.429      8.339
REMARK  1 active torsions:
REMARK  status: ('A' for Active; 'I' for Inactive)
REMARK    1  A    between atoms: C1_2  and  C2_4 
ROOT
HETATM    1  C2  UNL     1      -2.342  14.005  -4.181  1.00  0.00     0.282 C 
HETATM    2  C3  UNL     1      -2.473  14.921  -5.377  1.00  0.00     0.251 C 
HETATM    3  O2  UNL     1      -3.595  15.028  -5.938  1.00  0.00    -0.271 OA
HETATM    4  N2  UNL     1      -1.387  15.669  -5.899  1.00  0.00    -0.359 N 
ATOM      5  H2  UNL     1      -1.575  16.620  -6.217  1.00  0.00     0.162 HD
HETATM    6  C4  UNL     1      -0.027  15.177  -6.012  1.00  0.00     0.122 C 
HETATM    7  C5  UNL     1       0.318  15.113  -7.493  1.00  0.00     0.020 C 
HETATM    8  C6  UNL     1       1.656  15.735  -7.776  1.00  0.00     0.002 C 
HETATM    9  C7  UNL     1       1.530  17.237  -7.900  1.00  0.00     0.000 C 
HETATM   10  C8  UNL     1       2.398  17.769  -9.007  1.00  0.00     0.000 C 
HETATM   11  C9  UNL     1       1.570  18.407 -10.101  1.00  0.00     0.000 C 
HETATM   12  C10 UNL     1       0.849  19.638  -9.612  1.00  0.00     0.000 C 
HETATM   13  C11 UNL     1       1.751  20.673  -9.025  1.00  0.00     0.000 C 
HETATM   14  C12 UNL     1       1.519  20.803  -7.526  1.00  0.00     0.000 C 
HETATM   15  C13 UNL     1       1.512  22.252  -7.090  1.00  0.00     0.000 C 
HETATM   16  C14 UNL     1       0.259  22.595  -6.304  1.00  0.00     0.000 C 
HETATM   17  C15 UNL     1      -0.012  21.602  -5.215  1.00  0.00     0.000 C 
HETATM   18  C16 UNL     1      -0.217  22.271  -3.875  1.00  0.00     0.000 C 
HETATM   19  C17 UNL     1      -1.609  22.113  -3.346  1.00  0.00     0.000 C 
HETATM   20  C18 UNL     1      -1.739  21.017  -2.315  1.00  0.00     0.000 C 
HETATM   21  C19 UNL     1      -1.327  19.675  -2.863  1.00  0.00     0.000 C 
HETATM   22  C20 UNL     1      -1.316  18.687  -1.728  1.00  0.00     0.000 C 
HETATM   23  C21 UNL     1      -2.623  18.000  -1.501  1.00  0.00     0.007 C 
HETATM   24  C22 UNL     1      -2.387  16.489  -1.485  1.00  0.00     0.010 C 
HETATM   25  C23 UNL     1      -2.441  16.044  -2.928  1.00  0.00     0.149 C 
HETATM   26  N3  UNL     1      -2.902  14.681  -3.062  1.00  0.00    -0.302 N 
HETATM   27  N4  UNL     1      -2.971  14.005  -1.875  1.00  0.00    -0.271 N 
ATOM     28  H4  UNL     1      -3.856  13.530  -1.698  1.00  0.00     0.189 HD
HETATM   29  C24 UNL     1      -1.993  13.866  -0.850  1.00  0.00     0.240 C 
HETATM   30  O3  UNL     1      -2.098  12.776  -0.219  1.00  0.00    -0.271 OA
HETATM   31  C25 UNL     1      -0.905  14.788  -0.434  1.00  0.00     0.084 A 
HETATM   32  C26 UNL     1       0.003  15.423  -1.386  1.00  0.00     0.020 A 
HETATM   33  C27 UNL     1      -1.098  16.196  -0.795  1.00  0.00     0.005 A 
ENDROOT
BRANCH   1  34
HETATM   34  C1  UNL     1      -2.904  12.681  -4.475  1.00  0.00     0.264 C 
HETATM   35  N1  UNL     1      -3.978  12.058  -3.786  1.00  0.00    -0.060 NA
HETATM   36  O1  UNL     1      -2.427  11.971  -5.428  1.00  0.00    -0.274 OA
ENDBRANCH   1  34
TORSDOF 1
ENDMDL
MODEL 5
REMARK VINA RESULT: -7.876340215      5.506      9.513
REMARK  1 active torsions:
REMARK  status: ('A' for Active; 'I' for Inactive)
REMARK    1  A    between atoms: C1_2  and  C2_4 
ROOT
HETATM    1  C2  UNL     1       1.701  17.400  -7.973  1.00  0.00     0.282 C 
HETATM    2  C3  UNL     1       2.849  18.267  -7.508  1.00  0.00     0.251 C 
HETATM    3  O2  UNL     1       2.695  19.517  -7.490  1.00  0.00    -0.271 OA
HETATM    4  N2  UNL     1       4.095  17.737  -7.088  1.00  0.00    -0.359 N 
ATOM      5  H2  UNL     1       4.552  18.175  -6.288  1.00  0.00     0.162 HD
HETATM    6  C4  UNL     1       4.767  16.616  -7.717  1.00  0.00     0.122 C 
HETATM    7  C5  UNL     1       6.069  17.133  -8.311  1.00  0.00     0.020 C 
HETATM    8  C6  UNL     1       7.230  16.249  -7.953  1.00  0.00     0.002 C 
HETATM    9  C7  UNL     1       7.756  16.592  -6.577  1.00  0.00     0.000 C 
HETATM   10  C8  UNL     1       9.258  16.539  -6.536  1.00  0.00     0.000 C 
HETATM   11  C9  UNL     1       9.852  17.897  -6.231  1.00  0.00     0.000 C 
HETATM   12  C10 UNL     1       9.491  18.366  -4.844  1.00  0.00     0.000 C 
HETATM   13  C11 UNL     1       9.883  17.414  -3.762  1.00  0.00     0.000 C 
HETATM   14  C12 UNL     1       8.652  16.800  -3.111  1.00  0.00     0.000 C 
HETATM   15  C13 UNL     1       8.797  16.732  -1.607  1.00  0.00     0.000 C 
HETATM   16  C14 UNL     1       7.619  17.379  -0.900  1.00  0.00     0.000 C 
HETATM   17  C15 UNL     1       6.306  16.895  -1.435  1.00  0.00     0.000 C 
HETATM   18  C16 UNL     1       5.390  16.408  -0.335  1.00  0.00     0.000 C 
HETATM   19  C17 UNL     1       4.166  17.253  -0.170  1.00  0.00     0.000 C 
HETATM   20  C18 UNL     1       2.940  16.673  -0.835  1.00  0.00     0.000 C 
HETATM   21  C19 UNL     1       3.140  16.479  -2.316  1.00  0.00     0.000 C 
HETATM   22  C20 UNL     1       1.948  15.737  -2.858  1.00  0.00     0.000 C 
HETATM   23  C21 UNL     1       0.826  16.618  -3.299  1.00  0.00     0.007 C 
HETATM   24  C22 UNL     1       0.440  16.243  -4.731  1.00  0.00     0.010 C 
HETATM   25  C23 UNL     1       1.366  17.027  -5.631  1.00  0.00     0.149 C 
HETATM   26  N3  UNL     1       0.761  17.328  -6.908  1.00  0.00    -0.302 N 
HETATM   27  N4  UNL     1      -0.410  16.659  -7.132  1.00  0.00    -0.271 N 
ATOM     28  H4  UNL     1      -1.192  17.242  -7.432  1.00  0.00     0.189 HD
HETATM   29  C24 UNL     1      -0.703  15.272  -7.008  1.00  0.00     0.240 C 
HETATM   30  O3  UNL     1      -1.607  14.890  -7.805  1.00  0.00    -0.271 OA
HETATM   31  C25 UNL     1      -0.115  14.246  -6.108  1.00  0.00     0.084 A 
HETATM   32  C26 UNL     1       1.326  14.086  -5.924  1.00  0.00     0.020 A 
HETATM   33  C27 UNL     1       0.525  14.764  -4.895  1.00  0.00     0.005 A 
ENDROOT
BRANCH   1  34
HETATM   34  C1  UNL     1       1.174  17.877  -9.258  1.00  0.00     0.264 C 
HETATM   35  N1  UNL     1       1.589  17.441 -10.544  1.00  0.00    -0.060 NA
HETATM   36  O1  UNL     1       0.254  18.767  -9.292  1.00  0.00    -0.274 OA
ENDBRANCH   1  34
TORSDOF 1
ENDMDL
