MODEL 1
REMARK VINA RESULT: -9.621888634      0.000      0.000
REMARK  5 active torsions:
REMARK  status: ('A' for Active; 'I' for Inactive)
REMARK    1  A    between atoms: C3_7  and  C4_8 
REMARK    2  A    between atoms: C7_15  and  C8_16 
REMARK    3  A    between atoms: C8_16  and  C9_17 
REMARK    4  A    between atoms: C9_17  and  C10_18 
REMARK    5  A    between atoms: C22_30  and  C23_31 
ROOT
HETATM    1  C4  UNL     1       0.494  14.373  -6.463  1.00  0.00     0.060 C 
HETATM    2  C5  UNL     1      -0.090  13.249  -5.913  1.00  0.00     0.260 C 
HETATM    3  O3  UNL     1      -0.123  13.227  -4.647  1.00  0.00    -0.267 OA
HETATM    4  N2  UNL     1      -0.640  12.159  -6.522  1.00  0.00    -0.288 N 
ATOM      5  H2  UNL     1      -0.501  11.257  -6.067  1.00  0.00     0.172 HD
HETATM    6  C6  UNL     1      -1.353  12.160  -7.673  1.00  0.00     0.267 C 
HETATM    7  O4  UNL     1      -1.990  11.127  -7.975  1.00  0.00    -0.266 OA
HETATM    8  C7  UNL     1      -1.474  13.196  -8.596  1.00  0.00     0.097 C 
HETATM    9  C16 UNL     1      -0.558  14.227  -8.743  1.00  0.00    -0.001 A 
HETATM   10  C17 UNL     1      -0.623  14.702 -10.032  1.00  0.00     0.014 A 
HETATM   11  C18 UNL     1       0.224  15.734 -10.377  1.00  0.00     0.001 A 
HETATM   12  C19 UNL     1       1.098  16.256  -9.450  1.00  0.00     0.001 A 
HETATM   13  C20 UNL     1       1.170  15.776  -8.134  1.00  0.00     0.013 A 
HETATM   14  C21 UNL     1       0.329  14.751  -7.788  1.00  0.00    -0.007 A 
ENDROOT
BRANCH   1  15
HETATM   15  C3  UNL     1       1.333  15.220  -5.638  1.00  0.00     0.065 A 
HETATM   16  C2  UNL     1       2.807  14.982  -5.637  1.00  0.00     0.260 A 
HETATM   17  N1  UNL     1       3.417  15.948  -4.797  1.00  0.00    -0.289 N 
HETATM   18  O2  UNL     1       3.418  14.079  -6.269  1.00  0.00    -0.267 OA
HETATM   19  C1  UNL     1       2.350  16.736  -4.312  1.00  0.00     0.260 A 
ATOM     20  H1  UNL     1       4.410  16.052  -4.589  1.00  0.00     0.172 HD
HETATM   21  O1  UNL     1       2.445  17.704  -3.541  1.00  0.00    -0.267 OA
HETATM   22  C22 UNL     1       1.059  16.233  -4.873  1.00  0.00     0.061 A 
BRANCH  22  23
HETATM   23  C23 UNL     1      -0.240  16.804  -4.593  1.00  0.00     0.009 A 
HETATM   24  C24 UNL     1      -1.036  17.636  -5.310  1.00  0.00     0.101 A 
HETATM   25  N3  UNL     1      -2.195  17.881  -4.647  1.00  0.00    -0.364 N 
HETATM   26  C25 UNL     1      -2.179  17.213  -3.481  1.00  0.00     0.043 A 
ATOM     27  H3  UNL     1      -2.954  18.475  -4.980  1.00  0.00     0.165 HD
HETATM   28  C26 UNL     1      -3.120  17.143  -2.476  1.00  0.00     0.030 A 
HETATM   29  C30 UNL     1      -0.971  16.536  -3.426  1.00  0.00     0.003 A 
HETATM   30  C27 UNL     1      -2.873  16.371  -1.361  1.00  0.00     0.002 A 
HETATM   31  C28 UNL     1      -1.685  15.678  -1.262  1.00  0.00     0.001 A 
HETATM   32  C29 UNL     1      -0.764  15.777  -2.296  1.00  0.00     0.014 A 
ENDBRANCH  22  23
ENDBRANCH   1  15
BRANCH   8  33
HETATM   33  C8  UNL     1      -2.629  13.201  -9.449  1.00  0.00    -0.055 C 
BRANCH  33  34
HETATM   34  C9  UNL     1      -3.605  13.229 -10.156  1.00  0.00    -0.061 C 
BRANCH  34  35
HETATM   35  C10 UNL     1      -4.753  13.260 -11.022  1.00  0.00     0.018 A 
HETATM   36  C11 UNL     1      -5.763  12.322 -10.946  1.00  0.00     0.020 A 
HETATM   37  C12 UNL     1      -6.862  12.341 -11.769  1.00  0.00     0.001 A 
HETATM   38  C13 UNL     1      -6.956  13.341 -12.708  1.00  0.00     0.000 A 
HETATM   39  C14 UNL     1      -5.977  14.304 -12.829  1.00  0.00     0.001 A 
HETATM   40  C15 UNL     1      -4.890  14.248 -11.983  1.00  0.00     0.020 A 
ENDBRANCH  34  35
ENDBRANCH  33  34
ENDBRANCH   8  33
TORSDOF 5
ENDMDL
MODEL 2
REMARK VINA RESULT: -9.313146220      2.738      4.123
REMARK  5 active torsions:
REMARK  status: ('A' for Active; 'I' for Inactive)
REMARK    1  A    between atoms: C3_7  and  C4_8 
REMARK    2  A    between atoms: C7_15  and  C8_16 
REMARK    3  A    between atoms: C8_16  and  C9_17 
REMARK    4  A    between atoms: C9_17  and  C10_18 
REMARK    5  A    between atoms: C22_30  and  C23_31 
ROOT
HETATM    1  C4  UNL     1      -1.045  14.659  -2.524  1.00  0.00     0.060 C 
HETATM    2  C5  UNL     1      -2.367  14.282  -2.388  1.00  0.00     0.260 C 
HETATM    3  O3  UNL     1      -2.994  14.855  -1.449  1.00  0.00    -0.267 OA
HETATM    4  N2  UNL     1      -3.102  13.389  -3.111  1.00  0.00    -0.288 N 
ATOM      5  H2  UNL     1      -3.786  12.832  -2.598  1.00  0.00     0.172 HD
HETATM    6  C6  UNL     1      -3.012  13.170  -4.444  1.00  0.00     0.267 C 
HETATM    7  O4  UNL     1      -3.911  12.498  -4.996  1.00  0.00    -0.266 OA
HETATM    8  C7  UNL     1      -2.015  13.611  -5.311  1.00  0.00     0.097 C 
HETATM    9  C16 UNL     1      -0.730  13.956  -4.918  1.00  0.00    -0.001 A 
HETATM   10  C17 UNL     1       0.127  13.768  -5.977  1.00  0.00     0.014 A 
HETATM   11  C18 UNL     1       1.461  14.055  -5.780  1.00  0.00     0.001 A 
HETATM   12  C19 UNL     1       1.900  14.511  -4.556  1.00  0.00     0.001 A 
HETATM   13  C20 UNL     1       1.032  14.705  -3.473  1.00  0.00     0.013 A 
HETATM   14  C21 UNL     1      -0.294  14.422  -3.667  1.00  0.00    -0.007 A 
ENDROOT
BRANCH   1  15
HETATM   15  C3  UNL     1      -0.379  15.338  -1.429  1.00  0.00     0.065 A 
HETATM   16  C2  UNL     1       0.228  14.515  -0.341  1.00  0.00     0.260 A 
HETATM   17  N1  UNL     1       0.852  15.386   0.587  1.00  0.00    -0.289 N 
HETATM   18  O2  UNL     1       0.198  13.258  -0.251  1.00  0.00    -0.267 OA
HETATM   19  C1  UNL     1       0.628  16.684   0.076  1.00  0.00     0.260 A 
ATOM     20  H1  UNL     1       1.353  15.132   1.438  1.00  0.00     0.172 HD
HETATM   21  O1  UNL     1       1.013  17.749   0.585  1.00  0.00    -0.267 OA
HETATM   22  C22 UNL     1      -0.153  16.595  -1.196  1.00  0.00     0.061 A 
BRANCH  22  23
HETATM   23  C23 UNL     1      -0.560  17.731  -1.994  1.00  0.00     0.009 A 
HETATM   24  C24 UNL     1      -0.239  18.110  -3.257  1.00  0.00     0.101 A 
HETATM   25  N3  UNL     1      -0.897  19.246  -3.599  1.00  0.00    -0.364 N 
HETATM   26  C25 UNL     1      -1.664  19.633  -2.564  1.00  0.00     0.043 A 
ATOM     27  H3  UNL     1      -0.823  19.728  -4.494  1.00  0.00     0.165 HD
HETATM   28  C26 UNL     1      -2.511  20.712  -2.432  1.00  0.00     0.030 A 
HETATM   29  C30 UNL     1      -1.469  18.704  -1.554  1.00  0.00     0.003 A 
HETATM   30  C27 UNL     1      -3.206  20.895  -1.255  1.00  0.00     0.002 A 
HETATM   31  C28 UNL     1      -3.046  19.996  -0.223  1.00  0.00     0.001 A 
HETATM   32  C29 UNL     1      -2.182  18.923  -0.397  1.00  0.00     0.014 A 
ENDBRANCH  22  23
ENDBRANCH   1  15
BRANCH   8  33
HETATM   33  C8  UNL     1      -2.340  13.719  -6.705  1.00  0.00    -0.055 C 
BRANCH  33  34
HETATM   34  C9  UNL     1      -2.613  13.837  -7.873  1.00  0.00    -0.061 C 
BRANCH  34  35
HETATM   35  C10 UNL     1      -2.949  14.004  -9.261  1.00  0.00     0.018 A 
HETATM   36  C11 UNL     1      -1.991  14.061 -10.254  1.00  0.00     0.020 A 
HETATM   37  C12 UNL     1      -2.301  14.221 -11.581  1.00  0.00     0.001 A 
HETATM   38  C13 UNL     1      -3.626  14.329 -11.934  1.00  0.00     0.000 A 
HETATM   39  C14 UNL     1      -4.625  14.280 -10.985  1.00  0.00     0.001 A 
HETATM   40  C15 UNL     1      -4.271  14.117  -9.662  1.00  0.00     0.020 A 
ENDBRANCH  34  35
ENDBRANCH  33  34
ENDBRANCH   8  33
TORSDOF 5
ENDMDL
MODEL 3
REMARK VINA RESULT: -9.285195581      2.614      4.246
REMARK  5 active torsions:
REMARK  status: ('A' for Active; 'I' for Inactive)
REMARK    1  A    between atoms: C3_7  and  C4_8 
REMARK    2  A    between atoms: C7_15  and  C8_16 
REMARK    3  A    between atoms: C8_16  and  C9_17 
REMARK    4  A    between atoms: C9_17  and  C10_18 
REMARK    5  A    between atoms: C22_30  and  C23_31 
ROOT
HETATM    1  C4  UNL     1      -1.202  14.223  -3.502  1.00  0.00     0.060 C 
HETATM    2  C5  UNL     1      -2.417  14.206  -2.847  1.00  0.00     0.260 C 
HETATM    3  O3  UNL     1      -2.629  15.195  -2.085  1.00  0.00    -0.267 OA
HETATM    4  N2  UNL     1      -3.426  13.289  -2.894  1.00  0.00    -0.288 N 
ATOM      5  H2  UNL     1      -3.928  13.110  -2.024  1.00  0.00     0.172 HD
HETATM    6  C6  UNL     1      -3.826  12.594  -3.985  1.00  0.00     0.267 C 
HETATM    7  O4  UNL     1      -4.911  11.974  -3.927  1.00  0.00    -0.266 OA
HETATM    8  C7  UNL     1      -3.165  12.475  -5.204  1.00  0.00     0.097 C 
HETATM    9  C16 UNL     1      -1.801  12.660  -5.379  1.00  0.00    -0.001 A 
HETATM   10  C17 UNL     1      -1.387  11.930  -6.469  1.00  0.00     0.014 A 
HETATM   11  C18 UNL     1      -0.050  11.981  -6.803  1.00  0.00     0.001 A 
HETATM   12  C19 UNL     1       0.824  12.741  -6.057  1.00  0.00     0.001 A 
HETATM   13  C20 UNL     1       0.408  13.488  -4.946  1.00  0.00     0.013 A 
HETATM   14  C21 UNL     1      -0.920  13.440  -4.613  1.00  0.00    -0.007 A 
ENDROOT
BRANCH   1  15
HETATM   15  C3  UNL     1      -0.144  15.092  -3.025  1.00  0.00     0.065 A 
HETATM   16  C2  UNL     1       0.578  14.718  -1.773  1.00  0.00     0.260 A 
HETATM   17  N1  UNL     1       1.586  15.685  -1.529  1.00  0.00    -0.289 N 
HETATM   18  O2  UNL     1       0.343  13.715  -1.046  1.00  0.00    -0.267 OA
HETATM   19  C1  UNL     1       1.473  16.606  -2.594  1.00  0.00     0.260 A 
ATOM     20  H1  UNL     1       2.249  15.711  -0.754  1.00  0.00     0.172 HD
HETATM   21  O1  UNL     1       2.174  17.615  -2.770  1.00  0.00    -0.267 OA
HETATM   22  C22 UNL     1       0.366  16.184  -3.508  1.00  0.00     0.061 A 
BRANCH  22  23
HETATM   23  C23 UNL     1      -0.029  16.892  -4.705  1.00  0.00     0.009 A 
HETATM   24  C24 UNL     1      -1.125  17.637  -4.995  1.00  0.00     0.101 A 
HETATM   25  N3  UNL     1      -1.046  18.138  -6.254  1.00  0.00    -0.364 N 
HETATM   26  C25 UNL     1       0.107  17.731  -6.813  1.00  0.00     0.043 A 
ATOM     27  H3  UNL     1      -1.746  18.727  -6.703  1.00  0.00     0.165 HD
HETATM   28  C26 UNL     1       0.635  17.982  -8.061  1.00  0.00     0.030 A 
HETATM   29  C30 UNL     1       0.757  16.954  -5.866  1.00  0.00     0.003 A 
HETATM   30  C27 UNL     1       1.860  17.449  -8.405  1.00  0.00     0.002 A 
HETATM   31  C28 UNL     1       2.543  16.671  -7.495  1.00  0.00     0.001 A 
HETATM   32  C29 UNL     1       1.976  16.442  -6.249  1.00  0.00     0.014 A 
ENDBRANCH  22  23
ENDBRANCH   1  15
BRANCH   8  33
HETATM   33  C8  UNL     1      -3.949  12.143  -6.361  1.00  0.00    -0.055 C 
BRANCH  33  34
HETATM   34  C9  UNL     1      -4.629  11.871  -7.318  1.00  0.00    -0.061 C 
BRANCH  34  35
HETATM   35  C10 UNL     1      -5.448  11.523  -8.447  1.00  0.00     0.018 A 
HETATM   36  C11 UNL     1      -5.151  11.931  -9.733  1.00  0.00     0.020 A 
HETATM   37  C12 UNL     1      -5.928  11.606 -10.817  1.00  0.00     0.001 A 
HETATM   38  C13 UNL     1      -7.050  10.839 -10.609  1.00  0.00     0.000 A 
HETATM   39  C14 UNL     1      -7.396  10.403  -9.347  1.00  0.00     0.001 A 
HETATM   40  C15 UNL     1      -6.588  10.752  -8.285  1.00  0.00     0.020 A 
ENDBRANCH  34  35
ENDBRANCH  33  34
ENDBRANCH   8  33
TORSDOF 5
ENDMDL
MODEL 4
REMARK VINA RESULT: -9.241339893      2.738      4.258
REMARK  5 active torsions:
REMARK  status: ('A' for Active; 'I' for Inactive)
REMARK    1  A    between atoms: C3_7  and  C4_8 
REMARK    2  A    between atoms: C7_15  and  C8_16 
REMARK    3  A    between atoms: C8_16  and  C9_17 
REMARK    4  A    between atoms: C9_17  and  C10_18 
REMARK    5  A    between atoms: C22_30  and  C23_31 
ROOT
HETATM    1  C4  UNL     1      -1.036  14.668  -2.604  1.00  0.00     0.060 C 
HETATM    2  C5  UNL     1      -2.354  14.283  -2.463  1.00  0.00     0.260 C 
HETATM    3  O3  UNL     1      -2.981  14.853  -1.521  1.00  0.00    -0.267 OA
HETATM    4  N2  UNL     1      -3.087  13.385  -3.182  1.00  0.00    -0.288 N 
ATOM      5  H2  UNL     1      -3.766  12.824  -2.665  1.00  0.00     0.172 HD
HETATM    6  C6  UNL     1      -3.002  13.166  -4.515  1.00  0.00     0.267 C 
HETATM    7  O4  UNL     1      -3.900  12.489  -5.063  1.00  0.00    -0.266 OA
HETATM    8  C7  UNL     1      -2.012  13.613  -5.387  1.00  0.00     0.097 C 
HETATM    9  C16 UNL     1      -0.728  13.967  -5.000  1.00  0.00    -0.001 A 
HETATM   10  C17 UNL     1       0.126  13.784  -6.063  1.00  0.00     0.014 A 
HETATM   11  C18 UNL     1       1.459  14.079  -5.872  1.00  0.00     0.001 A 
HETATM   12  C19 UNL     1       1.901  14.538  -4.651  1.00  0.00     0.001 A 
HETATM   13  C20 UNL     1       1.037  14.726  -3.563  1.00  0.00     0.013 A 
HETATM   14  C21 UNL     1      -0.289  14.435  -3.751  1.00  0.00    -0.007 A 
ENDROOT
BRANCH   1  15
HETATM   15  C3  UNL     1      -0.369  15.352  -1.513  1.00  0.00     0.065 A 
HETATM   16  C2  UNL     1       0.190  14.535  -0.395  1.00  0.00     0.260 A 
HETATM   17  N1  UNL     1       0.825  15.409   0.525  1.00  0.00    -0.289 N 
HETATM   18  O2  UNL     1       0.118  13.283  -0.276  1.00  0.00    -0.267 OA
HETATM   19  C1  UNL     1       0.653  16.700  -0.021  1.00  0.00     0.260 A 
ATOM     20  H1  UNL     1       1.302  15.159   1.391  1.00  0.00     0.172 HD
HETATM   21  O1  UNL     1       1.062  17.765   0.470  1.00  0.00    -0.267 OA
HETATM   22  C22 UNL     1      -0.107  16.606  -1.305  1.00  0.00     0.061 A 
BRANCH  22  23
HETATM   23  C23 UNL     1      -0.461  17.734  -2.137  1.00  0.00     0.009 A 
HETATM   24  C24 UNL     1      -1.626  18.412  -2.295  1.00  0.00     0.101 A 
HETATM   25  N3  UNL     1      -1.472  19.434  -3.174  1.00  0.00    -0.364 N 
HETATM   26  C25 UNL     1      -0.201  19.446  -3.610  1.00  0.00     0.043 A 
ATOM     27  H3  UNL     1      -2.202  20.087  -3.458  1.00  0.00     0.165 HD
HETATM   28  C26 UNL     1       0.434  20.288  -4.498  1.00  0.00     0.030 A 
HETATM   29  C30 UNL     1       0.447  18.396  -2.977  1.00  0.00     0.003 A 
HETATM   30  C27 UNL     1       1.770  20.099  -4.783  1.00  0.00     0.002 A 
HETATM   31  C28 UNL     1       2.456  19.069  -4.177  1.00  0.00     0.001 A 
HETATM   32  C29 UNL     1       1.779  18.243  -3.289  1.00  0.00     0.014 A 
ENDBRANCH  22  23
ENDBRANCH   1  15
BRANCH   8  33
HETATM   33  C8  UNL     1      -2.344  13.719  -6.780  1.00  0.00    -0.055 C 
BRANCH  33  34
HETATM   34  C9  UNL     1      -2.628  13.834  -7.946  1.00  0.00    -0.061 C 
BRANCH  34  35
HETATM   35  C10 UNL     1      -2.967  14.000  -9.333  1.00  0.00     0.018 A 
HETATM   36  C11 UNL     1      -2.011  14.059 -10.328  1.00  0.00     0.020 A 
HETATM   37  C12 UNL     1      -2.325  14.219 -11.655  1.00  0.00     0.001 A 
HETATM   38  C13 UNL     1      -3.651  14.324 -12.004  1.00  0.00     0.000 A 
HETATM   39  C14 UNL     1      -4.647  14.272 -11.053  1.00  0.00     0.001 A 
HETATM   40  C15 UNL     1      -4.290  14.110  -9.731  1.00  0.00     0.020 A 
ENDBRANCH  34  35
ENDBRANCH  33  34
ENDBRANCH   8  33
TORSDOF 5
ENDMDL
MODEL 5
REMARK VINA RESULT: -9.224396953      2.594      4.734
REMARK  5 active torsions:
REMARK  status: ('A' for Active; 'I' for Inactive)
REMARK    1  A    between atoms: C3_7  and  C4_8 
REMARK    2  A    between atoms: C7_15  and  C8_16 
REMARK    3  A    between atoms: C8_16  and  C9_17 
REMARK    4  A    between atoms: C9_17  and  C10_18 
REMARK    5  A    between atoms: C22_30  and  C23_31 
ROOT
HETATM    1  C4  UNL     1      -1.115  14.227  -7.982  1.00  0.00     0.060 C 
HETATM    2  C5  UNL     1      -0.882  14.380  -9.335  1.00  0.00     0.260 C 
HETATM    3  O3  UNL     1       0.334  14.309  -9.680  1.00  0.00    -0.267 OA
HETATM    4  N2  UNL     1      -1.759  14.595 -10.357  1.00  0.00    -0.288 N 
ATOM      5  H2  UNL     1      -1.450  15.212 -11.109  1.00  0.00     0.172 HD
HETATM    6  C6  UNL     1      -3.001  14.068 -10.470  1.00  0.00     0.267 C 
HETATM    7  O4  UNL     1      -3.587  14.164 -11.571  1.00  0.00    -0.266 OA
HETATM    8  C7  UNL     1      -3.736  13.409  -9.488  1.00  0.00     0.097 C 
HETATM    9  C16 UNL     1      -3.537  13.562  -8.123  1.00  0.00    -0.001 A 
HETATM   10  C17 UNL     1      -4.714  13.291  -7.466  1.00  0.00     0.014 A 
HETATM   11  C18 UNL     1      -4.718  13.396  -6.091  1.00  0.00     0.001 A 
HETATM   12  C19 UNL     1      -3.572  13.761  -5.418  1.00  0.00     0.001 A 
HETATM   13  C20 UNL     1      -2.369  14.037  -6.082  1.00  0.00     0.013 A 
HETATM   14  C21 UNL     1      -2.362  13.934  -7.448  1.00  0.00    -0.007 A 
ENDROOT
BRANCH   1  15
HETATM   15  C3  UNL     1      -0.019  14.379  -7.046  1.00  0.00     0.065 A 
HETATM   16  C2  UNL     1       0.628  13.149  -6.498  1.00  0.00     0.260 A 
HETATM   17  N1  UNL     1       1.690  13.543  -5.644  1.00  0.00    -0.289 N 
HETATM   18  O2  UNL     1       0.297  11.958  -6.744  1.00  0.00    -0.267 OA
HETATM   19  C1  UNL     1       1.681  14.954  -5.677  1.00  0.00     0.260 A 
ATOM     20  H1  UNL     1       2.322  12.938  -5.121  1.00  0.00     0.172 HD
HETATM   21  O1  UNL     1       2.456  15.708  -5.066  1.00  0.00    -0.267 OA
HETATM   22  C22 UNL     1       0.583  15.429  -6.576  1.00  0.00     0.061 A 
BRANCH  22  23
HETATM   23  C23 UNL     1       0.284  16.817  -6.848  1.00  0.00     0.009 A 
HETATM   24  C24 UNL     1      -0.453  17.733  -6.170  1.00  0.00     0.101 A 
HETATM   25  N3  UNL     1      -0.424  18.934  -6.800  1.00  0.00    -0.364 N 
HETATM   26  C25 UNL     1       0.336  18.828  -7.905  1.00  0.00     0.043 A 
ATOM     27  H3  UNL     1      -0.900  19.780  -6.487  1.00  0.00     0.165 HD
HETATM   28  C26 UNL     1       0.668  19.768  -8.857  1.00  0.00     0.030 A 
HETATM   29  C30 UNL     1       0.787  17.518  -7.954  1.00  0.00     0.003 A 
HETATM   30  C27 UNL     1       1.482  19.413  -9.912  1.00  0.00     0.002 A 
HETATM   31  C28 UNL     1       1.956  18.122 -10.002  1.00  0.00     0.001 A 
HETATM   32  C29 UNL     1       1.597  17.207  -9.022  1.00  0.00     0.014 A 
ENDBRANCH  22  23
ENDBRANCH   1  15
BRANCH   8  33
HETATM   33  C8  UNL     1      -4.769  12.507  -9.915  1.00  0.00    -0.055 C 
BRANCH  33  34
HETATM   34  C9  UNL     1      -5.635  11.739 -10.250  1.00  0.00    -0.061 C 
BRANCH  34  35
HETATM   35  C10 UNL     1      -6.666  10.809 -10.624  1.00  0.00     0.018 A 
HETATM   36  C11 UNL     1      -7.376  10.925 -11.803  1.00  0.00     0.020 A 
HETATM   37  C12 UNL     1      -8.363  10.043 -12.168  1.00  0.00     0.001 A 
HETATM   38  C13 UNL     1      -8.654   9.001 -11.320  1.00  0.00     0.000 A 
HETATM   39  C14 UNL     1      -7.977   8.836 -10.130  1.00  0.00     0.001 A 
HETATM   40  C15 UNL     1      -6.993   9.743  -9.801  1.00  0.00     0.020 A 
ENDBRANCH  34  35
ENDBRANCH  33  34
ENDBRANCH   8  33
TORSDOF 5
ENDMDL
