MODEL 1
REMARK VINA RESULT: -7.447806027      0.000      0.000
REMARK  6 active torsions:
REMARK  status: ('A' for Active; 'I' for Inactive)
REMARK    1  A    between atoms: C2_2  and  N1_5 
REMARK       I    between atoms: N1_5  and  C5_7 
REMARK    2  A    between atoms: C5_7  and  C6_9 
REMARK    3  A    between atoms: C8_11  and  N2_12 
REMARK       I    between atoms: N3_17  and  C10_18 
REMARK    4  A    between atoms: C10_18  and  C11_20 
REMARK    5  A    between atoms: C13_22  and  C14_23 
REMARK       I    between atoms: N4_31  and  C22_32 
REMARK       I    between atoms: C22_32  and  N5_34 
REMARK    6  A    between atoms: N5_34  and  C23_36 
ROOT
HETATM    1  C11 UNL     1      -0.469  15.994  -5.335  1.00  0.00     0.181 C 
HETATM    2  C12 UNL     1      -0.280  16.784  -6.578  1.00  0.00     0.040 C 
HETATM    3  C13 UNL     1       1.135  17.228  -6.851  1.00  0.00    -0.005 C 
HETATM    4  C18 UNL     1       2.199  16.375  -6.232  1.00  0.00     0.005 C 
HETATM    5  C19 UNL     1       2.073  14.914  -6.395  1.00  0.00     0.002 C 
HETATM    6  C20 UNL     1       1.799  14.150  -5.097  1.00  0.00     0.020 C 
HETATM    7  C21 UNL     1       0.405  13.477  -5.229  1.00  0.00     0.128 C 
HETATM    8  N4  UNL     1      -0.512  14.549  -5.597  1.00  0.00    -0.321 N 
HETATM    9  C22 UNL     1      -1.616  14.123  -6.343  1.00  0.00     0.319 C 
HETATM   10  O3  UNL     1      -2.498  14.920  -6.816  1.00  0.00    -0.247 OA
HETATM   11  N5  UNL     1      -1.873  12.768  -6.652  1.00  0.00    -0.335 N 
ATOM     12  H5  UNL     1      -1.223  12.059  -6.312  1.00  0.00     0.165 HD
ENDROOT
BRANCH   1  13
HETATM   13  C10 UNL     1      -1.601  16.400  -4.466  1.00  0.00     0.243 C 
HETATM   14  N3  UNL     1      -1.831  15.948  -3.142  1.00  0.00    -0.335 N 
HETATM   15  C6  UNL     1      -2.952  16.384  -2.281  1.00  0.00     0.181 C 
HETATM   16  C9  UNL     1      -1.141  15.013  -2.293  1.00  0.00     0.159 C 
HETATM   17  C7  UNL     1      -3.244  15.283  -1.326  1.00  0.00     0.069 C 
HETATM   18  C8  UNL     1      -2.328  14.171  -1.788  1.00  0.00     0.204 C 
HETATM   19  O2  UNL     1      -2.482  17.233  -4.906  1.00  0.00    -0.271 OA
BRANCH  15  20
HETATM   20  C5  UNL     1      -2.551  17.601  -1.523  1.00  0.00     0.241 C 
HETATM   21  N1  UNL     1      -2.478  18.880  -2.121  1.00  0.00    -0.351 N 
ATOM     22  H1  UNL     1      -2.710  18.960  -3.111  1.00  0.00     0.163 HD
HETATM   23  O1  UNL     1      -2.260  17.520  -0.294  1.00  0.00    -0.271 OA
BRANCH  21  24
HETATM   24  C2  UNL     1      -2.097  20.072  -1.417  1.00  0.00     0.022 C 
HETATM   25  C1  UNL     1      -0.627  20.078  -1.061  1.00  0.00     0.037 C 
HETATM   26  C3  UNL     1      -2.911  20.299  -0.161  1.00  0.00     0.037 C 
HETATM   27  C4  UNL     1      -2.323  21.302  -2.306  1.00  0.00     0.037 C 
ENDBRANCH  21  24
ENDBRANCH  15  20
BRANCH  18  28
HETATM   28  N2  UNL     1      -2.973  13.473  -2.859  1.00  0.00    -0.073 N 
ATOM     29  H23 UNL     1      -2.510  12.594  -3.091  1.00  0.00     0.274 HD
ATOM     30  H22 UNL     1      -3.876  13.085  -2.588  1.00  0.00     0.274 HD
ATOM     31  H21 UNL     1      -3.041  14.103  -3.658  1.00  0.00     0.274 HD
ENDBRANCH  18  28
ENDBRANCH   1  13
BRANCH   3  32
HETATM   32  C14 UNL     1       1.379  17.537  -8.292  1.00  0.00    -0.048 C 
HETATM   33  C15 UNL     1       0.912  16.517  -9.274  1.00  0.00     0.015 C 
HETATM   34  C16 UNL     1       0.694  18.858  -8.675  1.00  0.00     0.015 C 
HETATM   35  C17 UNL     1       2.863  17.778  -8.573  1.00  0.00     0.015 C 
ENDBRANCH   3  32
BRANCH  11  36
HETATM   36  C23 UNL     1      -3.022  12.339  -7.433  1.00  0.00     0.023 C 
HETATM   37  C24 UNL     1      -2.789  10.910  -7.868  1.00  0.00     0.037 C 
HETATM   38  C25 UNL     1      -4.294  12.382  -6.632  1.00  0.00     0.037 C 
HETATM   39  C26 UNL     1      -3.212  13.175  -8.678  1.00  0.00     0.037 C 
ENDBRANCH  11  36
TORSDOF 6
ENDMDL
MODEL 2
REMARK VINA RESULT: -7.176583681      0.971      1.358
REMARK  6 active torsions:
REMARK  status: ('A' for Active; 'I' for Inactive)
REMARK    1  A    between atoms: C2_2  and  N1_5 
REMARK       I    between atoms: N1_5  and  C5_7 
REMARK    2  A    between atoms: C5_7  and  C6_9 
REMARK    3  A    between atoms: C8_11  and  N2_12 
REMARK       I    between atoms: N3_17  and  C10_18 
REMARK    4  A    between atoms: C10_18  and  C11_20 
REMARK    5  A    between atoms: C13_22  and  C14_23 
REMARK       I    between atoms: N4_31  and  C22_32 
REMARK       I    between atoms: C22_32  and  N5_34 
REMARK    6  A    between atoms: N5_34  and  C23_36 
ROOT
HETATM    1  C11 UNL     1      -0.452  16.001  -5.334  1.00  0.00     0.181 C 
HETATM    2  C12 UNL     1      -0.265  16.801  -6.570  1.00  0.00     0.040 C 
HETATM    3  C13 UNL     1       1.148  17.255  -6.838  1.00  0.00    -0.005 C 
HETATM    4  C18 UNL     1       2.215  16.403  -6.223  1.00  0.00     0.005 C 
HETATM    5  C19 UNL     1       2.097  14.943  -6.397  1.00  0.00     0.002 C 
HETATM    6  C20 UNL     1       1.825  14.167  -5.106  1.00  0.00     0.020 C 
HETATM    7  C21 UNL     1       0.434  13.489  -5.245  1.00  0.00     0.128 C 
HETATM    8  N4  UNL     1      -0.488  14.558  -5.606  1.00  0.00    -0.321 N 
HETATM    9  C22 UNL     1      -1.587  14.131  -6.358  1.00  0.00     0.319 C 
HETATM   10  O3  UNL     1      -2.473  14.927  -6.826  1.00  0.00    -0.247 OA
HETATM   11  N5  UNL     1      -1.837  12.777  -6.677  1.00  0.00    -0.335 N 
ATOM     12  H5  UNL     1      -1.184  12.069  -6.341  1.00  0.00     0.165 HD
ENDROOT
BRANCH   1  13
HETATM   13  C10 UNL     1      -1.588  16.394  -4.463  1.00  0.00     0.243 C 
HETATM   14  N3  UNL     1      -1.834  15.911  -3.153  1.00  0.00    -0.335 N 
HETATM   15  C6  UNL     1      -2.957  16.334  -2.291  1.00  0.00     0.181 C 
HETATM   16  C9  UNL     1      -1.159  14.948  -2.324  1.00  0.00     0.159 C 
HETATM   17  C7  UNL     1      -3.267  15.211  -1.368  1.00  0.00     0.069 C 
HETATM   18  C8  UNL     1      -2.358  14.103  -1.851  1.00  0.00     0.204 C 
HETATM   19  O2  UNL     1      -2.458  17.247  -4.889  1.00  0.00    -0.271 OA
BRANCH  15  20
HETATM   20  C5  UNL     1      -2.552  17.527  -1.498  1.00  0.00     0.241 C 
HETATM   21  N1  UNL     1      -2.323  17.471  -0.104  1.00  0.00    -0.351 N 
ATOM     22  H1  UNL     1      -2.444  16.574   0.367  1.00  0.00     0.163 HD
HETATM   23  O1  UNL     1      -2.398  18.647  -2.064  1.00  0.00    -0.271 OA
BRANCH  21  24
HETATM   24  C2  UNL     1      -1.931  18.603   0.688  1.00  0.00     0.022 C 
HETATM   25  C1  UNL     1      -3.005  19.668   0.733  1.00  0.00     0.037 C 
HETATM   26  C3  UNL     1      -0.634  19.228   0.219  1.00  0.00     0.037 C 
HETATM   27  C4  UNL     1      -1.701  18.172   2.142  1.00  0.00     0.037 C 
ENDBRANCH  21  24
ENDBRANCH  15  20
BRANCH  18  28
HETATM   28  N2  UNL     1      -3.000  13.439  -2.945  1.00  0.00    -0.073 N 
ATOM     29  H23 UNL     1      -3.115  14.044  -3.758  1.00  0.00     0.274 HD
ATOM     30  H22 UNL     1      -2.405  12.734  -3.380  1.00  0.00     0.274 HD
ATOM     31  H21 UNL     1      -3.885  13.056  -2.613  1.00  0.00     0.274 HD
ENDBRANCH  18  28
ENDBRANCH   1  13
BRANCH   3  32
HETATM   32  C14 UNL     1       1.393  17.576  -8.276  1.00  0.00    -0.048 C 
HETATM   33  C15 UNL     1       0.919  16.568  -9.267  1.00  0.00     0.015 C 
HETATM   34  C16 UNL     1       0.715  18.904  -8.646  1.00  0.00     0.015 C 
HETATM   35  C17 UNL     1       2.878  17.810  -8.555  1.00  0.00     0.015 C 
ENDBRANCH   3  32
BRANCH  11  36
HETATM   36  C23 UNL     1      -2.982  12.348  -7.463  1.00  0.00     0.023 C 
HETATM   37  C24 UNL     1      -2.755  10.914  -7.882  1.00  0.00     0.037 C 
HETATM   38  C25 UNL     1      -4.261  12.407  -6.673  1.00  0.00     0.037 C 
HETATM   39  C26 UNL     1      -3.156  13.173  -8.718  1.00  0.00     0.037 C 
ENDBRANCH  11  36
TORSDOF 6
ENDMDL
MODEL 3
REMARK VINA RESULT: -7.154739178      2.512      7.050
REMARK  6 active torsions:
REMARK  status: ('A' for Active; 'I' for Inactive)
REMARK    1  A    between atoms: C2_2  and  N1_5 
REMARK       I    between atoms: N1_5  and  C5_7 
REMARK    2  A    between atoms: C5_7  and  C6_9 
REMARK    3  A    between atoms: C8_11  and  N2_12 
REMARK       I    between atoms: N3_17  and  C10_18 
REMARK    4  A    between atoms: C10_18  and  C11_20 
REMARK    5  A    between atoms: C13_22  and  C14_23 
REMARK       I    between atoms: N4_31  and  C22_32 
REMARK       I    between atoms: C22_32  and  N5_34 
REMARK    6  A    between atoms: N5_34  and  C23_36 
ROOT
HETATM    1  C11 UNL     1      -0.715  14.193  -5.166  1.00  0.00     0.181 C 
HETATM    2  C12 UNL     1      -1.639  15.247  -4.679  1.00  0.00     0.040 C 
HETATM    3  C13 UNL     1      -1.589  15.513  -3.195  1.00  0.00    -0.005 C 
HETATM    4  C18 UNL     1      -0.293  15.163  -2.531  1.00  0.00     0.005 C 
HETATM    5  C19 UNL     1       0.946  15.627  -3.183  1.00  0.00     0.002 C 
HETATM    6  C20 UNL     1       1.829  14.508  -3.742  1.00  0.00     0.020 C 
HETATM    7  C21 UNL     1       1.902  14.688  -5.283  1.00  0.00     0.128 C 
HETATM    8  N4  UNL     1       0.518  14.754  -5.735  1.00  0.00    -0.321 N 
HETATM    9  C22 UNL     1       0.337  15.500  -6.904  1.00  0.00     0.319 C 
HETATM   10  O3  UNL     1      -0.810  15.731  -7.423  1.00  0.00    -0.247 OA
HETATM   11  N5  UNL     1       1.401  16.074  -7.637  1.00  0.00    -0.335 N 
ATOM     12  H5  UNL     1       2.354  15.938  -7.300  1.00  0.00     0.165 HD
ENDROOT
BRANCH   1  13
HETATM   13  C10 UNL     1      -1.297  13.183  -6.085  1.00  0.00     0.243 C 
HETATM   14  N3  UNL     1      -2.631  13.172  -6.565  1.00  0.00    -0.335 N 
HETATM   15  C6  UNL     1      -3.186  12.170  -7.501  1.00  0.00     0.181 C 
HETATM   16  C9  UNL     1      -3.765  14.023  -6.321  1.00  0.00     0.159 C 
HETATM   17  C7  UNL     1      -4.648  12.075  -7.246  1.00  0.00     0.069 C 
HETATM   18  C8  UNL     1      -4.849  12.964  -6.039  1.00  0.00     0.204 C 
HETATM   19  O2  UNL     1      -0.568  12.208  -6.512  1.00  0.00    -0.271 OA
BRANCH  15  20
HETATM   20  C5  UNL     1      -2.958  12.620  -8.901  1.00  0.00     0.241 C 
HETATM   21  N1  UNL     1      -3.911  12.425  -9.927  1.00  0.00    -0.351 N 
ATOM     22  H1  UNL     1      -4.785  11.957  -9.687  1.00  0.00     0.163 HD
HETATM   23  O1  UNL     1      -1.880  13.202  -9.217  1.00  0.00    -0.271 OA
BRANCH  21  24
HETATM   24  C2  UNL     1      -3.721  12.848 -11.286  1.00  0.00     0.022 C 
HETATM   25  C1  UNL     1      -2.438  12.306 -11.878  1.00  0.00     0.037 C 
HETATM   26  C3  UNL     1      -3.739  14.354 -11.442  1.00  0.00     0.037 C 
HETATM   27  C4  UNL     1      -4.855  12.309 -12.167  1.00  0.00     0.037 C 
ENDBRANCH  21  24
ENDBRANCH  15  20
BRANCH  18  28
HETATM   28  N2  UNL     1      -4.550  12.203  -4.864  1.00  0.00    -0.073 N 
ATOM     29  H23 UNL     1      -4.617  12.756  -4.010  1.00  0.00     0.274 HD
ATOM     30  H22 UNL     1      -5.274  11.520  -4.644  1.00  0.00     0.274 HD
ATOM     31  H21 UNL     1      -3.631  11.776  -4.984  1.00  0.00     0.274 HD
ENDBRANCH  18  28
ENDBRANCH   1  13
BRANCH   3  32
HETATM   32  C14 UNL     1      -2.103  16.867  -2.830  1.00  0.00    -0.048 C 
HETATM   33  C15 UNL     1      -3.582  17.048  -2.882  1.00  0.00     0.015 C 
HETATM   34  C16 UNL     1      -1.669  17.232  -1.401  1.00  0.00     0.015 C 
HETATM   35  C17 UNL     1      -1.490  17.958  -3.709  1.00  0.00     0.015 C 
ENDBRANCH   3  32
BRANCH  11  36
HETATM   36  C23 UNL     1       1.197  16.850  -8.849  1.00  0.00     0.023 C 
HETATM   37  C24 UNL     1       2.544  17.347  -9.322  1.00  0.00     0.037 C 
HETATM   38  C25 UNL     1       0.591  16.024  -9.951  1.00  0.00     0.037 C 
HETATM   39  C26 UNL     1       0.316  18.056  -8.616  1.00  0.00     0.037 C 
ENDBRANCH  11  36
TORSDOF 6
ENDMDL
MODEL 4
REMARK VINA RESULT: -7.115222561      4.171      7.314
REMARK  6 active torsions:
REMARK  status: ('A' for Active; 'I' for Inactive)
REMARK    1  A    between atoms: C2_2  and  N1_5 
REMARK       I    between atoms: N1_5  and  C5_7 
REMARK    2  A    between atoms: C5_7  and  C6_9 
REMARK    3  A    between atoms: C8_11  and  N2_12 
REMARK       I    between atoms: N3_17  and  C10_18 
REMARK    4  A    between atoms: C10_18  and  C11_20 
REMARK    5  A    between atoms: C13_22  and  C14_23 
REMARK       I    between atoms: N4_31  and  C22_32 
REMARK       I    between atoms: C22_32  and  N5_34 
REMARK    6  A    between atoms: N5_34  and  C23_36 
ROOT
HETATM    1  C11 UNL     1       0.807  16.935  -9.391  1.00  0.00     0.181 C 
HETATM    2  C12 UNL     1       1.298  17.230 -10.760  1.00  0.00     0.040 C 
HETATM    3  C13 UNL     1       0.731  18.475 -11.395  1.00  0.00    -0.005 C 
HETATM    4  C18 UNL     1       0.260  19.520 -10.431  1.00  0.00     0.005 C 
HETATM    5  C19 UNL     1       1.163  19.870  -9.319  1.00  0.00     0.002 C 
HETATM    6  C20 UNL     1       0.651  19.474  -7.933  1.00  0.00     0.020 C 
HETATM    7  C21 UNL     1       1.636  18.428  -7.344  1.00  0.00     0.128 C 
HETATM    8  N4  UNL     1       1.746  17.383  -8.355  1.00  0.00    -0.321 N 
HETATM    9  C22 UNL     1       2.970  16.706  -8.341  1.00  0.00     0.319 C 
HETATM   10  O3  UNL     1       3.285  15.801  -9.191  1.00  0.00    -0.247 OA
HETATM   11  N5  UNL     1       3.985  16.946  -7.388  1.00  0.00    -0.335 N 
ATOM     12  H5  UNL     1       3.821  17.649  -6.668  1.00  0.00     0.165 HD
ENDROOT
BRANCH   1  13
HETATM   13  C10 UNL     1       0.378  15.537  -9.135  1.00  0.00     0.243 C 
HETATM   14  N3  UNL     1      -0.236  15.063  -7.948  1.00  0.00    -0.335 N 
HETATM   15  C6  UNL     1      -0.680  13.671  -7.721  1.00  0.00     0.181 C 
HETATM   16  C9  UNL     1      -0.581  15.700  -6.705  1.00  0.00     0.159 C 
HETATM   17  C7  UNL     1      -0.630  13.414  -6.258  1.00  0.00     0.069 C 
HETATM   18  C8  UNL     1      -0.011  14.677  -5.704  1.00  0.00     0.204 C 
HETATM   19  O2  UNL     1       0.559  14.634 -10.039  1.00  0.00    -0.271 OA
BRANCH  15  20
HETATM   20  C5  UNL     1      -2.078  13.512  -8.204  1.00  0.00     0.241 C 
HETATM   21  N1  UNL     1      -2.464  13.810  -9.531  1.00  0.00    -0.351 N 
ATOM     22  H1  UNL     1      -1.748  14.149 -10.174  1.00  0.00     0.163 HD
HETATM   23  O1  UNL     1      -2.980  13.093  -7.421  1.00  0.00    -0.271 OA
BRANCH  21  24
HETATM   24  C2  UNL     1      -3.804  13.666 -10.026  1.00  0.00     0.022 C 
HETATM   25  C1  UNL     1      -4.835  14.169  -9.040  1.00  0.00     0.037 C 
HETATM   26  C3  UNL     1      -4.139  12.239 -10.408  1.00  0.00     0.037 C 
HETATM   27  C4  UNL     1      -3.988  14.507 -11.296  1.00  0.00     0.037 C 
ENDBRANCH  21  24
ENDBRANCH  15  20
BRANCH  18  28
HETATM   28  N2  UNL     1       1.413  14.567  -5.815  1.00  0.00    -0.073 N 
ATOM     29  H23 UNL     1       1.790  15.121  -6.584  1.00  0.00     0.274 HD
ATOM     30  H22 UNL     1       1.904  15.034  -5.054  1.00  0.00     0.274 HD
ATOM     31  H21 UNL     1       1.653  13.578  -5.890  1.00  0.00     0.274 HD
ENDBRANCH  18  28
ENDBRANCH   1  13
BRANCH   3  32
HETATM   32  C14 UNL     1       1.593  19.015 -12.488  1.00  0.00    -0.048 C 
HETATM   33  C15 UNL     1       2.836  19.721 -12.062  1.00  0.00     0.015 C 
HETATM   34  C16 UNL     1       2.037  17.880 -13.424  1.00  0.00     0.015 C 
HETATM   35  C17 UNL     1       0.822  19.979 -13.391  1.00  0.00     0.015 C 
ENDBRANCH   3  32
BRANCH  11  36
HETATM   36  C23 UNL     1       5.254  16.237  -7.389  1.00  0.00     0.023 C 
HETATM   37  C24 UNL     1       5.852  16.339  -6.004  1.00  0.00     0.037 C 
HETATM   38  C25 UNL     1       5.084  14.778  -7.717  1.00  0.00     0.037 C 
HETATM   39  C26 UNL     1       6.243  16.833  -8.364  1.00  0.00     0.037 C 
ENDBRANCH  11  36
TORSDOF 6
ENDMDL
MODEL 5
REMARK VINA RESULT: -7.076437937      2.379      6.834
REMARK  6 active torsions:
REMARK  status: ('A' for Active; 'I' for Inactive)
REMARK    1  A    between atoms: C2_2  and  N1_5 
REMARK       I    between atoms: N1_5  and  C5_7 
REMARK    2  A    between atoms: C5_7  and  C6_9 
REMARK    3  A    between atoms: C8_11  and  N2_12 
REMARK       I    between atoms: N3_17  and  C10_18 
REMARK    4  A    between atoms: C10_18  and  C11_20 
REMARK    5  A    between atoms: C13_22  and  C14_23 
REMARK       I    between atoms: N4_31  and  C22_32 
REMARK       I    between atoms: C22_32  and  N5_34 
REMARK    6  A    between atoms: N5_34  and  C23_36 
ROOT
HETATM    1  C11 UNL     1      -0.688  14.651  -6.686  1.00  0.00     0.181 C 
HETATM    2  C12 UNL     1      -2.152  14.592  -6.925  1.00  0.00     0.040 C 
HETATM    3  C13 UNL     1      -2.616  13.467  -7.815  1.00  0.00    -0.005 C 
HETATM    4  C18 UNL     1      -1.713  12.272  -7.850  1.00  0.00     0.005 C 
HETATM    5  C19 UNL     1      -1.237  11.747  -6.556  1.00  0.00     0.002 C 
HETATM    6  C20 UNL     1       0.267  11.902  -6.320  1.00  0.00     0.020 C 
HETATM    7  C21 UNL     1       0.461  12.843  -5.099  1.00  0.00     0.128 C 
HETATM    8  N4  UNL     1      -0.309  14.042  -5.404  1.00  0.00    -0.321 N 
HETATM    9  C22 UNL     1      -0.782  14.717  -4.274  1.00  0.00     0.319 C 
HETATM   10  O3  UNL     1      -1.532  15.752  -4.333  1.00  0.00    -0.247 OA
HETATM   11  N5  UNL     1      -0.480  14.328  -2.949  1.00  0.00    -0.335 N 
ATOM     12  H5  UNL     1       0.116  13.513  -2.804  1.00  0.00     0.165 HD
ENDROOT
BRANCH   1  13
HETATM   13  C10 UNL     1      -0.051  15.983  -6.837  1.00  0.00     0.243 C 
HETATM   14  N3  UNL     1       1.343  16.242  -6.818  1.00  0.00    -0.335 N 
HETATM   15  C6  UNL     1       1.960  17.574  -6.997  1.00  0.00     0.181 C 
HETATM   16  C9  UNL     1       2.492  15.397  -6.628  1.00  0.00     0.159 C 
HETATM   17  C7  UNL     1       3.263  17.568  -6.282  1.00  0.00     0.069 C 
HETATM   18  C8  UNL     1       3.273  16.224  -5.588  1.00  0.00     0.204 C 
HETATM   19  O2  UNL     1      -0.786  17.031  -7.002  1.00  0.00    -0.271 OA
BRANCH  15  20
HETATM   20  C5  UNL     1       2.193  17.822  -8.446  1.00  0.00     0.241 C 
HETATM   21  N1  UNL     1       1.192  18.338  -9.300  1.00  0.00    -0.351 N 
ATOM     22  H1  UNL     1       0.277  18.543  -8.897  1.00  0.00     0.163 HD
HETATM   23  O1  UNL     1       3.321  17.574  -8.962  1.00  0.00    -0.271 OA
BRANCH  21  24
HETATM   24  C2  UNL     1       1.386  18.590 -10.700  1.00  0.00     0.022 C 
HETATM   25  C1  UNL     1       1.391  17.315 -11.514  1.00  0.00     0.037 C 
HETATM   26  C3  UNL     1       2.655  19.365 -10.988  1.00  0.00     0.037 C 
HETATM   27  C4  UNL     1       0.230  19.437 -11.247  1.00  0.00     0.037 C 
ENDBRANCH  21  24
ENDBRANCH  15  20
BRANCH  18  28
HETATM   28  N2  UNL     1       2.548  16.346  -4.359  1.00  0.00    -0.073 N 
ATOM     29  H23 UNL     1       2.327  15.442  -3.943  1.00  0.00     0.274 HD
ATOM     30  H22 UNL     1       3.123  16.711  -3.600  1.00  0.00     0.274 HD
ATOM     31  H21 UNL     1       1.718  16.913  -4.531  1.00  0.00     0.274 HD
ENDBRANCH  18  28
ENDBRANCH   1  13
BRANCH   3  32
HETATM   32  C14 UNL     1      -4.055  13.124  -7.616  1.00  0.00    -0.048 C 
HETATM   33  C15 UNL     1      -4.552  13.149  -6.210  1.00  0.00     0.015 C 
HETATM   34  C16 UNL     1      -4.946  14.091  -8.411  1.00  0.00     0.015 C 
HETATM   35  C17 UNL     1      -4.388  11.742  -8.180  1.00  0.00     0.015 C 
ENDBRANCH   3  32
BRANCH  11  36
HETATM   36  C23 UNL     1      -0.982  15.036  -1.783  1.00  0.00     0.023 C 
HETATM   37  C24 UNL     1      -0.491  14.317  -0.547  1.00  0.00     0.037 C 
HETATM   38  C25 UNL     1      -0.483  16.454  -1.728  1.00  0.00     0.037 C 
HETATM   39  C26 UNL     1      -2.493  15.059  -1.734  1.00  0.00     0.037 C 
ENDBRANCH  11  36
TORSDOF 6
ENDMDL
