MODEL 1
REMARK VINA RESULT: -6.562297748      0.000      0.000
REMARK  10 active torsions:
REMARK  status: ('A' for Active; 'I' for Inactive)
REMARK    1  A    between atoms: C2_2  and  C3_3 
REMARK    2  A    between atoms: C3_3  and  C5_5 
REMARK    3  A    between atoms: C7_7  and  N1_8 
REMARK    4  A    between atoms: N1_8  and  C8_10 
REMARK    5  A    between atoms: C8_10  and  C9_11 
REMARK    6  A    between atoms: C9_11  and  N2_12 
REMARK    7  A    between atoms: N2_12  and  C10_14 
REMARK    8  A    between atoms: C11_17  and  N4_18 
REMARK       I    between atoms: N6_24  and  C13_25 
REMARK    9  A    between atoms: C13_25  and  C14_27 
REMARK   10  A    between atoms: C14_27  and  N7_29 
ROOT
HETATM    1  C10 UNL     1      -6.292  51.005 -12.972  1.00  0.00     0.681 A 
HETATM    2  N3  UNL     1      -5.848  50.337 -14.067  1.00  0.00    -0.175 N 
ATOM      3  H3  UNL     1      -6.195  50.612 -14.986  1.00  0.00     0.186 HD
HETATM    4  C11 UNL     1      -4.982  49.342 -13.984  1.00  0.00     0.147 A 
HETATM    5  C12 UNL     1      -4.495  48.948 -12.737  1.00  0.00     0.139 A 
HETATM    6  N5  UNL     1      -3.734  48.176 -11.928  1.00  0.00    -0.283 N 
ATOM      7  H5  UNL     1      -3.087  47.403 -12.083  1.00  0.00     0.188 HD
HETATM    8  N6  UNL     1      -4.157  48.818 -10.860  1.00  0.00    -0.202 N 
HETATM    9  C13 UNL     1      -3.912  48.727  -9.472  1.00  0.00     0.267 C 
HETATM   10  O1  UNL     1      -4.509  49.530  -8.673  1.00  0.00    -0.269 OA
HETATM   11  C17 UNL     1      -4.928  49.608 -11.621  1.00  0.00     0.177 A 
HETATM   12  N10 UNL     1      -5.826  50.629 -11.783  1.00  0.00    -0.172 N 
ATOM     13  H10 UNL     1      -6.154  51.124 -10.954  1.00  0.00     0.186 HD
ENDROOT
BRANCH   1  14
HETATM   14  N2  UNL     1      -7.124  51.957 -13.083  1.00  0.00    -0.224 N 
ATOM     15  H2  UNL     1      -7.214  52.617 -12.310  1.00  0.00     0.177 HD
BRANCH  14  16
HETATM   16  C9  UNL     1      -7.942  52.148 -14.239  1.00  0.00     0.157 C 
BRANCH  16  17
HETATM   17  C8  UNL     1      -9.300  51.512 -13.966  1.00  0.00     0.140 C 
BRANCH  17  18
HETATM   18  N1  UNL     1      -9.375  50.154 -14.358  1.00  0.00    -0.383 N 
ATOM     19  H1  UNL     1      -8.960  49.877 -15.248  1.00  0.00     0.160 HD
BRANCH  18  20
HETATM   20  C7  UNL     1      -9.944  49.261 -13.640  1.00  0.00     0.072 A 
HETATM   21  C6  UNL     1      -9.322  48.409 -12.766  1.00  0.00     0.062 A 
HETATM   22  C5  UNL     1      -9.936  47.449 -11.996  1.00  0.00     0.015 A 
HETATM   23  N11 UNL     1     -11.244  47.181 -11.965  1.00  0.00    -0.363 N 
HETATM   24  C18 UNL     1     -12.204  47.787 -12.671  1.00  0.00     0.140 A 
ATOM     25  H11 UNL     1     -11.542  46.436 -11.337  1.00  0.00     0.165 HD
HETATM   26  S1  UNL     1     -11.658  49.022 -13.702  1.00  0.00    -0.067 SA
BRANCH  22  27
HETATM   27  C3  UNL     1      -9.072  46.605 -11.089  1.00  0.00     0.031 C 
HETATM   28  C4  UNL     1      -9.873  46.329  -9.846  1.00  0.00     0.016 C 
BRANCH  27  29
HETATM   29  C2  UNL     1      -7.787  47.307 -10.759  1.00  0.00     0.006 C 
HETATM   30  C1  UNL     1      -6.663  46.298 -10.819  1.00  0.00     0.006 C 
ENDBRANCH  27  29
ENDBRANCH  22  27
ENDBRANCH  18  20
ENDBRANCH  17  18
ENDBRANCH  16  17
ENDBRANCH  14  16
ENDBRANCH   1  14
BRANCH   4  31
HETATM   31  N4  UNL     1      -4.564  48.710 -15.029  1.00  0.00    -0.383 N 
ATOM     32  H42 UNL     1      -5.238  48.157 -15.559  1.00  0.00     0.157 HD
ATOM     33  H41 UNL     1      -3.591  48.751 -15.332  1.00  0.00     0.157 HD
ENDBRANCH   4  31
BRANCH   9  34
HETATM   34  C14 UNL     1      -3.007  47.763  -8.844  1.00  0.00     0.174 C 
HETATM   35  C15 UNL     1      -3.321  46.328  -9.252  1.00  0.00     0.042 C 
BRANCH  34  36
HETATM   36  N7  UNL     1      -1.614  47.983  -9.113  1.00  0.00    -0.354 N 
HETATM   37  C16 UNL     1      -0.745  47.774  -8.206  1.00  0.00     0.197 C 
HETATM   38  N8  UNL     1       0.623  47.986  -8.459  1.00  0.00    -0.067 NA
HETATM   39  N9  UNL     1      -1.137  47.323  -6.924  1.00  0.00    -0.067 NA
ATOM     40  H7  UNL     1      -1.319  48.309 -10.034  1.00  0.00     0.162 HD
ENDBRANCH  34  36
ENDBRANCH   9  34
TORSDOF 10
ENDMDL
MODEL 2
REMARK VINA RESULT: -6.389833238      1.272      1.684
REMARK  10 active torsions:
REMARK  status: ('A' for Active; 'I' for Inactive)
REMARK    1  A    between atoms: C2_2  and  C3_3 
REMARK    2  A    between atoms: C3_3  and  C5_5 
REMARK    3  A    between atoms: C7_7  and  N1_8 
REMARK    4  A    between atoms: N1_8  and  C8_10 
REMARK    5  A    between atoms: C8_10  and  C9_11 
REMARK    6  A    between atoms: C9_11  and  N2_12 
REMARK    7  A    between atoms: N2_12  and  C10_14 
REMARK    8  A    between atoms: C11_17  and  N4_18 
REMARK       I    between atoms: N6_24  and  C13_25 
REMARK    9  A    between atoms: C13_25  and  C14_27 
REMARK   10  A    between atoms: C14_27  and  N7_29 
ROOT
HETATM    1  C10 UNL     1      -5.962  51.193 -13.062  1.00  0.00     0.681 A 
HETATM    2  N3  UNL     1      -5.508  50.522 -14.151  1.00  0.00    -0.175 N 
ATOM      3  H3  UNL     1      -5.787  50.842 -15.078  1.00  0.00     0.186 HD
HETATM    4  C11 UNL     1      -4.718  49.466 -14.051  1.00  0.00     0.147 A 
HETATM    5  C12 UNL     1      -4.325  49.011 -12.792  1.00  0.00     0.139 A 
HETATM    6  N5  UNL     1      -3.663  48.168 -11.966  1.00  0.00    -0.283 N 
ATOM      7  H5  UNL     1      -3.064  47.355 -12.110  1.00  0.00     0.188 HD
HETATM    8  N6  UNL     1      -4.096  48.813 -10.905  1.00  0.00    -0.202 N 
HETATM    9  C13 UNL     1      -3.931  48.672  -9.509  1.00  0.00     0.267 C 
HETATM   10  O1  UNL     1      -4.512  49.497  -8.720  1.00  0.00    -0.269 OA
HETATM   11  C17 UNL     1      -4.770  49.673 -11.682  1.00  0.00     0.177 A 
HETATM   12  N10 UNL     1      -5.586  50.758 -11.862  1.00  0.00    -0.172 N 
ATOM     13  H10 UNL     1      -5.922  51.255 -11.037  1.00  0.00     0.186 HD
ENDROOT
BRANCH   1  14
HETATM   14  N2  UNL     1      -6.720  52.204 -13.190  1.00  0.00    -0.224 N 
ATOM     15  H2  UNL     1      -6.698  52.922 -12.465  1.00  0.00     0.177 HD
BRANCH  14  16
HETATM   16  C9  UNL     1      -7.601  52.383 -14.299  1.00  0.00     0.157 C 
BRANCH  16  17
HETATM   17  C8  UNL     1      -8.999  51.959 -13.865  1.00  0.00     0.140 C 
BRANCH  17  18
HETATM   18  N1  UNL     1      -9.433  50.754 -14.466  1.00  0.00    -0.383 N 
ATOM     19  H1  UNL     1     -10.195  50.790 -15.144  1.00  0.00     0.160 HD
BRANCH  18  20
HETATM   20  C7  UNL     1      -8.907  49.619 -14.192  1.00  0.00     0.072 A 
HETATM   21  C6  UNL     1      -8.780  49.067 -12.945  1.00  0.00     0.062 A 
HETATM   22  C5  UNL     1      -8.213  47.848 -12.654  1.00  0.00     0.015 A 
HETATM   23  N11 UNL     1      -7.688  46.993 -13.535  1.00  0.00    -0.363 N 
HETATM   24  C18 UNL     1      -7.611  47.150 -14.859  1.00  0.00     0.140 A 
ATOM     25  H11 UNL     1      -7.306  46.127 -13.156  1.00  0.00     0.165 HD
HETATM   26  S1  UNL     1      -8.263  48.608 -15.441  1.00  0.00    -0.067 SA
BRANCH  22  27
HETATM   27  C3  UNL     1      -8.167  47.413 -11.208  1.00  0.00     0.031 C 
HETATM   28  C4  UNL     1      -6.958  46.533 -11.050  1.00  0.00     0.016 C 
BRANCH  27  29
HETATM   29  C2  UNL     1      -9.422  46.683 -10.823  1.00  0.00     0.006 C 
HETATM   30  C1  UNL     1      -9.332  46.323  -9.358  1.00  0.00     0.006 C 
ENDBRANCH  27  29
ENDBRANCH  22  27
ENDBRANCH  18  20
ENDBRANCH  17  18
ENDBRANCH  16  17
ENDBRANCH  14  16
ENDBRANCH   1  14
BRANCH   4  31
HETATM   31  N4  UNL     1      -4.291  48.831 -15.090  1.00  0.00    -0.383 N 
ATOM     32  H42 UNL     1      -3.679  49.325 -15.739  1.00  0.00     0.157 HD
ATOM     33  H41 UNL     1      -4.545  47.860 -15.273  1.00  0.00     0.157 HD
ENDBRANCH   4  31
BRANCH   9  34
HETATM   34  C14 UNL     1      -3.129  47.633  -8.862  1.00  0.00     0.174 C 
HETATM   35  C15 UNL     1      -3.567  46.231  -9.269  1.00  0.00     0.042 C 
BRANCH  34  36
HETATM   36  N7  UNL     1      -1.718  47.723  -9.108  1.00  0.00    -0.354 N 
HETATM   37  C16 UNL     1      -0.890  47.587  -8.151  1.00  0.00     0.197 C 
HETATM   38  N8  UNL     1       0.497  47.672  -8.381  1.00  0.00    -0.067 NA
HETATM   39  N9  UNL     1      -1.345  47.348  -6.834  1.00  0.00    -0.067 NA
ATOM     40  H7  UNL     1      -1.377  47.896 -10.055  1.00  0.00     0.162 HD
ENDBRANCH  34  36
ENDBRANCH   9  34
TORSDOF 10
ENDMDL
MODEL 3
REMARK VINA RESULT: -6.144940754      3.601      6.333
REMARK  10 active torsions:
REMARK  status: ('A' for Active; 'I' for Inactive)
REMARK    1  A    between atoms: C2_2  and  C3_3 
REMARK    2  A    between atoms: C3_3  and  C5_5 
REMARK    3  A    between atoms: C7_7  and  N1_8 
REMARK    4  A    between atoms: N1_8  and  C8_10 
REMARK    5  A    between atoms: C8_10  and  C9_11 
REMARK    6  A    between atoms: C9_11  and  N2_12 
REMARK    7  A    between atoms: N2_12  and  C10_14 
REMARK    8  A    between atoms: C11_17  and  N4_18 
REMARK       I    between atoms: N6_24  and  C13_25 
REMARK    9  A    between atoms: C13_25  and  C14_27 
REMARK   10  A    between atoms: C14_27  and  N7_29 
ROOT
HETATM    1  C10 UNL     1      -1.814  47.831  -7.919  1.00  0.00     0.681 A 
HETATM    2  N3  UNL     1      -0.532  48.255  -8.047  1.00  0.00    -0.175 N 
ATOM      3  H3  UNL     1      -0.177  48.954  -7.395  1.00  0.00     0.186 HD
HETATM    4  C11 UNL     1       0.274  47.794  -8.988  1.00  0.00     0.147 A 
HETATM    5  C12 UNL     1      -0.191  46.837  -9.892  1.00  0.00     0.139 A 
HETATM    6  N5  UNL     1      -0.046  46.005 -10.949  1.00  0.00    -0.283 N 
ATOM      7  H5  UNL     1       0.721  45.787 -11.584  1.00  0.00     0.188 HD
HETATM    8  N6  UNL     1      -1.288  45.586 -10.833  1.00  0.00    -0.202 N 
HETATM    9  C13 UNL     1      -2.104  44.663 -11.524  1.00  0.00     0.267 C 
HETATM   10  O1  UNL     1      -3.314  44.484 -11.143  1.00  0.00    -0.269 OA
HETATM   11  C17 UNL     1      -1.479  46.396  -9.781  1.00  0.00     0.177 A 
HETATM   12  N10 UNL     1      -2.257  46.918  -8.782  1.00  0.00    -0.172 N 
ATOM     13  H10 UNL     1      -3.220  46.593  -8.695  1.00  0.00     0.186 HD
ENDROOT
BRANCH   1  14
HETATM   14  N2  UNL     1      -2.565  48.292  -7.005  1.00  0.00    -0.224 N 
ATOM     15  H2  UNL     1      -2.747  47.710  -6.186  1.00  0.00     0.177 HD
BRANCH  14  16
HETATM   16  C9  UNL     1      -3.165  49.586  -7.068  1.00  0.00     0.157 C 
BRANCH  16  17
HETATM   17  C8  UNL     1      -4.434  49.477  -7.906  1.00  0.00     0.140 C 
BRANCH  17  18
HETATM   18  N1  UNL     1      -4.225  49.750  -9.280  1.00  0.00    -0.383 N 
ATOM     19  H1  UNL     1      -3.851  50.660  -9.549  1.00  0.00     0.160 HD
BRANCH  18  20
HETATM   20  C7  UNL     1      -4.488  48.897 -10.198  1.00  0.00     0.072 A 
HETATM   21  C6  UNL     1      -5.492  47.966 -10.173  1.00  0.00     0.062 A 
HETATM   22  C5  UNL     1      -5.773  47.051 -11.160  1.00  0.00     0.015 A 
HETATM   23  N11 UNL     1      -5.114  46.910 -12.314  1.00  0.00    -0.363 N 
HETATM   24  C18 UNL     1      -4.064  47.623 -12.731  1.00  0.00     0.140 A 
ATOM     25  H11 UNL     1      -5.448  46.180 -12.943  1.00  0.00     0.165 HD
HETATM   26  S1  UNL     1      -3.546  48.827 -11.649  1.00  0.00    -0.067 SA
BRANCH  22  27
HETATM   27  C3  UNL     1      -6.929  46.104 -10.945  1.00  0.00     0.031 C 
HETATM   28  C4  UNL     1      -6.875  45.082 -12.047  1.00  0.00     0.016 C 
BRANCH  27  29
HETATM   29  C2  UNL     1      -8.239  46.838 -10.952  1.00  0.00     0.006 C 
HETATM   30  C1  UNL     1      -9.064  46.352  -9.783  1.00  0.00     0.006 C 
ENDBRANCH  27  29
ENDBRANCH  22  27
ENDBRANCH  18  20
ENDBRANCH  17  18
ENDBRANCH  16  17
ENDBRANCH  14  16
ENDBRANCH   1  14
BRANCH   4  31
HETATM   31  N4  UNL     1       1.493  48.201  -9.106  1.00  0.00    -0.383 N 
ATOM     32  H42 UNL     1       2.240  47.508  -9.058  1.00  0.00     0.157 HD
ATOM     33  H41 UNL     1       1.723  49.185  -9.245  1.00  0.00     0.157 HD
ENDBRANCH   4  31
BRANCH   9  34
HETATM   34  C14 UNL     1      -1.677  43.867 -12.675  1.00  0.00     0.174 C 
HETATM   35  C15 UNL     1      -2.634  42.716 -12.966  1.00  0.00     0.042 C 
BRANCH  34  36
HETATM   36  N7  UNL     1      -1.525  44.608 -13.895  1.00  0.00    -0.354 N 
HETATM   37  C16 UNL     1      -0.363  44.884 -14.336  1.00  0.00     0.197 C 
HETATM   38  N8  UNL     1      -0.201  45.609 -15.532  1.00  0.00    -0.067 NA
HETATM   39  N9  UNL     1       0.792  44.466 -13.635  1.00  0.00    -0.067 NA
ATOM     40  H7  UNL     1      -2.350  44.916 -14.409  1.00  0.00     0.162 HD
ENDBRANCH  34  36
ENDBRANCH   9  34
TORSDOF 10
ENDMDL
MODEL 4
REMARK VINA RESULT: -6.032468298      3.466      5.991
REMARK  10 active torsions:
REMARK  status: ('A' for Active; 'I' for Inactive)
REMARK    1  A    between atoms: C2_2  and  C3_3 
REMARK    2  A    between atoms: C3_3  and  C5_5 
REMARK    3  A    between atoms: C7_7  and  N1_8 
REMARK    4  A    between atoms: N1_8  and  C8_10 
REMARK    5  A    between atoms: C8_10  and  C9_11 
REMARK    6  A    between atoms: C9_11  and  N2_12 
REMARK    7  A    between atoms: N2_12  and  C10_14 
REMARK    8  A    between atoms: C11_17  and  N4_18 
REMARK       I    between atoms: N6_24  and  C13_25 
REMARK    9  A    between atoms: C13_25  and  C14_27 
REMARK   10  A    between atoms: C14_27  and  N7_29 
ROOT
HETATM    1  C10 UNL     1      -6.411  51.023 -12.886  1.00  0.00     0.681 A 
HETATM    2  N3  UNL     1      -5.980  50.396 -14.011  1.00  0.00    -0.175 N 
ATOM      3  H3  UNL     1      -6.343  50.700 -14.914  1.00  0.00     0.186 HD
HETATM    4  C11 UNL     1      -5.106  49.405 -13.976  1.00  0.00     0.147 A 
HETATM    5  C12 UNL     1      -4.597  48.971 -12.751  1.00  0.00     0.139 A 
HETATM    6  N5  UNL     1      -3.818  48.177 -11.981  1.00  0.00    -0.283 N 
ATOM      7  H5  UNL     1      -3.170  47.414 -12.173  1.00  0.00     0.188 HD
HETATM    8  N6  UNL     1      -4.229  48.778 -10.885  1.00  0.00    -0.202 N 
HETATM    9  C13 UNL     1      -3.961  48.641  -9.505  1.00  0.00     0.267 C 
HETATM   10  O1  UNL     1      -4.551  49.412  -8.669  1.00  0.00    -0.269 OA
HETATM   11  C17 UNL     1      -5.017  49.589 -11.606  1.00  0.00     0.177 A 
HETATM   12  N10 UNL     1      -5.924  50.609 -11.718  1.00  0.00    -0.172 N 
ATOM     13  H10 UNL     1      -6.242  51.073 -10.867  1.00  0.00     0.186 HD
ENDROOT
BRANCH   1  14
HETATM   14  N2  UNL     1      -7.251  51.972 -12.951  1.00  0.00    -0.224 N 
ATOM     15  H2  UNL     1      -7.717  52.269 -12.093  1.00  0.00     0.177 HD
BRANCH  14  16
HETATM   16  C9  UNL     1      -7.575  52.645 -14.168  1.00  0.00     0.157 C 
BRANCH  16  17
HETATM   17  C8  UNL     1      -7.544  54.146 -13.900  1.00  0.00     0.140 C 
BRANCH  17  18
HETATM   18  N1  UNL     1      -6.574  54.526 -12.943  1.00  0.00    -0.383 N 
ATOM     19  H1  UNL     1      -6.808  54.458 -11.952  1.00  0.00     0.160 HD
BRANCH  18  20
HETATM   20  C7  UNL     1      -5.413  54.953 -13.273  1.00  0.00     0.072 A 
HETATM   21  C6  UNL     1      -4.416  54.216 -13.855  1.00  0.00     0.062 A 
HETATM   22  C5  UNL     1      -3.169  54.677 -14.208  1.00  0.00     0.015 A 
HETATM   23  N11 UNL     1      -2.714  55.922 -14.043  1.00  0.00    -0.363 N 
HETATM   24  C18 UNL     1      -3.373  56.954 -13.509  1.00  0.00     0.140 A 
ATOM     25  H11 UNL     1      -1.761  56.104 -14.359  1.00  0.00     0.165 HD
HETATM   26  S1  UNL     1      -4.955  56.600 -12.999  1.00  0.00    -0.067 SA
BRANCH  22  27
HETATM   27  C3  UNL     1      -2.205  53.704 -14.844  1.00  0.00     0.031 C 
HETATM   28  C4  UNL     1      -2.816  52.335 -14.725  1.00  0.00     0.016 C 
BRANCH  27  29
HETATM   29  C2  UNL     1      -0.862  53.757 -14.173  1.00  0.00     0.006 C 
HETATM   30  C1  UNL     1       0.193  53.392 -15.192  1.00  0.00     0.006 C 
ENDBRANCH  27  29
ENDBRANCH  22  27
ENDBRANCH  18  20
ENDBRANCH  17  18
ENDBRANCH  16  17
ENDBRANCH  14  16
ENDBRANCH   1  14
BRANCH   4  31
HETATM   31  N4  UNL     1      -4.701  48.812 -15.048  1.00  0.00    -0.383 N 
ATOM     32  H42 UNL     1      -5.112  49.093 -15.939  1.00  0.00     0.157 HD
ATOM     33  H41 UNL     1      -3.989  48.082 -15.026  1.00  0.00     0.157 HD
ENDBRANCH   4  31
BRANCH   9  34
HETATM   34  C14 UNL     1      -3.040  47.662  -8.925  1.00  0.00     0.174 C 
HETATM   35  C15 UNL     1      -3.326  46.245  -9.409  1.00  0.00     0.042 C 
BRANCH  34  36
HETATM   36  N7  UNL     1      -1.651  47.922  -9.176  1.00  0.00    -0.354 N 
HETATM   37  C16 UNL     1      -0.795  47.782  -8.245  1.00  0.00     0.197 C 
HETATM   38  N8  UNL     1       0.571  48.034  -8.480  1.00  0.00    -0.067 NA
HETATM   39  N9  UNL     1      -1.196  47.371  -6.953  1.00  0.00    -0.067 NA
ATOM     40  H7  UNL     1      -1.349  48.220 -10.104  1.00  0.00     0.162 HD
ENDBRANCH  34  36
ENDBRANCH   9  34
TORSDOF 10
ENDMDL
MODEL 5
REMARK VINA RESULT: -5.958052775      3.692      5.823
REMARK  10 active torsions:
REMARK  status: ('A' for Active; 'I' for Inactive)
REMARK    1  A    between atoms: C2_2  and  C3_3 
REMARK    2  A    between atoms: C3_3  and  C5_5 
REMARK    3  A    between atoms: C7_7  and  N1_8 
REMARK    4  A    between atoms: N1_8  and  C8_10 
REMARK    5  A    between atoms: C8_10  and  C9_11 
REMARK    6  A    between atoms: C9_11  and  N2_12 
REMARK    7  A    between atoms: N2_12  and  C10_14 
REMARK    8  A    between atoms: C11_17  and  N4_18 
REMARK       I    between atoms: N6_24  and  C13_25 
REMARK    9  A    between atoms: C13_25  and  C14_27 
REMARK   10  A    between atoms: C14_27  and  N7_29 
ROOT
HETATM    1  C10 UNL     1      -3.791  42.549 -12.338  1.00  0.00     0.681 A 
HETATM    2  N3  UNL     1      -2.465  42.265 -12.310  1.00  0.00    -0.175 N 
ATOM      3  H3  UNL     1      -2.144  41.374 -12.690  1.00  0.00     0.186 HD
HETATM    4  C11 UNL     1      -1.574  43.102 -11.807  1.00  0.00     0.147 A 
HETATM    5  C12 UNL     1      -1.991  44.326 -11.281  1.00  0.00     0.139 A 
HETATM    6  N5  UNL     1      -1.771  45.523 -10.691  1.00  0.00    -0.283 N 
ATOM      7  H5  UNL     1      -0.940  46.011 -10.358  1.00  0.00     0.188 HD
HETATM    8  N6  UNL     1      -3.055  45.808 -10.714  1.00  0.00    -0.202 N 
HETATM    9  C13 UNL     1      -3.848  46.901 -10.297  1.00  0.00     0.267 C 
HETATM   10  O1  UNL     1      -5.116  46.861 -10.470  1.00  0.00    -0.269 OA
HETATM   11  C17 UNL     1      -3.322  44.632 -11.301  1.00  0.00     0.177 A 
HETATM   12  N10 UNL     1      -4.188  43.717 -11.837  1.00  0.00    -0.172 N 
ATOM     13  H10 UNL     1      -5.183  43.940 -11.853  1.00  0.00     0.186 HD
ENDROOT
BRANCH   1  14
HETATM   14  N2  UNL     1      -4.624  41.725 -12.828  1.00  0.00    -0.224 N 
ATOM     15  H2  UNL     1      -4.612  41.563 -13.836  1.00  0.00     0.177 HD
BRANCH  14  16
HETATM   16  C9  UNL     1      -5.576  41.014 -12.036  1.00  0.00     0.157 C 
BRANCH  16  17
HETATM   17  C8  UNL     1      -6.967  41.328 -12.577  1.00  0.00     0.140 C 
BRANCH  17  18
HETATM   18  N1  UNL     1      -7.599  42.405 -11.910  1.00  0.00    -0.383 N 
ATOM     19  H1  UNL     1      -8.002  42.243 -10.987  1.00  0.00     0.160 HD
BRANCH  18  20
HETATM   20  C7  UNL     1      -7.685  43.575 -12.422  1.00  0.00     0.072 A 
HETATM   21  C6  UNL     1      -8.014  44.726 -11.758  1.00  0.00     0.062 A 
HETATM   22  C5  UNL     1      -8.106  45.982 -12.310  1.00  0.00     0.015 A 
HETATM   23  N11 UNL     1      -7.891  46.297 -13.590  1.00  0.00    -0.363 N 
HETATM   24  C18 UNL     1      -7.548  45.463 -14.576  1.00  0.00     0.140 A 
ATOM     25  H11 UNL     1      -8.001  47.279 -13.843  1.00  0.00     0.165 HD
HETATM   26  S1  UNL     1      -7.378  43.839 -14.106  1.00  0.00    -0.067 SA
BRANCH  22  27
HETATM   27  C3  UNL     1      -8.484  47.131 -11.406  1.00  0.00     0.031 C 
HETATM   28  C4  UNL     1      -8.810  46.545 -10.060  1.00  0.00     0.016 C 
BRANCH  27  29
HETATM   29  C2  UNL     1      -9.651  47.895 -11.961  1.00  0.00     0.006 C 
HETATM   30  C1  UNL     1     -10.914  47.122 -11.657  1.00  0.00     0.006 C 
ENDBRANCH  27  29
ENDBRANCH  22  27
ENDBRANCH  18  20
ENDBRANCH  17  18
ENDBRANCH  16  17
ENDBRANCH  14  16
ENDBRANCH   1  14
BRANCH   4  31
HETATM   31  N4  UNL     1      -0.313  42.826 -11.782  1.00  0.00    -0.383 N 
ATOM     32  H42 UNL     1      -0.034  41.868 -11.569  1.00  0.00     0.157 HD
ATOM     33  H41 UNL     1       0.399  43.532 -11.968  1.00  0.00     0.157 HD
ENDBRANCH   4  31
BRANCH   9  34
HETATM   34  C14 UNL     1      -3.331  48.115  -9.663  1.00  0.00     0.174 C 
HETATM   35  C15 UNL     1      -4.347  49.251  -9.683  1.00  0.00     0.042 C 
BRANCH  34  36
HETATM   36  N7  UNL     1      -2.910  47.948  -8.301  1.00  0.00    -0.354 N 
HETATM   37  C16 UNL     1      -1.671  47.898  -8.015  1.00  0.00     0.197 C 
HETATM   38  N8  UNL     1      -1.246  47.736  -6.682  1.00  0.00    -0.067 NA
HETATM   39  N9  UNL     1      -0.693  48.005  -9.030  1.00  0.00    -0.067 NA
ATOM     40  H7  UNL     1      -3.607  47.869  -7.559  1.00  0.00     0.162 HD
ENDBRANCH  34  36
ENDBRANCH   9  34
TORSDOF 10
ENDMDL
