MODEL 1
REMARK VINA RESULT: -6.272457535      0.000      0.000
REMARK  5 active torsions:
REMARK  status: ('A' for Active; 'I' for Inactive)
REMARK    1  A    between atoms: N1_2  and  C2_4 
REMARK    2  A    between atoms: C2_4  and  C5_7 
REMARK    3  A    between atoms: C8_12  and  N3_13 
REMARK    4  A    between atoms: C9_16  and  C10_17 
REMARK    5  A    between atoms: C11_20  and  N5_21 
ROOT
HETATM    1  C5  UNL     1      -7.967   9.977  13.625  1.00  0.00     0.035 A 
HETATM    2  C6  UNL     1      -7.237  11.039  13.138  1.00  0.00     0.102 A 
HETATM    3  N2  UNL     1      -6.264  10.889  12.205  1.00  0.00    -0.362 N 
ATOM      4  H2  UNL     1      -5.756  11.711  11.880  1.00  0.00     0.165 HD
HETATM    5  C7  UNL     1      -5.952   9.685  11.698  1.00  0.00     0.081 A 
HETATM    6  C8  UNL     1      -4.928   9.587  10.735  1.00  0.00     0.147 A 
HETATM    7  C9  UNL     1      -4.636   8.352  10.248  1.00  0.00     0.083 A 
HETATM    8  C14 UNL     1      -5.369   7.236  10.731  1.00  0.00     0.134 A 
HETATM    9  F1  UNL     1      -5.066   6.027  10.236  1.00  0.00    -0.205 F 
HETATM   10  C15 UNL     1      -6.355   7.384  11.667  1.00  0.00     0.061 A 
HETATM   11  C16 UNL     1      -6.664   8.620  12.168  1.00  0.00     0.047 A 
HETATM   12  C17 UNL     1      -7.656   8.736  13.112  1.00  0.00     0.194 A 
HETATM   13  O3  UNL     1      -8.263   7.703  13.493  1.00  0.00    -0.287 OA
ENDROOT
BRANCH   7  14
HETATM   14  C10 UNL     1      -3.647   8.093   9.220  1.00  0.00     0.138 A 
HETATM   15  N4  UNL     1      -4.074   7.290   8.171  1.00  0.00    -0.176 N 
HETATM   16  C11 UNL     1      -3.230   6.938   7.207  1.00  0.00     0.678 A 
ATOM     17  H4  UNL     1      -5.042   6.969   8.140  1.00  0.00     0.186 HD
HETATM   18  N6  UNL     1      -1.934   7.327   7.190  1.00  0.00    -0.181 N 
HETATM   19  C12 UNL     1      -1.502   8.100   8.190  1.00  0.00     0.095 A 
ATOM     20  H6  UNL     1      -1.309   7.040   6.438  1.00  0.00     0.185 HD
HETATM   21  C13 UNL     1      -0.108   8.576   8.260  1.00  0.00     0.089 C 
HETATM   22  N7  UNL     1      -2.377   8.465   9.184  1.00  0.00    -0.331 N 
ATOM     23  H7  UNL     1      -2.028   9.057   9.937  1.00  0.00     0.168 HD
BRANCH  16  24
HETATM   24  N5  UNL     1      -3.713   6.187   6.265  1.00  0.00    -0.234 N 
ATOM     25  H52 UNL     1      -3.373   5.235   6.127  1.00  0.00     0.174 HD
ATOM     26  H51 UNL     1      -4.441   6.603   5.684  1.00  0.00     0.174 HD
ENDBRANCH  16  24
ENDBRANCH   7  14
BRANCH   6  27
HETATM   27  N3  UNL     1      -4.277  10.805  10.398  1.00  0.00    -0.112 N 
HETATM   28  O1  UNL     1      -4.801  11.581   9.573  1.00  0.00    -0.532 OA
HETATM   29  O2  UNL     1      -3.099  11.122  11.013  1.00  0.00    -0.532 OA
ENDBRANCH   6  27
BRANCH   1  30
HETATM   30  C2  UNL     1      -9.040  10.175  14.644  1.00  0.00     0.050 C 
HETATM   31  C3  UNL     1      -8.951  11.616  15.177  1.00  0.00     0.043 C 
HETATM   32  C4  UNL     1     -10.385  10.057  13.992  1.00  0.00     0.043 C 
BRANCH  30  33
HETATM   33  N1  UNL     1      -8.834   9.292  15.728  1.00  0.00    -0.413 N 
HETATM   34  C1  UNL     1      -7.915   9.698  16.736  1.00  0.00     0.141 C 
ATOM     35  H1  UNL     1      -9.324   8.400  15.785  1.00  0.00     0.153 HD
ENDBRANCH  30  33
ENDBRANCH   1  30
TORSDOF 5
ENDMDL
MODEL 2
REMARK VINA RESULT: -6.154644284      2.095      2.721
REMARK  5 active torsions:
REMARK  status: ('A' for Active; 'I' for Inactive)
REMARK    1  A    between atoms: N1_2  and  C2_4 
REMARK    2  A    between atoms: C2_4  and  C5_7 
REMARK    3  A    between atoms: C8_12  and  N3_13 
REMARK    4  A    between atoms: C9_16  and  C10_17 
REMARK    5  A    between atoms: C11_20  and  N5_21 
ROOT
HETATM    1  C5  UNL     1      -7.794   9.883  13.763  1.00  0.00     0.035 A 
HETATM    2  C6  UNL     1      -7.317   8.595  13.873  1.00  0.00     0.102 A 
HETATM    3  N2  UNL     1      -6.420   8.072  13.000  1.00  0.00    -0.362 N 
ATOM      4  H2  UNL     1      -6.100   7.113  13.130  1.00  0.00     0.165 HD
HETATM    5  C7  UNL     1      -5.940   8.786  11.969  1.00  0.00     0.081 A 
HETATM    6  C8  UNL     1      -5.014   8.191  11.090  1.00  0.00     0.147 A 
HETATM    7  C9  UNL     1      -4.554   8.941  10.054  1.00  0.00     0.083 A 
HETATM    8  C14 UNL     1      -5.027  10.272   9.912  1.00  0.00     0.134 A 
HETATM    9  F1  UNL     1      -4.560  10.996   8.885  1.00  0.00    -0.205 F 
HETATM   10  C15 UNL     1      -5.928  10.805  10.793  1.00  0.00     0.061 A 
HETATM   11  C16 UNL     1      -6.401  10.064  11.843  1.00  0.00     0.047 A 
HETATM   12  C17 UNL     1      -7.310  10.626  12.708  1.00  0.00     0.194 A 
HETATM   13  O3  UNL     1      -7.684  11.810  12.520  1.00  0.00    -0.287 OA
ENDROOT
BRANCH   7  14
HETATM   14  C10 UNL     1      -3.563   8.491   9.096  1.00  0.00     0.138 A 
HETATM   15  N4  UNL     1      -4.013   7.562   8.167  1.00  0.00    -0.176 N 
HETATM   16  C11 UNL     1      -3.172   7.035   7.283  1.00  0.00     0.678 A 
ATOM     17  H4  UNL     1      -4.994   7.282   8.163  1.00  0.00     0.186 HD
HETATM   18  N6  UNL     1      -1.860   7.361   7.235  1.00  0.00    -0.181 N 
HETATM   19  C12 UNL     1      -1.407   8.253   8.120  1.00  0.00     0.095 A 
ATOM     20  H6  UNL     1      -1.238   6.940   6.546  1.00  0.00     0.185 HD
HETATM   21  C13 UNL     1       0.007   8.673   8.149  1.00  0.00     0.089 C 
HETATM   22  N7  UNL     1      -2.278   8.797   9.032  1.00  0.00    -0.331 N 
ATOM     23  H7  UNL     1      -1.913   9.478   9.698  1.00  0.00     0.168 HD
BRANCH  16  24
HETATM   24  N5  UNL     1      -3.676   6.176   6.450  1.00  0.00    -0.234 N 
ATOM     25  H52 UNL     1      -3.914   5.231   6.752  1.00  0.00     0.174 HD
ATOM     26  H51 UNL     1      -3.817   6.501   5.493  1.00  0.00     0.174 HD
ENDBRANCH  16  24
ENDBRANCH   7  14
BRANCH   6  27
HETATM   27  N3  UNL     1      -4.682   6.836  11.366  1.00  0.00    -0.112 N 
HETATM   28  O1  UNL     1      -5.267   5.917  10.756  1.00  0.00    -0.532 OA
HETATM   29  O2  UNL     1      -3.699   6.564  12.274  1.00  0.00    -0.532 OA
ENDBRANCH   6  27
BRANCH   1  30
HETATM   30  C2  UNL     1      -8.774  10.433  14.746  1.00  0.00     0.050 C 
HETATM   31  C3  UNL     1      -9.292   9.280  15.622  1.00  0.00     0.043 C 
HETATM   32  C4  UNL     1      -8.078  11.381  15.677  1.00  0.00     0.043 C 
BRANCH  30  33
HETATM   33  N1  UNL     1      -9.875  10.990  14.057  1.00  0.00    -0.413 N 
HETATM   34  C1  UNL     1     -10.908  10.101  13.647  1.00  0.00     0.141 C 
ATOM     35  H1  UNL     1      -9.927  11.990  13.861  1.00  0.00     0.153 HD
ENDBRANCH  30  33
ENDBRANCH   1  30
TORSDOF 5
ENDMDL
MODEL 3
REMARK VINA RESULT: -6.061450702      1.186      1.300
REMARK  5 active torsions:
REMARK  status: ('A' for Active; 'I' for Inactive)
REMARK    1  A    between atoms: N1_2  and  C2_4 
REMARK    2  A    between atoms: C2_4  and  C5_7 
REMARK    3  A    between atoms: C8_12  and  N3_13 
REMARK    4  A    between atoms: C9_16  and  C10_17 
REMARK    5  A    between atoms: C11_20  and  N5_21 
ROOT
HETATM    1  C5  UNL     1      -8.618   9.044  12.885  1.00  0.00     0.035 A 
HETATM    2  C6  UNL     1      -8.008  10.260  12.667  1.00  0.00     0.102 A 
HETATM    3  N2  UNL     1      -6.844  10.380  11.981  1.00  0.00    -0.362 N 
ATOM      4  H2  UNL     1      -6.438  11.306  11.850  1.00  0.00     0.165 HD
HETATM    5  C7  UNL     1      -6.212   9.311  11.471  1.00  0.00     0.081 A 
HETATM    6  C8  UNL     1      -5.003   9.494  10.771  1.00  0.00     0.147 A 
HETATM    7  C9  UNL     1      -4.388   8.389  10.273  1.00  0.00     0.083 A 
HETATM    8  C14 UNL     1      -4.990   7.120  10.481  1.00  0.00     0.134 A 
HETATM    9  F1  UNL     1      -4.369   6.042   9.980  1.00  0.00    -0.205 F 
HETATM   10  C15 UNL     1      -6.167   6.995  11.168  1.00  0.00     0.061 A 
HETATM   11  C16 UNL     1      -6.801   8.097  11.676  1.00  0.00     0.047 A 
HETATM   12  C17 UNL     1      -7.979   7.939  12.366  1.00  0.00     0.194 A 
HETATM   13  O3  UNL     1      -8.453   6.784  12.511  1.00  0.00    -0.287 OA
ENDROOT
BRANCH   7  14
HETATM   14  C10 UNL     1      -3.168   8.416   9.490  1.00  0.00     0.138 A 
HETATM   15  N4  UNL     1      -3.344   8.405   8.113  1.00  0.00    -0.176 N 
HETATM   16  C11 UNL     1      -2.292   8.364   7.302  1.00  0.00     0.678 A 
ATOM     17  H4  UNL     1      -4.285   8.429   7.722  1.00  0.00     0.186 HD
HETATM   18  N6  UNL     1      -1.018   8.329   7.756  1.00  0.00    -0.181 N 
HETATM   19  C12 UNL     1      -0.826   8.338   9.077  1.00  0.00     0.095 A 
ATOM     20  H6  UNL     1      -0.230   8.296   7.109  1.00  0.00     0.185 HD
HETATM   21  C13 UNL     1       0.524   8.302   9.669  1.00  0.00     0.089 C 
HETATM   22  N7  UNL     1      -1.915   8.383   9.914  1.00  0.00    -0.331 N 
ATOM     23  H7  UNL     1      -1.747   8.391  10.920  1.00  0.00     0.168 HD
BRANCH  16  24
HETATM   24  N5  UNL     1      -2.547   8.358   6.029  1.00  0.00    -0.234 N 
ATOM     25  H52 UNL     1      -3.090   9.108   5.600  1.00  0.00     0.174 HD
ATOM     26  H51 UNL     1      -2.175   7.572   5.496  1.00  0.00     0.174 HD
ENDBRANCH  16  24
ENDBRANCH   7  14
BRANCH   6  27
HETATM   27  N3  UNL     1      -4.530  10.833  10.692  1.00  0.00    -0.112 N 
HETATM   28  O1  UNL     1      -4.838  11.543   9.714  1.00  0.00    -0.532 OA
HETATM   29  O2  UNL     1      -3.770  11.330  11.712  1.00  0.00    -0.532 OA
ENDBRANCH   6  27
BRANCH   1  30
HETATM   30  C2  UNL     1      -9.905   8.945  13.635  1.00  0.00     0.050 C 
HETATM   31  C3  UNL     1     -10.201  10.307  14.286  1.00  0.00     0.043 C 
HETATM   32  C4  UNL     1     -11.030   8.691  12.677  1.00  0.00     0.043 C 
BRANCH  30  33
HETATM   33  N1  UNL     1      -9.782   7.984  14.664  1.00  0.00    -0.413 N 
HETATM   34  C1  UNL     1      -9.171   8.402  15.879  1.00  0.00     0.141 C 
ATOM     35  H1  UNL     1     -10.117   7.029  14.540  1.00  0.00     0.153 HD
ENDBRANCH  30  33
ENDBRANCH   1  30
TORSDOF 5
ENDMDL
MODEL 4
REMARK VINA RESULT: -6.049505117      2.727      3.393
REMARK  5 active torsions:
REMARK  status: ('A' for Active; 'I' for Inactive)
REMARK    1  A    between atoms: N1_2  and  C2_4 
REMARK    2  A    between atoms: C2_4  and  C5_7 
REMARK    3  A    between atoms: C8_12  and  N3_13 
REMARK    4  A    between atoms: C9_16  and  C10_17 
REMARK    5  A    between atoms: C11_20  and  N5_21 
ROOT
HETATM    1  C5  UNL     1      -9.401   8.374  12.454  1.00  0.00     0.035 A 
HETATM    2  C6  UNL     1      -8.722   7.178  12.372  1.00  0.00     0.102 A 
HETATM    3  N2  UNL     1      -7.478   7.080  11.840  1.00  0.00    -0.362 N 
ATOM      4  H2  UNL     1      -7.023   6.168  11.805  1.00  0.00     0.165 HD
HETATM    5  C7  UNL     1      -6.831   8.152  11.357  1.00  0.00     0.081 A 
HETATM    6  C8  UNL     1      -5.542   7.991  10.810  1.00  0.00     0.147 A 
HETATM    7  C9  UNL     1      -4.919   9.098  10.325  1.00  0.00     0.083 A 
HETATM    8  C14 UNL     1      -5.592  10.346  10.394  1.00  0.00     0.134 A 
HETATM    9  F1  UNL     1      -4.959  11.426   9.912  1.00  0.00    -0.205 F 
HETATM   10  C15 UNL     1      -6.844  10.450  10.935  1.00  0.00     0.061 A 
HETATM   11  C16 UNL     1      -7.486   9.347  11.429  1.00  0.00     0.047 A 
HETATM   12  C17 UNL     1      -8.746   9.483  11.962  1.00  0.00     0.194 A 
HETATM   13  O3  UNL     1      -9.280  10.620  11.989  1.00  0.00    -0.287 OA
ENDROOT
BRANCH   7  14
HETATM   14  C10 UNL     1      -3.576   9.105   9.778  1.00  0.00     0.138 A 
HETATM   15  N4  UNL     1      -3.469   8.693   8.457  1.00  0.00    -0.176 N 
HETATM   16  C11 UNL     1      -2.277   8.601   7.876  1.00  0.00     0.678 A 
ATOM     17  H4  UNL     1      -4.309   8.459   7.929  1.00  0.00     0.186 HD
HETATM   18  N6  UNL     1      -1.124   8.895   8.521  1.00  0.00    -0.181 N 
HETATM   19  C12 UNL     1      -1.204   9.294   9.792  1.00  0.00     0.095 A 
ATOM     20  H6  UNL     1      -0.223   8.814   8.050  1.00  0.00     0.185 HD
HETATM   21  C13 UNL     1      -0.005   9.636  10.579  1.00  0.00     0.089 C 
HETATM   22  N7  UNL     1      -2.438   9.389  10.390  1.00  0.00    -0.331 N 
ATOM     23  H7  UNL     1      -2.478   9.697  11.362  1.00  0.00     0.168 HD
BRANCH  16  24
HETATM   24  N5  UNL     1      -2.268   8.209   6.639  1.00  0.00    -0.234 N 
ATOM     25  H52 UNL     1      -2.477   8.860   5.882  1.00  0.00     0.174 HD
ATOM     26  H51 UNL     1      -2.043   7.228   6.477  1.00  0.00     0.174 HD
ENDBRANCH  16  24
ENDBRANCH   7  14
BRANCH   6  27
HETATM   27  N3  UNL     1      -5.040   6.661  10.791  1.00  0.00    -0.112 N 
HETATM   28  O1  UNL     1      -4.804   6.102   9.700  1.00  0.00    -0.532 OA
HETATM   29  O2  UNL     1      -4.791   6.028  11.975  1.00  0.00    -0.532 OA
ENDBRANCH   6  27
BRANCH   1  30
HETATM   30  C2  UNL     1     -10.765   8.452  13.056  1.00  0.00     0.050 C 
HETATM   31  C3  UNL     1     -11.326   7.025  13.189  1.00  0.00     0.043 C 
HETATM   32  C4  UNL     1     -10.672   8.993  14.452  1.00  0.00     0.043 C 
BRANCH  30  33
HETATM   33  N1  UNL     1     -11.620   9.182  12.200  1.00  0.00    -0.413 N 
HETATM   34  C1  UNL     1     -12.782   9.765  12.777  1.00  0.00     0.141 C 
ATOM     35  H1  UNL     1     -11.411   9.287  11.207  1.00  0.00     0.153 HD
ENDBRANCH  30  33
ENDBRANCH   1  30
TORSDOF 5
ENDMDL
MODEL 5
REMARK VINA RESULT: -5.945275247      2.731      3.749
REMARK  5 active torsions:
REMARK  status: ('A' for Active; 'I' for Inactive)
REMARK    1  A    between atoms: N1_2  and  C2_4 
REMARK    2  A    between atoms: C2_4  and  C5_7 
REMARK    3  A    between atoms: C8_12  and  N3_13 
REMARK    4  A    between atoms: C9_16  and  C10_17 
REMARK    5  A    between atoms: C11_20  and  N5_21 
ROOT
HETATM    1  C5  UNL     1      -9.708   8.665  12.694  1.00  0.00     0.035 A 
HETATM    2  C6  UNL     1      -8.967   7.529  12.936  1.00  0.00     0.102 A 
HETATM    3  N2  UNL     1      -7.700   7.374  12.477  1.00  0.00    -0.362 N 
ATOM      4  H2  UNL     1      -7.197   6.512  12.687  1.00  0.00     0.165 HD
HETATM    5  C7  UNL     1      -7.089   8.326  11.754  1.00  0.00     0.081 A 
HETATM    6  C8  UNL     1      -5.773   8.109  11.298  1.00  0.00     0.147 A 
HETATM    7  C9  UNL     1      -5.189   9.092  10.565  1.00  0.00     0.083 A 
HETATM    8  C14 UNL     1      -5.927  10.275  10.297  1.00  0.00     0.134 A 
HETATM    9  F1  UNL     1      -5.331  11.234   9.573  1.00  0.00    -0.205 F 
HETATM   10  C15 UNL     1      -7.203  10.438  10.762  1.00  0.00     0.061 A 
HETATM   11  C16 UNL     1      -7.807   9.459  11.504  1.00  0.00     0.047 A 
HETATM   12  C17 UNL     1      -9.092   9.650  11.953  1.00  0.00     0.194 A 
HETATM   13  O3  UNL     1      -9.684  10.724  11.676  1.00  0.00    -0.287 OA
ENDROOT
BRANCH   7  14
HETATM   14  C10 UNL     1      -3.828   9.041  10.068  1.00  0.00     0.138 A 
HETATM   15  N4  UNL     1      -2.887   9.710  10.839  1.00  0.00    -0.176 N 
HETATM   16  C11 UNL     1      -1.620   9.780  10.442  1.00  0.00     0.678 A 
ATOM     17  H4  UNL     1      -3.169  10.150  11.715  1.00  0.00     0.186 HD
HETATM   18  N6  UNL     1      -1.181   9.220   9.291  1.00  0.00    -0.181 N 
HETATM   19  C12 UNL     1      -2.070   8.572   8.535  1.00  0.00     0.095 A 
ATOM     20  H6  UNL     1      -0.203   9.291   9.012  1.00  0.00     0.185 HD
HETATM   21  C13 UNL     1      -1.689   7.929   7.263  1.00  0.00     0.089 C 
HETATM   22  N7  UNL     1      -3.378   8.499   8.948  1.00  0.00    -0.331 N 
ATOM     23  H7  UNL     1      -4.041   7.998   8.356  1.00  0.00     0.168 HD
BRANCH  16  24
HETATM   24  N5  UNL     1      -0.807  10.423  11.224  1.00  0.00    -0.234 N 
ATOM     25  H52 UNL     1      -0.890  11.432  11.350  1.00  0.00     0.174 HD
ATOM     26  H51 UNL     1      -0.095   9.865  11.694  1.00  0.00     0.174 HD
ENDBRANCH  16  24
ENDBRANCH   7  14
BRANCH   6  27
HETATM   27  N3  UNL     1      -5.204   6.849  11.631  1.00  0.00    -0.112 N 
HETATM   28  O1  UNL     1      -5.351   5.879  10.860  1.00  0.00    -0.532 OA
HETATM   29  O2  UNL     1      -4.474   6.732  12.779  1.00  0.00    -0.532 OA
ENDBRANCH   6  27
BRANCH   1  30
HETATM   30  C2  UNL     1     -11.097   8.812  13.222  1.00  0.00     0.050 C 
HETATM   31  C3  UNL     1     -11.562   7.450  13.767  1.00  0.00     0.043 C 
HETATM   32  C4  UNL     1     -11.097   9.749  14.392  1.00  0.00     0.043 C 
BRANCH  30  33
HETATM   33  N1  UNL     1     -11.966   9.184  12.172  1.00  0.00    -0.413 N 
HETATM   34  C1  UNL     1     -13.100   9.974  12.510  1.00  0.00     0.141 C 
ATOM     35  H1  UNL     1     -11.787   8.898  11.209  1.00  0.00     0.153 HD
ENDBRANCH  30  33
ENDBRANCH   1  30
TORSDOF 5
ENDMDL
