MODEL 1
REMARK VINA RESULT: -5.494489609      0.000      0.000
REMARK  8 active torsions:
REMARK  status: ('A' for Active; 'I' for Inactive)
REMARK    1  A    between atoms: C2_2  and  O1_5 
REMARK    2  A    between atoms: O1_5  and  C5_6 
REMARK       I    between atoms: C5_6  and  N1_8 
REMARK    3  A    between atoms: N1_8  and  C6_10 
REMARK    4  A    between atoms: C7_11  and  N2_12 
REMARK       I    between atoms: N3_16  and  C11_17 
REMARK    5  A    between atoms: C11_17  and  O4_19 
REMARK    6  A    between atoms: O4_19  and  C12_20 
REMARK    7  A    between atoms: C12_20  and  C13_21 
REMARK    8  A    between atoms: C13_21  and  O5_22 
ROOT
HETATM    1  C6  UNL     1      -4.172  12.365  12.849  1.00  0.00     0.152 A 
HETATM    2  C7  UNL     1      -5.166  11.439  12.472  1.00  0.00     0.151 A 
HETATM    3  N4  UNL     1      -6.329  11.950  12.890  1.00  0.00    -0.281 N 
ATOM      4  H4  UNL     1      -7.237  11.505  12.762  1.00  0.00     0.188 HD
HETATM    5  N5  UNL     1      -6.139  13.102  13.487  1.00  0.00    -0.263 N 
ATOM      6  H5  UNL     1      -6.870  13.689  13.891  1.00  0.00     0.190 HD
HETATM    7  C16 UNL     1      -4.803  13.389  13.478  1.00  0.00     0.290 A 
HETATM    8  O6  UNL     1      -4.346  14.458  13.997  1.00  0.00    -0.264 OA
ENDROOT
BRANCH   2   9
HETATM    9  N2  UNL     1      -4.935  10.213  11.782  1.00  0.00    -0.363 N 
HETATM   10  C8  UNL     1      -5.440  10.129  10.414  1.00  0.00     0.126 C 
HETATM   11  C9  UNL     1      -4.318  10.518   9.512  1.00  0.00     0.040 C 
HETATM   12  C10 UNL     1      -3.011   9.845   9.797  1.00  0.00     0.129 C 
HETATM   13  N3  UNL     1      -3.133   8.526  10.363  1.00  0.00    -0.326 N 
HETATM   14  C11 UNL     1      -2.485   7.497   9.639  1.00  0.00     0.362 C 
HETATM   15  C14 UNL     1      -3.803   8.057  11.553  1.00  0.00     0.148 C 
HETATM   16  O3  UNL     1      -2.500   6.291  10.004  1.00  0.00    -0.238 OA
HETATM   17  C15 UNL     1      -4.233   9.180  12.477  1.00  0.00     0.144 C 
BRANCH  14  18
HETATM   18  O4  UNL     1      -1.806   7.825   8.479  1.00  0.00    -0.302 OA
BRANCH  18  19
HETATM   19  C12 UNL     1      -2.229   7.538   7.183  1.00  0.00     0.206 C 
BRANCH  19  20
HETATM   20  C13 UNL     1      -3.492   6.733   7.093  1.00  0.00     0.191 C 
BRANCH  20  21
HETATM   21  O5  UNL     1      -3.116   5.388   6.986  1.00  0.00    -0.399 OA
ATOM     22  H5  UNL     1      -3.286   5.121   6.090  1.00  0.00     0.209 HD
ENDBRANCH  20  21
ENDBRANCH  19  20
ENDBRANCH  18  19
ENDBRANCH  14  18
ENDBRANCH   2   9
BRANCH   1  23
HETATM   23  N1  UNL     1      -2.807  12.190  12.590  1.00  0.00    -0.295 N 
HETATM   24  C5  UNL     1      -1.942  12.952  11.788  1.00  0.00     0.366 C 
HETATM   25  O2  UNL     1      -2.216  13.970  11.122  1.00  0.00    -0.238 OA
ATOM     26  H1  UNL     1      -2.376  11.389  13.052  1.00  0.00     0.171 HD
BRANCH  24  27
HETATM   27  O1  UNL     1      -0.578  12.584  11.673  1.00  0.00    -0.294 OA
BRANCH  27  28
HETATM   28  C2  UNL     1       0.386  12.951  12.617  1.00  0.00     0.061 C 
HETATM   29  C1  UNL     1       1.264  11.774  13.001  1.00  0.00     0.046 C 
HETATM   30  C3  UNL     1       1.188  14.090  12.023  1.00  0.00     0.046 C 
HETATM   31  C4  UNL     1      -0.222  13.463  13.907  1.00  0.00     0.046 C 
ENDBRANCH  27  28
ENDBRANCH  24  27
ENDBRANCH   1  23
TORSDOF 8
ENDMDL
MODEL 2
REMARK VINA RESULT: -5.467742319      2.862      5.219
REMARK  8 active torsions:
REMARK  status: ('A' for Active; 'I' for Inactive)
REMARK    1  A    between atoms: C2_2  and  O1_5 
REMARK    2  A    between atoms: O1_5  and  C5_6 
REMARK       I    between atoms: C5_6  and  N1_8 
REMARK    3  A    between atoms: N1_8  and  C6_10 
REMARK    4  A    between atoms: C7_11  and  N2_12 
REMARK       I    between atoms: N3_16  and  C11_17 
REMARK    5  A    between atoms: C11_17  and  O4_19 
REMARK    6  A    between atoms: O4_19  and  C12_20 
REMARK    7  A    between atoms: C12_20  and  C13_21 
REMARK    8  A    between atoms: C13_21  and  O5_22 
ROOT
HETATM    1  C6  UNL     1      -3.599   9.789  14.613  1.00  0.00     0.152 A 
HETATM    2  C7  UNL     1      -2.982  10.882  13.972  1.00  0.00     0.151 A 
HETATM    3  N4  UNL     1      -2.648  11.742  14.939  1.00  0.00    -0.281 N 
ATOM      4  H4  UNL     1      -2.182  12.636  14.785  1.00  0.00     0.188 HD
HETATM    5  N5  UNL     1      -3.001  11.277  16.113  1.00  0.00    -0.263 N 
ATOM      6  H5  UNL     1      -2.854  11.747  17.007  1.00  0.00     0.190 HD
HETATM    7  C16 UNL     1      -3.598  10.060  15.943  1.00  0.00     0.290 A 
HETATM    8  O6  UNL     1      -4.038   9.387  16.932  1.00  0.00    -0.264 OA
ENDROOT
BRANCH   2   9
HETATM    9  N2  UNL     1      -2.776  11.007  12.566  1.00  0.00    -0.363 N 
HETATM   10  C8  UNL     1      -1.420  10.760  12.082  1.00  0.00     0.126 C 
HETATM   11  C9  UNL     1      -1.358   9.327  11.677  1.00  0.00     0.040 C 
HETATM   12  C10 UNL     1      -2.485   8.863  10.807  1.00  0.00     0.129 C 
HETATM   13  N3  UNL     1      -3.045   9.887   9.962  1.00  0.00    -0.326 N 
HETATM   14  C11 UNL     1      -3.039   9.596   8.578  1.00  0.00     0.362 C 
HETATM   15  C14 UNL     1      -3.621  11.173  10.277  1.00  0.00     0.148 C 
HETATM   16  O3  UNL     1      -3.492  10.390   7.711  1.00  0.00    -0.238 OA
HETATM   17  C15 UNL     1      -3.901  11.355  11.756  1.00  0.00     0.144 C 
BRANCH  14  18
HETATM   18  O4  UNL     1      -2.513   8.389   8.153  1.00  0.00    -0.302 OA
BRANCH  18  19
HETATM   19  C12 UNL     1      -2.956   7.652   7.056  1.00  0.00     0.206 C 
BRANCH  19  20
HETATM   20  C13 UNL     1      -3.823   6.475   7.394  1.00  0.00     0.191 C 
BRANCH  20  21
HETATM   21  O5  UNL     1      -3.132   5.325   6.989  1.00  0.00    -0.399 OA
ATOM     22  H5  UNL     1      -2.817   5.485   6.107  1.00  0.00     0.209 HD
ENDBRANCH  20  21
ENDBRANCH  19  20
ENDBRANCH  18  19
ENDBRANCH  14  18
ENDBRANCH   2   9
BRANCH   1  23
HETATM   23  N1  UNL     1      -4.098   8.669  13.936  1.00  0.00    -0.295 N 
HETATM   24  C5  UNL     1      -5.398   8.139  13.916  1.00  0.00     0.366 C 
HETATM   25  O2  UNL     1      -6.406   8.565  14.513  1.00  0.00    -0.238 OA
ATOM     26  H1  UNL     1      -3.414   8.162  13.374  1.00  0.00     0.171 HD
BRANCH  24  27
HETATM   27  O1  UNL     1      -5.676   6.981  13.148  1.00  0.00    -0.294 OA
BRANCH  27  28
HETATM   28  C2  UNL     1      -6.216   7.041  11.859  1.00  0.00     0.061 C 
HETATM   29  C1  UNL     1      -5.338   6.317  10.855  1.00  0.00     0.046 C 
HETATM   30  C3  UNL     1      -7.610   6.453  11.926  1.00  0.00     0.046 C 
HETATM   31  C4  UNL     1      -6.358   8.461  11.349  1.00  0.00     0.046 C 
ENDBRANCH  27  28
ENDBRANCH  24  27
ENDBRANCH   1  23
TORSDOF 8
ENDMDL
MODEL 3
REMARK VINA RESULT: -5.462288138      2.473      7.679
REMARK  8 active torsions:
REMARK  status: ('A' for Active; 'I' for Inactive)
REMARK    1  A    between atoms: C2_2  and  O1_5 
REMARK    2  A    between atoms: O1_5  and  C5_6 
REMARK       I    between atoms: C5_6  and  N1_8 
REMARK    3  A    between atoms: N1_8  and  C6_10 
REMARK    4  A    between atoms: C7_11  and  N2_12 
REMARK       I    between atoms: N3_16  and  C11_17 
REMARK    5  A    between atoms: C11_17  and  O4_19 
REMARK    6  A    between atoms: O4_19  and  C12_20 
REMARK    7  A    between atoms: C12_20  and  C13_21 
REMARK    8  A    between atoms: C13_21  and  O5_22 
ROOT
HETATM    1  C6  UNL     1      -3.963   7.369   9.068  1.00  0.00     0.152 A 
HETATM    2  C7  UNL     1      -3.433   8.650   9.324  1.00  0.00     0.151 A 
HETATM    3  N4  UNL     1      -2.423   8.814   8.464  1.00  0.00    -0.281 N 
ATOM      4  H4  UNL     1      -1.840   9.649   8.407  1.00  0.00     0.188 HD
HETATM    5  N5  UNL     1      -2.284   7.754   7.705  1.00  0.00    -0.263 N 
ATOM      6  H5  UNL     1      -1.585   7.636   6.970  1.00  0.00     0.190 HD
HETATM    7  C16 UNL     1      -3.231   6.834   8.057  1.00  0.00     0.290 A 
HETATM    8  O6  UNL     1      -3.317   5.706   7.471  1.00  0.00    -0.264 OA
ENDROOT
BRANCH   2   9
HETATM    9  N2  UNL     1      -3.911   9.558  10.313  1.00  0.00    -0.363 N 
HETATM   10  C8  UNL     1      -3.279   9.483  11.628  1.00  0.00     0.126 C 
HETATM   11  C9  UNL     1      -2.181  10.492  11.640  1.00  0.00     0.040 C 
HETATM   12  C10 UNL     1      -2.562  11.853  11.147  1.00  0.00     0.129 C 
HETATM   13  N3  UNL     1      -3.942  12.202  11.372  1.00  0.00    -0.326 N 
HETATM   14  C11 UNL     1      -4.150  13.390  12.111  1.00  0.00     0.362 C 
HETATM   15  C14 UNL     1      -5.168  11.551  10.973  1.00  0.00     0.148 C 
HETATM   16  O3  UNL     1      -5.298  13.828  12.391  1.00  0.00    -0.238 OA
HETATM   17  C15 UNL     1      -4.955  10.461   9.940  1.00  0.00     0.144 C 
BRANCH  14  18
HETATM   18  O4  UNL     1      -3.050  14.105  12.548  1.00  0.00    -0.302 OA
BRANCH  18  19
HETATM   19  C12 UNL     1      -2.858  15.476  12.391  1.00  0.00     0.206 C 
BRANCH  19  20
HETATM   20  C13 UNL     1      -2.778  15.945  10.968  1.00  0.00     0.191 C 
BRANCH  20  21
HETATM   21  O5  UNL     1      -1.749  15.220  10.353  1.00  0.00    -0.399 OA
ATOM     22  H5  UNL     1      -0.935  15.489  10.762  1.00  0.00     0.209 HD
ENDBRANCH  20  21
ENDBRANCH  19  20
ENDBRANCH  18  19
ENDBRANCH  14  18
ENDBRANCH   2   9
BRANCH   1  23
HETATM   23  N1  UNL     1      -5.043   6.818   9.769  1.00  0.00    -0.295 N 
HETATM   24  C5  UNL     1      -5.090   6.282  11.065  1.00  0.00     0.366 C 
HETATM   25  O2  UNL     1      -4.156   6.181  11.885  1.00  0.00    -0.238 OA
ATOM     26  H1  UNL     1      -5.927   6.803   9.261  1.00  0.00     0.171 HD
BRANCH  24  27
HETATM   27  O1  UNL     1      -6.311   5.775  11.575  1.00  0.00    -0.294 OA
BRANCH  27  28
HETATM   28  C2  UNL     1      -7.191   6.550  12.337  1.00  0.00     0.061 C 
HETATM   29  C1  UNL     1      -7.173   8.003  11.899  1.00  0.00     0.046 C 
HETATM   30  C3  UNL     1      -8.567   5.932  12.202  1.00  0.00     0.046 C 
HETATM   31  C4  UNL     1      -6.848   6.548  13.812  1.00  0.00     0.046 C 
ENDBRANCH  27  28
ENDBRANCH  24  27
ENDBRANCH   1  23
TORSDOF 8
ENDMDL
MODEL 4
REMARK VINA RESULT: -5.402127676      3.998      6.626
REMARK  8 active torsions:
REMARK  status: ('A' for Active; 'I' for Inactive)
REMARK    1  A    between atoms: C2_2  and  O1_5 
REMARK    2  A    between atoms: O1_5  and  C5_6 
REMARK       I    between atoms: C5_6  and  N1_8 
REMARK    3  A    between atoms: N1_8  and  C6_10 
REMARK    4  A    between atoms: C7_11  and  N2_12 
REMARK       I    between atoms: N3_16  and  C11_17 
REMARK    5  A    between atoms: C11_17  and  O4_19 
REMARK    6  A    between atoms: O4_19  and  C12_20 
REMARK    7  A    between atoms: C12_20  and  C13_21 
REMARK    8  A    between atoms: C13_21  and  O5_22 
ROOT
HETATM    1  C6  UNL     1      -7.378   6.851  12.624  1.00  0.00     0.152 A 
HETATM    2  C7  UNL     1      -6.248   6.586  11.824  1.00  0.00     0.151 A 
HETATM    3  N4  UNL     1      -6.224   5.262  11.640  1.00  0.00    -0.281 N 
ATOM      4  H4  UNL     1      -5.518   4.765  11.098  1.00  0.00     0.188 HD
HETATM    5  N5  UNL     1      -7.234   4.692  12.252  1.00  0.00    -0.263 N 
ATOM      6  H5  UNL     1      -7.436   3.691  12.260  1.00  0.00     0.190 HD
HETATM    7  C16 UNL     1      -7.973   5.657  12.876  1.00  0.00     0.290 A 
HETATM    8  O6  UNL     1      -9.016   5.370  13.547  1.00  0.00    -0.264 OA
ENDROOT
BRANCH   2   9
HETATM    9  N2  UNL     1      -5.338   7.565  11.329  1.00  0.00    -0.363 N 
HETATM   10  C8  UNL     1      -3.954   7.458  11.783  1.00  0.00     0.126 C 
HETATM   11  C9  UNL     1      -3.219   6.668  10.753  1.00  0.00     0.040 C 
HETATM   12  C10 UNL     1      -3.438   7.108   9.339  1.00  0.00     0.129 C 
HETATM   13  N3  UNL     1      -3.715   8.513   9.190  1.00  0.00    -0.326 N 
HETATM   14  C11 UNL     1      -2.836   9.213   8.329  1.00  0.00     0.362 C 
HETATM   15  C14 UNL     1      -4.742   9.350   9.765  1.00  0.00     0.148 C 
HETATM   16  O3  UNL     1      -2.946  10.446   8.096  1.00  0.00    -0.238 OA
HETATM   17  C15 UNL     1      -5.848   8.559  10.437  1.00  0.00     0.144 C 
BRANCH  14  18
HETATM   18  O4  UNL     1      -1.810   8.517   7.716  1.00  0.00    -0.302 OA
BRANCH  18  19
HETATM   19  C12 UNL     1      -0.449   8.749   7.899  1.00  0.00     0.206 C 
BRANCH  19  20
HETATM   20  C13 UNL     1       0.124   8.185   9.165  1.00  0.00     0.191 C 
BRANCH  20  21
HETATM   21  O5  UNL     1       1.265   7.453   8.811  1.00  0.00    -0.399 OA
ATOM     22  H5  UNL     1       1.544   6.978   9.585  1.00  0.00     0.209 HD
ENDBRANCH  20  21
ENDBRANCH  19  20
ENDBRANCH  18  19
ENDBRANCH  14  18
ENDBRANCH   2   9
BRANCH   1  23
HETATM   23  N1  UNL     1      -7.752   8.134  13.043  1.00  0.00    -0.295 N 
HETATM   24  C5  UNL     1      -8.986   8.793  12.921  1.00  0.00     0.366 C 
HETATM   25  O2  UNL     1     -10.033   8.362  12.400  1.00  0.00    -0.238 OA
ATOM     26  H1  UNL     1      -7.018   8.671  13.507  1.00  0.00     0.171 HD
BRANCH  24  27
HETATM   27  O1  UNL     1      -9.137  10.107  13.428  1.00  0.00    -0.294 OA
BRANCH  27  28
HETATM   28  C2  UNL     1      -9.051  11.244  12.618  1.00  0.00     0.061 C 
HETATM   29  C1  UNL     1     -10.416  11.866  12.386  1.00  0.00     0.046 C 
HETATM   30  C3  UNL     1      -8.094  12.206  13.291  1.00  0.00     0.046 C 
HETATM   31  C4  UNL     1      -8.484  10.944  11.245  1.00  0.00     0.046 C 
ENDBRANCH  27  28
ENDBRANCH  24  27
ENDBRANCH   1  23
TORSDOF 8
ENDMDL
MODEL 5
REMARK VINA RESULT: -5.399929904      3.464      5.788
REMARK  8 active torsions:
REMARK  status: ('A' for Active; 'I' for Inactive)
REMARK    1  A    between atoms: C2_2  and  O1_5 
REMARK    2  A    between atoms: O1_5  and  C5_6 
REMARK       I    between atoms: C5_6  and  N1_8 
REMARK    3  A    between atoms: N1_8  and  C6_10 
REMARK    4  A    between atoms: C7_11  and  N2_12 
REMARK       I    between atoms: N3_16  and  C11_17 
REMARK    5  A    between atoms: C11_17  and  O4_19 
REMARK    6  A    between atoms: O4_19  and  C12_20 
REMARK    7  A    between atoms: C12_20  and  C13_21 
REMARK    8  A    between atoms: C13_21  and  O5_22 
ROOT
HETATM    1  C6  UNL     1      -2.538   8.513   8.563  1.00  0.00     0.152 A 
HETATM    2  C7  UNL     1      -3.523   7.632   9.052  1.00  0.00     0.151 A 
HETATM    3  N4  UNL     1      -3.944   6.922   8.001  1.00  0.00    -0.281 N 
ATOM      4  H4  UNL     1      -4.661   6.198   8.039  1.00  0.00     0.188 HD
HETATM    5  N5  UNL     1      -3.308   7.285   6.913  1.00  0.00    -0.263 N 
ATOM      6  H5  UNL     1      -3.450   6.891   5.982  1.00  0.00     0.190 HD
HETATM    7  C16 UNL     1      -2.423   8.277   7.231  1.00  0.00     0.290 A 
HETATM    8  O6  UNL     1      -1.674   8.811   6.350  1.00  0.00    -0.264 OA
ENDROOT
BRANCH   2   9
HETATM    9  N2  UNL     1      -3.955   7.547  10.408  1.00  0.00    -0.363 N 
HETATM   10  C8  UNL     1      -4.842   8.608  10.878  1.00  0.00     0.126 C 
HETATM   11  C9  UNL     1      -6.239   8.116  10.700  1.00  0.00     0.040 C 
HETATM   12  C10 UNL     1      -6.498   6.735  11.218  1.00  0.00     0.129 C 
HETATM   13  N3  UNL     1      -5.677   6.357  12.340  1.00  0.00    -0.326 N 
HETATM   14  C11 UNL     1      -6.385   5.959  13.498  1.00  0.00     0.362 C 
HETATM   15  C14 UNL     1      -4.242   6.308  12.498  1.00  0.00     0.148 C 
HETATM   16  O3  UNL     1      -5.811   5.601  14.561  1.00  0.00    -0.238 OA
HETATM   17  C15 UNL     1      -3.493   6.440  11.186  1.00  0.00     0.144 C 
BRANCH  14  18
HETATM   18  O4  UNL     1      -7.768   5.963  13.468  1.00  0.00    -0.302 OA
BRANCH  18  19
HETATM   19  C12 UNL     1      -8.584   4.835  13.526  1.00  0.00     0.206 C 
BRANCH  19  20
HETATM   20  C13 UNL     1      -9.385   4.569  12.286  1.00  0.00     0.191 C 
BRANCH  20  21
HETATM   21  O5  UNL     1      -8.662   3.645  11.520  1.00  0.00    -0.399 OA
ATOM     22  H5  UNL     1      -7.796   4.010  11.386  1.00  0.00     0.209 HD
ENDBRANCH  20  21
ENDBRANCH  19  20
ENDBRANCH  18  19
ENDBRANCH  14  18
ENDBRANCH   2   9
BRANCH   1  23
HETATM   23  N1  UNL     1      -1.849   9.433   9.362  1.00  0.00    -0.295 N 
HETATM   24  C5  UNL     1      -0.644   9.283  10.068  1.00  0.00     0.366 C 
HETATM   25  O2  UNL     1       0.083   8.272  10.131  1.00  0.00    -0.238 OA
ATOM     26  H1  UNL     1      -2.288  10.350   9.445  1.00  0.00     0.171 HD
BRANCH  24  27
HETATM   27  O1  UNL     1      -0.127  10.367  10.820  1.00  0.00    -0.294 OA
BRANCH  27  28
HETATM   28  C2  UNL     1      -0.768  10.872  11.956  1.00  0.00     0.061 C 
HETATM   29  C1  UNL     1      -1.547   9.790  12.682  1.00  0.00     0.046 C 
HETATM   30  C3  UNL     1       0.297  11.495  12.835  1.00  0.00     0.046 C 
HETATM   31  C4  UNL     1      -1.766  11.963  11.628  1.00  0.00     0.046 C 
ENDBRANCH  27  28
ENDBRANCH  24  27
ENDBRANCH   1  23
TORSDOF 8
ENDMDL
