MODEL 1
REMARK VINA RESULT: -5.947793149      0.000      0.000
REMARK  4 active torsions:
REMARK  status: ('A' for Active; 'I' for Inactive)
REMARK    1  A    between atoms: C2_2  and  C4_4 
REMARK       I    between atoms: C4_4  and  N1_6 
REMARK    2  A    between atoms: C10_12  and  C11_13 
REMARK    3  A    between atoms: C11_13  and  O2_14 
REMARK    4  A    between atoms: N2_16  and  O3_18 
ROOT
HETATM    1  C4  UNL     1       2.244  10.181  24.211  1.00  0.00     0.223 C 
HETATM    2  O1  UNL     1       1.798  10.939  23.288  1.00  0.00    -0.273 OA
HETATM    3  N1  UNL     1       1.395   9.366  24.988  1.00  0.00    -0.346 N 
HETATM    4  C5  UNL     1       1.821   8.481  26.049  1.00  0.00     0.131 C 
HETATM    5  C6  UNL     1       0.536   7.852  26.549  1.00  0.00     0.018 C 
HETATM    6  C7  UNL     1      -0.231   8.919  27.266  1.00  0.00     0.009 C 
HETATM    7  C8  UNL     1      -0.600   9.900  26.147  1.00  0.00     0.027 C 
HETATM    8  C9  UNL     1      -0.019   9.260  24.876  1.00  0.00     0.099 C 
HETATM    9  C10 UNL     1      -0.244   7.793  25.223  1.00  0.00     0.090 C 
ENDROOT
BRANCH   9  10
HETATM   10  C11 UNL     1       0.453   6.878  24.300  1.00  0.00     0.141 C 
HETATM   11  N2  UNL     1       0.562   7.053  23.045  1.00  0.00    -0.251 N 
ATOM     12  H2  UNL     1       0.146   7.880  22.616  1.00  0.00     0.196 HD
BRANCH  10  13
HETATM   13  O2  UNL     1       1.029   5.744  24.873  1.00  0.00    -0.348 OA
ATOM     14  H2  UNL     1       0.895   4.925  24.411  1.00  0.00     0.219 HD
ENDBRANCH  10  13
BRANCH  11  15
HETATM   15  O3  UNL     1       1.229   6.149  22.262  1.00  0.00    -0.288 OA
ATOM     16  H3  UNL     1       1.623   6.411  21.437  1.00  0.00     0.244 HD
ENDBRANCH  11  15
ENDBRANCH   9  10
BRANCH   1  17
HETATM   17  C2  UNL     1       3.716  10.210  24.416  1.00  0.00     0.070 C 
HETATM   18  C1  UNL     1       4.296  11.590  24.113  1.00  0.00     0.019 C 
HETATM   19  C3  UNL     1       4.436   9.227  23.523  1.00  0.00     0.019 C 
ENDBRANCH   1  17
TORSDOF 4
ENDMDL
MODEL 2
REMARK VINA RESULT: -5.935443201      3.195      4.036
REMARK  4 active torsions:
REMARK  status: ('A' for Active; 'I' for Inactive)
REMARK    1  A    between atoms: C2_2  and  C4_4 
REMARK       I    between atoms: C4_4  and  N1_6 
REMARK    2  A    between atoms: C10_12  and  C11_13 
REMARK    3  A    between atoms: C11_13  and  O2_14 
REMARK    4  A    between atoms: N2_16  and  O3_18 
ROOT
HETATM    1  C4  UNL     1       5.216  10.124  23.692  1.00  0.00     0.223 C 
HETATM    2  O1  UNL     1       4.444  11.134  23.587  1.00  0.00    -0.273 OA
HETATM    3  N1  UNL     1       4.720   8.807  23.784  1.00  0.00    -0.346 N 
HETATM    4  C5  UNL     1       5.526   7.613  23.904  1.00  0.00     0.131 C 
HETATM    5  C6  UNL     1       4.516   6.485  23.967  1.00  0.00     0.018 C 
HETATM    6  C7  UNL     1       3.825   6.581  25.292  1.00  0.00     0.009 C 
HETATM    7  C8  UNL     1       3.045   7.896  25.189  1.00  0.00     0.027 C 
HETATM    8  C9  UNL     1       3.354   8.410  23.774  1.00  0.00     0.099 C 
HETATM    9  C10 UNL     1       3.430   7.073  23.047  1.00  0.00     0.090 C 
ENDROOT
BRANCH   9  10
HETATM   10  C11 UNL     1       3.978   7.199  21.683  1.00  0.00     0.141 C 
HETATM   11  N2  UNL     1       4.022   8.279  21.013  1.00  0.00    -0.251 N 
ATOM     12  H2  UNL     1       3.658   9.139  21.423  1.00  0.00     0.196 HD
BRANCH  10  13
HETATM   13  O2  UNL     1       4.482   6.031  21.110  1.00  0.00    -0.348 OA
ATOM     14  H2  UNL     1       3.933   5.612  20.458  1.00  0.00     0.219 HD
ENDBRANCH  10  13
BRANCH  11  15
HETATM   15  O3  UNL     1       4.551   8.304  19.749  1.00  0.00    -0.288 OA
ATOM     16  H3  UNL     1       4.043   8.013  19.000  1.00  0.00     0.244 HD
ENDBRANCH  11  15
ENDBRANCH   9  10
BRANCH   1  17
HETATM   17  C2  UNL     1       6.672  10.423  23.712  1.00  0.00     0.070 C 
HETATM   18  C1  UNL     1       6.937  11.893  24.032  1.00  0.00     0.019 C 
HETATM   19  C3  UNL     1       7.330  10.140  22.381  1.00  0.00     0.019 C 
ENDBRANCH   1  17
TORSDOF 4
ENDMDL
MODEL 3
REMARK VINA RESULT: -5.898712141      6.162      8.083
REMARK  4 active torsions:
REMARK  status: ('A' for Active; 'I' for Inactive)
REMARK    1  A    between atoms: C2_2  and  C4_4 
REMARK       I    between atoms: C4_4  and  N1_6 
REMARK    2  A    between atoms: C10_12  and  C11_13 
REMARK    3  A    between atoms: C11_13  and  O2_14 
REMARK    4  A    between atoms: N2_16  and  O3_18 
ROOT
HETATM    1  C4  UNL     1       6.176  12.013  24.424  1.00  0.00     0.223 C 
HETATM    2  O1  UNL     1       5.586  11.005  24.938  1.00  0.00    -0.273 OA
HETATM    3  N1  UNL     1       6.036  13.313  24.952  1.00  0.00    -0.346 N 
HETATM    4  C5  UNL     1       6.669  14.504  24.431  1.00  0.00     0.131 C 
HETATM    5  C6  UNL     1       6.194  15.612  25.349  1.00  0.00     0.018 C 
HETATM    6  C7  UNL     1       4.740  15.831  25.065  1.00  0.00     0.009 C 
HETATM    7  C8  UNL     1       4.088  14.527  25.538  1.00  0.00     0.027 C 
HETATM    8  C9  UNL     1       5.259  13.693  26.082  1.00  0.00     0.099 C 
HETATM    9  C10 UNL     1       6.102  14.820  26.666  1.00  0.00     0.090 C 
ENDROOT
BRANCH   9  10
HETATM   10  C11 UNL     1       7.455  14.376  27.051  1.00  0.00     0.141 C 
HETATM   11  N2  UNL     1       7.723  13.281  27.640  1.00  0.00    -0.251 N 
ATOM     12  H2  UNL     1       6.965  12.641  27.877  1.00  0.00     0.196 HD
BRANCH  10  13
HETATM   13  O2  UNL     1       8.503  15.241  26.731  1.00  0.00    -0.348 OA
ATOM     14  H2  UNL     1       8.509  16.078  27.181  1.00  0.00     0.219 HD
ENDBRANCH  10  13
BRANCH  11  15
HETATM   15  O3  UNL     1       9.013  12.949  27.960  1.00  0.00    -0.288 OA
ATOM     16  H3  UNL     1       9.432  12.187  27.576  1.00  0.00     0.244 HD
ENDBRANCH  11  15
ENDBRANCH   9  10
BRANCH   1  17
HETATM   17  C2  UNL     1       7.020  11.730  23.234  1.00  0.00     0.070 C 
HETATM   18  C1  UNL     1       6.334  10.753  22.280  1.00  0.00     0.019 C 
HETATM   19  C3  UNL     1       8.347  11.116  23.609  1.00  0.00     0.019 C 
ENDBRANCH   1  17
TORSDOF 4
ENDMDL
MODEL 4
REMARK VINA RESULT: -5.892023841      2.559      3.355
REMARK  4 active torsions:
REMARK  status: ('A' for Active; 'I' for Inactive)
REMARK    1  A    between atoms: C2_2  and  C4_4 
REMARK       I    between atoms: C4_4  and  N1_6 
REMARK    2  A    between atoms: C10_12  and  C11_13 
REMARK    3  A    between atoms: C11_13  and  O2_14 
REMARK    4  A    between atoms: N2_16  and  O3_18 
ROOT
HETATM    1  C4  UNL     1       3.073  11.175  23.820  1.00  0.00     0.223 C 
HETATM    2  O1  UNL     1       2.237  11.808  23.094  1.00  0.00    -0.273 OA
HETATM    3  N1  UNL     1       3.048   9.770  23.943  1.00  0.00    -0.346 N 
HETATM    4  C5  UNL     1       3.957   8.980  24.742  1.00  0.00     0.131 C 
HETATM    5  C6  UNL     1       3.500   7.552  24.527  1.00  0.00     0.018 C 
HETATM    6  C7  UNL     1       2.186   7.396  25.228  1.00  0.00     0.009 C 
HETATM    7  C8  UNL     1       1.249   8.308  24.427  1.00  0.00     0.027 C 
HETATM    8  C9  UNL     1       2.137   8.878  23.311  1.00  0.00     0.099 C 
HETATM    9  C10 UNL     1       3.023   7.661  23.067  1.00  0.00     0.090 C 
ENDROOT
BRANCH   9  10
HETATM   10  C11 UNL     1       4.183   7.966  22.208  1.00  0.00     0.141 C 
HETATM   11  N2  UNL     1       4.183   8.812  21.258  1.00  0.00    -0.251 N 
ATOM     12  H2  UNL     1       3.332   9.334  21.050  1.00  0.00     0.196 HD
BRANCH  10  13
HETATM   13  O2  UNL     1       5.356   7.261  22.482  1.00  0.00    -0.348 OA
ATOM     14  H2  UNL     1       6.163   7.655  22.174  1.00  0.00     0.219 HD
ENDBRANCH  10  13
BRANCH  11  15
HETATM   15  O3  UNL     1       5.310   9.032  20.510  1.00  0.00    -0.288 OA
ATOM     16  H3  UNL     1       5.433   8.601  19.672  1.00  0.00     0.244 HD
ENDBRANCH  11  15
ENDBRANCH   9  10
BRANCH   1  17
HETATM   17  C2  UNL     1       4.076  12.012  24.530  1.00  0.00     0.070 C 
HETATM   18  C1  UNL     1       3.637  13.473  24.601  1.00  0.00     0.019 C 
HETATM   19  C3  UNL     1       5.422  11.993  23.844  1.00  0.00     0.019 C 
ENDBRANCH   1  17
TORSDOF 4
ENDMDL
MODEL 5
REMARK VINA RESULT: -5.778953090      1.109      1.449
REMARK  4 active torsions:
REMARK  status: ('A' for Active; 'I' for Inactive)
REMARK    1  A    between atoms: C2_2  and  C4_4 
REMARK       I    between atoms: C4_4  and  N1_6 
REMARK    2  A    between atoms: C10_12  and  C11_13 
REMARK    3  A    between atoms: C11_13  and  O2_14 
REMARK    4  A    between atoms: N2_16  and  O3_18 
ROOT
HETATM    1  C4  UNL     1       2.354  10.762  24.058  1.00  0.00     0.223 C 
HETATM    2  O1  UNL     1       2.192  11.203  22.871  1.00  0.00    -0.273 OA
HETATM    3  N1  UNL     1       1.298  10.187  24.795  1.00  0.00    -0.346 N 
HETATM    4  C5  UNL     1       1.399   9.665  26.139  1.00  0.00     0.131 C 
HETATM    5  C6  UNL     1       0.001   9.174  26.455  1.00  0.00     0.018 C 
HETATM    6  C7  UNL     1      -0.870  10.383  26.610  1.00  0.00     0.009 C 
HETATM    7  C8  UNL     1      -0.897  10.981  25.198  1.00  0.00     0.027 C 
HETATM    8  C9  UNL     1      -0.046  10.013  24.361  1.00  0.00     0.099 C 
HETATM    9  C10 UNL     1      -0.422   8.707  25.050  1.00  0.00     0.090 C 
ENDROOT
BRANCH   9  10
HETATM   10  C11 UNL     1       0.440   7.581  24.643  1.00  0.00     0.141 C 
HETATM   11  N2  UNL     1       0.826   6.645  25.411  1.00  0.00    -0.251 N 
ATOM     12  H2  UNL     1       0.535   6.645  26.389  1.00  0.00     0.196 HD
BRANCH  10  13
HETATM   13  O2  UNL     1       0.844   7.566  23.307  1.00  0.00    -0.348 OA
ATOM     14  H2  UNL     1       1.677   7.147  23.126  1.00  0.00     0.219 HD
ENDBRANCH  10  13
BRANCH  11  15
HETATM   15  O3  UNL     1       1.628   5.636  24.946  1.00  0.00    -0.288 OA
ATOM     16  H3  UNL     1       1.861   5.580  24.026  1.00  0.00     0.244 HD
ENDBRANCH  11  15
ENDBRANCH   9  10
BRANCH   1  17
HETATM   17  C2  UNL     1       3.726  10.892  24.613  1.00  0.00     0.070 C 
HETATM   18  C1  UNL     1       4.327  12.263  24.307  1.00  0.00     0.019 C 
HETATM   19  C3  UNL     1       4.673   9.862  24.043  1.00  0.00     0.019 C 
ENDBRANCH   1  17
TORSDOF 4
ENDMDL
