MODEL 1
REMARK VINA RESULT: -9.285941582      0.000      0.000
REMARK  6 active torsions:
REMARK  status: ('A' for Active; 'I' for Inactive)
REMARK    1  A    between atoms: N1_1  and  O1_4 
REMARK    2  A    between atoms: O1_4  and  C1_5 
REMARK    3  A    between atoms: C2_7  and  C3_8 
REMARK    4  A    between atoms: C3_8  and  C4_9 
REMARK    5  A    between atoms: C16_22  and  C17_23 
REMARK    6  A    between atoms: C17_23  and  C18_24 
ROOT
HETATM    1  C4  UNL     1       3.168  10.793  23.525  1.00  0.00     0.024 C 
HETATM    2  C5  UNL     1       4.442  11.562  23.771  1.00  0.00    -0.004 C 
HETATM    3  C6  UNL     1       4.447  12.466  24.956  1.00  0.00     0.005 C 
HETATM    4  C7  UNL     1       5.142  13.785  24.586  1.00  0.00     0.000 C 
HETATM    5  C8  UNL     1       6.451  13.852  25.292  1.00  0.00     0.000 C 
HETATM    6  C9  UNL     1       7.600  13.549  24.385  1.00  0.00     0.000 C 
HETATM    7  C10 UNL     1       7.344  12.362  23.474  1.00  0.00     0.000 C 
HETATM    8  C11 UNL     1       6.902  11.179  24.243  1.00  0.00     0.005 C 
HETATM    9  C12 UNL     1       5.585  10.603  23.948  1.00  0.00    -0.007 C 
HETATM   10  C13 UNL     1       5.641   9.762  22.696  1.00  0.00     0.039 C 
HETATM   11  C14 UNL     1       4.515   8.809  22.702  1.00  0.00     0.151 A 
HETATM   12  O3  UNL     1       3.915   8.445  23.987  1.00  0.00    -0.375 OA
HETATM   13  C15 UNL     1       3.291   9.367  23.209  1.00  0.00     0.155 A 
ENDROOT
BRANCH   1  14
HETATM   14  C3  UNL     1       2.136  11.048  24.589  1.00  0.00     0.040 C 
BRANCH  14  15
HETATM   15  C2  UNL     1       0.749  10.665  24.222  1.00  0.00     0.134 C 
HETATM   16  O2  UNL     1       0.012   9.924  25.130  1.00  0.00    -0.353 OA
HETATM   17  C1  UNL     1      -0.345  11.114  25.760  1.00  0.00     0.295 C 
HETATM   18  C16 UNL     1      -0.254  11.795  24.425  1.00  0.00     0.081 C 
BRANCH  17  19
HETATM   19  O1  UNL     1      -1.675  11.099  26.216  1.00  0.00    -0.254 OA
BRANCH  19  20
HETATM   20  N1  UNL     1      -1.695  10.779  27.513  1.00  0.00    -0.308 N 
ATOM     21  H12 UNL     1      -0.939  10.976  28.168  1.00  0.00     0.184 HD
ATOM     22  H11 UNL     1      -2.577  10.316  27.732  1.00  0.00     0.184 HD
ENDBRANCH  19  20
ENDBRANCH  17  19
BRANCH  18  23
HETATM   23  C17 UNL     1      -1.519  11.626  23.648  1.00  0.00     0.111 C 
BRANCH  23  24
HETATM   24  C18 UNL     1      -1.622  12.526  22.494  1.00  0.00     0.231 C 
HETATM   25  N2  UNL     1      -0.496  12.852  21.704  1.00  0.00    -0.062 NA
HETATM   26  O4  UNL     1      -2.732  13.019  22.199  1.00  0.00    -0.277 OA
ENDBRANCH  23  24
ENDBRANCH  18  23
ENDBRANCH  14  15
ENDBRANCH   1  14
TORSDOF 6
ENDMDL
MODEL 2
REMARK VINA RESULT: -8.883143687      5.800      9.113
REMARK  6 active torsions:
REMARK  status: ('A' for Active; 'I' for Inactive)
REMARK    1  A    between atoms: N1_1  and  O1_4 
REMARK    2  A    between atoms: O1_4  and  C1_5 
REMARK    3  A    between atoms: C2_7  and  C3_8 
REMARK    4  A    between atoms: C3_8  and  C4_9 
REMARK    5  A    between atoms: C16_22  and  C17_23 
REMARK    6  A    between atoms: C17_23  and  C18_24 
ROOT
HETATM    1  C4  UNL     1       6.753  13.972  24.610  1.00  0.00     0.024 C 
HETATM    2  C5  UNL     1       5.767  12.897  24.230  1.00  0.00    -0.004 C 
HETATM    3  C6  UNL     1       6.251  11.491  24.335  1.00  0.00     0.005 C 
HETATM    4  C7  UNL     1       5.759  10.691  23.118  1.00  0.00     0.000 C 
HETATM    5  C8  UNL     1       4.721   9.723  23.569  1.00  0.00     0.000 C 
HETATM    6  C9  UNL     1       3.338  10.176  23.227  1.00  0.00     0.000 C 
HETATM    7  C10 UNL     1       3.106  11.650  23.509  1.00  0.00     0.000 C 
HETATM    8  C11 UNL     1       3.491  12.000  24.894  1.00  0.00     0.005 C 
HETATM    9  C12 UNL     1       4.543  13.002  25.096  1.00  0.00    -0.007 C 
HETATM   10  C13 UNL     1       3.996  14.395  24.900  1.00  0.00     0.039 C 
HETATM   11  C14 UNL     1       4.872  15.361  25.590  1.00  0.00     0.151 A 
HETATM   12  O3  UNL     1       5.704  14.884  26.697  1.00  0.00    -0.375 OA
HETATM   13  C15 UNL     1       6.272  15.053  25.475  1.00  0.00     0.155 A 
ENDROOT
BRANCH   1  14
HETATM   14  C3  UNL     1       8.057  13.401  25.095  1.00  0.00     0.040 C 
BRANCH  14  15
HETATM   15  C2  UNL     1       8.981  14.385  25.712  1.00  0.00     0.134 C 
HETATM   16  O2  UNL     1       8.941  14.550  27.086  1.00  0.00    -0.353 OA
HETATM   17  C1  UNL     1       9.806  13.465  27.208  1.00  0.00     0.295 C 
HETATM   18  C16 UNL     1      10.398  13.845  25.881  1.00  0.00     0.081 C 
BRANCH  17  19
HETATM   19  O1  UNL     1      10.748  13.646  28.237  1.00  0.00    -0.254 OA
BRANCH  19  20
HETATM   20  N1  UNL     1      10.424  12.868  29.274  1.00  0.00    -0.308 N 
ATOM     21  H12 UNL     1      10.876  11.980  29.493  1.00  0.00     0.184 HD
ATOM     22  H11 UNL     1       9.666  13.303  29.799  1.00  0.00     0.184 HD
ENDBRANCH  19  20
ENDBRANCH  17  19
BRANCH  18  23
HETATM   23  C17 UNL     1      11.434  14.910  26.041  1.00  0.00     0.111 C 
BRANCH  23  24
HETATM   24  C18 UNL     1      12.802  14.437  25.795  1.00  0.00     0.231 C 
HETATM   25  N2  UNL     1      13.888  14.855  26.598  1.00  0.00    -0.062 NA
HETATM   26  O4  UNL     1      13.015  13.644  24.853  1.00  0.00    -0.277 OA
ENDBRANCH  23  24
ENDBRANCH  18  23
ENDBRANCH  14  15
ENDBRANCH   1  14
TORSDOF 6
ENDMDL
MODEL 3
REMARK VINA RESULT: -8.832485416      1.575      1.824
REMARK  6 active torsions:
REMARK  status: ('A' for Active; 'I' for Inactive)
REMARK    1  A    between atoms: N1_1  and  O1_4 
REMARK    2  A    between atoms: O1_4  and  C1_5 
REMARK    3  A    between atoms: C2_7  and  C3_8 
REMARK    4  A    between atoms: C3_8  and  C4_9 
REMARK    5  A    between atoms: C16_22  and  C17_23 
REMARK    6  A    between atoms: C17_23  and  C18_24 
ROOT
HETATM    1  C4  UNL     1       4.248  11.124  23.626  1.00  0.00     0.024 C 
HETATM    2  C5  UNL     1       5.201  12.223  24.020  1.00  0.00    -0.004 C 
HETATM    3  C6  UNL     1       4.844  12.997  25.244  1.00  0.00     0.005 C 
HETATM    4  C7  UNL     1       5.122  14.489  25.000  1.00  0.00     0.000 C 
HETATM    5  C8  UNL     1       6.293  14.899  25.823  1.00  0.00     0.000 C 
HETATM    6  C9  UNL     1       7.540  15.027  25.008  1.00  0.00     0.000 C 
HETATM    7  C10 UNL     1       7.727  13.888  24.022  1.00  0.00     0.000 C 
HETATM    8  C11 UNL     1       7.620  12.574  24.690  1.00  0.00     0.005 C 
HETATM    9  C12 UNL     1       6.570  11.648  24.252  1.00  0.00    -0.007 C 
HETATM   10  C13 UNL     1       6.970  10.958  22.970  1.00  0.00     0.039 C 
HETATM   11  C14 UNL     1       6.197   9.710  22.831  1.00  0.00     0.151 A 
HETATM   12  O3  UNL     1       5.650   9.087  24.039  1.00  0.00    -0.375 OA
HETATM   13  C15 UNL     1       4.827   9.830  23.254  1.00  0.00     0.155 A 
ENDROOT
BRANCH   1  14
HETATM   14  C3  UNL     1       3.116  10.975  24.605  1.00  0.00     0.040 C 
BRANCH  14  15
HETATM   15  C2  UNL     1       1.857  10.439  24.030  1.00  0.00     0.134 C 
HETATM   16  O2  UNL     1       1.558   9.103  24.236  1.00  0.00    -0.353 OA
HETATM   17  C1  UNL     1       1.002   9.451  25.464  1.00  0.00     0.295 C 
HETATM   18  C16 UNL     1       0.628  10.778  24.869  1.00  0.00     0.081 C 
BRANCH  17  19
HETATM   19  O1  UNL     1      -0.151   8.702  25.761  1.00  0.00    -0.254 OA
BRANCH  19  20
HETATM   20  N1  UNL     1       0.203   7.567  26.370  1.00  0.00    -0.308 N 
ATOM     21  H12 UNL     1      -0.303   7.148  27.150  1.00  0.00     0.184 HD
ATOM     22  H11 UNL     1       1.046   7.197  25.931  1.00  0.00     0.184 HD
ENDBRANCH  19  20
ENDBRANCH  17  19
BRANCH  18  23
HETATM   23  C17 UNL     1      -0.659  10.686  24.118  1.00  0.00     0.111 C 
BRANCH  23  24
HETATM   24  C18 UNL     1      -1.078  11.957  23.516  1.00  0.00     0.231 C 
HETATM   25  N2  UNL     1      -2.142  12.025  22.588  1.00  0.00    -0.062 NA
HETATM   26  O4  UNL     1      -0.480  13.009  23.830  1.00  0.00    -0.277 OA
ENDBRANCH  23  24
ENDBRANCH  18  23
ENDBRANCH  14  15
ENDBRANCH   1  14
TORSDOF 6
ENDMDL
MODEL 4
REMARK VINA RESULT: -8.716517710      4.014      6.844
REMARK  6 active torsions:
REMARK  status: ('A' for Active; 'I' for Inactive)
REMARK    1  A    between atoms: N1_1  and  O1_4 
REMARK    2  A    between atoms: O1_4  and  C1_5 
REMARK    3  A    between atoms: C2_7  and  C3_8 
REMARK    4  A    between atoms: C3_8  and  C4_9 
REMARK    5  A    between atoms: C16_22  and  C17_23 
REMARK    6  A    between atoms: C17_23  and  C18_24 
ROOT
HETATM    1  C4  UNL     1       6.306  13.423  24.356  1.00  0.00     0.024 C 
HETATM    2  C5  UNL     1       4.799  13.424  24.319  1.00  0.00    -0.004 C 
HETATM    3  C6  UNL     1       4.137  12.091  24.417  1.00  0.00     0.005 C 
HETATM    4  C7  UNL     1       2.961  12.033  23.429  1.00  0.00     0.000 C 
HETATM    5  C8  UNL     1       1.687  12.044  24.199  1.00  0.00     0.000 C 
HETATM    6  C9  UNL     1       1.020  13.382  24.171  1.00  0.00     0.000 C 
HETATM    7  C10 UNL     1       1.985  14.535  24.379  1.00  0.00     0.000 C 
HETATM    8  C11 UNL     1       2.807  14.337  25.592  1.00  0.00     0.005 C 
HETATM    9  C12 UNL     1       4.264  14.260  25.447  1.00  0.00    -0.007 C 
HETATM   10  C13 UNL     1       4.855  15.639  25.278  1.00  0.00     0.039 C 
HETATM   11  C14 UNL     1       6.282  15.604  25.650  1.00  0.00     0.151 A 
HETATM   12  O3  UNL     1       6.743  14.548  26.554  1.00  0.00    -0.375 OA
HETATM   13  C15 UNL     1       6.960  14.410  25.220  1.00  0.00     0.155 A 
ENDROOT
BRANCH   1  14
HETATM   14  C3  UNL     1       6.869  12.042  24.551  1.00  0.00     0.040 C 
BRANCH  14  15
HETATM   15  C2  UNL     1       7.229  11.329  23.299  1.00  0.00     0.134 C 
HETATM   16  O2  UNL     1       8.409  10.604  23.274  1.00  0.00    -0.353 OA
HETATM   17  C1  UNL     1       7.724   9.533  23.841  1.00  0.00     0.295 C 
HETATM   18  C16 UNL     1       6.487  10.007  23.133  1.00  0.00     0.081 C 
BRANCH  17  19
HETATM   19  O1  UNL     1       8.144   8.295  23.322  1.00  0.00    -0.254 OA
BRANCH  19  20
HETATM   20  N1  UNL     1       8.578   7.521  24.321  1.00  0.00    -0.308 N 
ATOM     21  H12 UNL     1       9.186   7.840  25.075  1.00  0.00     0.184 HD
ATOM     22  H11 UNL     1       8.207   6.579  24.203  1.00  0.00     0.184 HD
ENDBRANCH  19  20
ENDBRANCH  17  19
BRANCH  18  23
HETATM   23  C17 UNL     1       6.450   9.509  21.725  1.00  0.00     0.111 C 
BRANCH  23  24
HETATM   24  C18 UNL     1       5.111   9.101  21.284  1.00  0.00     0.231 C 
HETATM   25  N2  UNL     1       4.081   8.811  22.208  1.00  0.00    -0.062 NA
HETATM   26  O4  UNL     1       4.872   9.007  20.061  1.00  0.00    -0.277 OA
ENDBRANCH  23  24
ENDBRANCH  18  23
ENDBRANCH  14  15
ENDBRANCH   1  14
TORSDOF 6
ENDMDL
MODEL 5
REMARK VINA RESULT: -8.516463261      4.452      7.272
REMARK  6 active torsions:
REMARK  status: ('A' for Active; 'I' for Inactive)
REMARK    1  A    between atoms: N1_1  and  O1_4 
REMARK    2  A    between atoms: O1_4  and  C1_5 
REMARK    3  A    between atoms: C2_7  and  C3_8 
REMARK    4  A    between atoms: C3_8  and  C4_9 
REMARK    5  A    between atoms: C16_22  and  C17_23 
REMARK    6  A    between atoms: C17_23  and  C18_24 
ROOT
HETATM    1  C4  UNL     1       7.261  11.402  24.129  1.00  0.00     0.024 C 
HETATM    2  C5  UNL     1       5.861  10.854  24.235  1.00  0.00    -0.004 C 
HETATM    3  C6  UNL     1       4.766  11.742  23.749  1.00  0.00     0.005 C 
HETATM    4  C7  UNL     1       3.579  11.665  24.722  1.00  0.00     0.000 C 
HETATM    5  C8  UNL     1       2.460  10.942  24.057  1.00  0.00     0.000 C 
HETATM    6  C9  UNL     1       2.330   9.533  24.541  1.00  0.00     0.000 C 
HETATM    7  C10 UNL     1       3.663   8.819  24.665  1.00  0.00     0.000 C 
HETATM    8  C11 UNL     1       4.446   8.918  23.414  1.00  0.00     0.005 C 
HETATM    9  C12 UNL     1       5.758   9.571  23.458  1.00  0.00    -0.007 C 
HETATM   10  C13 UNL     1       6.799   8.638  24.029  1.00  0.00     0.039 C 
HETATM   11  C14 UNL     1       8.137   9.083  23.598  1.00  0.00     0.151 A 
HETATM   12  O3  UNL     1       8.247   9.895  22.384  1.00  0.00    -0.375 OA
HETATM   13  C15 UNL     1       8.295  10.512  23.593  1.00  0.00     0.155 A 
ENDROOT
BRANCH   1  14
HETATM   14  C3  UNL     1       7.292  12.758  23.478  1.00  0.00     0.040 C 
BRANCH  14  15
HETATM   15  C2  UNL     1       7.878  13.839  24.310  1.00  0.00     0.134 C 
HETATM   16  O2  UNL     1       7.189  15.037  24.409  1.00  0.00    -0.353 OA
HETATM   17  C1  UNL     1       6.432  14.478  25.435  1.00  0.00     0.295 C 
HETATM   18  C16 UNL     1       7.626  13.644  25.802  1.00  0.00     0.081 C 
BRANCH  17  19
HETATM   19  O1  UNL     1       6.147  15.405  26.454  1.00  0.00    -0.254 OA
BRANCH  19  20
HETATM   20  N1  UNL     1       4.915  15.891  26.278  1.00  0.00    -0.308 N 
ATOM     21  H12 UNL     1       4.421  15.904  25.386  1.00  0.00     0.184 HD
ATOM     22  H11 UNL     1       4.560  16.240  27.169  1.00  0.00     0.184 HD
ENDBRANCH  19  20
ENDBRANCH  17  19
BRANCH  18  23
HETATM   23  C17 UNL     1       8.565  14.408  26.677  1.00  0.00     0.111 C 
BRANCH  23  24
HETATM   24  C18 UNL     1       9.853  13.733  26.882  1.00  0.00     0.231 C 
HETATM   25  N2  UNL     1      10.817  13.643  25.852  1.00  0.00    -0.062 NA
HETATM   26  O4  UNL     1      10.106  13.223  27.995  1.00  0.00    -0.277 OA
ENDBRANCH  23  24
ENDBRANCH  18  23
ENDBRANCH  14  15
ENDBRANCH   1  14
TORSDOF 6
ENDMDL
