MODEL 1
REMARK VINA RESULT: -7.742712245      0.000      0.000
REMARK  4 active torsions:
REMARK  status: ('A' for Active; 'I' for Inactive)
REMARK    1  A    between atoms: O1_2  and  C2_3 
REMARK    2  A    between atoms: C3_4  and  O2_5 
REMARK    3  A    between atoms: C5_9  and  C6_10 
REMARK    4  A    between atoms: C6_10  and  O4_13 
ROOT
HETATM    1  C2  UNL     1       5.887  10.777  23.565  1.00  0.00     0.163 C 
HETATM    2  C3  UNL     1       4.875   9.741  24.066  1.00  0.00     0.177 C 
HETATM    3  C4  UNL     1       3.548  10.096  23.433  1.00  0.00     0.162 C 
HETATM    4  O3  UNL     1       2.673   9.035  23.374  1.00  0.00    -0.374 OA
HETATM    5  C5  UNL     1       2.228   8.565  24.573  1.00  0.00     0.155 C 
HETATM    6  C9  UNL     1       2.031   9.572  25.642  1.00  0.00     0.036 C 
HETATM    7  C10 UNL     1       1.969  10.988  25.173  1.00  0.00     0.015 C 
HETATM    8  C11 UNL     1       2.934  11.326  24.084  1.00  0.00    -0.011 C 
HETATM    9  C12 UNL     1       2.167  12.084  23.011  1.00  0.00     0.018 C 
HETATM   10  C13 UNL     1       4.077  12.137  24.632  1.00  0.00     0.010 C 
HETATM   11  C14 UNL     1       3.803  13.601  24.712  1.00  0.00     0.013 C 
HETATM   12  C15 UNL     1       5.210  14.197  24.825  1.00  0.00     0.079 C 
HETATM   13  C16 UNL     1       6.123  13.153  24.285  1.00  0.00     0.134 C 
HETATM   14  O5  UNL     1       7.335  13.210  24.376  1.00  0.00    -0.297 OA
HETATM   15  C17 UNL     1       5.269  12.123  23.664  1.00  0.00     0.091 C 
ENDROOT
BRANCH   5  16
HETATM   16  C6  UNL     1       0.999   7.711  24.312  1.00  0.00     0.076 C 
HETATM   17  C7  UNL     1       1.141   6.837  23.109  1.00  0.00     0.048 C 
HETATM   18  C8  UNL     1       0.690   6.818  25.503  1.00  0.00     0.048 C 
BRANCH  16  19
HETATM   19  O4  UNL     1      -0.129   8.509  24.114  1.00  0.00    -0.388 OA
ATOM     20  H4  UNL     1      -0.398   8.496  23.203  1.00  0.00     0.210 HD
ENDBRANCH  16  19
ENDBRANCH   5  16
BRANCH   2  21
HETATM   21  O2  UNL     1       5.218   8.464  23.652  1.00  0.00    -0.390 OA
ATOM     22  H2  UNL     1       4.832   7.804  24.217  1.00  0.00     0.210 HD
ENDBRANCH   2  21
BRANCH   1  23
HETATM   23  O1  UNL     1       7.102  10.651  24.194  1.00  0.00    -0.387 OA
HETATM   24  C1  UNL     1       8.027  10.066  23.331  1.00  0.00     0.202 C 
ENDBRANCH   1  23
TORSDOF 4
ENDMDL
MODEL 2
REMARK VINA RESULT: -7.616826694      0.832      1.095
REMARK  4 active torsions:
REMARK  status: ('A' for Active; 'I' for Inactive)
REMARK    1  A    between atoms: O1_2  and  C2_3 
REMARK    2  A    between atoms: C3_4  and  O2_5 
REMARK    3  A    between atoms: C5_9  and  C6_10 
REMARK    4  A    between atoms: C6_10  and  O4_13 
ROOT
HETATM    1  C2  UNL     1       5.984  10.655  23.547  1.00  0.00     0.163 C 
HETATM    2  C3  UNL     1       5.091   9.539  24.098  1.00  0.00     0.177 C 
HETATM    3  C4  UNL     1       3.723   9.741  23.485  1.00  0.00     0.162 C 
HETATM    4  O3  UNL     1       2.958   8.597  23.474  1.00  0.00    -0.374 OA
HETATM    5  C5  UNL     1       2.585   8.120  24.695  1.00  0.00     0.155 C 
HETATM    6  C9  UNL     1       2.309   9.134  25.740  1.00  0.00     0.036 C 
HETATM    7  C10 UNL     1       2.096  10.522  25.235  1.00  0.00     0.015 C 
HETATM    8  C11 UNL     1       3.001  10.923  24.116  1.00  0.00    -0.011 C 
HETATM    9  C12 UNL     1       2.142  11.568  23.039  1.00  0.00     0.018 C 
HETATM   10  C13 UNL     1       4.068  11.859  24.617  1.00  0.00     0.010 C 
HETATM   11  C14 UNL     1       3.650  13.290  24.663  1.00  0.00     0.013 C 
HETATM   12  C15 UNL     1       4.993  14.026  24.728  1.00  0.00     0.079 C 
HETATM   13  C16 UNL     1       5.996  13.063  24.197  1.00  0.00     0.134 C 
HETATM   14  O5  UNL     1       7.197  13.242  24.260  1.00  0.00    -0.297 OA
HETATM   15  C17 UNL     1       5.237  11.935  23.624  1.00  0.00     0.091 C 
ENDROOT
BRANCH   5  16
HETATM   16  C6  UNL     1       1.443   7.141  24.484  1.00  0.00     0.076 C 
HETATM   17  C7  UNL     1       0.180   7.564  25.161  1.00  0.00     0.048 C 
HETATM   18  C8  UNL     1       1.141   6.962  23.005  1.00  0.00     0.048 C 
BRANCH  16  19
HETATM   19  O4  UNL     1       1.773   5.877  24.975  1.00  0.00    -0.388 OA
ATOM     20  H4  UNL     1       2.661   5.641  24.736  1.00  0.00     0.210 HD
ENDBRANCH  16  19
ENDBRANCH   5  16
BRANCH   2  21
HETATM   21  O2  UNL     1       5.552   8.290  23.712  1.00  0.00    -0.390 OA
ATOM     22  H2  UNL     1       6.425   8.346  23.341  1.00  0.00     0.210 HD
ENDBRANCH   2  21
BRANCH   1  23
HETATM   23  O1  UNL     1       7.218  10.668  24.153  1.00  0.00    -0.387 OA
HETATM   24  C1  UNL     1       8.173  10.118  23.301  1.00  0.00     0.202 C 
ENDBRANCH   1  23
TORSDOF 4
ENDMDL
MODEL 3
REMARK VINA RESULT: -7.436412107      1.093      1.254
REMARK  4 active torsions:
REMARK  status: ('A' for Active; 'I' for Inactive)
REMARK    1  A    between atoms: O1_2  and  C2_3 
REMARK    2  A    between atoms: C3_4  and  O2_5 
REMARK    3  A    between atoms: C5_9  and  C6_10 
REMARK    4  A    between atoms: C6_10  and  O4_13 
ROOT
HETATM    1  C2  UNL     1       6.039   9.305  23.695  1.00  0.00     0.163 C 
HETATM    2  C3  UNL     1       4.855   8.626  24.392  1.00  0.00     0.177 C 
HETATM    3  C4  UNL     1       3.605   9.139  23.712  1.00  0.00     0.162 C 
HETATM    4  O3  UNL     1       2.522   8.304  23.863  1.00  0.00    -0.374 OA
HETATM    5  C5  UNL     1       2.046   8.171  25.132  1.00  0.00     0.155 C 
HETATM    6  C9  UNL     1       2.120   9.377  25.991  1.00  0.00     0.036 C 
HETATM    7  C10 UNL     1       2.339  10.661  25.261  1.00  0.00     0.015 C 
HETATM    8  C11 UNL     1       3.300  10.573  24.121  1.00  0.00    -0.011 C 
HETATM    9  C12 UNL     1       2.661  11.268  22.928  1.00  0.00     0.018 C 
HETATM   10  C13 UNL     1       4.615  11.201  24.497  1.00  0.00     0.010 C 
HETATM   11  C14 UNL     1       4.663  12.678  24.298  1.00  0.00     0.013 C 
HETATM   12  C15 UNL     1       6.169  12.962  24.285  1.00  0.00     0.079 C 
HETATM   13  C16 UNL     1       6.812  11.663  23.947  1.00  0.00     0.134 C 
HETATM   14  O5  UNL     1       8.010  11.469  24.018  1.00  0.00    -0.297 OA
HETATM   15  C17 UNL     1       5.729  10.748  23.540  1.00  0.00     0.091 C 
ENDROOT
BRANCH   5  16
HETATM   16  C6  UNL     1       0.652   7.574  25.048  1.00  0.00     0.076 C 
HETATM   17  C7  UNL     1       0.587   6.363  24.175  1.00  0.00     0.048 C 
HETATM   18  C8  UNL     1       0.139   7.183  26.424  1.00  0.00     0.048 C 
BRANCH  16  19
HETATM   19  O4  UNL     1      -0.258   8.502  24.537  1.00  0.00    -0.388 OA
ATOM     20  H4  UNL     1      -0.098   8.661  23.614  1.00  0.00     0.210 HD
ENDBRANCH  16  19
ENDBRANCH   5  16
BRANCH   2  21
HETATM   21  O2  UNL     1       4.897   7.251  24.227  1.00  0.00    -0.390 OA
ATOM     22  H2  UNL     1       5.724   6.893  24.531  1.00  0.00     0.210 HD
ENDBRANCH   2  21
BRANCH   1  23
HETATM   23  O1  UNL     1       7.228   9.034  24.329  1.00  0.00    -0.387 OA
HETATM   24  C1  UNL     1       7.939   8.070  23.616  1.00  0.00     0.202 C 
ENDBRANCH   1  23
TORSDOF 4
ENDMDL
MODEL 4
REMARK VINA RESULT: -7.359277038      2.537      5.696
REMARK  4 active torsions:
REMARK  status: ('A' for Active; 'I' for Inactive)
REMARK    1  A    between atoms: O1_2  and  C2_3 
REMARK    2  A    between atoms: C3_4  and  O2_5 
REMARK    3  A    between atoms: C5_9  and  C6_10 
REMARK    4  A    between atoms: C6_10  and  O4_13 
ROOT
HETATM    1  C2  UNL     1       0.292  10.924  24.325  1.00  0.00     0.163 C 
HETATM    2  C3  UNL     1       1.739  10.930  23.823  1.00  0.00     0.177 C 
HETATM    3  C4  UNL     1       2.085   9.494  23.493  1.00  0.00     0.162 C 
HETATM    4  O3  UNL     1       3.125   9.377  22.600  1.00  0.00    -0.374 OA
HETATM    5  C5  UNL     1       4.341   9.801  23.046  1.00  0.00     0.155 C 
HETATM    6  C9  UNL     1       4.627   9.579  24.483  1.00  0.00     0.036 C 
HETATM    7  C10 UNL     1       3.734   8.594  25.161  1.00  0.00     0.015 C 
HETATM    8  C11 UNL     1       2.300   8.671  24.754  1.00  0.00    -0.011 C 
HETATM    9  C12 UNL     1       1.827   7.253  24.467  1.00  0.00     0.018 C 
HETATM   10  C13 UNL     1       1.484   9.324  25.837  1.00  0.00     0.010 C 
HETATM   11  C14 UNL     1       1.030   8.389  26.906  1.00  0.00     0.013 C 
HETATM   12  C15 UNL     1      -0.117   9.166  27.563  1.00  0.00     0.079 C 
HETATM   13  C16 UNL     1      -0.552  10.160  26.544  1.00  0.00     0.134 C 
HETATM   14  O5  UNL     1      -1.329  11.065  26.780  1.00  0.00    -0.297 OA
HETATM   15  C17 UNL     1       0.132   9.805  25.287  1.00  0.00     0.091 C 
ENDROOT
BRANCH   5  16
HETATM   16  C6  UNL     1       5.402   9.228  22.122  1.00  0.00     0.076 C 
HETATM   17  C7  UNL     1       4.899   8.982  20.737  1.00  0.00     0.048 C 
HETATM   18  C8  UNL     1       6.602  10.156  22.024  1.00  0.00     0.048 C 
BRANCH  16  19
HETATM   19  O4  UNL     1       5.884   8.012  22.610  1.00  0.00    -0.388 OA
ATOM     20  H4  UNL     1       5.854   7.992  23.559  1.00  0.00     0.210 HD
ENDBRANCH  16  19
ENDBRANCH   5  16
BRANCH   2  21
HETATM   21  O2  UNL     1       1.865  11.677  22.663  1.00  0.00    -0.390 OA
ATOM     22  H2  UNL     1       1.526  12.557  22.783  1.00  0.00     0.210 HD
ENDBRANCH   2  21
BRANCH   1  23
HETATM   23  O1  UNL     1      -0.088  12.156  24.804  1.00  0.00    -0.387 OA
HETATM   24  C1  UNL     1      -0.967  12.764  23.910  1.00  0.00     0.202 C 
ENDBRANCH   1  23
TORSDOF 4
ENDMDL
MODEL 5
REMARK VINA RESULT: -7.197936578      2.193      3.884
REMARK  4 active torsions:
REMARK  status: ('A' for Active; 'I' for Inactive)
REMARK    1  A    between atoms: O1_2  and  C2_3 
REMARK    2  A    between atoms: C3_4  and  O2_5 
REMARK    3  A    between atoms: C5_9  and  C6_10 
REMARK    4  A    between atoms: C6_10  and  O4_13 
ROOT
HETATM    1  C2  UNL     1       3.081  11.753  24.339  1.00  0.00     0.163 C 
HETATM    2  C3  UNL     1       2.998  10.597  23.337  1.00  0.00     0.177 C 
HETATM    3  C4  UNL     1       4.001   9.560  23.793  1.00  0.00     0.162 C 
HETATM    4  O3  UNL     1       3.727   8.296  23.324  1.00  0.00    -0.374 OA
HETATM    5  C5  UNL     1       3.831   8.127  21.976  1.00  0.00     0.155 C 
HETATM    6  C9  UNL     1       4.892   8.907  21.297  1.00  0.00     0.036 C 
HETATM    7  C10 UNL     1       5.941   9.469  22.198  1.00  0.00     0.015 C 
HETATM    8  C11 UNL     1       5.427   9.998  23.497  1.00  0.00    -0.011 C 
HETATM    9  C12 UNL     1       6.319   9.450  24.601  1.00  0.00     0.018 C 
HETATM   10  C13 UNL     1       5.419  11.503  23.480  1.00  0.00     0.010 C 
HETATM   11  C14 UNL     1       6.723  12.124  23.853  1.00  0.00     0.013 C 
HETATM   12  C15 UNL     1       6.317  13.557  24.214  1.00  0.00     0.079 C 
HETATM   13  C16 UNL     1       4.863  13.487  24.527  1.00  0.00     0.134 C 
HETATM   14  O5  UNL     1       4.164  14.469  24.688  1.00  0.00    -0.297 OA
HETATM   15  C17 UNL     1       4.512  12.056  24.590  1.00  0.00     0.091 C 
ENDROOT
BRANCH   5  16
HETATM   16  C6  UNL     1       3.905   6.635  21.697  1.00  0.00     0.076 C 
HETATM   17  C7  UNL     1       5.053   5.970  22.385  1.00  0.00     0.048 C 
HETATM   18  C8  UNL     1       2.630   5.933  22.133  1.00  0.00     0.048 C 
BRANCH  16  19
HETATM   19  O4  UNL     1       4.043   6.390  20.330  1.00  0.00    -0.388 OA
ATOM     20  H4  UNL     1       3.765   5.508  20.114  1.00  0.00     0.210 HD
ENDBRANCH  16  19
ENDBRANCH   5  16
BRANCH   2  21
HETATM   21  O2  UNL     1       1.743  10.012  23.348  1.00  0.00    -0.390 OA
ATOM     22  H2  UNL     1       1.096  10.578  22.942  1.00  0.00     0.210 HD
ENDBRANCH   2  21
BRANCH   1  23
HETATM   23  O1  UNL     1       2.323  12.829  23.942  1.00  0.00    -0.387 OA
HETATM   24  C1  UNL     1       1.010  12.674  24.383  1.00  0.00     0.202 C 
ENDBRANCH   1  23
TORSDOF 4
ENDMDL
