MODEL 1
REMARK VINA RESULT: -8.486662352      0.000      0.000
REMARK  5 active torsions:
REMARK  status: ('A' for Active; 'I' for Inactive)
REMARK    1  A    between atoms: C2_2  and  O1_3 
REMARK    2  A    between atoms: O1_3  and  C3_4 
REMARK       I    between atoms: N3_12  and  C8_13 
REMARK    3  A    between atoms: C8_13  and  C9_15 
REMARK    4  A    between atoms: C18_25  and  O4_26 
REMARK    5  A    between atoms: C19_28  and  O5_29 
ROOT
HETATM    1  C3  UNL     1      -0.111   9.589  24.589  1.00  0.00     0.134 A 
HETATM    2  N1  UNL     1       0.273   8.660  25.350  1.00  0.00    -0.285 N 
ATOM      3  H1  UNL     1      -0.381   8.104  25.903  1.00  0.00     0.188 HD
HETATM    4  N2  UNL     1       1.640   8.445  25.384  1.00  0.00    -0.317 N 
HETATM    5  C4  UNL     1       2.232   7.395  26.226  1.00  0.00     0.172 C 
HETATM    6  C5  UNL     1       2.264   9.369  24.515  1.00  0.00     0.085 A 
HETATM    7  C6  UNL     1       3.189  10.356  25.209  1.00  0.00     0.056 C 
HETATM    8  C7  UNL     1       3.542  11.436  24.243  1.00  0.00     0.129 C 
HETATM    9  N3  UNL     1       4.953  11.277  23.807  1.00  0.00    -0.344 N 
HETATM   10  C8  UNL     1       5.774  12.190  24.486  1.00  0.00     0.224 C 
HETATM   11  O2  UNL     1       7.005  12.190  24.256  1.00  0.00    -0.273 OA
HETATM   12  C14 UNL     1       5.467  10.385  22.861  1.00  0.00     0.120 C 
HETATM   13  C15 UNL     1       6.909  10.526  22.446  1.00  0.00     0.054 C 
HETATM   14  C16 UNL     1       6.964   9.285  21.506  1.00  0.00     0.170 C 
HETATM   15  O3  UNL     1       6.003   8.418  21.954  1.00  0.00    -0.381 OA
HETATM   16  C17 UNL     1       5.523   8.923  23.190  1.00  0.00     0.175 C 
HETATM   17  C18 UNL     1       4.333   8.233  23.666  1.00  0.00     0.180 C 
HETATM   18  C19 UNL     1       2.990   8.747  23.342  1.00  0.00     0.179 C 
HETATM   19  C20 UNL     1       1.102  10.164  23.957  1.00  0.00     0.121 A 
ENDROOT
BRANCH  18  20
HETATM   20  O5  UNL     1       2.122   7.739  22.857  1.00  0.00    -0.390 OA
ATOM     21  H5  UNL     1       2.685   7.007  22.637  1.00  0.00     0.210 HD
ENDBRANCH  18  20
BRANCH  17  22
HETATM   22  O4  UNL     1       4.394   6.910  23.144  1.00  0.00    -0.390 OA
ATOM     23  H4  UNL     1       3.606   6.787  22.628  1.00  0.00     0.210 HD
ENDBRANCH  17  22
BRANCH   1  24
HETATM   24  O1  UNL     1      -1.427   9.968  24.406  1.00  0.00    -0.338 OA
BRANCH  24  25
HETATM   25  C2  UNL     1      -1.838  11.322  24.531  1.00  0.00     0.172 C 
HETATM   26  C1  UNL     1      -1.837  11.924  23.147  1.00  0.00     0.034 C 
ENDBRANCH  24  25
ENDBRANCH   1  24
BRANCH  10  27
HETATM   27  C9  UNL     1       5.352  13.203  25.481  1.00  0.00     0.078 C 
HETATM   28  C10 UNL     1       4.666  14.401  24.958  1.00  0.00     0.014 C 
HETATM   29  C11 UNL     1       5.490  15.597  25.457  1.00  0.00     0.001 C 
HETATM   30  C12 UNL     1       6.197  15.049  26.694  1.00  0.00     0.001 C 
HETATM   31  C13 UNL     1       6.579  13.680  26.223  1.00  0.00     0.014 C 
ENDBRANCH  10  27
TORSDOF 5
ENDMDL
MODEL 2
REMARK VINA RESULT: -8.275420516      3.100      4.260
REMARK  5 active torsions:
REMARK  status: ('A' for Active; 'I' for Inactive)
REMARK    1  A    between atoms: C2_2  and  O1_3 
REMARK    2  A    between atoms: O1_3  and  C3_4 
REMARK       I    between atoms: N3_12  and  C8_13 
REMARK    3  A    between atoms: C8_13  and  C9_15 
REMARK    4  A    between atoms: C18_25  and  O4_26 
REMARK    5  A    between atoms: C19_28  and  O5_29 
ROOT
HETATM    1  C3  UNL     1      -0.340  10.743  24.893  1.00  0.00     0.134 A 
HETATM    2  N1  UNL     1      -0.201  10.306  26.067  1.00  0.00    -0.285 N 
ATOM      3  H1  UNL     1      -0.665  10.736  26.867  1.00  0.00     0.188 HD
HETATM    4  N2  UNL     1       0.626   9.202  26.197  1.00  0.00    -0.317 N 
HETATM    5  C4  UNL     1       0.883   8.584  27.506  1.00  0.00     0.172 C 
HETATM    6  C5  UNL     1       1.111   8.849  24.917  1.00  0.00     0.085 A 
HETATM    7  C6  UNL     1       2.617   8.983  24.758  1.00  0.00     0.056 C 
HETATM    8  C7  UNL     1       2.954   8.869  23.310  1.00  0.00     0.129 C 
HETATM    9  N3  UNL     1       3.605   7.559  23.049  1.00  0.00    -0.344 N 
HETATM   10  C8  UNL     1       4.993   7.725  22.930  1.00  0.00     0.224 C 
HETATM   11  O2  UNL     1       5.711   6.720  22.724  1.00  0.00    -0.273 OA
HETATM   12  C14 UNL     1       2.997   6.307  22.915  1.00  0.00     0.120 C 
HETATM   13  C15 UNL     1       3.842   5.140  22.471  1.00  0.00     0.054 C 
HETATM   14  C16 UNL     1       2.738   4.047  22.585  1.00  0.00     0.170 C 
HETATM   15  O3  UNL     1       1.845   4.495  23.521  1.00  0.00    -0.381 OA
HETATM   16  C17 UNL     1       2.412   5.646  24.127  1.00  0.00     0.175 C 
HETATM   17  C18 UNL     1       1.474   6.368  24.974  1.00  0.00     0.180 C 
HETATM   18  C19 UNL     1       0.679   7.484  24.429  1.00  0.00     0.179 C 
HETATM   19  C20 UNL     1       0.474   9.877  24.006  1.00  0.00     0.121 A 
ENDROOT
BRANCH  18  20
HETATM   20  O5  UNL     1      -0.695   7.387  24.756  1.00  0.00    -0.390 OA
ATOM     21  H5  UNL     1      -1.090   6.904  24.040  1.00  0.00     0.210 HD
ENDBRANCH  18  20
BRANCH  17  22
HETATM   22  O4  UNL     1       0.540   5.407  25.455  1.00  0.00    -0.390 OA
ATOM     23  H4  UNL     1      -0.323   5.719  25.206  1.00  0.00     0.210 HD
ENDBRANCH  17  22
BRANCH   1  24
HETATM   24  O1  UNL     1      -1.118  11.830  24.542  1.00  0.00    -0.338 OA
BRANCH  24  25
HETATM   25  C2  UNL     1      -0.751  12.700  23.482  1.00  0.00     0.172 C 
HETATM   26  C1  UNL     1      -1.852  12.647  22.452  1.00  0.00     0.034 C 
ENDBRANCH  24  25
ENDBRANCH   1  24
BRANCH  10  27
HETATM   27  C9  UNL     1       5.753   8.994  23.018  1.00  0.00     0.078 C 
HETATM   28  C10 UNL     1       6.365   9.487  21.769  1.00  0.00     0.014 C 
HETATM   29  C11 UNL     1       7.862   9.642  22.079  1.00  0.00     0.001 C 
HETATM   30  C12 UNL     1       7.894   9.817  23.596  1.00  0.00     0.001 C 
HETATM   31  C13 UNL     1       6.868   8.811  24.021  1.00  0.00     0.014 C 
ENDBRANCH  10  27
TORSDOF 5
ENDMDL
MODEL 3
REMARK VINA RESULT: -8.161185653      2.954      6.332
REMARK  5 active torsions:
REMARK  status: ('A' for Active; 'I' for Inactive)
REMARK    1  A    between atoms: C2_2  and  O1_3 
REMARK    2  A    between atoms: O1_3  and  C3_4 
REMARK       I    between atoms: N3_12  and  C8_13 
REMARK    3  A    between atoms: C8_13  and  C9_15 
REMARK    4  A    between atoms: C18_25  and  O4_26 
REMARK    5  A    between atoms: C19_28  and  O5_29 
ROOT
HETATM    1  C3  UNL     1       6.314   7.720  23.567  1.00  0.00     0.134 A 
HETATM    2  N1  UNL     1       5.801   6.707  23.018  1.00  0.00    -0.285 N 
ATOM      3  H1  UNL     1       6.311   6.137  22.342  1.00  0.00     0.188 HD
HETATM    4  N2  UNL     1       4.500   6.422  23.395  1.00  0.00    -0.317 N 
HETATM    5  C4  UNL     1       3.773   5.271  22.838  1.00  0.00     0.172 C 
HETATM    6  C5  UNL     1       4.080   7.388  24.337  1.00  0.00     0.085 A 
HETATM    7  C6  UNL     1       2.926   8.260  23.870  1.00  0.00     0.056 C 
HETATM    8  C7  UNL     1       2.782   9.404  24.815  1.00  0.00     0.129 C 
HETATM    9  N3  UNL     1       1.567   9.215  25.650  1.00  0.00    -0.344 N 
HETATM   10  C8  UNL     1       0.523  10.021  25.172  1.00  0.00     0.224 C 
HETATM   11  O2  UNL     1      -0.589   9.980  25.746  1.00  0.00    -0.273 OA
HETATM   12  C14 UNL     1       1.411   8.388  26.766  1.00  0.00     0.120 C 
HETATM   13  C15 UNL     1       0.138   8.493  27.567  1.00  0.00     0.054 C 
HETATM   14  C16 UNL     1       0.444   7.342  28.571  1.00  0.00     0.170 C 
HETATM   15  O3  UNL     1       1.301   6.487  27.930  1.00  0.00    -0.381 OA
HETATM   16  C17 UNL     1       1.372   6.902  26.575  1.00  0.00     0.175 C 
HETATM   17  C18 UNL     1       2.426   6.232  25.827  1.00  0.00     0.180 C 
HETATM   18  C19 UNL     1       3.764   6.840  25.712  1.00  0.00     0.179 C 
HETATM   19  C20 UNL     1       5.291   8.288  24.477  1.00  0.00     0.121 A 
ENDROOT
BRANCH  18  20
HETATM   20  O5  UNL     1       4.807   5.925  25.998  1.00  0.00    -0.390 OA
ATOM     21  H5  UNL     1       4.456   5.345  26.664  1.00  0.00     0.210 HD
ENDBRANCH  18  20
BRANCH  17  22
HETATM   22  O4  UNL     1       2.614   4.961  26.439  1.00  0.00    -0.390 OA
ATOM     23  H4  UNL     1       3.111   4.434  25.824  1.00  0.00     0.210 HD
ENDBRANCH  17  22
BRANCH   1  24
HETATM   24  O1  UNL     1       7.596   8.180  23.334  1.00  0.00    -0.338 OA
BRANCH  24  25
HETATM   25  C2  UNL     1       7.850   9.524  22.953  1.00  0.00     0.172 C 
HETATM   26  C1  UNL     1       7.203   9.743  21.608  1.00  0.00     0.034 C 
ENDBRANCH  24  25
ENDBRANCH   1  24
BRANCH  10  27
HETATM   27  C9  UNL     1       0.570  10.959  24.026  1.00  0.00     0.078 C 
HETATM   28  C10 UNL     1       1.426  12.151  24.181  1.00  0.00     0.014 C 
HETATM   29  C11 UNL     1       0.503  13.354  23.940  1.00  0.00     0.001 C 
HETATM   30  C12 UNL     1      -0.623  12.773  23.088  1.00  0.00     0.001 C 
HETATM   31  C13 UNL     1      -0.834  11.449  23.756  1.00  0.00     0.014 C 
ENDBRANCH  10  27
TORSDOF 5
ENDMDL
MODEL 4
REMARK VINA RESULT: -8.068416365      1.837      2.977
REMARK  5 active torsions:
REMARK  status: ('A' for Active; 'I' for Inactive)
REMARK    1  A    between atoms: C2_2  and  O1_3 
REMARK    2  A    between atoms: O1_3  and  C3_4 
REMARK       I    between atoms: N3_12  and  C8_13 
REMARK    3  A    between atoms: C8_13  and  C9_15 
REMARK    4  A    between atoms: C18_25  and  O4_26 
REMARK    5  A    between atoms: C19_28  and  O5_29 
ROOT
HETATM    1  C3  UNL     1      -1.347  11.105  23.788  1.00  0.00     0.134 A 
HETATM    2  N1  UNL     1      -1.461  11.001  25.039  1.00  0.00    -0.285 N 
ATOM      3  H1  UNL     1      -2.278  11.347  25.542  1.00  0.00     0.188 HD
HETATM    4  N2  UNL     1      -0.402  10.383  25.683  1.00  0.00    -0.317 N 
HETATM    5  C4  UNL     1      -0.397  10.192  27.141  1.00  0.00     0.172 C 
HETATM    6  C5  UNL     1       0.564  10.021  24.718  1.00  0.00     0.085 A 
HETATM    7  C6  UNL     1       1.901  10.729  24.872  1.00  0.00     0.056 C 
HETATM    8  C7  UNL     1       2.711  10.486  23.644  1.00  0.00     0.129 C 
HETATM    9  N3  UNL     1       3.812   9.537  23.950  1.00  0.00    -0.344 N 
HETATM   10  C8  UNL     1       5.021  10.233  24.104  1.00  0.00     0.224 C 
HETATM   11  O2  UNL     1       6.060   9.594  24.383  1.00  0.00    -0.273 OA
HETATM   12  C14 UNL     1       3.741   8.146  24.071  1.00  0.00     0.120 C 
HETATM   13  C15 UNL     1       5.025   7.368  24.209  1.00  0.00     0.054 C 
HETATM   14  C16 UNL     1       4.382   5.962  24.398  1.00  0.00     0.170 C 
HETATM   15  O3  UNL     1       3.135   6.175  24.925  1.00  0.00    -0.381 OA
HETATM   16  C17 UNL     1       3.050   7.551  25.261  1.00  0.00     0.175 C 
HETATM   17  C18 UNL     1       1.701   7.971  25.611  1.00  0.00     0.180 C 
HETATM   18  C19 UNL     1       0.803   8.533  24.586  1.00  0.00     0.179 C 
HETATM   19  C20 UNL     1      -0.046  10.498  23.417  1.00  0.00     0.121 A 
ENDROOT
BRANCH  18  20
HETATM   20  O5  UNL     1      -0.485   7.944  24.606  1.00  0.00    -0.390 OA
ATOM     21  H5  UNL     1      -0.333   7.007  24.586  1.00  0.00     0.210 HD
ENDBRANCH  18  20
BRANCH  17  22
HETATM   22  O4  UNL     1       1.042   6.825  26.139  1.00  0.00    -0.390 OA
ATOM     23  H4  UNL     1       0.132   6.889  25.873  1.00  0.00     0.210 HD
ENDBRANCH  17  22
BRANCH   1  24
HETATM   24  O1  UNL     1      -2.284  11.685  22.955  1.00  0.00    -0.338 OA
BRANCH  24  25
HETATM   25  C2  UNL     1      -2.176  13.038  22.537  1.00  0.00     0.172 C 
HETATM   26  C1  UNL     1      -1.391  13.051  21.248  1.00  0.00     0.034 C 
ENDBRANCH  24  25
ENDBRANCH   1  24
BRANCH  10  27
HETATM   27  C9  UNL     1       5.235  11.693  23.970  1.00  0.00     0.078 C 
HETATM   28  C10 UNL     1       6.592  12.130  23.588  1.00  0.00     0.014 C 
HETATM   29  C11 UNL     1       7.038  13.099  24.694  1.00  0.00     0.001 C 
HETATM   30  C12 UNL     1       5.719  13.605  25.274  1.00  0.00     0.001 C 
HETATM   31  C13 UNL     1       4.912  12.344  25.295  1.00  0.00     0.014 C 
ENDBRANCH  10  27
TORSDOF 5
ENDMDL
MODEL 5
REMARK VINA RESULT: -7.874468560      1.729      6.254
REMARK  5 active torsions:
REMARK  status: ('A' for Active; 'I' for Inactive)
REMARK    1  A    between atoms: C2_2  and  O1_3 
REMARK    2  A    between atoms: O1_3  and  C3_4 
REMARK       I    between atoms: N3_12  and  C8_13 
REMARK    3  A    between atoms: C8_13  and  C9_15 
REMARK    4  A    between atoms: C18_25  and  O4_26 
REMARK    5  A    between atoms: C19_28  and  O5_29 
ROOT
HETATM    1  C3  UNL     1       6.590  11.486  23.628  1.00  0.00     0.134 A 
HETATM    2  N1  UNL     1       6.493  10.895  22.518  1.00  0.00    -0.285 N 
ATOM      3  H1  UNL     1       7.032  11.180  21.700  1.00  0.00     0.188 HD
HETATM    4  N2  UNL     1       5.606   9.831  22.487  1.00  0.00    -0.317 N 
HETATM    5  C4  UNL     1       5.389   9.048  21.261  1.00  0.00     0.172 C 
HETATM    6  C5  UNL     1       5.024   9.692  23.767  1.00  0.00     0.085 A 
HETATM    7  C6  UNL     1       3.522   9.930  23.802  1.00  0.00     0.056 C 
HETATM    8  C7  UNL     1       3.093  10.042  25.225  1.00  0.00     0.129 C 
HETATM    9  N3  UNL     1       2.344   8.821  25.620  1.00  0.00    -0.344 N 
HETATM   10  C8  UNL     1       0.965   9.079  25.620  1.00  0.00     0.224 C 
HETATM   11  O2  UNL     1       0.172   8.155  25.914  1.00  0.00    -0.273 OA
HETATM   12  C14 UNL     1       2.860   7.569  25.968  1.00  0.00     0.120 C 
HETATM   13  C15 UNL     1       1.917   6.526  26.510  1.00  0.00     0.054 C 
HETATM   14  C16 UNL     1       2.953   5.368  26.625  1.00  0.00     0.170 C 
HETATM   15  O3  UNL     1       3.928   5.628  25.699  1.00  0.00    -0.381 OA
HETATM   16  C17 UNL     1       3.474   6.711  24.902  1.00  0.00     0.175 C 
HETATM   17  C18 UNL     1       4.506   7.252  24.030  1.00  0.00     0.180 C 
HETATM   18  C19 UNL     1       5.336   8.388  24.468  1.00  0.00     0.179 C 
HETATM   19  C20 UNL     1       5.670  10.802  24.568  1.00  0.00     0.121 A 
ENDROOT
BRANCH  18  20
HETATM   20  O5  UNL     1       6.719   8.170  24.252  1.00  0.00    -0.390 OA
ATOM     21  H5  UNL     1       6.956   7.463  24.841  1.00  0.00     0.210 HD
ENDBRANCH  18  20
BRANCH  17  22
HETATM   22  O4  UNL     1       5.403   6.182  23.751  1.00  0.00    -0.390 OA
ATOM     23  H4  UNL     1       6.243   6.430  24.120  1.00  0.00     0.210 HD
ENDBRANCH  17  22
BRANCH   1  24
HETATM   24  O1  UNL     1       7.414  12.567  23.877  1.00  0.00    -0.338 OA
BRANCH  24  25
HETATM   25  C2  UNL     1       7.376  13.265  25.112  1.00  0.00     0.172 C 
HETATM   26  C1  UNL     1       7.307  14.739  24.797  1.00  0.00     0.034 C 
ENDBRANCH  24  25
ENDBRANCH   1  24
BRANCH  10  27
HETATM   27  C9  UNL     1       0.295  10.363  25.305  1.00  0.00     0.078 C 
HETATM   28  C10 UNL     1      -0.798  10.777  26.205  1.00  0.00     0.014 C 
HETATM   29  C11 UNL     1      -2.023  10.977  25.300  1.00  0.00     0.001 C 
HETATM   30  C12 UNL     1      -1.409  11.256  23.930  1.00  0.00     0.001 C 
HETATM   31  C13 UNL     1      -0.285  10.267  23.913  1.00  0.00     0.014 C 
ENDBRANCH  10  27
TORSDOF 5
ENDMDL
