MODEL 1
REMARK VINA RESULT: -7.798321603      0.000      0.000
REMARK  9 active torsions:
REMARK  status: ('A' for Active; 'I' for Inactive)
REMARK    1  A    between atoms: C5_5  and  O1_6 
REMARK    2  A    between atoms: C8_10  and  O2_11 
REMARK    3  A    between atoms: C9_13  and  O3_14 
REMARK    4  A    between atoms: O3_14  and  C10_15 
REMARK    5  A    between atoms: C10_15  and  C11_16 
REMARK    6  A    between atoms: C11_16  and  C12_17 
REMARK    7  A    between atoms: C12_17  and  C13_18 
REMARK    8  A    between atoms: C13_18  and  O4_19 
REMARK    9  A    between atoms: C18_28  and  O7_29 
ROOT
HETATM    1  C1  UNL     1       2.153   9.234  26.845  1.00  0.00     0.018 C 
HETATM    2  C2  UNL     1       1.269   9.380  25.634  1.00  0.00    -0.009 C 
HETATM    3  C3  UNL     1       0.208   8.265  25.793  1.00  0.00     0.018 C 
HETATM    4  C4  UNL     1       0.463  10.646  25.864  1.00  0.00     0.044 C 
HETATM    5  C5  UNL     1      -0.138  11.141  24.597  1.00  0.00     0.119 C 
HETATM    6  C6  UNL     1       1.007  11.587  23.720  1.00  0.00     0.042 C 
HETATM    7  C7  UNL     1       2.057  10.565  23.531  1.00  0.00     0.060 C 
HETATM    8  C8  UNL     1       3.412  11.228  23.669  1.00  0.00     0.158 C 
HETATM    9  C9  UNL     1       4.410  10.251  23.079  1.00  0.00     0.174 C 
HETATM   10  C16 UNL     1       4.335   9.015  23.858  1.00  0.00     0.030 C 
HETATM   11  C17 UNL     1       3.230   8.588  24.411  1.00  0.00     0.046 C 
HETATM   12 CL1  UNL     1       3.269   7.081  25.323  1.00  0.00    -0.086 Cl
HETATM   13  C18 UNL     1       1.920   9.303  24.317  1.00  0.00     0.108 C 
ENDROOT
BRANCH   9  14
HETATM   14  O3  UNL     1       5.625  10.786  22.839  1.00  0.00    -0.379 OA
BRANCH  14  15
HETATM   15  C10 UNL     1       6.590  10.779  23.772  1.00  0.00     0.169 C 
BRANCH  15  16
HETATM   16  C11 UNL     1       7.412  12.037  23.756  1.00  0.00     0.034 C 
BRANCH  16  17
HETATM   17  C12 UNL     1       6.758  13.238  24.356  1.00  0.00     0.104 C 
BRANCH  17  18
HETATM   18  C13 UNL     1       7.875  14.027  25.053  1.00  0.00     0.280 C 
HETATM   19  O5  UNL     1       7.481  14.237  26.383  1.00  0.00    -0.331 OA
HETATM   20  C14 UNL     1       8.662  14.675  26.970  1.00  0.00     0.200 C 
HETATM   21  C15 UNL     1       9.747  14.032  26.134  1.00  0.00     0.200 C 
HETATM   22  O6  UNL     1       9.025  13.278  25.188  1.00  0.00    -0.331 OA
BRANCH  18  23
HETATM   23  O4  UNL     1       8.070  15.257  24.469  1.00  0.00    -0.343 OA
ATOM     24  H4  UNL     1       7.914  15.966  25.082  1.00  0.00     0.215 HD
ENDBRANCH  18  23
ENDBRANCH  17  18
ENDBRANCH  16  17
ENDBRANCH  15  16
ENDBRANCH  14  15
ENDBRANCH   9  14
BRANCH   8  25
HETATM   25  O2  UNL     1       3.619  11.587  24.957  1.00  0.00    -0.392 OA
ATOM     26  H2  UNL     1       3.359  12.492  25.085  1.00  0.00     0.210 HD
ENDBRANCH   8  25
BRANCH  13  27
HETATM   27  O7  UNL     1       1.138   8.424  23.513  1.00  0.00    -0.383 OA
ATOM     28  H7  UNL     1       1.271   8.681  22.608  1.00  0.00     0.211 HD
ENDBRANCH  13  27
BRANCH   5  29
HETATM   29  O1  UNL     1      -1.015  10.288  23.985  1.00  0.00    -0.396 OA
ATOM     30  H1  UNL     1      -1.911  10.326  24.299  1.00  0.00     0.210 HD
ENDBRANCH   5  29
TORSDOF 9
ENDMDL
MODEL 2
REMARK VINA RESULT: -7.552668964      1.687      2.326
REMARK  9 active torsions:
REMARK  status: ('A' for Active; 'I' for Inactive)
REMARK    1  A    between atoms: C5_5  and  O1_6 
REMARK    2  A    between atoms: C8_10  and  O2_11 
REMARK    3  A    between atoms: C9_13  and  O3_14 
REMARK    4  A    between atoms: O3_14  and  C10_15 
REMARK    5  A    between atoms: C10_15  and  C11_16 
REMARK    6  A    between atoms: C11_16  and  C12_17 
REMARK    7  A    between atoms: C12_17  and  C13_18 
REMARK    8  A    between atoms: C13_18  and  O4_19 
REMARK    9  A    between atoms: C18_28  and  O7_29 
ROOT
HETATM    1  C1  UNL     1       3.916   6.975  25.682  1.00  0.00     0.018 C 
HETATM    2  C2  UNL     1       3.048   7.205  24.473  1.00  0.00    -0.009 C 
HETATM    3  C3  UNL     1       2.837   5.794  23.874  1.00  0.00     0.018 C 
HETATM    4  C4  UNL     1       1.671   7.548  25.016  1.00  0.00     0.044 C 
HETATM    5  C5  UNL     1       0.828   8.198  23.977  1.00  0.00     0.119 C 
HETATM    6  C6  UNL     1       1.456   9.541  23.687  1.00  0.00     0.042 C 
HETATM    7  C7  UNL     1       2.891   9.474  23.345  1.00  0.00     0.060 C 
HETATM    8  C8  UNL     1       3.618  10.580  24.083  1.00  0.00     0.158 C 
HETATM    9  C9  UNL     1       4.965  10.715  23.397  1.00  0.00     0.174 C 
HETATM   10  C16 UNL     1       5.660   9.435  23.528  1.00  0.00     0.030 C 
HETATM   11  C17 UNL     1       5.036   8.286  23.554  1.00  0.00     0.046 C 
HETATM   12 CL1  UNL     1       5.988   6.811  23.713  1.00  0.00    -0.086 Cl
HETATM   13  C18 UNL     1       3.551   8.140  23.455  1.00  0.00     0.108 C 
ENDROOT
BRANCH   9  14
HETATM   14  O3  UNL     1       5.631  11.843  23.717  1.00  0.00    -0.379 OA
BRANCH  14  15
HETATM   15  C10 UNL     1       6.895  12.050  23.314  1.00  0.00     0.169 C 
BRANCH  15  16
HETATM   16  C11 UNL     1       7.761  12.614  24.404  1.00  0.00     0.034 C 
BRANCH  16  17
HETATM   17  C12 UNL     1       7.498  14.042  24.756  1.00  0.00     0.104 C 
BRANCH  17  18
HETATM   18  C13 UNL     1       8.558  14.425  25.799  1.00  0.00     0.280 C 
HETATM   19  O5  UNL     1       9.635  13.538  25.656  1.00  0.00    -0.331 OA
HETATM   20  C14 UNL     1      10.622  14.154  26.415  1.00  0.00     0.200 C 
HETATM   21  C15 UNL     1      10.270  15.624  26.351  1.00  0.00     0.200 C 
HETATM   22  O6  UNL     1       9.129  15.649  25.523  1.00  0.00    -0.331 OA
BRANCH  18  23
HETATM   23  O4  UNL     1       8.077  14.304  27.081  1.00  0.00    -0.343 OA
ATOM     24  H4  UNL     1       8.769  14.391  27.726  1.00  0.00     0.215 HD
ENDBRANCH  18  23
ENDBRANCH  17  18
ENDBRANCH  16  17
ENDBRANCH  15  16
ENDBRANCH  14  15
ENDBRANCH   9  14
BRANCH   8  25
HETATM   25  O2  UNL     1       3.648  10.307  25.407  1.00  0.00    -0.392 OA
ATOM     26  H2  UNL     1       2.955  10.783  25.850  1.00  0.00     0.210 HD
ENDBRANCH   8  25
BRANCH  13  27
HETATM   27  O7  UNL     1       3.380   7.513  22.187  1.00  0.00    -0.383 OA
ATOM     28  H7  UNL     1       2.736   8.021  21.709  1.00  0.00     0.211 HD
ENDBRANCH  13  27
BRANCH   5  29
HETATM   29  O1  UNL     1       0.574   7.444  22.865  1.00  0.00    -0.396 OA
ATOM     30  H1  UNL     1       0.758   7.865  22.033  1.00  0.00     0.210 HD
ENDBRANCH   5  29
TORSDOF 9
ENDMDL
MODEL 3
REMARK VINA RESULT: -7.439374442      1.861      2.749
REMARK  9 active torsions:
REMARK  status: ('A' for Active; 'I' for Inactive)
REMARK    1  A    between atoms: C5_5  and  O1_6 
REMARK    2  A    between atoms: C8_10  and  O2_11 
REMARK    3  A    between atoms: C9_13  and  O3_14 
REMARK    4  A    between atoms: O3_14  and  C10_15 
REMARK    5  A    between atoms: C10_15  and  C11_16 
REMARK    6  A    between atoms: C11_16  and  C12_17 
REMARK    7  A    between atoms: C12_17  and  C13_18 
REMARK    8  A    between atoms: C13_18  and  O4_19 
REMARK    9  A    between atoms: C18_28  and  O7_29 
ROOT
HETATM    1  C1  UNL     1       4.293   6.853  25.100  1.00  0.00     0.018 C 
HETATM    2  C2  UNL     1       3.404   7.104  23.911  1.00  0.00    -0.009 C 
HETATM    3  C3  UNL     1       3.817   6.023  22.884  1.00  0.00     0.018 C 
HETATM    4  C4  UNL     1       2.016   6.654  24.333  1.00  0.00     0.044 C 
HETATM    5  C5  UNL     1       0.971   7.214  23.436  1.00  0.00     0.119 C 
HETATM    6  C6  UNL     1       0.959   8.706  23.663  1.00  0.00     0.042 C 
HETATM    7  C7  UNL     1       2.281   9.348  23.523  1.00  0.00     0.060 C 
HETATM    8  C8  UNL     1       2.466  10.334  24.659  1.00  0.00     0.158 C 
HETATM    9  C9  UNL     1       3.621  11.227  24.244  1.00  0.00     0.174 C 
HETATM   10  C16 UNL     1       4.800  10.377  24.073  1.00  0.00     0.030 C 
HETATM   11  C17 UNL     1       4.730   9.140  23.657  1.00  0.00     0.046 C 
HETATM   12 CL1  UNL     1       6.224   8.220  23.488  1.00  0.00    -0.086 Cl
HETATM   13  C18 UNL     1       3.452   8.446  23.310  1.00  0.00     0.108 C 
ENDROOT
BRANCH   9  14
HETATM   14  O3  UNL     1       3.740  12.347  24.985  1.00  0.00    -0.379 OA
BRANCH  14  15
HETATM   15  C10 UNL     1       4.190  13.495  24.454  1.00  0.00     0.169 C 
BRANCH  15  16
HETATM   16  C11 UNL     1       5.476  13.953  25.082  1.00  0.00     0.034 C 
BRANCH  16  17
HETATM   17  C12 UNL     1       6.722  13.413  24.458  1.00  0.00     0.104 C 
BRANCH  17  18
HETATM   18  C13 UNL     1       7.888  14.152  25.129  1.00  0.00     0.280 C 
HETATM   19  O5  UNL     1       7.532  14.382  26.466  1.00  0.00    -0.331 OA
HETATM   20  C14 UNL     1       8.744  14.767  27.028  1.00  0.00     0.200 C 
HETATM   21  C15 UNL     1       9.781  14.075  26.171  1.00  0.00     0.200 C 
HETATM   22  O6  UNL     1       9.005  13.352  25.242  1.00  0.00    -0.331 OA
BRANCH  18  23
HETATM   23  O4  UNL     1       8.126  15.370  24.538  1.00  0.00    -0.343 OA
ATOM     24  H4  UNL     1       8.222  16.062  25.183  1.00  0.00     0.215 HD
ENDBRANCH  18  23
ENDBRANCH  17  18
ENDBRANCH  16  17
ENDBRANCH  15  16
ENDBRANCH  14  15
ENDBRANCH   9  14
BRANCH   8  25
HETATM   25  O2  UNL     1       2.618   9.667  25.826  1.00  0.00    -0.392 OA
ATOM     26  H2  UNL     1       3.399   9.971  26.272  1.00  0.00     0.210 HD
ENDBRANCH   8  25
BRANCH  13  27
HETATM   27  O7  UNL     1       3.560   8.272  21.900  1.00  0.00    -0.383 OA
ATOM     28  H7  UNL     1       3.324   9.099  21.497  1.00  0.00     0.211 HD
ENDBRANCH  13  27
BRANCH   5  29
HETATM   29  O1  UNL     1       1.060   6.846  22.122  1.00  0.00    -0.396 OA
ATOM     30  H1  UNL     1       1.678   7.342  21.597  1.00  0.00     0.210 HD
ENDBRANCH   5  29
TORSDOF 9
ENDMDL
MODEL 4
REMARK VINA RESULT: -7.420611016      1.775      2.743
REMARK  9 active torsions:
REMARK  status: ('A' for Active; 'I' for Inactive)
REMARK    1  A    between atoms: C5_5  and  O1_6 
REMARK    2  A    between atoms: C8_10  and  O2_11 
REMARK    3  A    between atoms: C9_13  and  O3_14 
REMARK    4  A    between atoms: O3_14  and  C10_15 
REMARK    5  A    between atoms: C10_15  and  C11_16 
REMARK    6  A    between atoms: C11_16  and  C12_17 
REMARK    7  A    between atoms: C12_17  and  C13_18 
REMARK    8  A    between atoms: C13_18  and  O4_19 
REMARK    9  A    between atoms: C18_28  and  O7_29 
ROOT
HETATM    1  C1  UNL     1       0.135   9.211  23.847  1.00  0.00     0.018 C 
HETATM    2  C2  UNL     1       0.964   8.003  24.195  1.00  0.00    -0.009 C 
HETATM    3  C3  UNL     1       0.060   7.170  25.135  1.00  0.00     0.018 C 
HETATM    4  C4  UNL     1       1.006   7.157  22.934  1.00  0.00     0.044 C 
HETATM    5  C5  UNL     1       2.109   6.160  22.990  1.00  0.00     0.119 C 
HETATM    6  C6  UNL     1       3.401   6.941  22.953  1.00  0.00     0.042 C 
HETATM    7  C7  UNL     1       3.493   8.002  23.977  1.00  0.00     0.060 C 
HETATM    8  C8  UNL     1       4.056   9.252  23.332  1.00  0.00     0.158 C 
HETATM    9  C9  UNL     1       4.499  10.143  24.478  1.00  0.00     0.174 C 
HETATM   10  C16 UNL     1       3.318  10.441  25.289  1.00  0.00     0.030 C 
HETATM   11  C17 UNL     1       2.328   9.601  25.440  1.00  0.00     0.046 C 
HETATM   12 CL1  UNL     1       0.962  10.078  26.447  1.00  0.00    -0.086 Cl
HETATM   13  C18 UNL     1       2.278   8.247  24.809  1.00  0.00     0.108 C 
ENDROOT
BRANCH   9  14
HETATM   14  O3  UNL     1       5.294  11.165  24.102  1.00  0.00    -0.379 OA
BRANCH  14  15
HETATM   15  C10 UNL     1       6.575  10.965  23.754  1.00  0.00     0.169 C 
BRANCH  15  16
HETATM   16  C11 UNL     1       7.365  12.243  23.716  1.00  0.00     0.034 C 
BRANCH  16  17
HETATM   17  C12 UNL     1       6.809  13.365  24.530  1.00  0.00     0.104 C 
BRANCH  17  18
HETATM   18  C13 UNL     1       8.015  14.052  25.187  1.00  0.00     0.280 C 
HETATM   19  O5  UNL     1       7.736  14.183  26.555  1.00  0.00    -0.331 OA
HETATM   20  C14 UNL     1       8.979  14.524  27.074  1.00  0.00     0.200 C 
HETATM   21  C15 UNL     1       9.963  13.896  26.112  1.00  0.00     0.200 C 
HETATM   22  O6  UNL     1       9.132  13.244  25.177  1.00  0.00    -0.331 OA
BRANCH  18  23
HETATM   23  O4  UNL     1       8.225  15.310  24.675  1.00  0.00    -0.343 OA
ATOM     24  H4  UNL     1       8.080  15.985  25.328  1.00  0.00     0.215 HD
ENDBRANCH  18  23
ENDBRANCH  17  18
ENDBRANCH  16  17
ENDBRANCH  15  16
ENDBRANCH  14  15
ENDBRANCH   9  14
BRANCH   8  25
HETATM   25  O2  UNL     1       3.146   9.781  22.483  1.00  0.00    -0.392 OA
ATOM     26  H2  UNL     1       2.531  10.322  22.965  1.00  0.00     0.210 HD
ENDBRANCH   8  25
BRANCH  13  27
HETATM   27  O7  UNL     1       2.388   7.373  25.928  1.00  0.00    -0.383 OA
ATOM     28  H7  UNL     1       2.052   6.527  25.657  1.00  0.00     0.211 HD
ENDBRANCH  13  27
BRANCH   5  29
HETATM   29  O1  UNL     1       2.032   5.248  24.006  1.00  0.00    -0.396 OA
ATOM     30  H1  UNL     1       2.863   4.975  24.376  1.00  0.00     0.210 HD
ENDBRANCH   5  29
TORSDOF 9
ENDMDL
MODEL 5
REMARK VINA RESULT: -7.348175177      0.684      1.079
REMARK  9 active torsions:
REMARK  status: ('A' for Active; 'I' for Inactive)
REMARK    1  A    between atoms: C5_5  and  O1_6 
REMARK    2  A    between atoms: C8_10  and  O2_11 
REMARK    3  A    between atoms: C9_13  and  O3_14 
REMARK    4  A    between atoms: O3_14  and  C10_15 
REMARK    5  A    between atoms: C10_15  and  C11_16 
REMARK    6  A    between atoms: C11_16  and  C12_17 
REMARK    7  A    between atoms: C12_17  and  C13_18 
REMARK    8  A    between atoms: C13_18  and  O4_19 
REMARK    9  A    between atoms: C18_28  and  O7_29 
ROOT
HETATM    1  C1  UNL     1       2.261   9.276  26.775  1.00  0.00     0.018 C 
HETATM    2  C2  UNL     1       1.464   9.468  25.512  1.00  0.00    -0.009 C 
HETATM    3  C3  UNL     1       0.554   8.219  25.436  1.00  0.00     0.018 C 
HETATM    4  C4  UNL     1       0.479  10.583  25.812  1.00  0.00     0.044 C 
HETATM    5  C5  UNL     1      -0.081  11.160  24.561  1.00  0.00     0.119 C 
HETATM    6  C6  UNL     1       1.059  11.856  23.856  1.00  0.00     0.042 C 
HETATM    7  C7  UNL     1       2.248  11.005  23.649  1.00  0.00     0.060 C 
HETATM    8  C8  UNL     1       3.486  11.807  23.993  1.00  0.00     0.158 C 
HETATM    9  C9  UNL     1       4.651  11.046  23.388  1.00  0.00     0.174 C 
HETATM   10  C16 UNL     1       4.682   9.720  24.004  1.00  0.00     0.030 C 
HETATM   11  C17 UNL     1       3.604   9.091  24.395  1.00  0.00     0.046 C 
HETATM   12 CL1  UNL     1       3.774   7.494  25.121  1.00  0.00    -0.086 Cl
HETATM   13  C18 UNL     1       2.221   9.644  24.262  1.00  0.00     0.108 C 
ENDROOT
BRANCH   9  14
HETATM   14  O3  UNL     1       5.797  11.754  23.330  1.00  0.00    -0.379 OA
BRANCH  14  15
HETATM   15  C10 UNL     1       6.967  11.227  23.724  1.00  0.00     0.169 C 
BRANCH  15  16
HETATM   16  C11 UNL     1       7.981  12.279  24.077  1.00  0.00     0.034 C 
BRANCH  16  17
HETATM   17  C12 UNL     1       7.418  13.613  24.446  1.00  0.00     0.104 C 
BRANCH  17  18
HETATM   18  C13 UNL     1       8.353  14.186  25.520  1.00  0.00     0.280 C 
HETATM   19  O5  UNL     1       9.502  13.383  25.556  1.00  0.00    -0.331 OA
HETATM   20  C14 UNL     1      10.371  14.153  26.319  1.00  0.00     0.200 C 
HETATM   21  C15 UNL     1       9.917  15.574  26.070  1.00  0.00     0.200 C 
HETATM   22  O6  UNL     1       8.852  15.420  25.159  1.00  0.00    -0.331 OA
BRANCH  18  23
HETATM   23  O4  UNL     1       7.775  14.156  26.767  1.00  0.00    -0.343 OA
ATOM     24  H4  UNL     1       7.942  14.956  27.252  1.00  0.00     0.215 HD
ENDBRANCH  18  23
ENDBRANCH  17  18
ENDBRANCH  16  17
ENDBRANCH  15  16
ENDBRANCH  14  15
ENDBRANCH   9  14
BRANCH   8  25
HETATM   25  O2  UNL     1       3.541  12.019  25.327  1.00  0.00    -0.392 OA
ATOM     26  H2  UNL     1       3.003  12.767  25.558  1.00  0.00     0.210 HD
ENDBRANCH   8  25
BRANCH  13  27
HETATM   27  O7  UNL     1       1.631   8.787  23.289  1.00  0.00    -0.383 OA
ATOM     28  H7  UNL     1       1.622   9.262  22.466  1.00  0.00     0.211 HD
ENDBRANCH  13  27
BRANCH   5  29
HETATM   29  O1  UNL     1      -0.785  10.292  23.773  1.00  0.00    -0.396 OA
ATOM     30  H1  UNL     1      -0.325   9.970  23.006  1.00  0.00     0.210 HD
ENDBRANCH   5  29
TORSDOF 9
ENDMDL
