MODEL 1
REMARK VINA RESULT: -5.879691245      0.000      0.000
REMARK  6 active torsions:
REMARK  status: ('A' for Active; 'I' for Inactive)
REMARK    1  A    between atoms: N1_1  and  N2_4 
REMARK    2  A    between atoms: N2_4  and  C1_6 
REMARK    3  A    between atoms: C1_6  and  O1_7 
REMARK    4  A    between atoms: C1_6  and  N3_9 
REMARK    5  A    between atoms: N3_9  and  N4_11 
REMARK    6  A    between atoms: N4_11  and  C2_13 
ROOT
HETATM    1  N4  UNL     1      65.311  29.036  33.093  1.00  0.00    -0.127 N 
ATOM      2  H4  UNL     1      65.489  29.850  32.504  1.00  0.00     0.205 HD
ENDROOT
BRANCH   1   3
HETATM    3  N3  UNL     1      66.382  28.215  33.360  1.00  0.00    -0.250 N 
ATOM      4  H3  UNL     1      66.270  27.377  33.930  1.00  0.00     0.191 HD
BRANCH   3   5
HETATM    5  C1  UNL     1      67.650  28.566  32.818  1.00  0.00     0.251 C 
BRANCH   5   6
HETATM    6  N2  UNL     1      67.809  28.467  31.544  1.00  0.00    -0.271 N 
ATOM      7  H2  UNL     1      67.970  27.539  31.151  1.00  0.00     0.190 HD
BRANCH   6   8
HETATM    8  N1  UNL     1      67.773  29.551  30.674  1.00  0.00    -0.342 N 
ATOM      9  H12 UNL     1      67.351  30.412  31.022  1.00  0.00     0.176 HD
ATOM     10  H11 UNL     1      68.142  29.527  29.724  1.00  0.00     0.176 HD
ENDBRANCH   6   8
ENDBRANCH   5   6
BRANCH   5  11
HETATM   11  O1  UNL     1      68.726  29.009  33.569  1.00  0.00    -0.330 OA
ATOM     12  H1  UNL     1      68.770  29.935  33.775  1.00  0.00     0.221 HD
ENDBRANCH   5  11
ENDBRANCH   3   5
ENDBRANCH   1   3
BRANCH   1  13
HETATM   13  C2  UNL     1      64.119  28.879  33.512  1.00  0.00     0.715 A 
HETATM   14  N5  UNL     1      63.481  29.781  34.288  1.00  0.00    -0.127 N 
HETATM   15  N6  UNL     1      62.264  29.344  34.562  1.00  0.00    -0.237 N 
ATOM     16  H5  UNL     1      63.876  30.663  34.613  1.00  0.00     0.206 HD
HETATM   17  C3  UNL     1      62.156  28.153  33.942  1.00  0.00     0.353 A 
ATOM     18  H6  UNL     1      61.554  29.811  35.125  1.00  0.00     0.192 HD
HETATM   19  O2  UNL     1      61.101  27.437  33.992  1.00  0.00    -0.245 OA
HETATM   20  N7  UNL     1      63.291  27.850  33.290  1.00  0.00    -0.137 N 
ATOM     21  H7  UNL     1      63.482  27.012  32.741  1.00  0.00     0.189 HD
ENDBRANCH   1  13
TORSDOF 6
ENDMDL
MODEL 2
REMARK VINA RESULT: -5.871461014      1.423      1.760
REMARK  6 active torsions:
REMARK  status: ('A' for Active; 'I' for Inactive)
REMARK    1  A    between atoms: N1_1  and  N2_4 
REMARK    2  A    between atoms: N2_4  and  C1_6 
REMARK    3  A    between atoms: C1_6  and  O1_7 
REMARK    4  A    between atoms: C1_6  and  N3_9 
REMARK    5  A    between atoms: N3_9  and  N4_11 
REMARK    6  A    between atoms: N4_11  and  C2_13 
ROOT
HETATM    1  N4  UNL     1      65.462  28.907  33.205  1.00  0.00    -0.127 N 
ATOM      2  H4  UNL     1      65.666  29.569  32.456  1.00  0.00     0.205 HD
ENDROOT
BRANCH   1   3
HETATM    3  N3  UNL     1      66.526  28.200  33.716  1.00  0.00    -0.250 N 
ATOM      4  H3  UNL     1      66.616  28.043  34.720  1.00  0.00     0.191 HD
BRANCH   3   5
HETATM    5  C1  UNL     1      67.497  27.695  32.807  1.00  0.00     0.251 C 
BRANCH   5   6
HETATM    6  N2  UNL     1      68.080  26.586  33.103  1.00  0.00    -0.271 N 
ATOM      7  H2  UNL     1      69.097  26.545  33.039  1.00  0.00     0.190 HD
BRANCH   6   8
HETATM    8  N1  UNL     1      67.402  25.440  33.505  1.00  0.00    -0.342 N 
ATOM      9  H12 UNL     1      66.392  25.423  33.360  1.00  0.00     0.176 HD
ATOM     10  H11 UNL     1      67.857  24.632  33.929  1.00  0.00     0.176 HD
ENDBRANCH   6   8
ENDBRANCH   5   6
BRANCH   5  11
HETATM   11  O1  UNL     1      67.858  28.317  31.623  1.00  0.00    -0.330 OA
ATOM     12  H1  UNL     1      68.768  28.566  31.514  1.00  0.00     0.221 HD
ENDBRANCH   5  11
ENDBRANCH   3   5
ENDBRANCH   1   3
BRANCH   1  13
HETATM   13  C2  UNL     1      64.248  28.815  33.576  1.00  0.00     0.715 A 
HETATM   14  N5  UNL     1      63.615  29.772  34.287  1.00  0.00    -0.127 N 
HETATM   15  N6  UNL     1      62.371  29.395  34.523  1.00  0.00    -0.237 N 
ATOM     16  H5  UNL     1      64.032  30.651  34.594  1.00  0.00     0.206 HD
HETATM   17  C3  UNL     1      62.241  28.185  33.948  1.00  0.00     0.353 A 
ATOM     18  H6  UNL     1      61.657  29.913  35.036  1.00  0.00     0.192 HD
HETATM   19  O2  UNL     1      61.155  27.514  33.979  1.00  0.00    -0.245 OA
HETATM   20  N7  UNL     1      63.389  27.810  33.358  1.00  0.00    -0.137 N 
ATOM     21  H7  UNL     1      63.568  26.943  32.852  1.00  0.00     0.189 HD
ENDBRANCH   1  13
TORSDOF 6
ENDMDL
MODEL 3
REMARK VINA RESULT: -5.729595014      1.602      5.351
REMARK  6 active torsions:
REMARK  status: ('A' for Active; 'I' for Inactive)
REMARK    1  A    between atoms: N1_1  and  N2_4 
REMARK    2  A    between atoms: N2_4  and  C1_6 
REMARK    3  A    between atoms: C1_6  and  O1_7 
REMARK    4  A    between atoms: C1_6  and  N3_9 
REMARK    5  A    between atoms: N3_9  and  N4_11 
REMARK    6  A    between atoms: N4_11  and  C2_13 
ROOT
HETATM    1  N4  UNL     1      63.626  28.600  32.955  1.00  0.00    -0.127 N 
ATOM      2  H4  UNL     1      63.406  28.987  32.038  1.00  0.00     0.205 HD
ENDROOT
BRANCH   1   3
HETATM    3  N3  UNL     1      62.739  27.683  33.473  1.00  0.00    -0.250 N 
ATOM      4  H3  UNL     1      62.876  26.683  33.328  1.00  0.00     0.191 HD
BRANCH   3   5
HETATM    5  C1  UNL     1      61.627  28.169  34.214  1.00  0.00     0.251 C 
BRANCH   5   6
HETATM    6  N2  UNL     1      60.690  28.773  33.570  1.00  0.00    -0.271 N 
ATOM      7  H2  UNL     1      60.846  29.741  33.291  1.00  0.00     0.190 HD
BRANCH   6   8
HETATM    8  N1  UNL     1      59.479  28.179  33.231  1.00  0.00    -0.342 N 
ATOM      9  H12 UNL     1      58.995  27.661  33.964  1.00  0.00     0.176 HD
ATOM     10  H11 UNL     1      59.060  28.236  32.303  1.00  0.00     0.176 HD
ENDBRANCH   6   8
ENDBRANCH   5   6
BRANCH   5  11
HETATM   11  O1  UNL     1      61.484  28.036  35.586  1.00  0.00    -0.330 OA
ATOM     12  H1  UNL     1      60.793  27.467  35.905  1.00  0.00     0.221 HD
ENDBRANCH   5  11
ENDBRANCH   3   5
ENDBRANCH   1   3
BRANCH   1  13
HETATM   13  C2  UNL     1      64.695  29.010  33.512  1.00  0.00     0.715 A 
HETATM   14  N5  UNL     1      64.711  29.682  34.683  1.00  0.00    -0.127 N 
HETATM   15  N6  UNL     1      65.959  29.974  35.005  1.00  0.00    -0.237 N 
ATOM     16  H5  UNL     1      63.888  29.926  35.233  1.00  0.00     0.206 HD
HETATM   17  C3  UNL     1      66.720  29.472  34.014  1.00  0.00     0.353 A 
ATOM     18  H6  UNL     1      66.280  30.476  35.833  1.00  0.00     0.192 HD
HETATM   19  O2  UNL     1      67.992  29.572  33.997  1.00  0.00    -0.245 OA
HETATM   20  N7  UNL     1      65.957  28.873  33.084  1.00  0.00    -0.137 N 
ATOM     21  H7  UNL     1      66.273  28.412  32.230  1.00  0.00     0.189 HD
ENDBRANCH   1  13
TORSDOF 6
ENDMDL
MODEL 4
REMARK VINA RESULT: -5.690751764      1.686      1.789
REMARK  6 active torsions:
REMARK  status: ('A' for Active; 'I' for Inactive)
REMARK    1  A    between atoms: N1_1  and  N2_4 
REMARK    2  A    between atoms: N2_4  and  C1_6 
REMARK    3  A    between atoms: C1_6  and  O1_7 
REMARK    4  A    between atoms: C1_6  and  N3_9 
REMARK    5  A    between atoms: N3_9  and  N4_11 
REMARK    6  A    between atoms: N4_11  and  C2_13 
ROOT
HETATM    1  N4  UNL     1      65.427  29.013  33.096  1.00  0.00    -0.127 N 
ATOM      2  H4  UNL     1      65.558  29.338  32.138  1.00  0.00     0.205 HD
ENDROOT
BRANCH   1   3
HETATM    3  N3  UNL     1      66.564  28.776  33.833  1.00  0.00    -0.250 N 
ATOM      4  H3  UNL     1      67.260  29.508  33.973  1.00  0.00     0.191 HD
BRANCH   3   5
HETATM    5  C1  UNL     1      66.743  27.481  34.395  1.00  0.00     0.251 C 
BRANCH   5   6
HETATM    6  N2  UNL     1      67.179  26.545  33.626  1.00  0.00    -0.271 N 
ATOM      7  H2  UNL     1      66.819  25.601  33.765  1.00  0.00     0.190 HD
BRANCH   6   8
HETATM    8  N1  UNL     1      68.114  26.748  32.617  1.00  0.00    -0.342 N 
ATOM      9  H12 UNL     1      68.583  25.923  32.245  1.00  0.00     0.176 HD
ATOM     10  H11 UNL     1      68.349  27.666  32.239  1.00  0.00     0.176 HD
ENDBRANCH   6   8
ENDBRANCH   5   6
BRANCH   5  11
HETATM   11  O1  UNL     1      66.477  27.158  35.716  1.00  0.00    -0.330 OA
ATOM     12  H1  UNL     1      67.218  27.028  36.296  1.00  0.00     0.221 HD
ENDBRANCH   5  11
ENDBRANCH   3   5
ENDBRANCH   1   3
BRANCH   1  13
HETATM   13  C2  UNL     1      64.227  28.866  33.495  1.00  0.00     0.715 A 
HETATM   14  N5  UNL     1      63.599  29.751  34.298  1.00  0.00    -0.127 N 
HETATM   15  N6  UNL     1      62.369  29.331  34.540  1.00  0.00    -0.237 N 
ATOM     16  H5  UNL     1      64.009  30.611  34.662  1.00  0.00     0.206 HD
HETATM   17  C3  UNL     1      62.243  28.168  33.873  1.00  0.00     0.353 A 
ATOM     18  H6  UNL     1      61.663  29.791  35.113  1.00  0.00     0.192 HD
HETATM   19  O2  UNL     1      61.172  27.474  33.883  1.00  0.00    -0.245 OA
HETATM   20  N7  UNL     1      63.379  27.865  33.222  1.00  0.00    -0.137 N 
ATOM     21  H7  UNL     1      63.559  27.045  32.643  1.00  0.00     0.189 HD
ENDBRANCH   1  13
TORSDOF 6
ENDMDL
MODEL 5
REMARK VINA RESULT: -5.650457893      1.902      5.189
REMARK  6 active torsions:
REMARK  status: ('A' for Active; 'I' for Inactive)
REMARK    1  A    between atoms: N1_1  and  N2_4 
REMARK    2  A    between atoms: N2_4  and  C1_6 
REMARK    3  A    between atoms: C1_6  and  O1_7 
REMARK    4  A    between atoms: C1_6  and  N3_9 
REMARK    5  A    between atoms: N3_9  and  N4_11 
REMARK    6  A    between atoms: N4_11  and  C2_13 
ROOT
HETATM    1  N4  UNL     1      63.921  29.782  33.861  1.00  0.00    -0.127 N 
ATOM      2  H4  UNL     1      63.950  30.424  33.069  1.00  0.00     0.205 HD
ENDROOT
BRANCH   1   3
HETATM    3  N3  UNL     1      62.799  29.824  34.656  1.00  0.00    -0.250 N 
ATOM      4  H3  UNL     1      62.608  30.632  35.249  1.00  0.00     0.191 HD
BRANCH   3   5
HETATM    5  C1  UNL     1      61.913  28.711  34.629  1.00  0.00     0.251 C 
BRANCH   5   6
HETATM    6  N2  UNL     1      61.383  28.391  33.501  1.00  0.00    -0.271 N 
ATOM      7  H2  UNL     1      62.005  28.155  32.727  1.00  0.00     0.190 HD
BRANCH   6   8
HETATM    8  N1  UNL     1      60.011  28.347  33.277  1.00  0.00    -0.342 N 
ATOM      9  H12 UNL     1      59.439  29.037  33.764  1.00  0.00     0.176 HD
ATOM     10  H11 UNL     1      59.559  27.673  32.660  1.00  0.00     0.176 HD
ENDBRANCH   6   8
ENDBRANCH   5   6
BRANCH   5  11
HETATM   11  O1  UNL     1      61.583  27.948  35.737  1.00  0.00    -0.330 OA
ATOM     12  H1  UNL     1      61.769  27.017  35.704  1.00  0.00     0.221 HD
ENDBRANCH   5  11
ENDBRANCH   3   5
ENDBRANCH   1   3
BRANCH   1  13
HETATM   13  C2  UNL     1      64.927  29.017  34.018  1.00  0.00     0.715 A 
HETATM   14  N5  UNL     1      65.880  28.842  33.078  1.00  0.00    -0.127 N 
HETATM   15  N6  UNL     1      66.790  27.995  33.527  1.00  0.00    -0.237 N 
ATOM     16  H5  UNL     1      65.896  29.293  32.164  1.00  0.00     0.206 HD
HETATM   17  C3  UNL     1      66.386  27.645  34.763  1.00  0.00     0.353 A 
ATOM     18  H6  UNL     1      67.625  27.672  33.038  1.00  0.00     0.192 HD
HETATM   19  O2  UNL     1      67.034  26.830  35.501  1.00  0.00    -0.245 OA
HETATM   20  N7  UNL     1      65.238  28.266  35.083  1.00  0.00    -0.137 N 
ATOM     21  H7  UNL     1      64.714  28.183  35.955  1.00  0.00     0.189 HD
ENDBRANCH   1  13
TORSDOF 6
ENDMDL
