MODEL 1
REMARK VINA RESULT: -6.062746131      0.000      0.000
REMARK  8 active torsions:
REMARK  status: ('A' for Active; 'I' for Inactive)
REMARK    1  A    between atoms: N1_1  and  C1_4 
REMARK    2  A    between atoms: C2_7  and  N3_8 
REMARK    3  A    between atoms: N5_14  and  C4_16 
REMARK    4  A    between atoms: C4_16  and  N6_17 
REMARK    5  A    between atoms: C4_16  and  C5_21 
REMARK    6  A    between atoms: C6_24  and  N7_25 
REMARK       I    between atoms: N7_25  and  C7_27 
REMARK    7  A    between atoms: C7_27  and  C8_29 
REMARK    8  A    between atoms: C8_29  and  N8_30 
ROOT
HETATM    1  C1  UNL     1       2.846 -11.526   4.637  1.00  0.00     0.692 C 
HETATM    2  N2  UNL     1       3.663 -10.534   4.230  1.00  0.00    -0.023 N 
ATOM      3  H2  UNL     1       3.506 -10.166   3.292  1.00  0.00     0.203 HD
HETATM    4  C2  UNL     1       4.670  -9.977   4.940  1.00  0.00     0.692 C 
HETATM    5  N4  UNL     1       5.288 -10.385   6.075  1.00  0.00    -0.173 N 
ATOM      6  H4  UNL     1       6.035  -9.782   6.419  1.00  0.00     0.186 HD
HETATM    7  C3  UNL     1       5.036 -11.492   6.806  1.00  0.00     0.164 C 
HETATM    8  N5  UNL     1       5.919 -11.904   7.640  1.00  0.00    -0.337 N 
ATOM      9  H5  UNL     1       5.696 -12.742   8.177  1.00  0.00     0.163 HD
HETATM   10  C6  UNL     1       3.874 -12.233   6.728  1.00  0.00     0.168 C 
HETATM   11  N9  UNL     1       2.836 -12.141   5.847  1.00  0.00    -0.172 N 
ATOM     12  H9  UNL     1       1.960 -12.581   6.128  1.00  0.00     0.186 HD
ENDROOT
BRANCH   8  13
HETATM   13  C4  UNL     1       7.184 -11.294   7.881  1.00  0.00     0.385 C 
BRANCH  13  14
HETATM   14  N6  UNL     1       7.548 -11.238   9.285  1.00  0.00    -0.048 N 
ATOM     15  H63 UNL     1       7.809 -10.288   9.552  1.00  0.00     0.277 HD
ATOM     16  H62 UNL     1       6.725 -11.363   9.876  1.00  0.00     0.277 HD
ATOM     17  H61 UNL     1       8.281 -11.898   9.546  1.00  0.00     0.277 HD
ENDBRANCH  13  14
BRANCH  13  18
HETATM   18  C5  UNL     1       8.224 -12.044   7.110  1.00  0.00     0.225 C 
HETATM   19  O1  UNL     1       9.087 -12.763   7.642  1.00  0.00    -0.645 OA
HETATM   20  O2  UNL     1       8.207 -11.918   5.735  1.00  0.00    -0.645 OA
ENDBRANCH  13  18
ENDBRANCH   8  13
BRANCH  10  21
HETATM   21  N7  UNL     1       3.802 -13.137   7.644  1.00  0.00    -0.308 N 
HETATM   22  C7  UNL     1       2.673 -13.265   8.519  1.00  0.00     0.247 C 
HETATM   23  O3  UNL     1       1.563 -13.628   8.081  1.00  0.00    -0.271 OA
ATOM     24  H7  UNL     1       4.580 -13.788   7.751  1.00  0.00     0.170 HD
BRANCH  22  25
HETATM   25  C8  UNL     1       2.912 -12.944   9.947  1.00  0.00     0.304 C 
BRANCH  25  26
HETATM   26  N8  UNL     1       3.449 -11.621  10.128  1.00  0.00    -0.147 N 
HETATM   27  O4  UNL     1       2.750 -10.592  10.008  1.00  0.00    -0.536 OA
HETATM   28  O5  UNL     1       4.781 -11.515  10.443  1.00  0.00    -0.536 OA
ENDBRANCH  25  26
ENDBRANCH  22  25
ENDBRANCH  10  21
BRANCH   4  29
HETATM   29  N3  UNL     1       5.092  -8.874   4.423  1.00  0.00    -0.234 N 
ATOM     30  H32 UNL     1       5.447  -8.928   3.468  1.00  0.00     0.174 HD
ATOM     31  H31 UNL     1       5.008  -8.083   5.061  1.00  0.00     0.174 HD
ENDBRANCH   4  29
BRANCH   1  32
HETATM   32  N1  UNL     1       1.958 -11.977   3.829  1.00  0.00    -0.234 N 
ATOM     33  H12 UNL     1       1.262 -11.281   3.561  1.00  0.00     0.174 HD
ATOM     34  H11 UNL     1       2.008 -12.951   3.526  1.00  0.00     0.174 HD
ENDBRANCH   1  32
TORSDOF 8
ENDMDL
MODEL 2
REMARK VINA RESULT: -5.793172670      1.180      1.436
REMARK  8 active torsions:
REMARK  status: ('A' for Active; 'I' for Inactive)
REMARK    1  A    between atoms: N1_1  and  C1_4 
REMARK    2  A    between atoms: C2_7  and  N3_8 
REMARK    3  A    between atoms: N5_14  and  C4_16 
REMARK    4  A    between atoms: C4_16  and  N6_17 
REMARK    5  A    between atoms: C4_16  and  C5_21 
REMARK    6  A    between atoms: C6_24  and  N7_25 
REMARK       I    between atoms: N7_25  and  C7_27 
REMARK    7  A    between atoms: C7_27  and  C8_29 
REMARK    8  A    between atoms: C8_29  and  N8_30 
ROOT
HETATM    1  C1  UNL     1       2.929 -11.586   4.647  1.00  0.00     0.692 C 
HETATM    2  N2  UNL     1       3.877 -10.813   4.080  1.00  0.00    -0.023 N 
ATOM      3  H2  UNL     1       3.789 -10.640   3.079  1.00  0.00     0.203 HD
HETATM    4  C2  UNL     1       4.931 -10.243   4.703  1.00  0.00     0.692 C 
HETATM    5  N4  UNL     1       5.467 -10.468   5.929  1.00  0.00    -0.173 N 
ATOM      6  H4  UNL     1       6.279  -9.901   6.173  1.00  0.00     0.186 HD
HETATM    7  C3  UNL     1       5.058 -11.351   6.864  1.00  0.00     0.164 C 
HETATM    8  N5  UNL     1       5.862 -11.678   7.808  1.00  0.00    -0.337 N 
ATOM      9  H5  UNL     1       5.521 -12.346   8.500  1.00  0.00     0.163 HD
HETATM   10  C6  UNL     1       3.812 -11.944   6.888  1.00  0.00     0.168 C 
HETATM   11  N9  UNL     1       2.814 -11.918   5.958  1.00  0.00    -0.172 N 
ATOM     12  H9  UNL     1       1.882 -12.177   6.283  1.00  0.00     0.186 HD
ENDROOT
BRANCH   8  13
HETATM   13  C4  UNL     1       7.190 -11.189   7.976  1.00  0.00     0.385 C 
BRANCH  13  14
HETATM   14  N6  UNL     1       7.607 -11.094   9.364  1.00  0.00    -0.048 N 
ATOM     15  H63 UNL     1       6.890 -11.474   9.982  1.00  0.00     0.277 HD
ATOM     16  H62 UNL     1       8.365 -11.749   9.557  1.00  0.00     0.277 HD
ATOM     17  H61 UNL     1       7.865 -10.150   9.651  1.00  0.00     0.277 HD
ENDBRANCH  13  14
BRANCH  13  18
HETATM   18  C5  UNL     1       8.121 -12.085   7.221  1.00  0.00     0.225 C 
HETATM   19  O1  UNL     1       8.908 -12.875   7.769  1.00  0.00    -0.645 OA
HETATM   20  O2  UNL     1       8.088 -12.015   5.842  1.00  0.00    -0.645 OA
ENDBRANCH  13  18
ENDBRANCH   8  13
BRANCH  10  21
HETATM   21  N7  UNL     1       3.603 -12.613   7.970  1.00  0.00    -0.308 N 
HETATM   22  C7  UNL     1       2.778 -13.785   8.010  1.00  0.00     0.247 C 
HETATM   23  O3  UNL     1       3.130 -14.834   7.436  1.00  0.00    -0.271 OA
ATOM     24  H7  UNL     1       4.043 -12.295   8.834  1.00  0.00     0.170 HD
BRANCH  22  25
HETATM   25  C8  UNL     1       1.506 -13.665   8.764  1.00  0.00     0.304 C 
BRANCH  25  26
HETATM   26  N8  UNL     1       1.722 -13.413  10.164  1.00  0.00    -0.147 N 
HETATM   27  O4  UNL     1       2.864 -13.257  10.649  1.00  0.00    -0.536 OA
HETATM   28  O5  UNL     1       0.616 -13.348  10.974  1.00  0.00    -0.536 OA
ENDBRANCH  25  26
ENDBRANCH  22  25
ENDBRANCH  10  21
BRANCH   4  29
HETATM   29  N3  UNL     1       5.505  -9.338   3.986  1.00  0.00    -0.234 N 
ATOM     30  H32 UNL     1       6.193  -8.753   4.460  1.00  0.00     0.174 HD
ATOM     31  H31 UNL     1       5.179  -9.337   3.019  1.00  0.00     0.174 HD
ENDBRANCH   4  29
BRANCH   1  32
HETATM   32  N1  UNL     1       2.008 -12.089   3.911  1.00  0.00    -0.234 N 
ATOM     33  H12 UNL     1       2.238 -12.091   2.917  1.00  0.00     0.174 HD
ATOM     34  H11 UNL     1       1.153 -12.436   4.348  1.00  0.00     0.174 HD
ENDBRANCH   1  32
TORSDOF 8
ENDMDL
MODEL 3
REMARK VINA RESULT: -5.719021476      2.508      5.414
REMARK  8 active torsions:
REMARK  status: ('A' for Active; 'I' for Inactive)
REMARK    1  A    between atoms: N1_1  and  C1_4 
REMARK    2  A    between atoms: C2_7  and  N3_8 
REMARK    3  A    between atoms: N5_14  and  C4_16 
REMARK    4  A    between atoms: C4_16  and  N6_17 
REMARK    5  A    between atoms: C4_16  and  C5_21 
REMARK    6  A    between atoms: C6_24  and  N7_25 
REMARK       I    between atoms: N7_25  and  C7_27 
REMARK    7  A    between atoms: C7_27  and  C8_29 
REMARK    8  A    between atoms: C8_29  and  N8_30 
ROOT
HETATM    1  C1  UNL     1       4.154 -12.204   9.863  1.00  0.00     0.692 C 
HETATM    2  N2  UNL     1       3.008 -12.839   9.547  1.00  0.00    -0.023 N 
ATOM      3  H2  UNL     1       2.479 -13.243  10.320  1.00  0.00     0.203 HD
HETATM    4  C2  UNL     1       2.488 -12.995   8.310  1.00  0.00     0.692 C 
HETATM    5  N4  UNL     1       3.039 -12.812   7.084  1.00  0.00    -0.173 N 
ATOM      6  H4  UNL     1       2.431 -13.002   6.288  1.00  0.00     0.186 HD
HETATM    7  C3  UNL     1       4.293 -12.408   6.790  1.00  0.00     0.164 C 
HETATM    8  N5  UNL     1       4.754 -12.613   5.611  1.00  0.00    -0.337 N 
ATOM      9  H5  UNL     1       5.705 -12.295   5.421  1.00  0.00     0.163 HD
HETATM   10  C6  UNL     1       5.139 -11.775   7.677  1.00  0.00     0.168 C 
HETATM   11  N9  UNL     1       4.998 -11.559   9.017  1.00  0.00    -0.172 N 
ATOM     12  H9  UNL     1       5.590 -10.836   9.427  1.00  0.00     0.186 HD
ENDROOT
BRANCH   8  13
HETATM   13  C4  UNL     1       4.055 -13.247   4.543  1.00  0.00     0.385 C 
BRANCH  13  14
HETATM   14  N6  UNL     1       3.217 -12.344   3.776  1.00  0.00    -0.048 N 
ATOM     15  H63 UNL     1       3.264 -12.567   2.781  1.00  0.00     0.277 HD
ATOM     16  H62 UNL     1       2.230 -12.536   3.948  1.00  0.00     0.277 HD
ATOM     17  H61 UNL     1       3.424 -11.357   3.932  1.00  0.00     0.277 HD
ENDBRANCH  13  14
BRANCH  13  18
HETATM   18  C5  UNL     1       5.058 -13.902   3.646  1.00  0.00     0.225 C 
HETATM   19  O1  UNL     1       4.833 -14.188   2.459  1.00  0.00    -0.645 OA
HETATM   20  O2  UNL     1       6.295 -14.196   4.188  1.00  0.00    -0.645 OA
ENDBRANCH  13  18
ENDBRANCH   8  13
BRANCH  10  21
HETATM   21  N7  UNL     1       6.212 -11.339   7.112  1.00  0.00    -0.308 N 
HETATM   22  C7  UNL     1       6.659  -9.982   7.239  1.00  0.00     0.247 C 
HETATM   23  O3  UNL     1       7.063  -9.542   8.333  1.00  0.00    -0.271 OA
ATOM     24  H7  UNL     1       6.767 -11.986   6.551  1.00  0.00     0.170 HD
BRANCH  22  25
HETATM   25  C8  UNL     1       6.607  -9.158   6.006  1.00  0.00     0.304 C 
BRANCH  25  26
HETATM   26  N8  UNL     1       5.985  -9.853   4.910  1.00  0.00    -0.147 N 
HETATM   27  O4  UNL     1       6.625 -10.605   4.143  1.00  0.00    -0.536 OA
HETATM   28  O5  UNL     1       4.638  -9.664   4.723  1.00  0.00    -0.536 OA
ENDBRANCH  25  26
ENDBRANCH  22  25
ENDBRANCH  10  21
BRANCH   4  29
HETATM   29  N3  UNL     1       1.259 -13.387   8.332  1.00  0.00    -0.234 N 
ATOM     30  H32 UNL     1       0.983 -13.968   9.123  1.00  0.00     0.174 HD
ATOM     31  H31 UNL     1       0.724 -13.049   7.532  1.00  0.00     0.174 HD
ENDBRANCH   4  29
BRANCH   1  32
HETATM   32  N1  UNL     1       4.538 -12.174  11.086  1.00  0.00    -0.234 N 
ATOM     33  H12 UNL     1       4.394 -13.057  11.577  1.00  0.00     0.174 HD
ATOM     34  H11 UNL     1       4.940 -11.315  11.462  1.00  0.00     0.174 HD
ENDBRANCH   1  32
TORSDOF 8
ENDMDL
MODEL 4
REMARK VINA RESULT: -5.703382647      2.501      4.574
REMARK  8 active torsions:
REMARK  status: ('A' for Active; 'I' for Inactive)
REMARK    1  A    between atoms: N1_1  and  C1_4 
REMARK    2  A    between atoms: C2_7  and  N3_8 
REMARK    3  A    between atoms: N5_14  and  C4_16 
REMARK    4  A    between atoms: C4_16  and  N6_17 
REMARK    5  A    between atoms: C4_16  and  C5_21 
REMARK    6  A    between atoms: C6_24  and  N7_25 
REMARK       I    between atoms: N7_25  and  C7_27 
REMARK    7  A    between atoms: C7_27  and  C8_29 
REMARK    8  A    between atoms: C8_29  and  N8_30 
ROOT
HETATM    1  C1  UNL     1       6.625 -10.193   9.334  1.00  0.00     0.692 C 
HETATM    2  N2  UNL     1       7.596 -10.530   8.462  1.00  0.00    -0.023 N 
ATOM      3  H2  UNL     1       8.470 -10.009   8.525  1.00  0.00     0.203 HD
HETATM    4  C2  UNL     1       7.528 -11.490   7.513  1.00  0.00     0.692 C 
HETATM    5  N4  UNL     1       6.468 -12.169   7.010  1.00  0.00    -0.173 N 
ATOM      6  H4  UNL     1       6.680 -12.854   6.284  1.00  0.00     0.186 HD
HETATM    7  C3  UNL     1       5.168 -12.050   7.351  1.00  0.00     0.164 C 
HETATM    8  N5  UNL     1       4.269 -12.504   6.557  1.00  0.00    -0.337 N 
ATOM      9  H5  UNL     1       3.297 -12.399   6.846  1.00  0.00     0.163 HD
HETATM   10  C6  UNL     1       4.716 -11.464   8.516  1.00  0.00     0.168 C 
HETATM   11  N9  UNL     1       5.402 -10.766   9.467  1.00  0.00    -0.172 N 
ATOM     12  H9  UNL     1       4.948 -10.665  10.375  1.00  0.00     0.186 HD
ENDROOT
BRANCH   8  13
HETATM   13  C4  UNL     1       4.511 -13.144   5.307  1.00  0.00     0.385 C 
BRANCH  13  14
HETATM   14  N6  UNL     1       4.099 -14.535   5.272  1.00  0.00    -0.048 N 
ATOM     15  H63 UNL     1       3.901 -14.876   6.213  1.00  0.00     0.277 HD
ATOM     16  H62 UNL     1       3.170 -14.625   4.858  1.00  0.00     0.277 HD
ATOM     17  H61 UNL     1       4.763 -15.149   4.800  1.00  0.00     0.277 HD
ENDBRANCH  13  14
BRANCH  13  18
HETATM   18  C5  UNL     1       3.803 -12.372   4.238  1.00  0.00     0.225 C 
HETATM   19  O1  UNL     1       2.578 -12.164   4.239  1.00  0.00    -0.645 OA
HETATM   20  O2  UNL     1       4.571 -11.872   3.204  1.00  0.00    -0.645 OA
ENDBRANCH  13  18
ENDBRANCH   8  13
BRANCH  10  21
HETATM   21  N7  UNL     1       3.449 -11.625   8.691  1.00  0.00    -0.308 N 
HETATM   22  C7  UNL     1       2.877 -11.946   9.967  1.00  0.00     0.247 C 
HETATM   23  O3  UNL     1       2.896 -11.121  10.902  1.00  0.00    -0.271 OA
ATOM     24  H7  UNL     1       2.827 -11.520   7.889  1.00  0.00     0.170 HD
BRANCH  22  25
HETATM   25  C8  UNL     1       2.276 -13.296  10.094  1.00  0.00     0.304 C 
BRANCH  25  26
HETATM   26  N8  UNL     1       1.882 -13.841   8.821  1.00  0.00    -0.147 N 
HETATM   27  O4  UNL     1       2.679 -14.454   8.078  1.00  0.00    -0.536 OA
HETATM   28  O5  UNL     1       0.576 -13.665   8.434  1.00  0.00    -0.536 OA
ENDBRANCH  25  26
ENDBRANCH  22  25
ENDBRANCH  10  21
BRANCH   4  29
HETATM   29  N3  UNL     1       8.683 -11.786   7.021  1.00  0.00    -0.234 N 
ATOM     30  H32 UNL     1       9.471 -11.225   7.347  1.00  0.00     0.174 HD
ATOM     31  H31 UNL     1       8.643 -12.561   6.359  1.00  0.00     0.174 HD
ENDBRANCH   4  29
BRANCH   1  32
HETATM   32  N1  UNL     1       6.827  -9.227  10.154  1.00  0.00    -0.234 N 
ATOM     33  H12 UNL     1       6.127  -8.487  10.089  1.00  0.00     0.174 HD
ATOM     34  H11 UNL     1       7.631  -9.265  10.781  1.00  0.00     0.174 HD
ENDBRANCH   1  32
TORSDOF 8
ENDMDL
MODEL 5
REMARK VINA RESULT: -5.601876733      1.320      4.842
REMARK  8 active torsions:
REMARK  status: ('A' for Active; 'I' for Inactive)
REMARK    1  A    between atoms: N1_1  and  C1_4 
REMARK    2  A    between atoms: C2_7  and  N3_8 
REMARK    3  A    between atoms: N5_14  and  C4_16 
REMARK    4  A    between atoms: C4_16  and  N6_17 
REMARK    5  A    between atoms: C4_16  and  C5_21 
REMARK    6  A    between atoms: C6_24  and  N7_25 
REMARK       I    between atoms: N7_25  and  C7_27 
REMARK    7  A    between atoms: C7_27  and  C8_29 
REMARK    8  A    between atoms: C8_29  and  N8_30 
ROOT
HETATM    1  C1  UNL     1       5.280 -10.841   4.083  1.00  0.00     0.692 C 
HETATM    2  N2  UNL     1       3.973 -11.005   3.798  1.00  0.00    -0.023 N 
ATOM      3  H2  UNL     1       3.615 -10.506   2.983  1.00  0.00     0.203 HD
HETATM    4  C2  UNL     1       3.088 -11.762   4.482  1.00  0.00     0.692 C 
HETATM    5  N4  UNL     1       3.167 -12.331   5.711  1.00  0.00    -0.173 N 
ATOM      6  H4  UNL     1       2.351 -12.863   6.011  1.00  0.00     0.186 HD
HETATM    7  C3  UNL     1       4.195 -12.279   6.584  1.00  0.00     0.164 C 
HETATM    8  N5  UNL     1       3.984 -12.571   7.815  1.00  0.00    -0.337 N 
ATOM      9  H5  UNL     1       4.782 -12.523   8.448  1.00  0.00     0.163 HD
HETATM   10  C6  UNL     1       5.488 -11.930   6.251  1.00  0.00     0.168 C 
HETATM   11  N9  UNL     1       5.985 -11.429   5.083  1.00  0.00    -0.172 N 
ATOM     12  H9  UNL     1       6.993 -11.505   4.946  1.00  0.00     0.186 HD
ENDROOT
BRANCH   8  13
HETATM   13  C4  UNL     1       2.732 -12.957   8.375  1.00  0.00     0.385 C 
BRANCH  13  14
HETATM   14  N6  UNL     1       2.483 -14.387   8.324  1.00  0.00    -0.048 N 
ATOM     15  H63 UNL     1       2.293 -14.685   7.366  1.00  0.00     0.277 HD
ATOM     16  H62 UNL     1       3.343 -14.907   8.498  1.00  0.00     0.277 HD
ATOM     17  H61 UNL     1       1.741 -14.698   8.950  1.00  0.00     0.277 HD
ENDBRANCH  13  14
BRANCH  13  18
HETATM   18  C5  UNL     1       2.681 -12.478   9.792  1.00  0.00     0.225 C 
HETATM   19  O1  UNL     1       2.331 -13.193  10.745  1.00  0.00    -0.645 OA
HETATM   20  O2  UNL     1       3.048 -11.168  10.031  1.00  0.00    -0.645 OA
ENDBRANCH  13  18
ENDBRANCH   8  13
BRANCH  10  21
HETATM   21  N7  UNL     1       6.317 -12.121   7.219  1.00  0.00    -0.308 N 
HETATM   22  C7  UNL     1       6.874 -11.045   7.987  1.00  0.00     0.247 C 
HETATM   23  O3  UNL     1       6.157 -10.361   8.743  1.00  0.00    -0.271 OA
ATOM     24  H7  UNL     1       6.588 -13.077   7.450  1.00  0.00     0.170 HD
BRANCH  22  25
HETATM   25  C8  UNL     1       8.329 -10.808   7.821  1.00  0.00     0.304 C 
BRANCH  25  26
HETATM   26  N8  UNL     1       8.983 -11.887   7.129  1.00  0.00    -0.147 N 
HETATM   27  O4  UNL     1       9.485 -12.862   7.729  1.00  0.00    -0.536 OA
HETATM   28  O5  UNL     1       9.043 -11.816   5.759  1.00  0.00    -0.536 OA
ENDBRANCH  25  26
ENDBRANCH  22  25
ENDBRANCH  10  21
BRANCH   4  29
HETATM   29  N3  UNL     1       1.992 -11.959   3.831  1.00  0.00    -0.234 N 
ATOM     30  H32 UNL     1       2.088 -12.184   2.841  1.00  0.00     0.174 HD
ATOM     31  H31 UNL     1       1.163 -11.858   4.416  1.00  0.00     0.174 HD
ENDBRANCH   4  29
BRANCH   1  32
HETATM   32  N1  UNL     1       5.986 -10.053   3.358  1.00  0.00    -0.234 N 
ATOM     33  H12 UNL     1       5.844  -9.066   3.577  1.00  0.00     0.174 HD
ATOM     34  H11 UNL     1       6.607 -10.446   2.651  1.00  0.00     0.174 HD
ENDBRANCH   1  32
TORSDOF 8
ENDMDL
