MODEL 1
REMARK VINA RESULT: -4.501550015      0.000      0.000
REMARK  10 active torsions:
REMARK  status: ('A' for Active; 'I' for Inactive)
REMARK    1  A    between atoms: N1_1  and  C1_4 
REMARK    2  A    between atoms: C4_12  and  N4_13 
REMARK    3  A    between atoms: N4_13  and  C5_15 
REMARK    4  A    between atoms: C5_15  and  C6_16 
REMARK    5  A    between atoms: C6_16  and  O2_17 
REMARK    6  A    between atoms: C7_21  and  N6_22 
REMARK    7  A    between atoms: N6_22  and  N7_24 
REMARK    8  A    between atoms: N7_24  and  C8_26 
REMARK    9  A    between atoms: C8_26  and  C9_27 
REMARK   10  A    between atoms: C9_27  and  O3_28 
ROOT
HETATM    1  C1  UNL     1      44.831  20.603  33.328  1.00  0.00     0.692 C 
HETATM    2  N2  UNL     1      46.036  21.151  33.651  1.00  0.00    -0.130 N 
ATOM      3  H2  UNL     1      46.025  21.954  34.280  1.00  0.00     0.205 HD
HETATM    4  N3  UNL     1      47.215  20.739  33.227  1.00  0.00    -0.251 N 
ATOM      5  H3  UNL     1      47.930  21.462  33.146  1.00  0.00     0.191 HD
HETATM    6  C2  UNL     1      47.608  19.495  32.886  1.00  0.00     0.278 C 
HETATM    7  O1  UNL     1      48.816  19.282  32.616  1.00  0.00    -0.266 OA
HETATM    8  C3  UNL     1      46.782  18.403  32.806  1.00  0.00     0.122 A 
HETATM    9  C4  UNL     1      47.543  17.230  32.737  1.00  0.00     0.136 A 
HETATM   10  N5  UNL     1      46.867  16.090  32.654  1.00  0.00    -0.174 N 
ATOM     11  H5  UNL     1      47.395  15.218  32.602  1.00  0.00     0.186 HD
HETATM   12  C7  UNL     1      45.515  16.020  32.635  1.00  0.00     0.699 A 
HETATM   13  N8  UNL     1      44.774  17.136  32.701  1.00  0.00    -0.173 N 
ATOM     14  H8  UNL     1      43.755  17.085  32.687  1.00  0.00     0.186 HD
HETATM   15  C10 UNL     1      45.398  18.324  32.786  1.00  0.00     0.156 A 
HETATM   16  N9  UNL     1      44.551  19.372  32.846  1.00  0.00    -0.174 N 
ATOM     17  H9  UNL     1      43.605  19.220  32.494  1.00  0.00     0.186 HD
ENDROOT
BRANCH  12  18
HETATM   18  N6  UNL     1      44.887  14.898  32.554  1.00  0.00    -0.136 N 
ATOM     19  H6  UNL     1      43.982  14.898  32.083  1.00  0.00     0.205 HD
BRANCH  18  20
HETATM   20  N7  UNL     1      45.345  13.697  33.056  1.00  0.00    -0.320 N 
ATOM     21  H7  UNL     1      45.589  13.628  34.044  1.00  0.00     0.180 HD
BRANCH  20  22
HETATM   22  C8  UNL     1      45.485  12.547  32.219  1.00  0.00     0.166 C 
BRANCH  22  23
HETATM   23  C9  UNL     1      46.888  12.450  31.619  1.00  0.00     0.185 C 
BRANCH  23  24
HETATM   24  O3  UNL     1      47.176  13.580  30.864  1.00  0.00    -0.399 OA
ATOM     25  H3  UNL     1      47.278  13.352  29.947  1.00  0.00     0.209 HD
ENDBRANCH  23  24
ENDBRANCH  22  23
ENDBRANCH  20  22
ENDBRANCH  18  20
ENDBRANCH  12  18
BRANCH   9  26
HETATM   26  N4  UNL     1      48.813  17.376  32.760  1.00  0.00    -0.373 N 
ATOM     27  H4  UNL     1      49.228  18.163  32.261  1.00  0.00     0.161 HD
BRANCH  26  28
HETATM   28  C5  UNL     1      49.671  16.472  33.460  1.00  0.00     0.147 C 
BRANCH  28  29
HETATM   29  C6  UNL     1      50.451  15.596  32.495  1.00  0.00     0.183 C 
BRANCH  29  30
HETATM   30  O2  UNL     1      49.675  14.560  32.031  1.00  0.00    -0.399 OA
ATOM     31  H2  UNL     1      49.721  14.497  31.084  1.00  0.00     0.209 HD
ENDBRANCH  29  30
ENDBRANCH  28  29
ENDBRANCH  26  28
ENDBRANCH   9  26
BRANCH   1  32
HETATM   32  N1  UNL     1      43.783  21.335  33.491  1.00  0.00    -0.233 N 
ATOM     33  H12 UNL     1      43.218  21.422  32.647  1.00  0.00     0.174 HD
ATOM     34  H11 UNL     1      43.632  21.738  34.416  1.00  0.00     0.174 HD
ENDBRANCH   1  32
TORSDOF 10
ENDMDL
MODEL 2
REMARK VINA RESULT: -4.447538991      2.713      4.846
REMARK  10 active torsions:
REMARK  status: ('A' for Active; 'I' for Inactive)
REMARK    1  A    between atoms: N1_1  and  C1_4 
REMARK    2  A    between atoms: C4_12  and  N4_13 
REMARK    3  A    between atoms: N4_13  and  C5_15 
REMARK    4  A    between atoms: C5_15  and  C6_16 
REMARK    5  A    between atoms: C6_16  and  O2_17 
REMARK    6  A    between atoms: C7_21  and  N6_22 
REMARK    7  A    between atoms: N6_22  and  N7_24 
REMARK    8  A    between atoms: N7_24  and  C8_26 
REMARK    9  A    between atoms: C8_26  and  C9_27 
REMARK   10  A    between atoms: C9_27  and  O3_28 
ROOT
HETATM    1  C1  UNL     1      47.587  17.044  33.124  1.00  0.00     0.692 C 
HETATM    2  N2  UNL     1      48.640  16.257  32.766  1.00  0.00    -0.130 N 
ATOM      3  H2  UNL     1      49.551  16.499  33.155  1.00  0.00     0.205 HD
HETATM    4  N3  UNL     1      48.590  15.212  31.962  1.00  0.00    -0.251 N 
ATOM      5  H3  UNL     1      49.439  15.027  31.429  1.00  0.00     0.191 HD
HETATM    6  C2  UNL     1      47.573  14.353  31.748  1.00  0.00     0.278 C 
HETATM    7  O1  UNL     1      47.761  13.343  31.026  1.00  0.00    -0.266 OA
HETATM    8  C3  UNL     1      46.309  14.485  32.266  1.00  0.00     0.122 A 
HETATM    9  C4  UNL     1      45.601  13.287  32.114  1.00  0.00     0.136 A 
HETATM   10  N5  UNL     1      44.355  13.274  32.573  1.00  0.00    -0.174 N 
ATOM     11  H5  UNL     1      43.814  12.414  32.475  1.00  0.00     0.186 HD
HETATM   12  C7  UNL     1      43.763  14.337  33.164  1.00  0.00     0.699 A 
HETATM   13  N8  UNL     1      44.430  15.491  33.316  1.00  0.00    -0.173 N 
ATOM     14  H8  UNL     1      43.985  16.294  33.761  1.00  0.00     0.186 HD
HETATM   15  C10 UNL     1      45.697  15.571  32.872  1.00  0.00     0.156 A 
HETATM   16  N9  UNL     1      46.263  16.777  33.080  1.00  0.00    -0.174 N 
ATOM     17  H9  UNL     1      45.630  17.566  33.218  1.00  0.00     0.186 HD
ENDROOT
BRANCH  12  18
HETATM   18  N6  UNL     1      42.552  14.294  33.600  1.00  0.00    -0.136 N 
ATOM     19  H6  UNL     1      42.189  15.126  34.067  1.00  0.00     0.205 HD
BRANCH  18  20
HETATM   20  N7  UNL     1      41.707  13.209  33.483  1.00  0.00    -0.320 N 
ATOM     21  H7  UNL     1      41.919  12.353  33.995  1.00  0.00     0.180 HD
BRANCH  20  22
HETATM   22  C8  UNL     1      40.541  13.260  32.659  1.00  0.00     0.166 C 
BRANCH  22  23
HETATM   23  C9  UNL     1      40.794  12.646  31.281  1.00  0.00     0.185 C 
BRANCH  23  24
HETATM   24  O3  UNL     1      41.813  13.322  30.623  1.00  0.00    -0.399 OA
ATOM     25  H3  UNL     1      42.447  13.659  31.245  1.00  0.00     0.209 HD
ENDBRANCH  23  24
ENDBRANCH  22  23
ENDBRANCH  20  22
ENDBRANCH  18  20
ENDBRANCH  12  18
BRANCH   9  26
HETATM   26  N4  UNL     1      46.226  12.327  31.547  1.00  0.00    -0.373 N 
ATOM     27  H4  UNL     1      47.074  12.534  31.019  1.00  0.00     0.161 HD
BRANCH  26  28
HETATM   28  C5  UNL     1      45.778  10.972  31.627  1.00  0.00     0.147 C 
BRANCH  28  29
HETATM   29  C6  UNL     1      46.950  10.011  31.723  1.00  0.00     0.183 C 
BRANCH  29  30
HETATM   30  O2  UNL     1      47.904  10.298  30.776  1.00  0.00    -0.399 OA
ATOM     31  H2  UNL     1      48.768  10.356  31.168  1.00  0.00     0.209 HD
ENDBRANCH  29  30
ENDBRANCH  28  29
ENDBRANCH  26  28
ENDBRANCH   9  26
BRANCH   1  32
HETATM   32  N1  UNL     1      47.853  18.221  33.576  1.00  0.00    -0.233 N 
ATOM     33  H12 UNL     1      47.883  18.934  32.847  1.00  0.00     0.174 HD
ATOM     34  H11 UNL     1      48.001  18.316  34.581  1.00  0.00     0.174 HD
ENDBRANCH   1  32
TORSDOF 10
ENDMDL
MODEL 3
REMARK VINA RESULT: -4.391463403      1.374      1.517
REMARK  10 active torsions:
REMARK  status: ('A' for Active; 'I' for Inactive)
REMARK    1  A    between atoms: N1_1  and  C1_4 
REMARK    2  A    between atoms: C4_12  and  N4_13 
REMARK    3  A    between atoms: N4_13  and  C5_15 
REMARK    4  A    between atoms: C5_15  and  C6_16 
REMARK    5  A    between atoms: C6_16  and  O2_17 
REMARK    6  A    between atoms: C7_21  and  N6_22 
REMARK    7  A    between atoms: N6_22  and  N7_24 
REMARK    8  A    between atoms: N7_24  and  C8_26 
REMARK    9  A    between atoms: C8_26  and  C9_27 
REMARK   10  A    between atoms: C9_27  and  O3_28 
ROOT
HETATM    1  C1  UNL     1      45.439  19.974  33.055  1.00  0.00     0.692 C 
HETATM    2  N2  UNL     1      46.773  20.228  33.165  1.00  0.00    -0.130 N 
ATOM      3  H2  UNL     1      47.042  21.083  33.651  1.00  0.00     0.205 HD
HETATM    4  N3  UNL     1      47.749  19.469  32.703  1.00  0.00    -0.251 N 
ATOM      5  H3  UNL     1      48.599  19.964  32.435  1.00  0.00     0.191 HD
HETATM    6  C2  UNL     1      47.779  18.132  32.536  1.00  0.00     0.278 C 
HETATM    7  O1  UNL     1      48.851  17.578  32.188  1.00  0.00    -0.266 OA
HETATM    8  C3  UNL     1      46.709  17.292  32.717  1.00  0.00     0.122 A 
HETATM    9  C4  UNL     1      47.147  15.963  32.770  1.00  0.00     0.136 A 
HETATM   10  N5  UNL     1      46.209  15.038  32.943  1.00  0.00    -0.174 N 
ATOM     11  H5  UNL     1      46.499  14.060  32.984  1.00  0.00     0.186 HD
HETATM   12  C7  UNL     1      44.892  15.320  33.067  1.00  0.00     0.699 A 
HETATM   13  N8  UNL     1      44.459  16.589  33.019  1.00  0.00    -0.173 N 
ATOM     14  H8  UNL     1      43.466  16.803  33.112  1.00  0.00     0.186 HD
HETATM   15  C10 UNL     1      45.358  17.574  32.845  1.00  0.00     0.156 A 
HETATM   16  N9  UNL     1      44.806  18.804  32.813  1.00  0.00    -0.174 N 
ATOM     17  H9  UNL     1      43.813  18.858  32.584  1.00  0.00     0.186 HD
ENDROOT
BRANCH  12  18
HETATM   18  N6  UNL     1      44.006  14.401  33.233  1.00  0.00    -0.136 N 
ATOM     19  H6  UNL     1      43.624  14.278  34.171  1.00  0.00     0.205 HD
BRANCH  18  20
HETATM   20  N7  UNL     1      43.533  13.569  32.238  1.00  0.00    -0.320 N 
ATOM     21  H7  UNL     1      43.161  13.977  31.380  1.00  0.00     0.180 HD
BRANCH  20  22
HETATM   22  C8  UNL     1      43.553  12.148  32.386  1.00  0.00     0.166 C 
BRANCH  22  23
HETATM   23  C9  UNL     1      44.950  11.573  32.148  1.00  0.00     0.185 C 
BRANCH  23  24
HETATM   24  O3  UNL     1      45.711  12.441  31.375  1.00  0.00    -0.399 OA
ATOM     25  H3  UNL     1      46.174  11.966  30.696  1.00  0.00     0.209 HD
ENDBRANCH  23  24
ENDBRANCH  22  23
ENDBRANCH  20  22
ENDBRANCH  18  20
ENDBRANCH  12  18
BRANCH   9  26
HETATM   26  N4  UNL     1      48.405  15.775  32.645  1.00  0.00    -0.373 N 
ATOM     27  H4  UNL     1      48.958  16.462  32.132  1.00  0.00     0.161 HD
BRANCH  26  28
HETATM   28  C5  UNL     1      49.064  14.635  33.201  1.00  0.00     0.147 C 
BRANCH  28  29
HETATM   29  C6  UNL     1      49.517  13.678  32.111  1.00  0.00     0.183 C 
BRANCH  29  30
HETATM   30  O2  UNL     1      48.453  13.256  31.350  1.00  0.00    -0.399 OA
ATOM     31  H2  UNL     1      48.455  13.675  30.497  1.00  0.00     0.209 HD
ENDBRANCH  29  30
ENDBRANCH  28  29
ENDBRANCH  26  28
ENDBRANCH   9  26
BRANCH   1  32
HETATM   32  N1  UNL     1      44.632  20.968  33.196  1.00  0.00    -0.233 N 
ATOM     33  H12 UNL     1      45.109  21.867  33.264  1.00  0.00     0.174 HD
ATOM     34  H11 UNL     1      43.633  20.762  33.225  1.00  0.00     0.174 HD
ENDBRANCH   1  32
TORSDOF 10
ENDMDL
MODEL 4
REMARK VINA RESULT: -4.368967477      8.386     11.959
REMARK  10 active torsions:
REMARK  status: ('A' for Active; 'I' for Inactive)
REMARK    1  A    between atoms: N1_1  and  C1_4 
REMARK    2  A    between atoms: C4_12  and  N4_13 
REMARK    3  A    between atoms: N4_13  and  C5_15 
REMARK    4  A    between atoms: C5_15  and  C6_16 
REMARK    5  A    between atoms: C6_16  and  O2_17 
REMARK    6  A    between atoms: C7_21  and  N6_22 
REMARK    7  A    between atoms: N6_22  and  N7_24 
REMARK    8  A    between atoms: N7_24  and  C8_26 
REMARK    9  A    between atoms: C8_26  and  C9_27 
REMARK   10  A    between atoms: C9_27  and  O3_28 
ROOT
HETATM    1  C1  UNL     1      41.829   8.395  25.895  1.00  0.00     0.692 C 
HETATM    2  N2  UNL     1      40.627   8.231  25.274  1.00  0.00    -0.130 N 
ATOM      3  H2  UNL     1      40.379   7.283  24.990  1.00  0.00     0.205 HD
HETATM    4  N3  UNL     1      39.755   9.184  25.005  1.00  0.00    -0.251 N 
ATOM      5  H3  UNL     1      39.180   9.032  24.177  1.00  0.00     0.191 HD
HETATM    6  C2  UNL     1      39.518  10.331  25.673  1.00  0.00     0.278 C 
HETATM    7  O1  UNL     1      38.558  11.061  25.323  1.00  0.00    -0.266 OA
HETATM    8  C3  UNL     1      40.254  10.789  26.736  1.00  0.00     0.122 A 
HETATM    9  C4  UNL     1      39.568  11.824  27.384  1.00  0.00     0.136 A 
HETATM   10  N5  UNL     1      40.170  12.364  28.437  1.00  0.00    -0.174 N 
ATOM     11  H5  UNL     1      39.694  13.121  28.929  1.00  0.00     0.186 HD
HETATM   12  C7  UNL     1      41.380  11.966  28.895  1.00  0.00     0.699 A 
HETATM   13  N8  UNL     1      42.048  10.976  28.284  1.00  0.00    -0.173 N 
ATOM     14  H8  UNL     1      42.960  10.675  28.628  1.00  0.00     0.186 HD
HETATM   15  C10 UNL     1      41.493  10.386  27.210  1.00  0.00     0.156 A 
HETATM   16  N9  UNL     1      42.256   9.407  26.682  1.00  0.00    -0.174 N 
ATOM     17  H9  UNL     1      43.253   9.433  26.898  1.00  0.00     0.186 HD
ENDROOT
BRANCH  12  18
HETATM   18  N6  UNL     1      41.939  12.510  29.920  1.00  0.00    -0.136 N 
ATOM     19  H6  UNL     1      42.914  12.276  30.104  1.00  0.00     0.205 HD
BRANCH  18  20
HETATM   20  N7  UNL     1      41.318  13.385  30.788  1.00  0.00    -0.320 N 
ATOM     21  H7  UNL     1      41.360  14.387  30.604  1.00  0.00     0.180 HD
BRANCH  20  22
HETATM   22  C8  UNL     1      40.616  12.915  31.941  1.00  0.00     0.166 C 
BRANCH  22  23
HETATM   23  C9  UNL     1      39.114  13.185  31.838  1.00  0.00     0.185 C 
BRANCH  23  24
HETATM   24  O3  UNL     1      38.818  13.865  30.664  1.00  0.00    -0.399 OA
ATOM     25  H3  UNL     1      37.891  13.801  30.465  1.00  0.00     0.209 HD
ENDBRANCH  23  24
ENDBRANCH  22  23
ENDBRANCH  20  22
ENDBRANCH  18  20
ENDBRANCH  12  18
BRANCH   9  26
HETATM   26  N4  UNL     1      38.432  12.144  26.894  1.00  0.00    -0.373 N 
ATOM     27  H4  UNL     1      38.122  11.695  26.032  1.00  0.00     0.161 HD
BRANCH  26  28
HETATM   28  C5  UNL     1      37.580  13.111  27.513  1.00  0.00     0.147 C 
BRANCH  28  29
HETATM   29  C6  UNL     1      36.183  13.073  26.918  1.00  0.00     0.183 C 
BRANCH  29  30
HETATM   30  O2  UNL     1      36.043  12.013  26.053  1.00  0.00    -0.399 OA
ATOM     31  H2  UNL     1      36.889  11.654  25.813  1.00  0.00     0.209 HD
ENDBRANCH  29  30
ENDBRANCH  28  29
ENDBRANCH  26  28
ENDBRANCH   9  26
BRANCH   1  32
HETATM   32  N1  UNL     1      42.713   7.472  25.731  1.00  0.00    -0.233 N 
ATOM     33  H12 UNL     1      42.588   6.944  24.867  1.00  0.00     0.174 HD
ATOM     34  H11 UNL     1      43.422   7.367  26.457  1.00  0.00     0.174 HD
ENDBRANCH   1  32
TORSDOF 10
ENDMDL
MODEL 5
REMARK VINA RESULT: -4.268277951      2.267      4.765
REMARK  10 active torsions:
REMARK  status: ('A' for Active; 'I' for Inactive)
REMARK    1  A    between atoms: N1_1  and  C1_4 
REMARK    2  A    between atoms: C4_12  and  N4_13 
REMARK    3  A    between atoms: N4_13  and  C5_15 
REMARK    4  A    between atoms: C5_15  and  C6_16 
REMARK    5  A    between atoms: C6_16  and  O2_17 
REMARK    6  A    between atoms: C7_21  and  N6_22 
REMARK    7  A    between atoms: N6_22  and  N7_24 
REMARK    8  A    between atoms: N7_24  and  C8_26 
REMARK    9  A    between atoms: C8_26  and  C9_27 
REMARK   10  A    between atoms: C9_27  and  O3_28 
ROOT
HETATM    1  C1  UNL     1      49.739  15.702  32.526  1.00  0.00     0.692 C 
HETATM    2  N2  UNL     1      50.061  17.014  32.349  1.00  0.00    -0.130 N 
ATOM      3  H2  UNL     1      50.916  17.215  31.832  1.00  0.00     0.205 HD
HETATM    4  N3  UNL     1      49.367  18.049  32.784  1.00  0.00    -0.251 N 
ATOM      5  H3  UNL     1      49.912  18.882  33.002  1.00  0.00     0.191 HD
HETATM    6  C2  UNL     1      48.038  18.158  32.981  1.00  0.00     0.278 C 
HETATM    7  O1  UNL     1      47.550  19.273  33.292  1.00  0.00    -0.266 OA
HETATM    8  C3  UNL     1      47.138  17.129  32.868  1.00  0.00     0.122 A 
HETATM    9  C4  UNL     1      45.833  17.635  32.826  1.00  0.00     0.136 A 
HETATM   10  N5  UNL     1      44.856  16.742  32.718  1.00  0.00    -0.174 N 
ATOM     11  H5  UNL     1      43.894  17.082  32.686  1.00  0.00     0.186 HD
HETATM   12  C7  UNL     1      45.064  15.407  32.647  1.00  0.00     0.699 A 
HETATM   13  N8  UNL     1      46.310  14.908  32.685  1.00  0.00    -0.173 N 
ATOM     14  H8  UNL     1      46.469  13.902  32.632  1.00  0.00     0.186 HD
HETATM   15  C10 UNL     1      47.345  15.760  32.794  1.00  0.00     0.156 A 
HETATM   16  N9  UNL     1      48.545  15.144  32.823  1.00  0.00    -0.174 N 
ATOM     17  H9  UNL     1      48.551  14.161  33.096  1.00  0.00     0.186 HD
ENDROOT
BRANCH  12  18
HETATM   18  N6  UNL     1      44.096  14.565  32.542  1.00  0.00    -0.136 N 
ATOM     19  H6  UNL     1      43.146  14.925  32.637  1.00  0.00     0.205 HD
BRANCH  18  20
HETATM   20  N7  UNL     1      44.245  13.212  32.312  1.00  0.00    -0.320 N 
ATOM     21  H7  UNL     1      45.144  12.856  31.986  1.00  0.00     0.180 HD
BRANCH  20  22
HETATM   22  C8  UNL     1      43.165  12.299  32.521  1.00  0.00     0.166 C 
BRANCH  22  23
HETATM   23  C9  UNL     1      41.816  12.927  32.167  1.00  0.00     0.185 C 
BRANCH  23  24
HETATM   24  O3  UNL     1      41.799  13.333  30.839  1.00  0.00    -0.399 OA
ATOM     25  H3  UNL     1      40.907  13.386  30.517  1.00  0.00     0.209 HD
ENDBRANCH  23  24
ENDBRANCH  22  23
ENDBRANCH  20  22
ENDBRANCH  18  20
ENDBRANCH  12  18
BRANCH   9  26
HETATM   26  N4  UNL     1      45.715  18.905  32.898  1.00  0.00    -0.373 N 
ATOM     27  H4  UNL     1      46.521  19.460  33.188  1.00  0.00     0.161 HD
BRANCH  26  28
HETATM   28  C5  UNL     1      44.492  19.576  32.585  1.00  0.00     0.147 C 
BRANCH  28  29
HETATM   29  C6  UNL     1      44.255  20.749  33.521  1.00  0.00     0.183 C 
BRANCH  29  30
HETATM   30  O2  UNL     1      45.417  21.453  33.736  1.00  0.00    -0.399 OA
ATOM     31  H2  UNL     1      45.745  21.311  34.616  1.00  0.00     0.209 HD
ENDBRANCH  29  30
ENDBRANCH  28  29
ENDBRANCH  26  28
ENDBRANCH   9  26
BRANCH   1  32
HETATM   32  N1  UNL     1      50.686  14.837  32.398  1.00  0.00    -0.233 N 
ATOM     33  H12 UNL     1      50.738  14.432  31.463  1.00  0.00     0.174 HD
ATOM     34  H11 UNL     1      51.266  14.652  33.217  1.00  0.00     0.174 HD
ENDBRANCH   1  32
TORSDOF 10
ENDMDL
