MODEL 1
REMARK VINA RESULT: -7.284544544      0.000      0.000
REMARK  10 active torsions:
REMARK  status: ('A' for Active; 'I' for Inactive)
REMARK    1  A    between atoms: C2_2  and  O2_4 
REMARK    2  A    between atoms: O2_4  and  C3_5 
REMARK    3  A    between atoms: C3_5  and  C4_6 
REMARK    4  A    between atoms: C4_6  and  N1_7 
REMARK    5  A    between atoms: C5_9  and  C6_10 
REMARK    6  A    between atoms: C8_12  and  O3_13 
REMARK    7  A    between atoms: C10_17  and  O4_18 
REMARK    8  A    between atoms: C14_27  and  O5_28 
REMARK    9  A    between atoms: C17_32  and  C18_33 
REMARK   10  A    between atoms: N5_34  and  N6_36 
ROOT
HETATM    1  C6  UNL     1     -20.413 -22.278  -0.321  1.00  0.00     0.024 A 
HETATM    2  C7  UNL     1     -19.820 -21.244   0.215  1.00  0.00     0.043 A 
HETATM    3  C8  UNL     1     -19.292 -20.113   1.031  1.00  0.00     0.104 C 
HETATM    4  C9  UNL     1     -18.457 -19.104   0.678  1.00  0.00     0.114 C 
HETATM    5  N2  UNL     1     -18.127 -18.166   1.662  1.00  0.00    -0.096 NA
HETATM    6  C10 UNL     1     -17.855 -18.854  -0.649  1.00  0.00     0.108 C 
HETATM    7  C11 UNL     1     -17.312 -19.737  -1.488  1.00  0.00     0.065 C 
HETATM    8  C12 UNL     1     -17.067 -21.172  -1.489  1.00  0.00     0.104 C 
HETATM    9  N3  UNL     1     -18.089 -22.085  -1.269  1.00  0.00    -0.364 N 
ATOM     10  H3  UNL     1     -17.875 -23.076  -1.160  1.00  0.00     0.162 HD
HETATM   11  C13 UNL     1     -19.422 -21.638  -1.197  1.00  0.00     0.168 A 
HETATM   12  N4  UNL     1     -19.775 -20.702  -2.234  1.00  0.00    -0.336 N 
ATOM     13  H4  UNL     1     -20.407 -19.971  -1.907  1.00  0.00     0.164 HD
HETATM   14  C14 UNL     1     -19.453 -20.570  -3.567  1.00  0.00     0.145 C 
HETATM   15  C15 UNL     1     -18.294 -20.236  -4.360  1.00  0.00     0.004 C 
HETATM   16  C16 UNL     1     -18.275 -20.841  -5.755  1.00  0.00     0.054 C 
HETATM   17  C17 UNL     1     -17.232 -19.498  -4.061  1.00  0.00     0.042 C 
HETATM   18  C19 UNL     1     -17.075 -18.908  -2.716  1.00  0.00     0.198 C 
HETATM   19  O6  UNL     1     -16.747 -17.719  -2.552  1.00  0.00    -0.286 OA
ENDROOT
BRANCH   1  20
HETATM   20  C5  UNL     1     -21.406 -23.334  -0.123  1.00  0.00     0.095 C 
HETATM   21  N1  UNL     1     -21.223 -24.334   0.643  1.00  0.00    -0.396 N 
ATOM     22  H1  UNL     1     -20.339 -24.404   1.146  1.00  0.00     0.158 HD
BRANCH  21  23
HETATM   23  C4  UNL     1     -22.191 -25.356   0.831  1.00  0.00     0.146 C 
BRANCH  23  24
HETATM   24  C3  UNL     1     -23.088 -25.268   2.004  1.00  0.00     0.198 C 
BRANCH  24  25
HETATM   25  O2  UNL     1     -24.086 -26.181   2.178  1.00  0.00    -0.320 OA
BRANCH  25  26
HETATM   26  C2  UNL     1     -25.096 -26.240   3.077  1.00  0.00     0.254 C 
HETATM   27  C1  UNL     1     -24.982 -25.626   4.458  1.00  0.00     0.126 C 
HETATM   28  O1  UNL     1     -26.159 -26.820   2.756  1.00  0.00    -0.266 OA
ENDBRANCH  25  26
ENDBRANCH  24  25
ENDBRANCH  23  24
ENDBRANCH  21  23
ENDBRANCH   1  20
BRANCH   3  29
HETATM   29  O3  UNL     1     -19.695 -20.065   2.320  1.00  0.00    -0.358 OA
ATOM     30  H3  UNL     1     -19.073 -19.707   2.942  1.00  0.00     0.217 HD
ENDBRANCH   3  29
BRANCH  14  31
HETATM   31  O5  UNL     1     -20.541 -20.823  -4.331  1.00  0.00    -0.346 OA
ATOM     32  H5  UNL     1     -20.296 -20.836  -5.249  1.00  0.00     0.219 HD
ENDBRANCH  14  31
BRANCH   6  33
HETATM   33  O4  UNL     1     -17.851 -17.536  -1.069  1.00  0.00    -0.358 OA
ATOM     34  H4  UNL     1     -17.597 -16.895  -0.415  1.00  0.00     0.217 HD
ENDBRANCH   6  33
BRANCH  17  35
HETATM   35  C18 UNL     1     -16.109 -19.221  -4.975  1.00  0.00     0.122 C 
HETATM   36  N5  UNL     1     -15.722 -18.070  -5.368  1.00  0.00    -0.318 N 
ATOM     37  H5  UNL     1     -16.214 -17.240  -5.038  1.00  0.00     0.185 HD
BRANCH  36  38
HETATM   38  N6  UNL     1     -14.648 -17.922  -6.235  1.00  0.00    -0.345 N 
ATOM     39  H62 UNL     1     -14.841 -17.663  -7.202  1.00  0.00     0.176 HD
ATOM     40  H61 UNL     1     -13.687 -18.065  -5.925  1.00  0.00     0.176 HD
ENDBRANCH  36  38
ENDBRANCH  17  35
TORSDOF 10
ENDMDL
MODEL 2
REMARK VINA RESULT: -7.190921523      3.850      5.120
REMARK  10 active torsions:
REMARK  status: ('A' for Active; 'I' for Inactive)
REMARK    1  A    between atoms: C2_2  and  O2_4 
REMARK    2  A    between atoms: O2_4  and  C3_5 
REMARK    3  A    between atoms: C3_5  and  C4_6 
REMARK    4  A    between atoms: C4_6  and  N1_7 
REMARK    5  A    between atoms: C5_9  and  C6_10 
REMARK    6  A    between atoms: C8_12  and  O3_13 
REMARK    7  A    between atoms: C10_17  and  O4_18 
REMARK    8  A    between atoms: C14_27  and  O5_28 
REMARK    9  A    between atoms: C17_32  and  C18_33 
REMARK   10  A    between atoms: N5_34  and  N6_36 
ROOT
HETATM    1  C6  UNL     1     -19.801 -21.107  -2.670  1.00  0.00     0.024 A 
HETATM    2  C7  UNL     1     -19.734 -20.833  -1.394  1.00  0.00     0.043 A 
HETATM    3  C8  UNL     1     -19.897 -20.616   0.071  1.00  0.00     0.104 C 
HETATM    4  C9  UNL     1     -19.093 -19.961   0.947  1.00  0.00     0.114 C 
HETATM    5  N2  UNL     1     -19.500 -19.910   2.284  1.00  0.00    -0.096 NA
HETATM    6  C10 UNL     1     -17.823 -19.262   0.655  1.00  0.00     0.108 C 
HETATM    7  C11 UNL     1     -16.821 -19.665  -0.127  1.00  0.00     0.065 C 
HETATM    8  C12 UNL     1     -16.528 -20.836  -0.940  1.00  0.00     0.104 C 
HETATM    9  N3  UNL     1     -17.404 -21.279  -1.921  1.00  0.00    -0.364 N 
ATOM     10  H3  UNL     1     -17.234 -22.164  -2.398  1.00  0.00     0.162 HD
HETATM   11  C13 UNL     1     -18.529 -20.500  -2.256  1.00  0.00     0.168 A 
HETATM   12  N4  UNL     1     -18.236 -19.099  -2.414  1.00  0.00    -0.336 N 
ATOM     13  H4  UNL     1     -18.984 -18.498  -2.067  1.00  0.00     0.164 HD
HETATM   14  C14 UNL     1     -17.174 -18.385  -2.926  1.00  0.00     0.145 C 
HETATM   15  C15 UNL     1     -15.799 -18.115  -2.579  1.00  0.00     0.004 C 
HETATM   16  C16 UNL     1     -14.887 -17.815  -3.759  1.00  0.00     0.054 C 
HETATM   17  C17 UNL     1     -15.197 -18.104  -1.397  1.00  0.00     0.042 C 
HETATM   18  C19 UNL     1     -15.939 -18.452  -0.167  1.00  0.00     0.198 C 
HETATM   19  O6  UNL     1     -15.863 -17.762   0.866  1.00  0.00    -0.286 OA
ENDROOT
BRANCH   1  20
HETATM   20  C5  UNL     1     -20.631 -21.655  -3.744  1.00  0.00     0.095 C 
HETATM   21  N1  UNL     1     -21.874 -21.897  -3.615  1.00  0.00    -0.396 N 
ATOM     22  H1  UNL     1     -22.316 -21.698  -2.718  1.00  0.00     0.158 HD
BRANCH  21  23
HETATM   23  C4  UNL     1     -22.675 -22.428  -4.660  1.00  0.00     0.146 C 
BRANCH  23  24
HETATM   24  C3  UNL     1     -24.092 -22.738  -4.372  1.00  0.00     0.198 C 
BRANCH  24  25
HETATM   25  O2  UNL     1     -25.084 -21.943  -4.866  1.00  0.00    -0.320 OA
BRANCH  25  26
HETATM   26  C2  UNL     1     -25.043 -20.723  -5.452  1.00  0.00     0.254 C 
HETATM   27  C1  UNL     1     -25.014 -20.554  -6.957  1.00  0.00     0.126 C 
HETATM   28  O1  UNL     1     -25.029 -19.702  -4.725  1.00  0.00    -0.266 OA
ENDBRANCH  25  26
ENDBRANCH  24  25
ENDBRANCH  23  24
ENDBRANCH  21  23
ENDBRANCH   1  20
BRANCH   3  29
HETATM   29  O3  UNL     1     -21.007 -21.140   0.635  1.00  0.00    -0.358 OA
ATOM     30  H3  UNL     1     -20.872 -21.865   1.236  1.00  0.00     0.217 HD
ENDBRANCH   3  29
BRANCH  14  31
HETATM   31  O5  UNL     1     -17.545 -17.766  -4.071  1.00  0.00    -0.346 OA
ATOM     32  H5  UNL     1     -17.062 -16.954  -4.170  1.00  0.00     0.219 HD
ENDBRANCH  14  31
BRANCH   6  33
HETATM   33  O4  UNL     1     -17.654 -18.038   1.277  1.00  0.00    -0.358 OA
ATOM     34  H4  UNL     1     -18.235 -17.344   0.988  1.00  0.00     0.217 HD
ENDBRANCH   6  33
BRANCH  17  35
HETATM   35  C18 UNL     1     -13.773 -17.798  -1.174  1.00  0.00     0.122 C 
HETATM   36  N5  UNL     1     -13.240 -17.441  -0.071  1.00  0.00    -0.318 N 
ATOM     37  H5  UNL     1     -13.827 -17.348   0.757  1.00  0.00     0.185 HD
BRANCH  36  38
HETATM   38  N6  UNL     1     -11.881 -17.175   0.028  1.00  0.00    -0.345 N 
ATOM     39  H62 UNL     1     -11.402 -16.799  -0.790  1.00  0.00     0.176 HD
ATOM     40  H61 UNL     1     -11.364 -17.347   0.891  1.00  0.00     0.176 HD
ENDBRANCH  36  38
ENDBRANCH  17  35
TORSDOF 10
ENDMDL
MODEL 3
REMARK VINA RESULT: -7.109874037      1.783      2.100
REMARK  10 active torsions:
REMARK  status: ('A' for Active; 'I' for Inactive)
REMARK    1  A    between atoms: C2_2  and  O2_4 
REMARK    2  A    between atoms: O2_4  and  C3_5 
REMARK    3  A    between atoms: C3_5  and  C4_6 
REMARK    4  A    between atoms: C4_6  and  N1_7 
REMARK    5  A    between atoms: C5_9  and  C6_10 
REMARK    6  A    between atoms: C8_12  and  O3_13 
REMARK    7  A    between atoms: C10_17  and  O4_18 
REMARK    8  A    between atoms: C14_27  and  O5_28 
REMARK    9  A    between atoms: C17_32  and  C18_33 
REMARK   10  A    between atoms: N5_34  and  N6_36 
ROOT
HETATM    1  C6  UNL     1     -19.350 -20.999  -0.738  1.00  0.00     0.024 A 
HETATM    2  C7  UNL     1     -18.652 -20.144  -0.038  1.00  0.00     0.043 A 
HETATM    3  C8  UNL     1     -18.016 -19.230   0.952  1.00  0.00     0.104 C 
HETATM    4  C9  UNL     1     -17.054 -18.289   0.773  1.00  0.00     0.114 C 
HETATM    5  N2  UNL     1     -16.642 -17.565   1.896  1.00  0.00    -0.096 NA
HETATM    6  C10 UNL     1     -16.388 -17.911  -0.492  1.00  0.00     0.108 C 
HETATM    7  C11 UNL     1     -15.931 -18.712  -1.455  1.00  0.00     0.065 C 
HETATM    8  C12 UNL     1     -15.862 -20.148  -1.682  1.00  0.00     0.104 C 
HETATM    9  N3  UNL     1     -16.993 -20.951  -1.620  1.00  0.00    -0.364 N 
ATOM     10  H3  UNL     1     -16.904 -21.966  -1.668  1.00  0.00     0.162 HD
HETATM   11  C13 UNL     1     -18.264 -20.358  -1.491  1.00  0.00     0.168 A 
HETATM   12  N4  UNL     1     -18.470 -19.235  -2.369  1.00  0.00    -0.336 N 
ATOM     13  H4  UNL     1     -19.018 -18.491  -1.936  1.00  0.00     0.164 HD
HETATM   14  C14 UNL     1     -18.095 -18.937  -3.661  1.00  0.00     0.145 C 
HETATM   15  C15 UNL     1     -16.881 -18.629  -4.380  1.00  0.00     0.004 C 
HETATM   16  C16 UNL     1     -16.895 -19.005  -5.853  1.00  0.00     0.054 C 
HETATM   17  C17 UNL     1     -15.747 -18.085  -3.957  1.00  0.00     0.042 C 
HETATM   18  C19 UNL     1     -15.559 -17.737  -2.533  1.00  0.00     0.198 C 
HETATM   19  O6  UNL     1     -15.095 -16.639  -2.178  1.00  0.00    -0.286 OA
ENDROOT
BRANCH   1  20
HETATM   20  C5  UNL     1     -20.469 -21.942  -0.720  1.00  0.00     0.095 C 
HETATM   21  N1  UNL     1     -20.456 -23.034  -0.069  1.00  0.00    -0.396 N 
ATOM     22  H1  UNL     1     -19.621 -23.267   0.470  1.00  0.00     0.158 HD
BRANCH  21  23
HETATM   23  C4  UNL     1     -21.545 -23.945  -0.055  1.00  0.00     0.146 C 
BRANCH  23  24
HETATM   24  C3  UNL     1     -21.632 -24.922   1.053  1.00  0.00     0.198 C 
BRANCH  24  25
HETATM   25  O2  UNL     1     -22.802 -25.574   1.305  1.00  0.00    -0.320 OA
BRANCH  25  26
HETATM   26  C2  UNL     1     -23.117 -26.891   1.268  1.00  0.00     0.254 C 
HETATM   27  C1  UNL     1     -24.503 -27.397   1.613  1.00  0.00     0.126 C 
HETATM   28  O1  UNL     1     -22.233 -27.716   0.939  1.00  0.00    -0.266 OA
ENDBRANCH  25  26
ENDBRANCH  24  25
ENDBRANCH  23  24
ENDBRANCH  21  23
ENDBRANCH   1  20
BRANCH   3  29
HETATM   29  O3  UNL     1     -18.447 -19.335   2.228  1.00  0.00    -0.358 OA
ATOM     30  H3  UNL     1     -19.382 -19.457   2.348  1.00  0.00     0.217 HD
ENDBRANCH   3  29
BRANCH  14  31
HETATM   31  O5  UNL     1     -19.183 -18.929  -4.466  1.00  0.00    -0.346 OA
ATOM     32  H5  UNL     1     -19.148 -19.667  -5.064  1.00  0.00     0.219 HD
ENDBRANCH  14  31
BRANCH   6  33
HETATM   33  O4  UNL     1     -16.212 -16.554  -0.696  1.00  0.00    -0.358 OA
ATOM     34  H4  UNL     1     -16.728 -16.172  -1.396  1.00  0.00     0.217 HD
ENDBRANCH   6  33
BRANCH  17  35
HETATM   35  C18 UNL     1     -14.573 -17.809  -4.803  1.00  0.00     0.122 C 
HETATM   36  N5  UNL     1     -14.086 -16.660  -5.070  1.00  0.00    -0.318 N 
ATOM     37  H5  UNL     1     -14.527 -15.830  -4.675  1.00  0.00     0.185 HD
BRANCH  36  38
HETATM   38  N6  UNL     1     -12.972 -16.513  -5.884  1.00  0.00    -0.345 N 
ATOM     39  H62 UNL     1     -12.826 -15.615  -6.345  1.00  0.00     0.176 HD
ATOM     40  H61 UNL     1     -12.309 -17.276  -6.025  1.00  0.00     0.176 HD
ENDBRANCH  36  38
ENDBRANCH  17  35
TORSDOF 10
ENDMDL
MODEL 4
REMARK VINA RESULT: -7.065544778      3.826      5.385
REMARK  10 active torsions:
REMARK  status: ('A' for Active; 'I' for Inactive)
REMARK    1  A    between atoms: C2_2  and  O2_4 
REMARK    2  A    between atoms: O2_4  and  C3_5 
REMARK    3  A    between atoms: C3_5  and  C4_6 
REMARK    4  A    between atoms: C4_6  and  N1_7 
REMARK    5  A    between atoms: C5_9  and  C6_10 
REMARK    6  A    between atoms: C8_12  and  O3_13 
REMARK    7  A    between atoms: C10_17  and  O4_18 
REMARK    8  A    between atoms: C14_27  and  O5_28 
REMARK    9  A    between atoms: C17_32  and  C18_33 
REMARK   10  A    between atoms: N5_34  and  N6_36 
ROOT
HETATM    1  C6  UNL     1     -19.832 -21.024  -2.899  1.00  0.00     0.024 A 
HETATM    2  C7  UNL     1     -19.810 -20.798  -1.612  1.00  0.00     0.043 A 
HETATM    3  C8  UNL     1     -20.030 -20.622  -0.149  1.00  0.00     0.104 C 
HETATM    4  C9  UNL     1     -19.233 -20.045   0.786  1.00  0.00     0.114 C 
HETATM    5  N2  UNL     1     -19.700 -20.016   2.104  1.00  0.00    -0.096 NA
HETATM    6  C10 UNL     1     -17.913 -19.410   0.578  1.00  0.00     0.108 C 
HETATM    7  C11 UNL     1     -16.899 -19.844  -0.172  1.00  0.00     0.065 C 
HETATM    8  C12 UNL     1     -16.634 -21.002  -1.013  1.00  0.00     0.104 C 
HETATM    9  N3  UNL     1     -17.487 -21.359  -2.049  1.00  0.00    -0.364 N 
ATOM     10  H3  UNL     1     -17.344 -22.236  -2.550  1.00  0.00     0.162 HD
HETATM   11  C13 UNL     1     -18.549 -20.506  -2.406  1.00  0.00     0.168 A 
HETATM   12  N4  UNL     1     -18.171 -19.120  -2.498  1.00  0.00    -0.336 N 
ATOM     13  H4  UNL     1     -18.900 -18.489  -2.164  1.00  0.00     0.164 HD
HETATM   14  C14 UNL     1     -17.048 -18.451  -2.935  1.00  0.00     0.145 C 
HETATM   15  C15 UNL     1     -15.677 -18.273  -2.517  1.00  0.00     0.004 C 
HETATM   16  C16 UNL     1     -14.696 -17.986  -3.643  1.00  0.00     0.054 C 
HETATM   17  C17 UNL     1     -15.132 -18.337  -1.309  1.00  0.00     0.042 C 
HETATM   18  C19 UNL     1     -15.950 -18.684  -0.128  1.00  0.00     0.198 C 
HETATM   19  O6  UNL     1     -15.885 -18.034   0.932  1.00  0.00    -0.286 OA
ENDROOT
BRANCH   1  20
HETATM   20  C5  UNL     1     -20.640 -21.487  -4.029  1.00  0.00     0.095 C 
HETATM   21  N1  UNL     1     -20.770 -20.832  -5.112  1.00  0.00    -0.396 N 
ATOM     22  H1  UNL     1     -20.288 -19.938  -5.199  1.00  0.00     0.158 HD
BRANCH  21  23
HETATM   23  C4  UNL     1     -21.555 -21.286  -6.205  1.00  0.00     0.146 C 
BRANCH  23  24
HETATM   24  C3  UNL     1     -22.617 -20.397  -6.726  1.00  0.00     0.198 C 
BRANCH  24  25
HETATM   25  O2  UNL     1     -23.929 -20.678  -6.484  1.00  0.00    -0.320 OA
BRANCH  25  26
HETATM   26  C2  UNL     1     -24.610 -20.837  -5.325  1.00  0.00     0.254 C 
HETATM   27  C1  UNL     1     -24.923 -22.206  -4.756  1.00  0.00     0.126 C 
HETATM   28  O1  UNL     1     -24.994 -19.819  -4.704  1.00  0.00    -0.266 OA
ENDBRANCH  25  26
ENDBRANCH  24  25
ENDBRANCH  23  24
ENDBRANCH  21  23
ENDBRANCH   1  20
BRANCH   3  29
HETATM   29  O3  UNL     1     -21.193 -21.100   0.345  1.00  0.00    -0.358 OA
ATOM     30  H3  UNL     1     -21.139 -21.573   1.167  1.00  0.00     0.217 HD
ENDBRANCH   3  29
BRANCH  14  31
HETATM   31  O5  UNL     1     -17.329 -17.773  -4.072  1.00  0.00    -0.346 OA
ATOM     32  H5  UNL     1     -17.154 -16.847  -3.948  1.00  0.00     0.219 HD
ENDBRANCH  14  31
BRANCH   6  33
HETATM   33  O4  UNL     1     -17.706 -18.221   1.251  1.00  0.00    -0.358 OA
ATOM     34  H4  UNL     1     -16.896 -18.162   1.745  1.00  0.00     0.217 HD
ENDBRANCH   6  33
BRANCH  17  35
HETATM   35  C18 UNL     1     -13.705 -18.122  -1.011  1.00  0.00     0.122 C 
HETATM   36  N5  UNL     1     -13.230 -17.410  -0.065  1.00  0.00    -0.318 N 
ATOM     37  H5  UNL     1     -13.870 -16.928   0.565  1.00  0.00     0.185 HD
BRANCH  36  38
HETATM   38  N6  UNL     1     -11.862 -17.274   0.126  1.00  0.00    -0.345 N 
ATOM     39  H62 UNL     1     -11.531 -16.959   1.038  1.00  0.00     0.176 HD
ATOM     40  H61 UNL     1     -11.195 -17.481  -0.618  1.00  0.00     0.176 HD
ENDBRANCH  36  38
ENDBRANCH  17  35
TORSDOF 10
ENDMDL
MODEL 5
REMARK VINA RESULT: -7.028977834      1.595      2.354
REMARK  10 active torsions:
REMARK  status: ('A' for Active; 'I' for Inactive)
REMARK    1  A    between atoms: C2_2  and  O2_4 
REMARK    2  A    between atoms: O2_4  and  C3_5 
REMARK    3  A    between atoms: C3_5  and  C4_6 
REMARK    4  A    between atoms: C4_6  and  N1_7 
REMARK    5  A    between atoms: C5_9  and  C6_10 
REMARK    6  A    between atoms: C8_12  and  O3_13 
REMARK    7  A    between atoms: C10_17  and  O4_18 
REMARK    8  A    between atoms: C14_27  and  O5_28 
REMARK    9  A    between atoms: C17_32  and  C18_33 
REMARK   10  A    between atoms: N5_34  and  N6_36 
ROOT
HETATM    1  C6  UNL     1     -20.345 -22.496  -0.168  1.00  0.00     0.024 A 
HETATM    2  C7  UNL     1     -19.783 -21.397   0.262  1.00  0.00     0.043 A 
HETATM    3  C8  UNL     1     -19.289 -20.178   0.963  1.00  0.00     0.104 C 
HETATM    4  C9  UNL     1     -18.489 -19.179   0.509  1.00  0.00     0.114 C 
HETATM    5  N2  UNL     1     -18.185 -18.142   1.396  1.00  0.00    -0.096 NA
HETATM    6  C10 UNL     1     -17.905 -19.036  -0.842  1.00  0.00     0.108 C 
HETATM    7  C11 UNL     1     -17.338 -19.976  -1.599  1.00  0.00     0.065 C 
HETATM    8  C12 UNL     1     -17.045 -21.396  -1.467  1.00  0.00     0.104 C 
HETATM    9  N3  UNL     1     -18.035 -22.317  -1.152  1.00  0.00    -0.364 N 
ATOM     10  H3  UNL     1     -17.787 -23.286  -0.952  1.00  0.00     0.162 HD
HETATM   11  C13 UNL     1     -19.382 -21.909  -1.110  1.00  0.00     0.168 A 
HETATM   12  N4  UNL     1     -19.772 -21.088  -2.227  1.00  0.00    -0.336 N 
ATOM     13  H4  UNL     1     -20.426 -20.350  -1.964  1.00  0.00     0.164 HD
HETATM   14  C14 UNL     1     -19.463 -21.072  -3.569  1.00  0.00     0.145 C 
HETATM   15  C15 UNL     1     -18.321 -20.776  -4.402  1.00  0.00     0.004 C 
HETATM   16  C16 UNL     1     -18.291 -21.510  -5.734  1.00  0.00     0.054 C 
HETATM   17  C17 UNL     1     -17.283 -19.979  -4.184  1.00  0.00     0.042 C 
HETATM   18  C19 UNL     1     -17.137 -19.260  -2.901  1.00  0.00     0.198 C 
HETATM   19  O6  UNL     1     -16.848 -18.051  -2.853  1.00  0.00    -0.286 OA
ENDROOT
BRANCH   1  20
HETATM   20  C5  UNL     1     -21.301 -23.561   0.138  1.00  0.00     0.095 C 
HETATM   21  N1  UNL     1     -21.066 -24.497   0.967  1.00  0.00    -0.396 N 
ATOM     22  H1  UNL     1     -20.164 -24.507   1.444  1.00  0.00     0.158 HD
BRANCH  21  23
HETATM   23  C4  UNL     1     -21.997 -25.528   1.260  1.00  0.00     0.146 C 
BRANCH  23  24
HETATM   24  C3  UNL     1     -21.974 -26.753   0.432  1.00  0.00     0.198 C 
BRANCH  24  25
HETATM   25  O2  UNL     1     -22.606 -26.779  -0.776  1.00  0.00    -0.320 OA
BRANCH  25  26
HETATM   26  C2  UNL     1     -22.120 -26.755  -2.040  1.00  0.00     0.254 C 
HETATM   27  C1  UNL     1     -22.101 -25.488  -2.871  1.00  0.00     0.126 C 
HETATM   28  O1  UNL     1     -21.672 -27.815  -2.536  1.00  0.00    -0.266 OA
ENDBRANCH  25  26
ENDBRANCH  24  25
ENDBRANCH  23  24
ENDBRANCH  21  23
ENDBRANCH   1  20
BRANCH   3  29
HETATM   29  O3  UNL     1     -19.685 -20.021   2.245  1.00  0.00    -0.358 OA
ATOM     30  H3  UNL     1     -19.213 -19.373   2.755  1.00  0.00     0.217 HD
ENDBRANCH   3  29
BRANCH  14  31
HETATM   31  O5  UNL     1     -20.547 -21.431  -4.296  1.00  0.00    -0.346 OA
ATOM     32  H5  UNL     1     -20.576 -22.377  -4.388  1.00  0.00     0.219 HD
ENDBRANCH  14  31
BRANCH   6  33
HETATM   33  O4  UNL     1     -17.948 -17.764  -1.384  1.00  0.00    -0.358 OA
ATOM     34  H4  UNL     1     -18.534 -17.650  -2.123  1.00  0.00     0.217 HD
ENDBRANCH   6  33
BRANCH  17  35
HETATM   35  C18 UNL     1     -16.176 -19.753  -5.130  1.00  0.00     0.122 C 
HETATM   36  N5  UNL     1     -15.008 -19.327  -4.839  1.00  0.00    -0.318 N 
ATOM     37  H5  UNL     1     -14.785 -19.114  -3.868  1.00  0.00     0.185 HD
BRANCH  36  38
HETATM   38  N6  UNL     1     -14.036 -19.148  -5.813  1.00  0.00    -0.345 N 
ATOM     39  H62 UNL     1     -13.116 -19.560  -5.657  1.00  0.00     0.176 HD
ATOM     40  H61 UNL     1     -14.224 -18.622  -6.666  1.00  0.00     0.176 HD
ENDBRANCH  36  38
ENDBRANCH  17  35
TORSDOF 10
ENDMDL
