MODEL 1
REMARK VINA RESULT: -6.765844176      0.000      0.000
REMARK  10 active torsions:
REMARK  status: ('A' for Active; 'I' for Inactive)
REMARK    1  A    between atoms: O1_2  and  C2_3 
REMARK    2  A    between atoms: C2_3  and  C3_5 
REMARK    3  A    between atoms: C9_12  and  N2_13 
REMARK    4  A    between atoms: N2_13  and  N3_14 
REMARK    5  A    between atoms: N3_14  and  C10_16 
REMARK    6  A    between atoms: C11_17  and  C12_18 
REMARK       I    between atoms: C12_18  and  N4_20 
REMARK    7  A    between atoms: N4_20  and  N5_22 
REMARK       I    between atoms: N7_27  and  C13_28 
REMARK    8  A    between atoms: C13_28  and  C14_30 
REMARK    9  A    between atoms: C14_30  and  N8_31 
REMARK   10  A    between atoms: C14_30  and  C15_35 
ROOT
HETATM    1  C10 UNL     1     -19.929 -21.594  -1.572  1.00  0.00     0.164 A 
HETATM    2  C11 UNL     1     -20.187 -22.155  -0.333  1.00  0.00     0.153 A 
HETATM    3  N6  UNL     1     -19.677 -21.325   0.583  1.00  0.00    -0.281 N 
ATOM      4  H6  UNL     1     -19.714 -21.475   1.591  1.00  0.00     0.188 HD
HETATM    5  N7  UNL     1     -19.113 -20.272  -0.014  1.00  0.00    -0.182 N 
HETATM    6  C13 UNL     1     -18.505 -19.192   0.680  1.00  0.00     0.287 C 
HETATM    7  O4  UNL     1     -18.525 -19.225   1.959  1.00  0.00    -0.268 OA
HETATM    8  C16 UNL     1     -19.253 -20.412  -1.334  1.00  0.00     0.301 A 
HETATM    9  O7  UNL     1     -18.866 -19.640  -2.281  1.00  0.00    -0.263 OA
ENDROOT
BRANCH   1  10
HETATM   10  N3  UNL     1     -20.307 -22.176  -2.788  1.00  0.00    -0.227 N 
ATOM     11  H3  UNL     1     -19.466 -22.474  -3.283  1.00  0.00     0.202 HD
BRANCH  10  12
HETATM   12  N2  UNL     1     -21.214 -22.438  -3.426  1.00  0.00    -0.324 NA
BRANCH  12  13
HETATM   13  C9  UNL     1     -22.271 -23.116  -3.924  1.00  0.00     0.155 A 
HETATM   14  C3  UNL     1     -22.212 -24.516  -3.964  1.00  0.00     0.106 A 
HETATM   15  C4  UNL     1     -23.255 -25.285  -4.472  1.00  0.00     0.066 A 
HETATM   16  N1  UNL     1     -23.125 -26.697  -4.488  1.00  0.00    -0.101 NA
HETATM   17  C5  UNL     1     -24.380 -24.648  -4.950  1.00  0.00     0.028 A 
HETATM   18  C6  UNL     1     -24.485 -23.279  -4.933  1.00  0.00     0.012 A 
HETATM   19  C7  UNL     1     -23.444 -22.534  -4.426  1.00  0.00    -0.018 A 
HETATM   20  C8  UNL     1     -23.578 -21.053  -4.420  1.00  0.00     0.052 C 
BRANCH  14  21
HETATM   21  C2  UNL     1     -21.037 -25.183  -3.453  1.00  0.00     0.298 C 
HETATM   22  O2  UNL     1     -21.059 -25.806  -2.382  1.00  0.00    -0.259 OA
BRANCH  21  23
HETATM   23  O1  UNL     1     -19.852 -25.128  -4.176  1.00  0.00    -0.322 OA
HETATM   24  C1  UNL     1     -19.805 -25.193  -5.594  1.00  0.00     0.213 C 
ENDBRANCH  21  23
ENDBRANCH  14  21
ENDBRANCH  12  13
ENDBRANCH  10  12
ENDBRANCH   1  10
BRANCH   2  25
HETATM   25  C12 UNL     1     -20.876 -23.426  -0.065  1.00  0.00     0.290 C 
HETATM   26  O3  UNL     1     -22.108 -23.521  -0.274  1.00  0.00    -0.264 OA
HETATM   27  N4  UNL     1     -20.176 -24.551   0.427  1.00  0.00    -0.271 N 
ATOM     28  H4  UNL     1     -19.173 -24.459   0.593  1.00  0.00     0.189 HD
BRANCH  27  29
HETATM   29  N5  UNL     1     -20.771 -25.762   0.695  1.00  0.00    -0.342 N 
ATOM     30  H52 UNL     1     -21.772 -25.840   0.512  1.00  0.00     0.176 HD
ATOM     31  H51 UNL     1     -20.267 -26.570   1.061  1.00  0.00     0.176 HD
ENDBRANCH  27  29
ENDBRANCH   2  25
BRANCH   6  32
HETATM   32  C14 UNL     1     -17.851 -18.025   0.083  1.00  0.00     0.376 C 
BRANCH  32  33
HETATM   33  N8  UNL     1     -18.782 -16.863   0.127  1.00  0.00    -0.056 N 
ATOM     34  H83 UNL     1     -19.749 -17.148   0.283  1.00  0.00     0.275 HD
ATOM     35  H82 UNL     1     -18.659 -16.301   0.968  1.00  0.00     0.275 HD
ATOM     36  H81 UNL     1     -18.675 -16.313  -0.726  1.00  0.00     0.275 HD
ENDBRANCH  32  33
BRANCH  32  37
HETATM   37  C15 UNL     1     -16.645 -17.592   0.889  1.00  0.00     0.214 C 
HETATM   38  O5  UNL     1     -15.547 -18.190   0.842  1.00  0.00    -0.646 OA
HETATM   39  O6  UNL     1     -16.717 -16.477   1.738  1.00  0.00    -0.646 OA
ENDBRANCH  32  37
ENDBRANCH   6  32
TORSDOF 10
ENDMDL
MODEL 2
REMARK VINA RESULT: -6.681088939      2.470      8.009
REMARK  10 active torsions:
REMARK  status: ('A' for Active; 'I' for Inactive)
REMARK    1  A    between atoms: O1_2  and  C2_3 
REMARK    2  A    between atoms: C2_3  and  C3_5 
REMARK    3  A    between atoms: C9_12  and  N2_13 
REMARK    4  A    between atoms: N2_13  and  N3_14 
REMARK    5  A    between atoms: N3_14  and  C10_16 
REMARK    6  A    between atoms: C11_17  and  C12_18 
REMARK       I    between atoms: C12_18  and  N4_20 
REMARK    7  A    between atoms: N4_20  and  N5_22 
REMARK       I    between atoms: N7_27  and  C13_28 
REMARK    8  A    between atoms: C13_28  and  C14_30 
REMARK    9  A    between atoms: C14_30  and  N8_31 
REMARK   10  A    between atoms: C14_30  and  C15_35 
ROOT
HETATM    1  C10 UNL     1     -20.636 -21.977  -2.038  1.00  0.00     0.164 A 
HETATM    2  C11 UNL     1     -21.594 -22.293  -2.986  1.00  0.00     0.153 A 
HETATM    3  N6  UNL     1     -21.996 -23.543  -2.729  1.00  0.00    -0.281 N 
ATOM      4  H6  UNL     1     -22.699 -24.052  -3.264  1.00  0.00     0.188 HD
HETATM    5  N7  UNL     1     -21.341 -24.027  -1.670  1.00  0.00    -0.182 N 
HETATM    6  C13 UNL     1     -21.558 -25.319  -1.120  1.00  0.00     0.287 C 
HETATM    7  O4  UNL     1     -22.455 -26.051  -1.665  1.00  0.00    -0.268 OA
HETATM    8  C16 UNL     1     -20.503 -23.088  -1.228  1.00  0.00     0.301 A 
HETATM    9  O7  UNL     1     -19.688 -23.122  -0.239  1.00  0.00    -0.263 OA
ENDROOT
BRANCH   1  10
HETATM   10  N3  UNL     1     -19.970 -20.746  -1.982  1.00  0.00    -0.227 N 
ATOM     11  H3  UNL     1     -20.415 -20.103  -2.637  1.00  0.00     0.202 HD
BRANCH  10  12
HETATM   12  N2  UNL     1     -19.110 -20.202  -1.468  1.00  0.00    -0.324 NA
BRANCH  12  13
HETATM   13  C9  UNL     1     -17.863 -19.764  -1.188  1.00  0.00     0.155 A 
HETATM   14  C3  UNL     1     -17.650 -19.062   0.005  1.00  0.00     0.106 A 
HETATM   15  C4  UNL     1     -16.397 -18.570   0.359  1.00  0.00     0.066 A 
HETATM   16  N1  UNL     1     -16.255 -17.862   1.580  1.00  0.00    -0.101 NA
HETATM   17  C5  UNL     1     -15.333 -18.782  -0.492  1.00  0.00     0.028 A 
HETATM   18  C6  UNL     1     -15.492 -19.465  -1.673  1.00  0.00     0.012 A 
HETATM   19  C7  UNL     1     -16.738 -19.944  -2.006  1.00  0.00    -0.018 A 
HETATM   20  C8  UNL     1     -16.887 -20.678  -3.292  1.00  0.00     0.052 C 
BRANCH  14  21
HETATM   21  C2  UNL     1     -18.763 -18.850   0.902  1.00  0.00     0.298 C 
HETATM   22  O2  UNL     1     -18.939 -19.565   1.899  1.00  0.00    -0.259 OA
BRANCH  21  23
HETATM   23  O1  UNL     1     -19.659 -17.820   0.645  1.00  0.00    -0.322 OA
HETATM   24  C1  UNL     1     -19.295 -16.448   0.683  1.00  0.00     0.213 C 
ENDBRANCH  21  23
ENDBRANCH  14  21
ENDBRANCH  12  13
ENDBRANCH  10  12
ENDBRANCH   1  10
BRANCH   2  25
HETATM   25  C12 UNL     1     -22.075 -21.435  -4.079  1.00  0.00     0.290 C 
HETATM   26  O3  UNL     1     -21.251 -20.802  -4.779  1.00  0.00    -0.264 OA
HETATM   27  N4  UNL     1     -23.454 -21.308  -4.359  1.00  0.00    -0.271 N 
ATOM     28  H4  UNL     1     -24.113 -21.829  -3.780  1.00  0.00     0.189 HD
BRANCH  27  29
HETATM   29  N5  UNL     1     -23.957 -20.519  -5.369  1.00  0.00    -0.342 N 
ATOM     30  H52 UNL     1     -24.719 -19.886  -5.128  1.00  0.00     0.176 HD
ATOM     31  H51 UNL     1     -23.609 -20.540  -6.327  1.00  0.00     0.176 HD
ENDBRANCH  27  29
ENDBRANCH   2  25
BRANCH   6  32
HETATM   32  C14 UNL     1     -20.857 -25.914   0.021  1.00  0.00     0.376 C 
BRANCH  32  33
HETATM   33  N8  UNL     1     -21.276 -25.219   1.270  1.00  0.00    -0.056 N 
ATOM     34  H83 UNL     1     -20.489 -24.793   1.758  1.00  0.00     0.275 HD
ATOM     35  H82 UNL     1     -21.807 -24.370   1.081  1.00  0.00     0.275 HD
ATOM     36  H81 UNL     1     -21.790 -25.872   1.863  1.00  0.00     0.275 HD
ENDBRANCH  32  33
BRANCH  32  37
HETATM   37  C15 UNL     1     -21.255 -27.360   0.223  1.00  0.00     0.214 C 
HETATM   38  O5  UNL     1     -20.710 -28.306  -0.387  1.00  0.00    -0.646 OA
HETATM   39  O6  UNL     1     -22.274 -27.701   1.127  1.00  0.00    -0.646 OA
ENDBRANCH  32  37
ENDBRANCH   6  32
TORSDOF 10
ENDMDL
MODEL 3
REMARK VINA RESULT: -6.624311841      2.460      4.050
REMARK  10 active torsions:
REMARK  status: ('A' for Active; 'I' for Inactive)
REMARK    1  A    between atoms: O1_2  and  C2_3 
REMARK    2  A    between atoms: C2_3  and  C3_5 
REMARK    3  A    between atoms: C9_12  and  N2_13 
REMARK    4  A    between atoms: N2_13  and  N3_14 
REMARK    5  A    between atoms: N3_14  and  C10_16 
REMARK    6  A    between atoms: C11_17  and  C12_18 
REMARK       I    between atoms: C12_18  and  N4_20 
REMARK    7  A    between atoms: N4_20  and  N5_22 
REMARK       I    between atoms: N7_27  and  C13_28 
REMARK    8  A    between atoms: C13_28  and  C14_30 
REMARK    9  A    between atoms: C14_30  and  N8_31 
REMARK   10  A    between atoms: C14_30  and  C15_35 
ROOT
HETATM    1  C10 UNL     1     -20.853 -21.692  -0.549  1.00  0.00     0.164 A 
HETATM    2  C11 UNL     1     -20.694 -21.484  -1.908  1.00  0.00     0.153 A 
HETATM    3  N6  UNL     1     -19.709 -20.590  -2.052  1.00  0.00    -0.281 N 
ATOM      4  H6  UNL     1     -19.366 -20.238  -2.945  1.00  0.00     0.188 HD
HETATM    5  N7  UNL     1     -19.241 -20.227  -0.854  1.00  0.00    -0.182 N 
HETATM    6  C13 UNL     1     -18.171 -19.312  -0.660  1.00  0.00     0.287 C 
HETATM    7  O4  UNL     1     -17.610 -18.828  -1.703  1.00  0.00    -0.268 OA
HETATM    8  C16 UNL     1     -19.924 -20.887   0.082  1.00  0.00     0.301 A 
HETATM    9  O7  UNL     1     -19.805 -20.846   1.359  1.00  0.00    -0.263 OA
ENDROOT
BRANCH   1  10
HETATM   10  N3  UNL     1     -21.800 -22.564   0.003  1.00  0.00    -0.227 N 
ATOM     11  H3  UNL     1     -22.440 -22.024   0.585  1.00  0.00     0.202 HD
BRANCH  10  12
HETATM   12  N2  UNL     1     -22.114 -23.659   0.037  1.00  0.00    -0.324 NA
BRANCH  12  13
HETATM   13  C9  UNL     1     -22.147 -24.967   0.372  1.00  0.00     0.155 A 
HETATM   14  C3  UNL     1     -21.309 -25.857  -0.314  1.00  0.00     0.106 A 
HETATM   15  C4  UNL     1     -21.292 -27.220  -0.035  1.00  0.00     0.066 A 
HETATM   16  N1  UNL     1     -20.424 -28.063  -0.773  1.00  0.00    -0.101 NA
HETATM   17  C5  UNL     1     -22.127 -27.709   0.948  1.00  0.00     0.028 A 
HETATM   18  C6  UNL     1     -22.966 -26.877   1.648  1.00  0.00     0.012 A 
HETATM   19  C7  UNL     1     -22.968 -25.531   1.358  1.00  0.00    -0.018 A 
HETATM   20  C8  UNL     1     -23.888 -24.650   2.127  1.00  0.00     0.052 C 
BRANCH  14  21
HETATM   21  C2  UNL     1     -20.427 -25.342  -1.336  1.00  0.00     0.298 C 
HETATM   22  O2  UNL     1     -20.686 -25.473  -2.542  1.00  0.00    -0.259 OA
BRANCH  21  23
HETATM   23  O1  UNL     1     -19.263 -24.683  -0.965  1.00  0.00    -0.322 OA
HETATM   24  C1  UNL     1     -18.228 -24.361  -1.882  1.00  0.00     0.213 C 
ENDBRANCH  21  23
ENDBRANCH  14  21
ENDBRANCH  12  13
ENDBRANCH  10  12
ENDBRANCH   1  10
BRANCH   2  25
HETATM   25  C12 UNL     1     -21.464 -22.108  -2.994  1.00  0.00     0.290 C 
HETATM   26  O3  UNL     1     -22.697 -21.903  -3.078  1.00  0.00    -0.264 OA
HETATM   27  N4  UNL     1     -20.840 -22.940  -3.951  1.00  0.00    -0.271 N 
ATOM     28  H4  UNL     1     -19.836 -23.099  -3.870  1.00  0.00     0.189 HD
BRANCH  27  29
HETATM   29  N5  UNL     1     -21.513 -23.548  -4.986  1.00  0.00    -0.342 N 
ATOM     30  H52 UNL     1     -22.393 -23.126  -5.281  1.00  0.00     0.176 HD
ATOM     31  H51 UNL     1     -21.178 -24.385  -5.463  1.00  0.00     0.176 HD
ENDBRANCH  27  29
ENDBRANCH   2  25
BRANCH   6  32
HETATM   32  C14 UNL     1     -17.630 -18.858   0.623  1.00  0.00     0.376 C 
BRANCH  32  33
HETATM   33  N8  UNL     1     -16.143 -18.923   0.580  1.00  0.00    -0.056 N 
ATOM     34  H83 UNL     1     -15.801 -19.436  -0.232  1.00  0.00     0.275 HD
ATOM     35  H82 UNL     1     -15.723 -18.018   0.368  1.00  0.00     0.275 HD
ATOM     36  H81 UNL     1     -15.797 -19.313   1.457  1.00  0.00     0.275 HD
ENDBRANCH  32  33
BRANCH  32  37
HETATM   37  C15 UNL     1     -17.953 -17.401   0.877  1.00  0.00     0.214 C 
HETATM   38  O5  UNL     1     -17.132 -16.600   1.374  1.00  0.00    -0.646 OA
HETATM   39  O6  UNL     1     -19.218 -16.884   0.554  1.00  0.00    -0.646 OA
ENDBRANCH  32  37
ENDBRANCH   6  32
TORSDOF 10
ENDMDL
MODEL 4
REMARK VINA RESULT: -6.618858936      1.902      2.663
REMARK  10 active torsions:
REMARK  status: ('A' for Active; 'I' for Inactive)
REMARK    1  A    between atoms: O1_2  and  C2_3 
REMARK    2  A    between atoms: C2_3  and  C3_5 
REMARK    3  A    between atoms: C9_12  and  N2_13 
REMARK    4  A    between atoms: N2_13  and  N3_14 
REMARK    5  A    between atoms: N3_14  and  C10_16 
REMARK    6  A    between atoms: C11_17  and  C12_18 
REMARK       I    between atoms: C12_18  and  N4_20 
REMARK    7  A    between atoms: N4_20  and  N5_22 
REMARK       I    between atoms: N7_27  and  C13_28 
REMARK    8  A    between atoms: C13_28  and  C14_30 
REMARK    9  A    between atoms: C14_30  and  N8_31 
REMARK   10  A    between atoms: C14_30  and  C15_35 
ROOT
HETATM    1  C10 UNL     1     -18.993 -21.073  -2.297  1.00  0.00     0.164 A 
HETATM    2  C11 UNL     1     -19.141 -21.924  -1.215  1.00  0.00     0.153 A 
HETATM    3  N6  UNL     1     -18.857 -21.211  -0.119  1.00  0.00    -0.281 N 
ATOM      4  H6  UNL     1     -18.880 -21.572   0.834  1.00  0.00     0.188 HD
HETATM    5  N7  UNL     1     -18.540 -19.958  -0.457  1.00  0.00    -0.182 N 
HETATM    6  C13 UNL     1     -18.215 -18.938   0.478  1.00  0.00     0.287 C 
HETATM    7  O4  UNL     1     -18.254 -19.241   1.720  1.00  0.00    -0.268 OA
HETATM    8  C16 UNL     1     -18.616 -19.848  -1.784  1.00  0.00     0.301 A 
HETATM    9  O7  UNL     1     -18.398 -18.828  -2.531  1.00  0.00    -0.263 OA
ENDROOT
BRANCH   1  10
HETATM   10  N3  UNL     1     -19.200 -21.459  -3.628  1.00  0.00    -0.227 N 
ATOM     11  H3  UNL     1     -18.330 -21.847  -3.994  1.00  0.00     0.202 HD
BRANCH  10  12
HETATM   12  N2  UNL     1     -19.988 -21.495  -4.451  1.00  0.00    -0.324 NA
BRANCH  12  13
HETATM   13  C9  UNL     1     -21.112 -21.236  -5.152  1.00  0.00     0.155 A 
HETATM   14  C3  UNL     1     -22.346 -21.618  -4.609  1.00  0.00     0.106 A 
HETATM   15  C4  UNL     1     -23.548 -21.395  -5.276  1.00  0.00     0.066 A 
HETATM   16  N1  UNL     1     -24.759 -21.814  -4.670  1.00  0.00    -0.101 NA
HETATM   17  C5  UNL     1     -23.521 -20.779  -6.509  1.00  0.00     0.028 A 
HETATM   18  C6  UNL     1     -22.337 -20.385  -7.083  1.00  0.00     0.012 A 
HETATM   19  C7  UNL     1     -21.158 -20.614  -6.409  1.00  0.00    -0.018 A 
HETATM   20  C8  UNL     1     -19.888 -20.183  -7.051  1.00  0.00     0.052 C 
BRANCH  14  21
HETATM   21  C2  UNL     1     -22.374 -22.255  -3.313  1.00  0.00     0.298 C 
HETATM   22  O2  UNL     1     -22.329 -21.594  -2.264  1.00  0.00    -0.259 OA
BRANCH  21  23
HETATM   23  O1  UNL     1     -22.455 -23.638  -3.233  1.00  0.00    -0.322 OA
HETATM   24  C1  UNL     1     -21.824 -24.507  -4.163  1.00  0.00     0.213 C 
ENDBRANCH  21  23
ENDBRANCH  14  21
ENDBRANCH  12  13
ENDBRANCH  10  12
ENDBRANCH   1  10
BRANCH   2  25
HETATM   25  C12 UNL     1     -19.522 -23.344  -1.252  1.00  0.00     0.290 C 
HETATM   26  O3  UNL     1     -18.786 -24.169  -1.841  1.00  0.00    -0.264 OA
HETATM   27  N4  UNL     1     -20.707 -23.802  -0.633  1.00  0.00    -0.271 N 
ATOM     28  H4  UNL     1     -21.297 -23.119  -0.157  1.00  0.00     0.189 HD
BRANCH  27  29
HETATM   29  N5  UNL     1     -21.109 -25.118  -0.637  1.00  0.00    -0.342 N 
ATOM     30  H52 UNL     1     -21.813 -25.392   0.048  1.00  0.00     0.176 HD
ATOM     31  H51 UNL     1     -20.743 -25.818  -1.282  1.00  0.00     0.176 HD
ENDBRANCH  27  29
ENDBRANCH   2  25
BRANCH   6  32
HETATM   32  C14 UNL     1     -17.837 -17.557   0.170  1.00  0.00     0.376 C 
BRANCH  32  33
HETATM   33  N8  UNL     1     -18.953 -16.646   0.548  1.00  0.00    -0.056 N 
ATOM     34  H83 UNL     1     -19.861 -17.005   0.255  1.00  0.00     0.275 HD
ATOM     35  H82 UNL     1     -19.119 -16.636   1.554  1.00  0.00     0.275 HD
ATOM     36  H81 UNL     1     -18.768 -15.714   0.178  1.00  0.00     0.275 HD
ENDBRANCH  32  33
BRANCH  32  37
HETATM   37  C15 UNL     1     -16.659 -17.104   1.006  1.00  0.00     0.214 C 
HETATM   38  O5  UNL     1     -16.711 -16.120   1.775  1.00  0.00    -0.646 OA
HETATM   39  O6  UNL     1     -15.437 -17.792   0.948  1.00  0.00    -0.646 OA
ENDBRANCH  32  37
ENDBRANCH   6  32
TORSDOF 10
ENDMDL
MODEL 5
REMARK VINA RESULT: -6.615682510      2.908      8.575
REMARK  10 active torsions:
REMARK  status: ('A' for Active; 'I' for Inactive)
REMARK    1  A    between atoms: O1_2  and  C2_3 
REMARK    2  A    between atoms: C2_3  and  C3_5 
REMARK    3  A    between atoms: C9_12  and  N2_13 
REMARK    4  A    between atoms: N2_13  and  N3_14 
REMARK    5  A    between atoms: N3_14  and  C10_16 
REMARK    6  A    between atoms: C11_17  and  C12_18 
REMARK       I    between atoms: C12_18  and  N4_20 
REMARK    7  A    between atoms: N4_20  and  N5_22 
REMARK       I    between atoms: N7_27  and  C13_28 
REMARK    8  A    between atoms: C13_28  and  C14_30 
REMARK    9  A    between atoms: C14_30  and  N8_31 
REMARK   10  A    between atoms: C14_30  and  C15_35 
ROOT
HETATM    1  C10 UNL     1     -18.661 -22.164  -0.589  1.00  0.00     0.164 A 
HETATM    2  C11 UNL     1     -19.600 -21.562   0.230  1.00  0.00     0.153 A 
HETATM    3  N6  UNL     1     -20.610 -22.429   0.365  1.00  0.00    -0.281 N 
ATOM      4  H6  UNL     1     -21.453 -22.264   0.915  1.00  0.00     0.188 HD
HETATM    5  N7  UNL     1     -20.353 -23.544  -0.326  1.00  0.00    -0.182 N 
HETATM    6  C13 UNL     1     -21.214 -24.673  -0.367  1.00  0.00     0.287 C 
HETATM    7  O4  UNL     1     -22.290 -24.622   0.323  1.00  0.00    -0.268 OA
HETATM    8  C16 UNL     1     -19.166 -23.407  -0.919  1.00  0.00     0.301 A 
HETATM    9  O7  UNL     1     -18.532 -24.228  -1.672  1.00  0.00    -0.263 OA
ENDROOT
BRANCH   1  10
HETATM   10  N3  UNL     1     -17.455 -21.561  -0.970  1.00  0.00    -0.227 N 
ATOM     11  H3  UNL     1     -17.447 -21.461  -1.985  1.00  0.00     0.202 HD
BRANCH  10  12
HETATM   12  N2  UNL     1     -16.480 -21.141  -0.555  1.00  0.00    -0.324 NA
BRANCH  12  13
HETATM   13  C9  UNL     1     -15.166 -20.857  -0.427  1.00  0.00     0.155 A 
HETATM   14  C3  UNL     1     -14.788 -19.538  -0.143  1.00  0.00     0.106 A 
HETATM   15  C4  UNL     1     -13.454 -19.165  -0.006  1.00  0.00     0.066 A 
HETATM   16  N1  UNL     1     -13.144 -17.810   0.275  1.00  0.00    -0.101 NA
HETATM   17  C5  UNL     1     -12.475 -20.125  -0.155  1.00  0.00     0.028 A 
HETATM   18  C6  UNL     1     -12.795 -21.431  -0.433  1.00  0.00     0.012 A 
HETATM   19  C7  UNL     1     -14.120 -21.781  -0.565  1.00  0.00    -0.018 A 
HETATM   20  C8  UNL     1     -14.443 -23.201  -0.870  1.00  0.00     0.052 C 
BRANCH  14  21
HETATM   21  C2  UNL     1     -15.815 -18.535   0.023  1.00  0.00     0.298 C 
HETATM   22  O2  UNL     1     -16.203 -18.184   1.147  1.00  0.00    -0.259 OA
BRANCH  21  23
HETATM   23  O1  UNL     1     -16.382 -17.947  -1.100  1.00  0.00    -0.322 OA
HETATM   24  C1  UNL     1     -15.749 -17.932  -2.371  1.00  0.00     0.213 C 
ENDBRANCH  21  23
ENDBRANCH  14  21
ENDBRANCH  12  13
ENDBRANCH  10  12
ENDBRANCH   1  10
BRANCH   2  25
HETATM   25  C12 UNL     1     -19.522 -20.223   0.831  1.00  0.00     0.290 C 
HETATM   26  O3  UNL     1     -19.703 -20.083   2.062  1.00  0.00    -0.264 OA
HETATM   27  N4  UNL     1     -19.245 -19.081   0.045  1.00  0.00    -0.271 N 
ATOM     28  H4  UNL     1     -19.100 -19.210  -0.957  1.00  0.00     0.189 HD
BRANCH  27  29
HETATM   29  N5  UNL     1     -19.160 -17.806   0.556  1.00  0.00    -0.342 N 
ATOM     30  H52 UNL     1     -18.249 -17.501   0.897  1.00  0.00     0.176 HD
ATOM     31  H51 UNL     1     -19.952 -17.165   0.607  1.00  0.00     0.176 HD
ENDBRANCH  27  29
ENDBRANCH   2  25
BRANCH   6  32
HETATM   32  C14 UNL     1     -21.000 -25.910  -1.122  1.00  0.00     0.376 C 
BRANCH  32  33
HETATM   33  N8  UNL     1     -21.197 -27.078  -0.219  1.00  0.00    -0.056 N 
ATOM     34  H83 UNL     1     -21.336 -26.797   0.751  1.00  0.00     0.275 HD
ATOM     35  H82 UNL     1     -22.096 -27.535  -0.368  1.00  0.00     0.275 HD
ATOM     36  H81 UNL     1     -20.414 -27.723  -0.326  1.00  0.00     0.275 HD
ENDBRANCH  32  33
BRANCH  32  37
HETATM   37  C15 UNL     1     -22.034 -26.079  -2.215  1.00  0.00     0.214 C 
HETATM   38  O5  UNL     1     -22.166 -25.267  -3.156  1.00  0.00    -0.646 OA
HETATM   39  O6  UNL     1     -22.903 -27.182  -2.210  1.00  0.00    -0.646 OA
ENDBRANCH  32  37
ENDBRANCH   6  32
TORSDOF 10
ENDMDL
