MODEL 1
REMARK VINA RESULT: -7.939180769      0.000      0.000
REMARK  3 active torsions:
REMARK  status: ('A' for Active; 'I' for Inactive)
REMARK    1  A    between atoms: N1_3  and  C3_5 
REMARK    2  A    between atoms: C6_12  and  C7_13 
REMARK    3  A    between atoms: C8_14  and  O1_15 
ROOT
HETATM    1  C3  UNL     1     -10.589 -10.044  11.169  1.00  0.00     0.124 A 
HETATM    2  N2  UNL     1     -11.160  -9.220  10.216  1.00  0.00    -0.349 N 
ATOM      3  H2  UNL     1     -11.518  -8.303  10.484  1.00  0.00     0.167 HD
HETATM    4  C4  UNL     1     -11.242  -9.618   8.965  1.00  0.00     0.121 A 
HETATM    5  C5  UNL     1     -10.789 -10.838   8.494  1.00  0.00     0.077 A 
HETATM    6  N3  UNL     1     -10.753 -11.457   7.323  1.00  0.00    -0.339 N 
ATOM      7  H3  UNL     1     -11.113 -11.061   6.455  1.00  0.00     0.167 HD
HETATM    8  C6  UNL     1     -10.175 -12.693   7.421  1.00  0.00     0.120 A 
HETATM    9  N4  UNL     1      -9.857 -12.802   8.703  1.00  0.00    -0.339 N 
ATOM     10  H4  UNL     1      -9.401 -13.616   9.116  1.00  0.00     0.167 HD
HETATM   11  C15 UNL     1     -10.218 -11.683   9.399  1.00  0.00     0.083 A 
HETATM   12  C16 UNL     1     -10.129 -11.268  10.720  1.00  0.00     0.084 A 
HETATM   13 BR1  UNL     1      -9.304 -12.549  11.902  1.00  0.00    -0.044 Br
ENDROOT
BRANCH   8  14
HETATM   14  C7  UNL     1     -10.054 -13.580   6.274  1.00  0.00     0.050 A 
HETATM   15  C8  UNL     1     -10.904 -14.707   6.217  1.00  0.00     0.082 A 
HETATM   16  C10 UNL     1     -10.826 -15.578   5.176  1.00  0.00     0.041 A 
HETATM   17  C11 UNL     1      -9.930 -15.390   4.162  1.00  0.00     0.045 A 
HETATM   18  C12 UNL     1      -9.084 -14.312   4.173  1.00  0.00     0.123 A 
HETATM   19  F1  UNL     1      -8.200 -14.127   3.168  1.00  0.00    -0.206 F 
HETATM   20  C13 UNL     1      -9.173 -13.421   5.250  1.00  0.00    -0.007 A 
HETATM   21  C14 UNL     1      -8.201 -12.280   5.222  1.00  0.00     0.052 C 
BRANCH  15  22
HETATM   22  O1  UNL     1     -11.827 -14.894   7.268  1.00  0.00    -0.355 OA
HETATM   23  C9  UNL     1     -13.189 -14.932   6.896  1.00  0.00     0.210 C 
ENDBRANCH  15  22
ENDBRANCH   8  14
BRANCH   1  24
HETATM   24  N1  UNL     1     -10.534  -9.631  12.327  1.00  0.00    -0.355 N 
HETATM   25  C2  UNL     1      -9.886  -8.671  13.051  1.00  0.00     0.058 C 
HETATM   26  C1  UNL     1      -8.525  -9.178  13.530  1.00  0.00     0.054 C 
ATOM     27  H1  UNL     1     -11.160 -10.168  12.927  1.00  0.00     0.166 HD
ENDBRANCH   1  24
TORSDOF 3
ENDMDL
MODEL 2
REMARK VINA RESULT: -7.843217299      4.075      6.564
REMARK  3 active torsions:
REMARK  status: ('A' for Active; 'I' for Inactive)
REMARK    1  A    between atoms: N1_3  and  C3_5 
REMARK    2  A    between atoms: C6_12  and  C7_13 
REMARK    3  A    between atoms: C8_14  and  O1_15 
ROOT
HETATM    1  C3  UNL     1     -11.963 -18.586  10.220  1.00  0.00     0.124 A 
HETATM    2  N2  UNL     1     -10.612 -18.841  10.367  1.00  0.00    -0.349 N 
ATOM      3  H2  UNL     1     -10.293 -19.524  11.055  1.00  0.00     0.167 HD
HETATM    4  C4  UNL     1      -9.736 -18.203   9.620  1.00  0.00     0.121 A 
HETATM    5  C5  UNL     1     -10.058 -17.261   8.659  1.00  0.00     0.077 A 
HETATM    6  N3  UNL     1      -9.389 -16.502   7.803  1.00  0.00    -0.339 N 
ATOM      7  H3  UNL     1      -8.374 -16.501   7.711  1.00  0.00     0.167 HD
HETATM    8  C6  UNL     1     -10.228 -15.719   7.057  1.00  0.00     0.120 A 
HETATM    9  N4  UNL     1     -11.439 -16.034   7.493  1.00  0.00    -0.339 N 
ATOM     10  H4  UNL     1     -12.304 -15.625   7.139  1.00  0.00     0.167 HD
HETATM   11  C15 UNL     1     -11.380 -16.978   8.480  1.00  0.00     0.083 A 
HETATM   12  C16 UNL     1     -12.307 -17.648   9.265  1.00  0.00     0.084 A 
HETATM   13 BR1  UNL     1     -14.140 -17.162   8.919  1.00  0.00    -0.044 Br
ENDROOT
BRANCH   8  14
HETATM   14  C7  UNL     1      -9.726 -14.773   6.072  1.00  0.00     0.050 A 
HETATM   15  C8  UNL     1      -9.443 -13.458   6.503  1.00  0.00     0.082 A 
HETATM   16  C10 UNL     1      -8.984 -12.528   5.623  1.00  0.00     0.041 A 
HETATM   17  C11 UNL     1      -8.787 -12.836   4.307  1.00  0.00     0.045 A 
HETATM   18  C12 UNL     1      -9.048 -14.098   3.842  1.00  0.00     0.123 A 
HETATM   19  F1  UNL     1      -8.850 -14.400   2.540  1.00  0.00    -0.206 F 
HETATM   20  C13 UNL     1      -9.519 -15.048   4.755  1.00  0.00    -0.007 A 
HETATM   21  C14 UNL     1      -9.817 -16.400   4.181  1.00  0.00     0.052 C 
BRANCH  15  22
HETATM   22  O1  UNL     1      -9.649 -13.149   7.863  1.00  0.00    -0.355 OA
HETATM   23  C9  UNL     1      -8.491 -12.844   8.612  1.00  0.00     0.210 C 
ENDBRANCH  15  22
ENDBRANCH   8  14
BRANCH   1  24
HETATM   24  N1  UNL     1     -12.746 -19.206  10.940  1.00  0.00    -0.355 N 
HETATM   25  C2  UNL     1     -13.175 -20.488  11.136  1.00  0.00     0.058 C 
HETATM   26  C1  UNL     1     -14.319 -20.829  10.181  1.00  0.00     0.054 C 
ATOM     27  H1  UNL     1     -13.217 -18.570  11.584  1.00  0.00     0.166 HD
ENDBRANCH   1  24
TORSDOF 3
ENDMDL
MODEL 3
REMARK VINA RESULT: -7.818538496      4.177      5.356
REMARK  3 active torsions:
REMARK  status: ('A' for Active; 'I' for Inactive)
REMARK    1  A    between atoms: N1_3  and  C3_5 
REMARK    2  A    between atoms: C6_12  and  C7_13 
REMARK    3  A    between atoms: C8_14  and  O1_15 
ROOT
HETATM    1  C3  UNL     1     -16.085 -13.183   9.589  1.00  0.00     0.124 A 
HETATM    2  N2  UNL     1     -14.975 -12.733  10.282  1.00  0.00    -0.349 N 
ATOM      3  H2  UNL     1     -15.094 -12.202  11.146  1.00  0.00     0.167 HD
HETATM    4  C4  UNL     1     -13.767 -12.988   9.828  1.00  0.00     0.121 A 
HETATM    5  C5  UNL     1     -13.493 -13.697   8.672  1.00  0.00     0.077 A 
HETATM    6  N3  UNL     1     -12.404 -14.077   8.019  1.00  0.00    -0.339 N 
ATOM      7  H3  UNL     1     -11.453 -13.870   8.324  1.00  0.00     0.167 HD
HETATM    8  C6  UNL     1     -12.711 -14.782   6.888  1.00  0.00     0.120 A 
HETATM    9  N4  UNL     1     -14.036 -14.817   6.877  1.00  0.00    -0.339 N 
ATOM     10  H4  UNL     1     -14.594 -15.275   6.157  1.00  0.00     0.167 HD
HETATM   11  C15 UNL     1     -14.557 -14.160   7.956  1.00  0.00     0.083 A 
HETATM   12  C16 UNL     1     -15.833 -13.894   8.431  1.00  0.00     0.084 A 
HETATM   13 BR1  UNL     1     -17.253 -14.600   7.334  1.00  0.00    -0.044 Br
ENDROOT
BRANCH   8  14
HETATM   14  C7  UNL     1     -11.683 -15.276   5.985  1.00  0.00     0.050 A 
HETATM   15  C8  UNL     1     -11.045 -16.493   6.311  1.00  0.00     0.082 A 
HETATM   16  C10 UNL     1     -10.067 -16.995   5.512  1.00  0.00     0.041 A 
HETATM   17  C11 UNL     1      -9.675 -16.342   4.378  1.00  0.00     0.045 A 
HETATM   18  C12 UNL     1     -10.263 -15.158   4.020  1.00  0.00     0.123 A 
HETATM   19  F1  UNL     1      -9.874 -14.514   2.897  1.00  0.00    -0.206 F 
HETATM   20  C13 UNL     1     -11.269 -14.649   4.850  1.00  0.00    -0.007 A 
HETATM   21  C14 UNL     1     -11.852 -13.335   4.423  1.00  0.00     0.052 C 
BRANCH  15  22
HETATM   22  O1  UNL     1     -11.456 -17.161   7.484  1.00  0.00    -0.355 OA
HETATM   23  C9  UNL     1     -10.436 -17.468   8.412  1.00  0.00     0.210 C 
ENDBRANCH  15  22
ENDBRANCH   8  14
BRANCH   1  24
HETATM   24  N1  UNL     1     -17.195 -12.921  10.051  1.00  0.00    -0.355 N 
HETATM   25  C2  UNL     1     -17.962 -13.233  11.138  1.00  0.00     0.058 C 
HETATM   26  C1  UNL     1     -18.744 -14.524  10.897  1.00  0.00     0.054 C 
ATOM     27  H1  UNL     1     -17.693 -12.278   9.436  1.00  0.00     0.166 HD
ENDBRANCH   1  24
TORSDOF 3
ENDMDL
MODEL 4
REMARK VINA RESULT: -7.763019619      3.709      6.152
REMARK  3 active torsions:
REMARK  status: ('A' for Active; 'I' for Inactive)
REMARK    1  A    between atoms: N1_3  and  C3_5 
REMARK    2  A    between atoms: C6_12  and  C7_13 
REMARK    3  A    between atoms: C8_14  and  O1_15 
ROOT
HETATM    1  C3  UNL     1     -12.498 -18.070   9.881  1.00  0.00     0.124 A 
HETATM    2  N2  UNL     1     -13.648 -17.517   9.349  1.00  0.00    -0.349 N 
ATOM      3  H2  UNL     1     -14.561 -17.787   9.715  1.00  0.00     0.167 HD
HETATM    4  C4  UNL     1     -13.566 -16.642   8.369  1.00  0.00     0.121 A 
HETATM    5  C5  UNL     1     -12.382 -16.206   7.798  1.00  0.00     0.077 A 
HETATM    6  N3  UNL     1     -12.039 -15.363   6.835  1.00  0.00    -0.339 N 
ATOM      7  H3  UNL     1     -12.705 -14.824   6.283  1.00  0.00     0.167 HD
HETATM    8  C6  UNL     1     -10.682 -15.306   6.673  1.00  0.00     0.120 A 
HETATM    9  N4  UNL     1     -10.210 -16.149   7.579  1.00  0.00    -0.339 N 
ATOM     10  H4  UNL     1      -9.219 -16.342   7.725  1.00  0.00     0.167 HD
HETATM   11  C15 UNL     1     -11.223 -16.726   8.293  1.00  0.00     0.083 A 
HETATM   12  C16 UNL     1     -11.304 -17.648   9.326  1.00  0.00     0.084 A 
HETATM   13 BR1  UNL     1      -9.599 -18.308   9.938  1.00  0.00    -0.044 Br
ENDROOT
BRANCH   8  14
HETATM   14  C7  UNL     1     -10.064 -14.475   5.649  1.00  0.00     0.050 A 
HETATM   15  C8  UNL     1     -10.002 -13.083   5.876  1.00  0.00     0.082 A 
HETATM   16  C10 UNL     1      -9.448 -12.257   4.949  1.00  0.00     0.041 A 
HETATM   17  C11 UNL     1      -8.940 -12.746   3.780  1.00  0.00     0.045 A 
HETATM   18  C12 UNL     1      -8.978 -14.089   3.514  1.00  0.00     0.123 A 
HETATM   19  F1  UNL     1      -8.473 -14.571   2.356  1.00  0.00    -0.206 F 
HETATM   20  C13 UNL     1      -9.550 -14.932   4.475  1.00  0.00    -0.007 A 
HETATM   21  C14 UNL     1      -9.591 -16.386   4.114  1.00  0.00     0.052 C 
BRANCH  15  22
HETATM   22  O1  UNL     1     -10.529 -12.586   7.087  1.00  0.00    -0.355 OA
HETATM   23  C9  UNL     1      -9.628 -11.873   7.909  1.00  0.00     0.210 C 
ENDBRANCH  15  22
ENDBRANCH   8  14
BRANCH   1  24
HETATM   24  N1  UNL     1     -12.622 -18.883  10.796  1.00  0.00    -0.355 N 
HETATM   25  C2  UNL     1     -12.573 -20.234  10.992  1.00  0.00     0.058 C 
HETATM   26  C1  UNL     1     -13.930 -20.874  10.698  1.00  0.00     0.054 C 
ATOM     27  H1  UNL     1     -12.823 -18.403  11.674  1.00  0.00     0.166 HD
ENDBRANCH   1  24
TORSDOF 3
ENDMDL
MODEL 5
REMARK VINA RESULT: -7.716311234      4.631      6.014
REMARK  3 active torsions:
REMARK  status: ('A' for Active; 'I' for Inactive)
REMARK    1  A    between atoms: N1_3  and  C3_5 
REMARK    2  A    between atoms: C6_12  and  C7_13 
REMARK    3  A    between atoms: C8_14  and  O1_15 
ROOT
HETATM    1  C3  UNL     1     -16.762 -13.328   9.647  1.00  0.00     0.124 A 
HETATM    2  N2  UNL     1     -15.748 -12.878  10.473  1.00  0.00    -0.349 N 
ATOM      3  H2  UNL     1     -15.973 -12.352  11.317  1.00  0.00     0.167 HD
HETATM    4  C4  UNL     1     -14.492 -13.130  10.172  1.00  0.00     0.121 A 
HETATM    5  C5  UNL     1     -14.075 -13.834   9.055  1.00  0.00     0.077 A 
HETATM    6  N3  UNL     1     -12.912 -14.209   8.541  1.00  0.00    -0.339 N 
ATOM      7  H3  UNL     1     -12.007 -14.002   8.962  1.00  0.00     0.167 HD
HETATM    8  C6  UNL     1     -13.076 -14.910   7.378  1.00  0.00     0.120 A 
HETATM    9  N4  UNL     1     -14.389 -14.948   7.203  1.00  0.00    -0.339 N 
ATOM     10  H4  UNL     1     -14.853 -15.404   6.417  1.00  0.00     0.167 HD
HETATM   11  C15 UNL     1     -15.041 -14.296   8.212  1.00  0.00     0.083 A 
HETATM   12  C16 UNL     1     -16.367 -14.034   8.526  1.00  0.00     0.084 A 
HETATM   13 BR1  UNL     1     -17.638 -14.739   7.259  1.00  0.00    -0.044 Br
ENDROOT
BRANCH   8  14
HETATM   14  C7  UNL     1     -11.942 -15.399   6.608  1.00  0.00     0.050 A 
HETATM   15  C8  UNL     1     -11.663 -14.773   5.372  1.00  0.00     0.082 A 
HETATM   16  C10 UNL     1     -10.625 -15.197   4.603  1.00  0.00     0.041 A 
HETATM   17  C11 UNL     1      -9.828 -16.232   5.000  1.00  0.00     0.045 A 
HETATM   18  C12 UNL     1     -10.059 -16.871   6.190  1.00  0.00     0.123 A 
HETATM   19  F1  UNL     1      -9.268 -17.895   6.581  1.00  0.00    -0.206 F 
HETATM   20  C13 UNL     1     -11.130 -16.427   6.974  1.00  0.00    -0.007 A 
HETATM   21  C14 UNL     1     -11.352 -17.185   8.248  1.00  0.00     0.052 C 
BRANCH  15  22
HETATM   22  O1  UNL     1     -12.492 -13.704   4.970  1.00  0.00    -0.355 OA
HETATM   23  C9  UNL     1     -12.046 -12.961   3.855  1.00  0.00     0.210 C 
ENDBRANCH  15  22
ENDBRANCH   8  14
BRANCH   1  24
HETATM   24  N1  UNL     1     -17.921 -13.070   9.968  1.00  0.00    -0.355 N 
HETATM   25  C2  UNL     1     -18.819 -13.393  10.946  1.00  0.00     0.058 C 
HETATM   26  C1  UNL     1     -19.565 -14.681  10.594  1.00  0.00     0.054 C 
ATOM     27  H1  UNL     1     -18.338 -12.419   9.303  1.00  0.00     0.166 HD
ENDBRANCH   1  24
TORSDOF 3
ENDMDL
