MODEL 1
REMARK VINA RESULT: -9.278329229      0.000      0.000
REMARK  4 active torsions:
REMARK  status: ('A' for Active; 'I' for Inactive)
REMARK    1  A    between atoms: C2_2  and  C3_3 
REMARK    2  A    between atoms: C5_5  and  N1_6 
REMARK       I    between atoms: N1_6  and  C6_8 
REMARK       I    between atoms: C6_8  and  N2_10 
REMARK       I    between atoms: N2_10  and  C7_12 
REMARK    3  A    between atoms: C7_12  and  C8_14 
REMARK    4  A    between atoms: C11_18  and  C12_19 
ROOT
HETATM    1  N1  UNL     1     -13.774 -19.470  10.963  1.00  0.00    -0.287 N 
ATOM      2  H1  UNL     1     -13.056 -20.144  10.695  1.00  0.00     0.172 HD
HETATM    3  C6  UNL     1     -13.375 -18.170  11.299  1.00  0.00     0.329 C 
HETATM    4  O1  UNL     1     -13.456 -17.807  12.492  1.00  0.00    -0.247 OA
HETATM    5  N2  UNL     1     -12.882 -17.257  10.328  1.00  0.00    -0.275 N 
ATOM      6  H2  UNL     1     -12.600 -16.319  10.615  1.00  0.00     0.173 HD
HETATM    7  C7  UNL     1     -12.779 -17.627   8.992  1.00  0.00     0.265 C 
HETATM    8  O2  UNL     1     -13.164 -18.823   8.712  1.00  0.00    -0.267 OA
ENDROOT
BRANCH   7   9
HETATM    9  C8  UNL     1     -12.295 -16.831   7.881  1.00  0.00     0.109 A 
HETATM   10  C9  UNL     1     -12.996 -15.857   7.215  1.00  0.00     0.136 A 
HETATM   11  F1  UNL     1     -14.246 -15.558   7.611  1.00  0.00    -0.205 F 
HETATM   12  C10 UNL     1     -12.420 -15.170   6.139  1.00  0.00     0.055 A 
HETATM   13  C11 UNL     1     -11.153 -15.421   5.699  1.00  0.00    -0.020 A 
HETATM   14  C18 UNL     1     -10.457 -16.399   6.374  1.00  0.00     0.055 A 
HETATM   15  C19 UNL     1     -10.992 -17.092   7.432  1.00  0.00     0.136 A 
HETATM   16  F2  UNL     1     -10.232 -18.043   8.040  1.00  0.00    -0.205 F 
BRANCH  13  17
HETATM   17  C12 UNL     1     -10.553 -14.707   4.581  1.00  0.00    -0.026 A 
HETATM   18  C13 UNL     1     -11.147 -13.551   4.072  1.00  0.00     0.012 A 
HETATM   19  C14 UNL     1     -10.575 -12.877   3.011  1.00  0.00     0.001 A 
HETATM   20  C15 UNL     1      -9.408 -13.318   2.422  1.00  0.00     0.000 A 
HETATM   21  C16 UNL     1      -8.794 -14.468   2.908  1.00  0.00     0.001 A 
HETATM   22  C17 UNL     1      -9.389 -15.116   3.966  1.00  0.00     0.012 A 
ENDBRANCH  13  17
ENDBRANCH   7   9
BRANCH   1  23
HETATM   23  C5  UNL     1     -15.001 -19.857  10.976  1.00  0.00     0.176 A 
HETATM   24  C4  UNL     1     -15.431 -21.146  11.099  1.00  0.00     0.085 A 
HETATM   25  C3  UNL     1     -16.816 -21.132  11.068  1.00  0.00     0.036 A 
HETATM   26  N3  UNL     1     -17.149 -19.830  10.928  1.00  0.00    -0.263 N 
HETATM   27  O3  UNL     1     -16.070 -19.102  10.876  1.00  0.00    -0.220 OA
ATOM     28  H3  UNL     1     -18.101 -19.470  10.871  1.00  0.00     0.194 HD
BRANCH  25  29
HETATM   29  C2  UNL     1     -17.709 -22.308  11.168  1.00  0.00     0.055 C 
HETATM   30  C1  UNL     1     -17.100 -23.377  12.045  1.00  0.00     0.011 C 
ENDBRANCH  25  29
ENDBRANCH   1  23
TORSDOF 4
ENDMDL
MODEL 2
REMARK VINA RESULT: -9.231105011      0.311      1.605
REMARK  4 active torsions:
REMARK  status: ('A' for Active; 'I' for Inactive)
REMARK    1  A    between atoms: C2_2  and  C3_3 
REMARK    2  A    between atoms: C5_5  and  N1_6 
REMARK       I    between atoms: N1_6  and  C6_8 
REMARK       I    between atoms: C6_8  and  N2_10 
REMARK       I    between atoms: N2_10  and  C7_12 
REMARK    3  A    between atoms: C7_12  and  C8_14 
REMARK    4  A    between atoms: C11_18  and  C12_19 
ROOT
HETATM    1  N1  UNL     1     -14.012 -19.116  11.150  1.00  0.00    -0.287 N 
ATOM      2  H1  UNL     1     -13.255 -19.798  11.101  1.00  0.00     0.172 HD
HETATM    3  C6  UNL     1     -13.681 -17.768  11.340  1.00  0.00     0.329 C 
HETATM    4  O1  UNL     1     -13.950 -17.232  12.437  1.00  0.00    -0.247 OA
HETATM    5  N2  UNL     1     -13.051 -16.994  10.327  1.00  0.00    -0.275 N 
ATOM      6  H2  UNL     1     -12.826 -16.015  10.507  1.00  0.00     0.173 HD
HETATM    7  C7  UNL     1     -12.738 -17.557   9.095  1.00  0.00     0.265 C 
HETATM    8  O2  UNL     1     -13.064 -18.793   8.945  1.00  0.00    -0.267 OA
ENDROOT
BRANCH   7   9
HETATM    9  C8  UNL     1     -12.093 -16.921   7.962  1.00  0.00     0.109 A 
HETATM   10  C9  UNL     1     -10.812 -17.149   7.525  1.00  0.00     0.136 A 
HETATM   11  F1  UNL     1     -10.053 -18.060   8.158  1.00  0.00    -0.205 F 
HETATM   12  C10 UNL     1     -10.297 -16.452   6.425  1.00  0.00     0.055 A 
HETATM   13  C11 UNL     1     -11.023 -15.524   5.736  1.00  0.00    -0.020 A 
HETATM   14  C18 UNL     1     -12.308 -15.303   6.181  1.00  0.00     0.055 A 
HETATM   15  C19 UNL     1     -12.843 -15.969   7.257  1.00  0.00     0.136 A 
HETATM   16  F2  UNL     1     -14.121 -15.686   7.629  1.00  0.00    -0.205 F 
BRANCH  13  17
HETATM   17  C12 UNL     1     -10.490 -14.799   4.592  1.00  0.00    -0.026 A 
HETATM   18  C13 UNL     1     -11.144 -13.670   4.096  1.00  0.00     0.012 A 
HETATM   19  C14 UNL     1     -10.635 -12.984   3.010  1.00  0.00     0.001 A 
HETATM   20  C15 UNL     1      -9.474 -13.388   2.383  1.00  0.00     0.000 A 
HETATM   21  C16 UNL     1      -8.802 -14.509   2.856  1.00  0.00     0.001 A 
HETATM   22  C17 UNL     1      -9.334 -15.170   3.939  1.00  0.00     0.012 A 
ENDBRANCH  13  17
ENDBRANCH   7   9
BRANCH   1  23
HETATM   23  C5  UNL     1     -15.222 -19.536  11.034  1.00  0.00     0.176 A 
HETATM   24  C4  UNL     1     -15.630 -20.832  11.141  1.00  0.00     0.085 A 
HETATM   25  C3  UNL     1     -17.004 -20.858  10.953  1.00  0.00     0.036 A 
HETATM   26  N3  UNL     1     -17.350 -19.569  10.743  1.00  0.00    -0.263 N 
HETATM   27  O3  UNL     1     -16.291 -18.813  10.795  1.00  0.00    -0.220 OA
ATOM     28  H3  UNL     1     -18.299 -19.237  10.570  1.00  0.00     0.194 HD
BRANCH  25  29
HETATM   29  C2  UNL     1     -17.873 -22.056  10.982  1.00  0.00     0.055 C 
HETATM   30  C1  UNL     1     -17.172 -23.216  11.650  1.00  0.00     0.011 C 
ENDBRANCH  25  29
ENDBRANCH   1  23
TORSDOF 4
ENDMDL
MODEL 3
REMARK VINA RESULT: -9.227564051      1.358      2.230
REMARK  4 active torsions:
REMARK  status: ('A' for Active; 'I' for Inactive)
REMARK    1  A    between atoms: C2_2  and  C3_3 
REMARK    2  A    between atoms: C5_5  and  N1_6 
REMARK       I    between atoms: N1_6  and  C6_8 
REMARK       I    between atoms: C6_8  and  N2_10 
REMARK       I    between atoms: N2_10  and  C7_12 
REMARK    3  A    between atoms: C7_12  and  C8_14 
REMARK    4  A    between atoms: C11_18  and  C12_19 
ROOT
HETATM    1  N1  UNL     1     -13.754 -20.126  11.697  1.00  0.00    -0.287 N 
ATOM      2  H1  UNL     1     -12.853 -20.548  11.923  1.00  0.00     0.172 HD
HETATM    3  C6  UNL     1     -13.875 -18.732  11.776  1.00  0.00     0.329 C 
HETATM    4  O1  UNL     1     -14.565 -18.240  12.694  1.00  0.00    -0.247 OA
HETATM    5  N2  UNL     1     -13.238 -17.865  10.847  1.00  0.00    -0.275 N 
ATOM      6  H2  UNL     1     -13.350 -16.855  10.940  1.00  0.00     0.173 HD
HETATM    7  C7  UNL     1     -12.463 -18.378   9.813  1.00  0.00     0.265 C 
HETATM    8  O2  UNL     1     -12.380 -19.661   9.759  1.00  0.00    -0.267 OA
ENDROOT
BRANCH   7   9
HETATM    9  C8  UNL     1     -11.742 -17.644   8.791  1.00  0.00     0.109 A 
HETATM   10  C9  UNL     1     -10.381 -17.614   8.621  1.00  0.00     0.136 A 
HETATM   11  F1  UNL     1      -9.600 -18.341   9.439  1.00  0.00    -0.205 F 
HETATM   12  C10 UNL     1      -9.803 -16.846   7.602  1.00  0.00     0.055 A 
HETATM   13  C11 UNL     1     -10.544 -16.098   6.735  1.00  0.00    -0.020 A 
HETATM   14  C18 UNL     1     -11.910 -16.135   6.912  1.00  0.00     0.055 A 
HETATM   15  C19 UNL     1     -12.508 -16.876   7.901  1.00  0.00     0.136 A 
HETATM   16  F2  UNL     1     -13.864 -16.853   8.003  1.00  0.00    -0.205 F 
BRANCH  13  17
HETATM   17  C12 UNL     1      -9.945 -15.299   5.675  1.00  0.00    -0.026 A 
HETATM   18  C13 UNL     1      -9.835 -15.803   4.378  1.00  0.00     0.012 A 
HETATM   19  C14 UNL     1      -9.265 -15.043   3.375  1.00  0.00     0.001 A 
HETATM   20  C15 UNL     1      -8.790 -13.771   3.617  1.00  0.00     0.000 A 
HETATM   21  C16 UNL     1      -8.887 -13.243   4.900  1.00  0.00     0.001 A 
HETATM   22  C17 UNL     1      -9.459 -14.025   5.877  1.00  0.00     0.012 A 
ENDBRANCH  13  17
ENDBRANCH   7   9
BRANCH   1  23
HETATM   23  C5  UNL     1     -14.723 -20.900  11.355  1.00  0.00     0.176 A 
HETATM   24  C4  UNL     1     -15.386 -21.761  12.179  1.00  0.00     0.085 A 
HETATM   25  C3  UNL     1     -16.354 -22.404  11.424  1.00  0.00     0.036 A 
HETATM   26  N3  UNL     1     -16.222 -21.893  10.180  1.00  0.00    -0.263 N 
HETATM   27  O3  UNL     1     -15.261 -21.015  10.164  1.00  0.00    -0.220 OA
ATOM     28  H3  UNL     1     -16.790 -22.156   9.375  1.00  0.00     0.194 HD
BRANCH  25  29
HETATM   29  C2  UNL     1     -17.310 -23.426  11.907  1.00  0.00     0.055 C 
HETATM   30  C1  UNL     1     -16.767 -24.143  13.121  1.00  0.00     0.011 C 
ENDBRANCH  25  29
ENDBRANCH   1  23
TORSDOF 4
ENDMDL
MODEL 4
REMARK VINA RESULT: -9.133258777      1.038      1.243
REMARK  4 active torsions:
REMARK  status: ('A' for Active; 'I' for Inactive)
REMARK    1  A    between atoms: C2_2  and  C3_3 
REMARK    2  A    between atoms: C5_5  and  N1_6 
REMARK       I    between atoms: N1_6  and  C6_8 
REMARK       I    between atoms: C6_8  and  N2_10 
REMARK       I    between atoms: N2_10  and  C7_12 
REMARK    3  A    between atoms: C7_12  and  C8_14 
REMARK    4  A    between atoms: C11_18  and  C12_19 
ROOT
HETATM    1  N1  UNL     1     -13.601 -20.028  11.463  1.00  0.00    -0.287 N 
ATOM      2  H1  UNL     1     -12.802 -20.643  11.305  1.00  0.00     0.172 HD
HETATM    3  C6  UNL     1     -13.355 -18.696  11.819  1.00  0.00     0.329 C 
HETATM    4  O1  UNL     1     -13.621 -18.327  12.984  1.00  0.00    -0.247 OA
HETATM    5  N2  UNL     1     -12.813 -17.755  10.902  1.00  0.00    -0.275 N 
ATOM      6  H2  UNL     1     -12.648 -16.794  11.202  1.00  0.00     0.173 HD
HETATM    7  C7  UNL     1     -12.506 -18.131   9.599  1.00  0.00     0.265 C 
HETATM    8  O2  UNL     1     -12.753 -19.357   9.296  1.00  0.00    -0.267 OA
ENDROOT
BRANCH   7   9
HETATM    9  C8  UNL     1     -11.944 -17.310   8.543  1.00  0.00     0.109 A 
HETATM   10  C9  UNL     1     -12.636 -16.439   7.738  1.00  0.00     0.136 A 
HETATM   11  F1  UNL     1     -13.958 -16.278   7.927  1.00  0.00    -0.205 F 
HETATM   12  C10 UNL     1     -11.979 -15.715   6.736  1.00  0.00     0.055 A 
HETATM   13  C11 UNL     1     -10.638 -15.828   6.506  1.00  0.00    -0.020 A 
HETATM   14  C18 UNL     1      -9.952 -16.703   7.319  1.00  0.00     0.055 A 
HETATM   15  C19 UNL     1     -10.567 -17.429   8.310  1.00  0.00     0.136 A 
HETATM   16  F2  UNL     1      -9.811 -18.271   9.065  1.00  0.00    -0.205 F 
BRANCH  13  17
HETATM   17  C12 UNL     1      -9.953 -15.075   5.465  1.00  0.00    -0.026 A 
HETATM   18  C13 UNL     1      -9.799 -15.609   4.184  1.00  0.00     0.012 A 
HETATM   19  C14 UNL     1      -9.147 -14.893   3.199  1.00  0.00     0.001 A 
HETATM   20  C15 UNL     1      -8.631 -13.637   3.444  1.00  0.00     0.000 A 
HETATM   21  C16 UNL     1      -8.769 -13.081   4.711  1.00  0.00     0.001 A 
HETATM   22  C17 UNL     1      -9.424 -13.819   5.669  1.00  0.00     0.012 A 
ENDBRANCH  13  17
ENDBRANCH   7   9
BRANCH   1  23
HETATM   23  C5  UNL     1     -14.784 -20.514  11.324  1.00  0.00     0.176 A 
HETATM   24  C4  UNL     1     -15.161 -21.792  11.616  1.00  0.00     0.085 A 
HETATM   25  C3  UNL     1     -16.512 -21.908  11.327  1.00  0.00     0.036 A 
HETATM   26  N3  UNL     1     -16.877 -20.689  10.874  1.00  0.00    -0.263 N 
HETATM   27  O3  UNL     1     -15.849 -19.889  10.881  1.00  0.00    -0.220 OA
ATOM     28  H3  UNL     1     -17.817 -20.433  10.572  1.00  0.00     0.194 HD
BRANCH  25  29
HETATM   29  C2  UNL     1     -17.344 -23.122  11.489  1.00  0.00     0.055 C 
HETATM   30  C1  UNL     1     -16.975 -23.865  12.751  1.00  0.00     0.011 C 
ENDBRANCH  25  29
ENDBRANCH   1  23
TORSDOF 4
ENDMDL
MODEL 5
REMARK VINA RESULT: -9.112839899      1.648      2.743
REMARK  4 active torsions:
REMARK  status: ('A' for Active; 'I' for Inactive)
REMARK    1  A    between atoms: C2_2  and  C3_3 
REMARK    2  A    between atoms: C5_5  and  N1_6 
REMARK       I    between atoms: N1_6  and  C6_8 
REMARK       I    between atoms: C6_8  and  N2_10 
REMARK       I    between atoms: N2_10  and  C7_12 
REMARK    3  A    between atoms: C7_12  and  C8_14 
REMARK    4  A    between atoms: C11_18  and  C12_19 
ROOT
HETATM    1  N1  UNL     1     -13.887 -18.739  11.358  1.00  0.00    -0.287 N 
ATOM      2  H1  UNL     1     -13.402 -18.052  11.935  1.00  0.00     0.172 HD
HETATM    3  C6  UNL     1     -14.740 -18.277  10.348  1.00  0.00     0.329 C 
HETATM    4  O1  UNL     1     -15.973 -18.429  10.486  1.00  0.00    -0.247 OA
HETATM    5  N2  UNL     1     -14.249 -17.642   9.175  1.00  0.00    -0.275 N 
ATOM      6  H2  UNL     1     -14.904 -17.318   8.463  1.00  0.00     0.173 HD
HETATM    7  C7  UNL     1     -12.884 -17.456   8.988  1.00  0.00     0.265 C 
HETATM    8  O2  UNL     1     -12.124 -17.902   9.926  1.00  0.00    -0.267 OA
ENDROOT
BRANCH   7   9
HETATM    9  C8  UNL     1     -12.215 -16.826   7.865  1.00  0.00     0.109 A 
HETATM   10  C9  UNL     1     -10.944 -17.095   7.423  1.00  0.00     0.136 A 
HETATM   11  F1  UNL     1     -10.220 -18.044   8.042  1.00  0.00    -0.205 F 
HETATM   12  C10 UNL     1     -10.403 -16.400   6.334  1.00  0.00     0.055 A 
HETATM   13  C11 UNL     1     -11.094 -15.435   5.661  1.00  0.00    -0.020 A 
HETATM   14  C18 UNL     1     -12.370 -15.173   6.110  1.00  0.00     0.055 A 
HETATM   15  C19 UNL     1     -12.929 -15.836   7.175  1.00  0.00     0.136 A 
HETATM   16  F2  UNL     1     -14.196 -15.512   7.552  1.00  0.00    -0.205 F 
BRANCH  13  17
HETATM   17  C12 UNL     1     -10.533 -14.712   4.528  1.00  0.00    -0.026 A 
HETATM   18  C13 UNL     1      -9.360 -15.151   3.912  1.00  0.00     0.012 A 
HETATM   19  C14 UNL     1      -8.831 -14.462   2.838  1.00  0.00     0.001 A 
HETATM   20  C15 UNL     1      -9.437 -13.326   2.342  1.00  0.00     0.000 A 
HETATM   21  C16 UNL     1     -10.606 -12.866   2.937  1.00  0.00     0.001 A 
HETATM   22  C17 UNL     1     -11.108 -13.574   4.003  1.00  0.00     0.012 A 
ENDBRANCH  13  17
ENDBRANCH   7   9
BRANCH   1  23
HETATM   23  C5  UNL     1     -13.685 -19.988  11.594  1.00  0.00     0.176 A 
HETATM   24  C4  UNL     1     -14.262 -20.715  12.593  1.00  0.00     0.085 A 
HETATM   25  C3  UNL     1     -13.782 -22.012  12.502  1.00  0.00     0.036 A 
HETATM   26  N3  UNL     1     -12.938 -21.996  11.447  1.00  0.00    -0.263 N 
HETATM   27  O3  UNL     1     -12.897 -20.801  10.932  1.00  0.00    -0.220 OA
ATOM     28  H3  UNL     1     -12.411 -22.800  11.105  1.00  0.00     0.194 HD
BRANCH  25  29
HETATM   29  C2  UNL     1     -14.137 -23.145  13.385  1.00  0.00     0.055 C 
HETATM   30  C1  UNL     1     -12.917 -23.970  13.722  1.00  0.00     0.011 C 
ENDBRANCH  25  29
ENDBRANCH   1  23
TORSDOF 4
ENDMDL
