MODEL 1
REMARK VINA RESULT: -7.106539288      0.000      0.000
REMARK  3 active torsions:
REMARK  status: ('A' for Active; 'I' for Inactive)
REMARK    1  A    between atoms: C2_2  and  N1_3 
REMARK    2  A    between atoms: C12_17  and  C13_18 
REMARK    3  A    between atoms: C13_18  and  C14_19 
REMARK       I    between atoms: C14_19  and  N2_21 
ROOT
HETATM    1  N1  UNL     1     -26.403  24.618  -6.700  1.00  0.00    -0.343 N 
HETATM    2  C3  UNL     1     -26.103  23.815  -7.874  1.00  0.00     0.211 C 
HETATM    3  S1  UNL     1     -25.438  22.196  -7.486  1.00  0.00    -0.078 SA
HETATM    4  S2  UNL     1     -24.969  21.220  -9.317  1.00  0.00    -0.096 SA
HETATM    5  C4  UNL     1     -25.403  22.249 -10.746  1.00  0.00     0.086 C 
HETATM    6  C5  UNL     1     -24.283  22.189 -11.730  1.00  0.00     0.021 C 
HETATM    7  C6  UNL     1     -24.245  23.296 -12.717  1.00  0.00     0.112 C 
HETATM    8  C7  UNL     1     -24.292  24.654 -12.177  1.00  0.00     0.258 C 
HETATM    9  O1  UNL     1     -24.775  25.531 -12.981  1.00  0.00    -0.265 OA
HETATM   10  O2  UNL     1     -23.896  25.087 -10.957  1.00  0.00    -0.321 OA
HETATM   11  C8  UNL     1     -22.770  24.785 -10.209  1.00  0.00     0.178 C 
HETATM   12  C9  UNL     1     -22.659  25.848  -9.105  1.00  0.00     0.027 C 
HETATM   13  C10 UNL     1     -22.488  25.164  -7.770  1.00  0.00     0.003 C 
HETATM   14  C11 UNL     1     -23.079  25.943  -6.620  1.00  0.00     0.014 C 
HETATM   15  C12 UNL     1     -24.013  25.094  -5.809  1.00  0.00     0.087 C 
HETATM   16  C17 UNL     1     -25.456  25.450  -6.047  1.00  0.00     0.225 C 
HETATM   17  O4  UNL     1     -25.855  26.573  -5.633  1.00  0.00    -0.273 OA
ENDROOT
BRANCH  15  18
HETATM   18  C13 UNL     1     -23.744  25.178  -4.312  1.00  0.00     0.117 C 
BRANCH  18  19
HETATM   19  C14 UNL     1     -23.130  24.001  -3.728  1.00  0.00     0.219 C 
HETATM   20  O3  UNL     1     -23.589  22.866  -3.983  1.00  0.00    -0.273 OA
HETATM   21  N2  UNL     1     -22.022  24.125  -2.875  1.00  0.00    -0.361 N 
HETATM   22  C15 UNL     1     -21.484  25.420  -2.570  1.00  0.00     0.152 C 
HETATM   23  C16 UNL     1     -21.420  22.953  -2.305  1.00  0.00     0.152 C 
ENDBRANCH  18  19
ENDBRANCH  15  18
BRANCH   1  24
HETATM   24  C2  UNL     1     -27.764  24.536  -6.201  1.00  0.00     0.122 C 
HETATM   25  C1  UNL     1     -27.889  23.688  -4.967  1.00  0.00     0.026 C 
ENDBRANCH   1  24
TORSDOF 3
ENDMDL
MODEL 2
REMARK VINA RESULT: -7.089474017      3.543      6.253
REMARK  3 active torsions:
REMARK  status: ('A' for Active; 'I' for Inactive)
REMARK    1  A    between atoms: C2_2  and  N1_3 
REMARK    2  A    between atoms: C12_17  and  C13_18 
REMARK    3  A    between atoms: C13_18  and  C14_19 
REMARK       I    between atoms: C14_19  and  N2_21 
ROOT
HETATM    1  N1  UNL     1     -21.110  24.298  -4.417  1.00  0.00    -0.343 N 
HETATM    2  C3  UNL     1     -22.448  23.730  -4.398  1.00  0.00     0.211 C 
HETATM    3  S1  UNL     1     -22.611  22.240  -5.380  1.00  0.00    -0.078 SA
HETATM    4  S2  UNL     1     -24.646  21.624  -5.312  1.00  0.00    -0.096 SA
HETATM    5  C4  UNL     1     -25.636  22.725  -4.264  1.00  0.00     0.086 C 
HETATM    6  C5  UNL     1     -26.920  23.018  -4.965  1.00  0.00     0.021 C 
HETATM    7  C6  UNL     1     -27.637  24.229  -4.497  1.00  0.00     0.112 C 
HETATM    8  C7  UNL     1     -26.862  25.468  -4.450  1.00  0.00     0.258 C 
HETATM    9  O1  UNL     1     -27.285  26.329  -3.596  1.00  0.00    -0.265 OA
HETATM   10  O2  UNL     1     -25.775  25.808  -5.182  1.00  0.00    -0.321 OA
HETATM   11  C8  UNL     1     -25.500  25.641  -6.530  1.00  0.00     0.178 C 
HETATM   12  C9  UNL     1     -24.309  26.550  -6.868  1.00  0.00     0.027 C 
HETATM   13  C10 UNL     1     -23.256  25.746  -7.589  1.00  0.00     0.003 C 
HETATM   14  C11 UNL     1     -21.851  26.234  -7.334  1.00  0.00     0.014 C 
HETATM   15  C12 UNL     1     -20.961  25.118  -6.874  1.00  0.00     0.087 C 
HETATM   16  C17 UNL     1     -20.650  25.208  -5.404  1.00  0.00     0.225 C 
HETATM   17  O4  UNL     1     -19.924  26.166  -5.019  1.00  0.00    -0.273 OA
ENDROOT
BRANCH  15  18
HETATM   18  C13 UNL     1     -19.642  25.058  -7.634  1.00  0.00     0.117 C 
BRANCH  18  19
HETATM   19  C14 UNL     1     -19.411  23.830  -8.372  1.00  0.00     0.219 C 
HETATM   20  O3  UNL     1     -19.766  22.733  -7.886  1.00  0.00    -0.273 OA
HETATM   21  N2  UNL     1     -18.790  23.862  -9.630  1.00  0.00    -0.361 N 
HETATM   22  C15 UNL     1     -18.375  25.111 -10.202  1.00  0.00     0.152 C 
HETATM   23  C16 UNL     1     -18.569  22.642 -10.353  1.00  0.00     0.152 C 
ENDBRANCH  18  19
ENDBRANCH  15  18
BRANCH   1  24
HETATM   24  C2  UNL     1     -20.226  23.882  -3.342  1.00  0.00     0.122 C 
HETATM   25  C1  UNL     1     -20.956  23.569  -2.067  1.00  0.00     0.026 C 
ENDBRANCH   1  24
TORSDOF 3
ENDMDL
MODEL 3
REMARK VINA RESULT: -6.981800370      3.579      5.233
REMARK  3 active torsions:
REMARK  status: ('A' for Active; 'I' for Inactive)
REMARK    1  A    between atoms: C2_2  and  N1_3 
REMARK    2  A    between atoms: C12_17  and  C13_18 
REMARK    3  A    between atoms: C13_18  and  C14_19 
REMARK       I    between atoms: C14_19  and  N2_21 
ROOT
HETATM    1  N1  UNL     1     -23.603  23.037  -6.443  1.00  0.00    -0.343 N 
HETATM    2  C3  UNL     1     -22.177  23.164  -6.187  1.00  0.00     0.211 C 
HETATM    3  S1  UNL     1     -21.792  23.723  -4.529  1.00  0.00    -0.078 SA
HETATM    4  S2  UNL     1     -19.682  23.947  -4.382  1.00  0.00    -0.096 SA
HETATM    5  C4  UNL     1     -18.857  23.478  -5.927  1.00  0.00     0.086 C 
HETATM    6  C5  UNL     1     -17.814  24.498  -6.236  1.00  0.00     0.021 C 
HETATM    7  C6  UNL     1     -17.367  24.542  -7.650  1.00  0.00     0.112 C 
HETATM    8  C7  UNL     1     -18.416  24.657  -8.662  1.00  0.00     0.258 C 
HETATM    9  O1  UNL     1     -18.101  24.180  -9.813  1.00  0.00    -0.265 OA
HETATM   10  O2  UNL     1     -19.653  25.193  -8.535  1.00  0.00    -0.321 OA
HETATM   11  C8  UNL     1     -20.079  26.351  -7.904  1.00  0.00     0.178 C 
HETATM   12  C9  UNL     1     -21.500  26.646  -8.408  1.00  0.00     0.027 C 
HETATM   13  C10 UNL     1     -22.411  26.875  -7.226  1.00  0.00     0.003 C 
HETATM   14  C11 UNL     1     -23.837  26.453  -7.480  1.00  0.00     0.014 C 
HETATM   15  C12 UNL     1     -24.331  25.526  -6.410  1.00  0.00     0.087 C 
HETATM   16  C17 UNL     1     -24.426  24.103  -6.890  1.00  0.00     0.225 C 
HETATM   17  O4  UNL     1     -25.304  23.837  -7.756  1.00  0.00    -0.273 OA
ENDROOT
BRANCH  15  18
HETATM   18  C13 UNL     1     -25.691  25.931  -5.855  1.00  0.00     0.117 C 
BRANCH  18  19
HETATM   19  C14 UNL     1     -26.080  25.263  -4.627  1.00  0.00     0.219 C 
HETATM   20  O3  UNL     1     -25.376  25.387  -3.600  1.00  0.00    -0.273 OA
HETATM   21  N2  UNL     1     -27.242  24.477  -4.581  1.00  0.00    -0.361 N 
HETATM   22  C15 UNL     1     -28.059  24.323  -5.750  1.00  0.00     0.152 C 
HETATM   23  C16 UNL     1     -27.619  23.824  -3.360  1.00  0.00     0.152 C 
ENDBRANCH  18  19
ENDBRANCH  15  18
BRANCH   1  24
HETATM   24  C2  UNL     1     -24.176  21.722  -6.216  1.00  0.00     0.122 C 
HETATM   25  C1  UNL     1     -25.011  21.651  -4.968  1.00  0.00     0.026 C 
ENDBRANCH   1  24
TORSDOF 3
ENDMDL
MODEL 4
REMARK VINA RESULT: -6.965150387      3.638      6.175
REMARK  3 active torsions:
REMARK  status: ('A' for Active; 'I' for Inactive)
REMARK    1  A    between atoms: C2_2  and  N1_3 
REMARK    2  A    between atoms: C12_17  and  C13_18 
REMARK    3  A    between atoms: C13_18  and  C14_19 
REMARK       I    between atoms: C14_19  and  N2_21 
ROOT
HETATM    1  N1  UNL     1     -20.969  24.480  -4.676  1.00  0.00    -0.343 N 
HETATM    2  C3  UNL     1     -22.272  23.842  -4.587  1.00  0.00     0.211 C 
HETATM    3  S1  UNL     1     -22.429  22.383  -5.616  1.00  0.00    -0.078 SA
HETATM    4  S2  UNL     1     -24.420  21.658  -5.432  1.00  0.00    -0.096 SA
HETATM    5  C4  UNL     1     -25.388  22.664  -4.275  1.00  0.00     0.086 C 
HETATM    6  C5  UNL     1     -26.731  22.914  -4.873  1.00  0.00     0.021 C 
HETATM    7  C6  UNL     1     -27.473  24.068  -4.307  1.00  0.00     0.112 C 
HETATM    8  C7  UNL     1     -26.760  25.344  -4.263  1.00  0.00     0.258 C 
HETATM    9  O1  UNL     1     -27.164  26.149  -3.349  1.00  0.00    -0.265 OA
HETATM   10  O2  UNL     1     -25.747  25.768  -5.055  1.00  0.00    -0.321 OA
HETATM   11  C8  UNL     1     -25.560  25.665  -6.424  1.00  0.00     0.178 C 
HETATM   12  C9  UNL     1     -24.444  26.649  -6.806  1.00  0.00     0.027 C 
HETATM   13  C10 UNL     1     -23.405  25.929  -7.631  1.00  0.00     0.003 C 
HETATM   14  C11 UNL     1     -22.012  26.481  -7.453  1.00  0.00     0.014 C 
HETATM   15  C12 UNL     1     -21.036  25.398  -7.102  1.00  0.00     0.087 C 
HETATM   16  C17 UNL     1     -20.627  25.450  -5.654  1.00  0.00     0.225 C 
HETATM   17  O4  UNL     1     -19.924  26.430  -5.283  1.00  0.00    -0.273 OA
ENDROOT
BRANCH  15  18
HETATM   18  C13 UNL     1     -19.774  25.436  -7.954  1.00  0.00     0.117 C 
BRANCH  18  19
HETATM   19  C14 UNL     1     -18.853  24.336  -7.741  1.00  0.00     0.219 C 
HETATM   20  O3  UNL     1     -19.260  23.155  -7.828  1.00  0.00    -0.273 OA
HETATM   21  N2  UNL     1     -17.505  24.583  -7.438  1.00  0.00    -0.361 N 
HETATM   22  C15 UNL     1     -17.022  25.931  -7.333  1.00  0.00     0.152 C 
HETATM   23  C16 UNL     1     -16.601  23.487  -7.232  1.00  0.00     0.152 C 
ENDBRANCH  18  19
ENDBRANCH  15  18
BRANCH   1  24
HETATM   24  C2  UNL     1     -19.991  24.073  -3.683  1.00  0.00     0.122 C 
HETATM   25  C1  UNL     1     -18.959  23.125  -4.227  1.00  0.00     0.026 C 
ENDBRANCH   1  24
TORSDOF 3
ENDMDL
MODEL 5
REMARK VINA RESULT: -6.859365022      3.728      5.578
REMARK  3 active torsions:
REMARK  status: ('A' for Active; 'I' for Inactive)
REMARK    1  A    between atoms: C2_2  and  N1_3 
REMARK    2  A    between atoms: C12_17  and  C13_18 
REMARK    3  A    between atoms: C13_18  and  C14_19 
REMARK       I    between atoms: C14_19  and  N2_21 
ROOT
HETATM    1  N1  UNL     1     -23.065  23.270  -5.584  1.00  0.00    -0.343 N 
HETATM    2  C3  UNL     1     -21.732  23.840  -5.471  1.00  0.00     0.211 C 
HETATM    3  S1  UNL     1     -21.532  24.920  -4.054  1.00  0.00    -0.078 SA
HETATM    4  S2  UNL     1     -19.567  25.732  -4.118  1.00  0.00    -0.096 SA
HETATM    5  C4  UNL     1     -18.630  25.091  -5.532  1.00  0.00     0.086 C 
HETATM    6  C5  UNL     1     -17.907  26.226  -6.175  1.00  0.00     0.021 C 
HETATM    7  C6  UNL     1     -17.476  25.993  -7.575  1.00  0.00     0.112 C 
HETATM    8  C7  UNL     1     -18.507  25.537  -8.507  1.00  0.00     0.258 C 
HETATM    9  O1  UNL     1     -18.062  24.862  -9.505  1.00  0.00    -0.265 OA
HETATM   10  O2  UNL     1     -19.845  25.736  -8.444  1.00  0.00    -0.321 OA
HETATM   11  C8  UNL     1     -20.580  26.865  -8.122  1.00  0.00     0.178 C 
HETATM   12  C9  UNL     1     -22.022  26.618  -8.588  1.00  0.00     0.027 C 
HETATM   13  C10 UNL     1     -22.972  26.913  -7.452  1.00  0.00     0.003 C 
HETATM   14  C11 UNL     1     -24.224  26.072  -7.486  1.00  0.00     0.014 C 
HETATM   15  C12 UNL     1     -24.453  25.381  -6.174  1.00  0.00     0.087 C 
HETATM   16  C17 UNL     1     -24.146  23.909  -6.245  1.00  0.00     0.225 C 
HETATM   17  O4  UNL     1     -24.909  23.188  -6.945  1.00  0.00    -0.273 OA
ENDROOT
BRANCH  15  18
HETATM   18  C13 UNL     1     -25.876  25.544  -5.657  1.00  0.00     0.117 C 
BRANCH  18  19
HETATM   19  C14 UNL     1     -26.108  25.042  -4.316  1.00  0.00     0.219 C 
HETATM   20  O3  UNL     1     -25.381  25.426  -3.372  1.00  0.00    -0.273 OA
HETATM   21  N2  UNL     1     -27.141  24.127  -4.066  1.00  0.00    -0.361 N 
HETATM   22  C15 UNL     1     -27.983  23.675  -5.137  1.00  0.00     0.152 C 
HETATM   23  C16 UNL     1     -27.363  23.639  -2.735  1.00  0.00     0.152 C 
ENDBRANCH  18  19
ENDBRANCH  15  18
BRANCH   1  24
HETATM   24  C2  UNL     1     -23.255  21.966  -4.973  1.00  0.00     0.122 C 
HETATM   25  C1  UNL     1     -21.965  21.229  -4.747  1.00  0.00     0.026 C 
ENDBRANCH   1  24
TORSDOF 3
ENDMDL
