MODEL 1
REMARK VINA RESULT: -6.503331100      0.000      0.000
REMARK  12 active torsions:
REMARK  status: ('A' for Active; 'I' for Inactive)
REMARK    1  A    between atoms: O1_2  and  C2_3 
REMARK    2  A    between atoms: C3_6  and  N2_7 
REMARK    3  A    between atoms: N9_30  and  C11_31 
REMARK    4  A    between atoms: C11_31  and  O2_32 
REMARK    5  A    between atoms: C11_31  and  C12_34 
REMARK    6  A    between atoms: C12_34  and  C13_36 
REMARK    7  A    between atoms: C13_36  and  O4_37 
REMARK    8  A    between atoms: C13_36  and  C14_39 
REMARK    9  A    between atoms: C14_39  and  O5_40 
REMARK   10  A    between atoms: C14_39  and  C15_42 
REMARK   11  A    between atoms: C15_42  and  N10_43 
REMARK   12  A    between atoms: C15_42  and  N11_47 
ROOT
HETATM    1  C2  UNL     1     -18.867  -8.771 -36.802  1.00  0.00     0.187 A 
HETATM    2  N1  UNL     1     -18.100  -8.500 -35.721  1.00  0.00    -0.168 N 
ATOM      3  H1  UNL     1     -18.110  -7.562 -35.320  1.00  0.00     0.186 HD
HETATM    4  C3  UNL     1     -17.324  -9.447 -35.169  1.00  0.00     0.678 A 
HETATM    5  N3  UNL     1     -17.274 -10.696 -35.660  1.00  0.00    -0.187 N 
ATOM      6  H3  UNL     1     -16.678 -11.400 -35.226  1.00  0.00     0.184 HD
HETATM    7  C4  UNL     1     -18.015 -11.001 -36.723  1.00  0.00     0.111 A 
HETATM    8  C5  UNL     1     -18.145 -12.202 -37.416  1.00  0.00     0.109 A 
HETATM    9  N4  UNL     1     -17.598 -13.405 -37.259  1.00  0.00    -0.335 N 
ATOM     10  H4  UNL     1     -16.932 -13.597 -36.511  1.00  0.00     0.168 HD
HETATM   11  C6  UNL     1     -17.973 -14.363 -38.149  1.00  0.00     0.150 A 
HETATM   12  N5  UNL     1     -17.455 -15.597 -38.043  1.00  0.00    -0.175 N 
ATOM     13  H5  UNL     1     -16.788 -15.810 -37.301  1.00  0.00     0.186 HD
HETATM   14  C7  UNL     1     -17.825 -16.561 -38.929  1.00  0.00     0.677 A 
HETATM   15  N6  UNL     1     -17.353 -17.754 -38.862  1.00  0.00    -0.234 N 
ATOM     16  H61 UNL     1     -17.630 -18.476 -39.526  1.00  0.00     0.174 HD
ATOM     17  H62 UNL     1     -16.685 -17.960 -38.120  1.00  0.00     0.174 HD
HETATM   18  N7  UNL     1     -18.706 -16.288 -39.910  1.00  0.00    -0.200 N 
ATOM     19  H7  UNL     1     -18.963 -17.033 -40.557  1.00  0.00     0.183 HD
HETATM   20  C8  UNL     1     -19.261 -15.077 -40.072  1.00  0.00     0.139 A 
HETATM   21  C9  UNL     1     -18.874 -14.093 -39.156  1.00  0.00     0.095 A 
HETATM   22  N8  UNL     1     -19.418 -12.872 -39.300  1.00  0.00    -0.336 N 
ATOM     23  H8  UNL     1     -20.085 -12.671 -40.045  1.00  0.00     0.168 HD
HETATM   24  C10 UNL     1     -19.042 -11.925 -38.415  1.00  0.00     0.145 A 
HETATM   25  N9  UNL     1     -19.452 -10.617 -38.351  1.00  0.00    -0.266 N 
HETATM   26  C16 UNL     1     -18.825 -10.042 -37.314  1.00  0.00     0.124 A 
ENDROOT
BRANCH  25  27
HETATM   27  C11 UNL     1     -20.384  -9.990 -39.240  1.00  0.00     0.199 C 
BRANCH  27  28
HETATM   28  O2  UNL     1     -21.698 -10.431 -39.133  1.00  0.00    -0.343 OA
ATOM     29  H2  UNL     1     -22.350  -9.868 -39.533  1.00  0.00     0.219 HD
ENDBRANCH  27  28
BRANCH  27  30
HETATM   30  C12 UNL     1     -19.902  -9.752 -40.604  1.00  0.00     0.231 C 
HETATM   31  O3  UNL     1     -20.120 -10.606 -41.443  1.00  0.00    -0.286 OA
BRANCH  30  32
HETATM   32  C13 UNL     1     -19.168  -8.545 -41.023  1.00  0.00     0.228 C 
BRANCH  32  33
HETATM   33  O4  UNL     1     -18.006  -8.442 -40.268  1.00  0.00    -0.385 OA
ATOM     34  H4  UNL     1     -18.051  -7.650 -39.744  1.00  0.00     0.210 HD
ENDBRANCH  32  33
BRANCH  32  35
HETATM   35  C14 UNL     1     -18.727  -8.606 -42.471  1.00  0.00     0.212 C 
BRANCH  35  36
HETATM   36  O5  UNL     1     -17.948  -9.721 -42.723  1.00  0.00    -0.389 OA
ATOM     37  H5  UNL     1     -17.034  -9.491 -42.847  1.00  0.00     0.210 HD
ENDBRANCH  35  36
BRANCH  35  38
HETATM   38  C15 UNL     1     -17.847  -7.373 -42.706  1.00  0.00     0.409 C 
BRANCH  38  39
HETATM   39  N10 UNL     1     -16.454  -7.767 -42.846  1.00  0.00    -0.048 N 
ATOM     40 3H10 UNL     1     -16.007  -7.910 -41.940  1.00  0.00     0.276 HD
ATOM     41 2H10 UNL     1     -16.361  -8.715 -43.211  1.00  0.00     0.276 HD
ATOM     42 1H10 UNL     1     -15.950  -7.088 -43.416  1.00  0.00     0.276 HD
ENDBRANCH  38  39
BRANCH  38  43
HETATM   43  N11 UNL     1     -18.270  -6.645 -43.880  1.00  0.00    -0.048 N 
ATOM     44 3H11 UNL     1     -18.035  -7.147 -44.737  1.00  0.00     0.276 HD
ATOM     45 2H11 UNL     1     -19.285  -6.642 -43.975  1.00  0.00     0.276 HD
ATOM     46 1H11 UNL     1     -17.890  -5.698 -43.884  1.00  0.00     0.276 HD
ENDBRANCH  38  43
ENDBRANCH  35  38
ENDBRANCH  32  35
ENDBRANCH  30  32
ENDBRANCH  27  30
ENDBRANCH  25  27
BRANCH   1  47
HETATM   47  O1  UNL     1     -19.667  -7.777 -37.363  1.00  0.00    -0.339 OA
HETATM   48  C1  UNL     1     -20.459  -6.998 -36.490  1.00  0.00     0.211 C 
ENDBRANCH   1  47
BRANCH   4  49
HETATM   49  N2  UNL     1     -16.624  -9.123 -34.149  1.00  0.00    -0.234 N 
ATOM     50  H22 UNL     1     -16.715  -8.196 -33.733  1.00  0.00     0.174 HD
ATOM     51  H21 UNL     1     -15.982  -9.820 -33.772  1.00  0.00     0.174 HD
ENDBRANCH   4  49
TORSDOF 12
ENDMDL
MODEL 2
REMARK VINA RESULT: -6.434468063      1.284      1.565
REMARK  12 active torsions:
REMARK  status: ('A' for Active; 'I' for Inactive)
REMARK    1  A    between atoms: O1_2  and  C2_3 
REMARK    2  A    between atoms: C3_6  and  N2_7 
REMARK    3  A    between atoms: N9_30  and  C11_31 
REMARK    4  A    between atoms: C11_31  and  O2_32 
REMARK    5  A    between atoms: C11_31  and  C12_34 
REMARK    6  A    between atoms: C12_34  and  C13_36 
REMARK    7  A    between atoms: C13_36  and  O4_37 
REMARK    8  A    between atoms: C13_36  and  C14_39 
REMARK    9  A    between atoms: C14_39  and  O5_40 
REMARK   10  A    between atoms: C14_39  and  C15_42 
REMARK   11  A    between atoms: C15_42  and  N10_43 
REMARK   12  A    between atoms: C15_42  and  N11_47 
ROOT
HETATM    1  C2  UNL     1     -18.730  -9.049 -35.850  1.00  0.00     0.187 A 
HETATM    2  N1  UNL     1     -17.904  -8.866 -34.794  1.00  0.00    -0.168 N 
ATOM      3  H1  UNL     1     -17.914  -7.977 -34.296  1.00  0.00     0.186 HD
HETATM    4  C3  UNL     1     -17.072  -9.840 -34.392  1.00  0.00     0.678 A 
HETATM    5  N3  UNL     1     -17.021 -11.030 -35.015  1.00  0.00    -0.187 N 
ATOM      6  H3  UNL     1     -16.380 -11.755 -34.694  1.00  0.00     0.184 HD
HETATM    7  C4  UNL     1     -17.819 -11.246 -36.058  1.00  0.00     0.111 A 
HETATM    8  C5  UNL     1     -17.961 -12.372 -36.866  1.00  0.00     0.109 A 
HETATM    9  N4  UNL     1     -17.375 -13.566 -36.870  1.00  0.00    -0.335 N 
ATOM     10  H4  UNL     1     -16.659 -13.814 -36.187  1.00  0.00     0.168 HD
HETATM   11  C6  UNL     1     -17.780 -14.439 -37.832  1.00  0.00     0.150 A 
HETATM   12  N5  UNL     1     -17.225 -15.659 -37.888  1.00  0.00    -0.175 N 
ATOM     13  H5  UNL     1     -16.507 -15.927 -37.215  1.00  0.00     0.186 HD
HETATM   14  C7  UNL     1     -17.625 -16.537 -38.848  1.00  0.00     0.677 A 
HETATM   15  N6  UNL     1     -17.119 -17.715 -38.936  1.00  0.00    -0.234 N 
ATOM     16  H61 UNL     1     -17.419 -18.373 -39.655  1.00  0.00     0.174 HD
ATOM     17  H62 UNL     1     -16.401 -17.976 -38.260  1.00  0.00     0.174 HD
HETATM   18  N7  UNL     1     -18.573 -16.192 -39.740  1.00  0.00    -0.200 N 
ATOM     19  H7  UNL     1     -18.850 -16.874 -40.445  1.00  0.00     0.183 HD
HETATM   20  C8  UNL     1     -19.168 -14.989 -39.740  1.00  0.00     0.139 A 
HETATM   21  C9  UNL     1     -18.749 -14.094 -38.749  1.00  0.00     0.095 A 
HETATM   22  N8  UNL     1     -19.332 -12.883 -38.731  1.00  0.00    -0.336 N 
ATOM     23  H8  UNL     1     -20.049 -12.627 -39.409  1.00  0.00     0.168 HD
HETATM   24  C10 UNL     1     -18.926 -12.021 -37.774  1.00  0.00     0.145 A 
HETATM   25  N9  UNL     1     -19.364 -10.741 -37.548  1.00  0.00    -0.266 N 
HETATM   26  C16 UNL     1     -18.689 -10.257 -36.495  1.00  0.00     0.124 A 
ENDROOT
BRANCH  25  27
HETATM   27  C11 UNL     1     -20.366 -10.055 -38.309  1.00  0.00     0.199 C 
BRANCH  27  28
HETATM   28  O2  UNL     1     -21.633 -10.626 -38.276  1.00  0.00    -0.343 OA
ATOM     29  H2  UNL     1     -22.220 -10.276 -37.616  1.00  0.00     0.219 HD
ENDBRANCH  27  28
BRANCH  27  30
HETATM   30  C12 UNL     1     -19.934  -9.539 -39.611  1.00  0.00     0.231 C 
HETATM   31  O3  UNL     1     -18.779  -9.173 -39.725  1.00  0.00    -0.286 OA
BRANCH  30  32
HETATM   32  C13 UNL     1     -20.810  -9.433 -40.790  1.00  0.00     0.228 C 
BRANCH  32  33
HETATM   33  O4  UNL     1     -20.673  -8.163 -41.338  1.00  0.00    -0.385 OA
ATOM     34  H4  UNL     1     -21.531  -7.847 -41.597  1.00  0.00     0.210 HD
ENDBRANCH  32  33
BRANCH  32  35
HETATM   35  C14 UNL     1     -20.433 -10.409 -41.886  1.00  0.00     0.212 C 
BRANCH  35  36
HETATM   36  O5  UNL     1     -19.368 -11.209 -41.515  1.00  0.00    -0.389 OA
ATOM     37  H5  UNL     1     -19.564 -11.716 -40.735  1.00  0.00     0.210 HD
ENDBRANCH  35  36
BRANCH  35  38
HETATM   38  C15 UNL     1     -19.975  -9.563 -43.079  1.00  0.00     0.409 C 
BRANCH  38  39
HETATM   39  N10 UNL     1     -18.531  -9.391 -43.049  1.00  0.00    -0.048 N 
ATOM     40 3H10 UNL     1     -18.255  -8.586 -42.485  1.00  0.00     0.276 HD
ATOM     41 2H10 UNL     1     -18.071 -10.121 -42.504  1.00  0.00     0.276 HD
ATOM     42 1H10 UNL     1     -18.162  -9.335 -43.998  1.00  0.00     0.276 HD
ENDBRANCH  38  39
BRANCH  38  43
HETATM   43  N11 UNL     1     -20.370 -10.166 -44.330  1.00  0.00    -0.048 N 
ATOM     44 3H11 UNL     1     -21.093 -10.872 -44.195  1.00  0.00     0.276 HD
ATOM     45 2H11 UNL     1     -20.896  -9.514 -44.911  1.00  0.00     0.276 HD
ATOM     46 1H11 UNL     1     -19.564 -10.545 -44.828  1.00  0.00     0.276 HD
ENDBRANCH  38  43
ENDBRANCH  35  38
ENDBRANCH  32  35
ENDBRANCH  30  32
ENDBRANCH  27  30
ENDBRANCH  25  27
BRANCH   1  47
HETATM   47  O1  UNL     1     -19.590  -8.028 -36.254  1.00  0.00    -0.339 OA
HETATM   48  C1  UNL     1     -20.299  -7.328 -35.251  1.00  0.00     0.211 C 
ENDBRANCH   1  47
BRANCH   4  49
HETATM   49  N2  UNL     1     -16.318  -9.603 -33.387  1.00  0.00    -0.234 N 
ATOM     50  H22 UNL     1     -15.794  -8.730 -33.330  1.00  0.00     0.174 HD
ATOM     51  H21 UNL     1     -16.263 -10.311 -32.655  1.00  0.00     0.174 HD
ENDBRANCH   4  49
TORSDOF 12
ENDMDL
MODEL 3
REMARK VINA RESULT: -6.151508310      1.232      1.340
REMARK  12 active torsions:
REMARK  status: ('A' for Active; 'I' for Inactive)
REMARK    1  A    between atoms: O1_2  and  C2_3 
REMARK    2  A    between atoms: C3_6  and  N2_7 
REMARK    3  A    between atoms: N9_30  and  C11_31 
REMARK    4  A    between atoms: C11_31  and  O2_32 
REMARK    5  A    between atoms: C11_31  and  C12_34 
REMARK    6  A    between atoms: C12_34  and  C13_36 
REMARK    7  A    between atoms: C13_36  and  O4_37 
REMARK    8  A    between atoms: C13_36  and  C14_39 
REMARK    9  A    between atoms: C14_39  and  O5_40 
REMARK   10  A    between atoms: C14_39  and  C15_42 
REMARK   11  A    between atoms: C15_42  and  N10_43 
REMARK   12  A    between atoms: C15_42  and  N11_47 
ROOT
HETATM    1  C2  UNL     1     -19.116  -9.284 -35.603  1.00  0.00     0.187 A 
HETATM    2  N1  UNL     1     -18.331  -9.103 -34.516  1.00  0.00    -0.168 N 
ATOM      3  H1  UNL     1     -18.396  -8.233 -33.988  1.00  0.00     0.186 HD
HETATM    4  C3  UNL     1     -17.467 -10.053 -34.122  1.00  0.00     0.678 A 
HETATM    5  N3  UNL     1     -17.343 -11.215 -34.784  1.00  0.00    -0.187 N 
ATOM      6  H3  UNL     1     -16.680 -11.922 -34.469  1.00  0.00     0.184 HD
HETATM    7  C4  UNL     1     -18.099 -11.429 -35.858  1.00  0.00     0.111 A 
HETATM    8  C5  UNL     1     -18.166 -12.531 -36.708  1.00  0.00     0.109 A 
HETATM    9  N4  UNL     1     -17.525 -13.697 -36.735  1.00  0.00    -0.335 N 
ATOM     10  H4  UNL     1     -16.819 -13.937 -36.040  1.00  0.00     0.168 HD
HETATM   11  C6  UNL     1     -17.862 -14.552 -37.739  1.00  0.00     0.150 A 
HETATM   12  N5  UNL     1     -17.250 -15.744 -37.819  1.00  0.00    -0.175 N 
ATOM     13  H5  UNL     1     -16.541 -16.003 -37.133  1.00  0.00     0.186 HD
HETATM   14  C7  UNL     1     -17.581 -16.603 -38.821  1.00  0.00     0.677 A 
HETATM   15  N6  UNL     1     -17.019 -17.754 -38.933  1.00  0.00    -0.234 N 
ATOM     16  H61 UNL     1     -17.267 -18.398 -39.683  1.00  0.00     0.174 HD
ATOM     17  H62 UNL     1     -16.310 -18.006 -38.245  1.00  0.00     0.174 HD
HETATM   18  N7  UNL     1     -18.517 -16.270 -39.729  1.00  0.00    -0.200 N 
ATOM     19  H7  UNL     1     -18.742 -16.938 -40.466  1.00  0.00     0.183 HD
HETATM   20  C8  UNL     1     -19.166 -15.096 -39.707  1.00  0.00     0.139 A 
HETATM   21  C9  UNL     1     -18.818 -14.218 -38.673  1.00  0.00     0.095 A 
HETATM   22  N8  UNL     1     -19.456 -13.036 -38.631  1.00  0.00    -0.336 N 
ATOM     23  H8  UNL     1     -20.164 -12.788 -39.322  1.00  0.00     0.168 HD
HETATM   24  C10 UNL     1     -19.119 -12.192 -37.633  1.00  0.00     0.145 A 
HETATM   25  N9  UNL     1     -19.621 -10.941 -37.377  1.00  0.00    -0.266 N 
HETATM   26  C16 UNL     1     -19.000 -10.466 -36.287  1.00  0.00     0.124 A 
ENDROOT
BRANCH  25  27
HETATM   27  C11 UNL     1     -20.630 -10.274 -38.144  1.00  0.00     0.199 C 
BRANCH  27  28
HETATM   28  O2  UNL     1     -21.905 -10.822 -38.055  1.00  0.00    -0.343 OA
ATOM     29  H2  UNL     1     -22.596 -10.315 -38.467  1.00  0.00     0.219 HD
ENDBRANCH  27  28
BRANCH  27  30
HETATM   30  C12 UNL     1     -20.223  -9.825 -39.478  1.00  0.00     0.231 C 
HETATM   31  O3  UNL     1     -20.520 -10.523 -40.431  1.00  0.00    -0.286 OA
BRANCH  30  32
HETATM   32  C13 UNL     1     -19.476  -8.583 -39.741  1.00  0.00     0.228 C 
BRANCH  32  33
HETATM   33  O4  UNL     1     -18.166  -8.748 -39.308  1.00  0.00    -0.385 OA
ATOM     34  H4  UNL     1     -17.829  -9.567 -39.652  1.00  0.00     0.210 HD
ENDBRANCH  32  33
BRANCH  32  35
HETATM   35  C14 UNL     1     -19.394  -8.253 -41.218  1.00  0.00     0.212 C 
BRANCH  35  36
HETATM   36  O5  UNL     1     -18.537  -9.110 -41.886  1.00  0.00    -0.389 OA
ATOM     37  H5  UNL     1     -19.002  -9.653 -42.512  1.00  0.00     0.210 HD
ENDBRANCH  35  36
BRANCH  35  38
HETATM   38  C15 UNL     1     -18.797  -6.845 -41.313  1.00  0.00     0.409 C 
BRANCH  38  39
HETATM   39  N10 UNL     1     -19.152  -6.067 -40.137  1.00  0.00    -0.048 N 
ATOM     40 3H10 UNL     1     -19.885  -6.517 -39.590  1.00  0.00     0.276 HD
ATOM     41 2H10 UNL     1     -18.411  -6.079 -39.435  1.00  0.00     0.276 HD
ATOM     42 1H10 UNL     1     -19.406  -5.116 -40.406  1.00  0.00     0.276 HD
ENDBRANCH  38  39
BRANCH  38  43
HETATM   43  N11 UNL     1     -17.360  -6.894 -41.453  1.00  0.00    -0.048 N 
ATOM     44 3H11 UNL     1     -16.932  -5.994 -41.237  1.00  0.00     0.276 HD
ATOM     45 2H11 UNL     1     -16.931  -7.452 -40.715  1.00  0.00     0.276 HD
ATOM     46 1H11 UNL     1     -17.090  -7.226 -42.379  1.00  0.00     0.276 HD
ENDBRANCH  38  43
ENDBRANCH  35  38
ENDBRANCH  32  35
ENDBRANCH  30  32
ENDBRANCH  27  30
ENDBRANCH  25  27
BRANCH   1  47
HETATM   47  O1  UNL     1     -20.009  -8.289 -35.998  1.00  0.00    -0.339 OA
HETATM   48  C1  UNL     1     -20.223  -7.207 -35.114  1.00  0.00     0.211 C 
ENDBRANCH   1  47
BRANCH   4  49
HETATM   49  N2  UNL     1     -16.755  -9.818 -33.087  1.00  0.00    -0.234 N 
ATOM     50  H22 UNL     1     -16.232  -8.946 -33.007  1.00  0.00     0.174 HD
ATOM     51  H21 UNL     1     -16.731 -10.527 -32.354  1.00  0.00     0.174 HD
ENDBRANCH   4  49
TORSDOF 12
ENDMDL
MODEL 4
REMARK VINA RESULT: -6.085129771      1.696      2.154
REMARK  12 active torsions:
REMARK  status: ('A' for Active; 'I' for Inactive)
REMARK    1  A    between atoms: O1_2  and  C2_3 
REMARK    2  A    between atoms: C3_6  and  N2_7 
REMARK    3  A    between atoms: N9_30  and  C11_31 
REMARK    4  A    between atoms: C11_31  and  O2_32 
REMARK    5  A    between atoms: C11_31  and  C12_34 
REMARK    6  A    between atoms: C12_34  and  C13_36 
REMARK    7  A    between atoms: C13_36  and  O4_37 
REMARK    8  A    between atoms: C13_36  and  C14_39 
REMARK    9  A    between atoms: C14_39  and  O5_40 
REMARK   10  A    between atoms: C14_39  and  C15_42 
REMARK   11  A    between atoms: C15_42  and  N10_43 
REMARK   12  A    between atoms: C15_42  and  N11_47 
ROOT
HETATM    1  C2  UNL     1     -18.827  -8.809 -36.627  1.00  0.00     0.187 A 
HETATM    2  N1  UNL     1     -18.062  -8.555 -35.541  1.00  0.00    -0.168 N 
ATOM      3  H1  UNL     1     -18.077  -7.625 -35.122  1.00  0.00     0.186 HD
HETATM    4  C3  UNL     1     -17.283  -9.508 -35.006  1.00  0.00     0.678 A 
HETATM    5  N3  UNL     1     -17.227 -10.748 -35.521  1.00  0.00    -0.187 N 
ATOM      6  H3  UNL     1     -16.627 -11.457 -35.101  1.00  0.00     0.184 HD
HETATM    7  C4  UNL     1     -17.966 -11.036 -36.590  1.00  0.00     0.111 A 
HETATM    8  C5  UNL     1     -18.090 -12.224 -37.307  1.00  0.00     0.109 A 
HETATM    9  N4  UNL     1     -17.538 -13.427 -37.172  1.00  0.00    -0.335 N 
ATOM     10  H4  UNL     1     -16.872 -13.631 -36.428  1.00  0.00     0.168 HD
HETATM   11  C6  UNL     1     -17.908 -14.370 -38.080  1.00  0.00     0.150 A 
HETATM   12  N5  UNL     1     -17.385 -15.603 -37.997  1.00  0.00    -0.175 N 
ATOM     13  H5  UNL     1     -16.717 -15.828 -37.260  1.00  0.00     0.186 HD
HETATM   14  C7  UNL     1     -17.750 -16.551 -38.902  1.00  0.00     0.677 A 
HETATM   15  N6  UNL     1     -17.273 -17.743 -38.858  1.00  0.00    -0.234 N 
ATOM     16  H61 UNL     1     -17.546 -18.454 -39.536  1.00  0.00     0.174 HD
ATOM     17  H62 UNL     1     -16.604 -17.961 -38.119  1.00  0.00     0.174 HD
HETATM   18  N7  UNL     1     -18.632 -16.264 -39.878  1.00  0.00    -0.200 N 
ATOM     19  H7  UNL     1     -18.885 -16.998 -40.539  1.00  0.00     0.183 HD
HETATM   20  C8  UNL     1     -19.193 -15.053 -40.018  1.00  0.00     0.139 A 
HETATM   21  C9  UNL     1     -18.810 -14.084 -39.082  1.00  0.00     0.095 A 
HETATM   22  N8  UNL     1     -19.359 -12.864 -39.204  1.00  0.00    -0.336 N 
ATOM     23  H8  UNL     1     -20.027 -12.651 -39.945  1.00  0.00     0.168 HD
HETATM   24  C10 UNL     1     -18.988 -11.932 -38.300  1.00  0.00     0.145 A 
HETATM   25  N9  UNL     1     -19.404 -10.627 -38.211  1.00  0.00    -0.266 N 
HETATM   26  C16 UNL     1     -18.780 -10.070 -37.163  1.00  0.00     0.124 A 
ENDROOT
BRANCH  25  27
HETATM   27  C11 UNL     1     -20.338  -9.987 -39.089  1.00  0.00     0.199 C 
BRANCH  27  28
HETATM   28  O2  UNL     1     -21.485 -10.719 -39.373  1.00  0.00    -0.343 OA
ATOM     29  H2  UNL     1     -22.297 -10.226 -39.356  1.00  0.00     0.219 HD
ENDBRANCH  27  28
BRANCH  27  30
HETATM   30  C12 UNL     1     -19.754  -9.257 -40.218  1.00  0.00     0.231 C 
HETATM   31  O3  UNL     1     -19.401  -8.107 -40.031  1.00  0.00    -0.286 OA
BRANCH  30  32
HETATM   32  C13 UNL     1     -19.569  -9.825 -41.563  1.00  0.00     0.228 C 
BRANCH  32  33
HETATM   33  O4  UNL     1     -19.461 -11.206 -41.457  1.00  0.00    -0.385 OA
ATOM     34  H4  UNL     1     -18.931 -11.529 -42.176  1.00  0.00     0.210 HD
ENDBRANCH  32  33
BRANCH  32  35
HETATM   35  C14 UNL     1     -20.751  -9.563 -42.475  1.00  0.00     0.212 C 
BRANCH  35  36
HETATM   36  O5  UNL     1     -21.754  -8.865 -41.825  1.00  0.00    -0.389 OA
ATOM     37  H5  UNL     1     -21.434  -8.045 -41.466  1.00  0.00     0.210 HD
ENDBRANCH  35  36
BRANCH  35  38
HETATM   38  C15 UNL     1     -21.320 -10.936 -42.849  1.00  0.00     0.409 C 
BRANCH  38  39
HETATM   39  N10 UNL     1     -22.649 -11.102 -42.282  1.00  0.00    -0.048 N 
ATOM     40 3H10 UNL     1     -22.829 -12.068 -42.010  1.00  0.00     0.276 HD
ATOM     41 2H10 UNL     1     -22.728 -10.669 -41.362  1.00  0.00     0.276 HD
ATOM     42 1H10 UNL     1     -23.356 -10.751 -42.929  1.00  0.00     0.276 HD
ENDBRANCH  38  39
BRANCH  38  43
HETATM   43  N11 UNL     1     -21.375 -11.106 -44.282  1.00  0.00    -0.048 N 
ATOM     44 3H11 UNL     1     -20.560 -10.698 -44.740  1.00  0.00     0.276 HD
ATOM     45 2H11 UNL     1     -21.233 -12.080 -44.550  1.00  0.00     0.276 HD
ATOM     46 1H11 UNL     1     -22.245 -10.736 -44.665  1.00  0.00     0.276 HD
ENDBRANCH  38  43
ENDBRANCH  35  38
ENDBRANCH  32  35
ENDBRANCH  30  32
ENDBRANCH  27  30
ENDBRANCH  25  27
BRANCH   1  47
HETATM   47  O1  UNL     1     -19.632  -7.808 -37.169  1.00  0.00    -0.339 OA
HETATM   48  C1  UNL     1     -20.475  -7.092 -36.290  1.00  0.00     0.211 C 
ENDBRANCH   1  47
BRANCH   4  49
HETATM   49  N2  UNL     1     -16.585  -9.202 -33.980  1.00  0.00    -0.234 N 
ATOM     50  H22 UNL     1     -16.474  -8.226 -33.703  1.00  0.00     0.174 HD
ATOM     51  H21 UNL     1     -16.150  -9.961 -33.456  1.00  0.00     0.174 HD
ENDBRANCH   4  49
TORSDOF 12
ENDMDL
MODEL 5
REMARK VINA RESULT: -6.073006546      1.527      5.121
REMARK  12 active torsions:
REMARK  status: ('A' for Active; 'I' for Inactive)
REMARK    1  A    between atoms: O1_2  and  C2_3 
REMARK    2  A    between atoms: C3_6  and  N2_7 
REMARK    3  A    between atoms: N9_30  and  C11_31 
REMARK    4  A    between atoms: C11_31  and  O2_32 
REMARK    5  A    between atoms: C11_31  and  C12_34 
REMARK    6  A    between atoms: C12_34  and  C13_36 
REMARK    7  A    between atoms: C13_36  and  O4_37 
REMARK    8  A    between atoms: C13_36  and  C14_39 
REMARK    9  A    between atoms: C14_39  and  O5_40 
REMARK   10  A    between atoms: C14_39  and  C15_42 
REMARK   11  A    between atoms: C15_42  and  N10_43 
REMARK   12  A    between atoms: C15_42  and  N11_47 
ROOT
HETATM    1  C2  UNL     1     -20.354 -13.081 -41.214  1.00  0.00     0.187 A 
HETATM    2  N1  UNL     1     -20.128 -14.413 -41.295  1.00  0.00    -0.168 N 
ATOM      3  H1  UNL     1     -20.467 -14.932 -42.104  1.00  0.00     0.186 HD
HETATM    4  C3  UNL     1     -19.464 -15.061 -40.325  1.00  0.00     0.678 A 
HETATM    5  N3  UNL     1     -18.998 -14.422 -39.238  1.00  0.00    -0.187 N 
ATOM      6  H3  UNL     1     -18.496 -14.934 -38.512  1.00  0.00     0.184 HD
HETATM    7  C4  UNL     1     -19.200 -13.112 -39.124  1.00  0.00     0.111 A 
HETATM    8  C5  UNL     1     -18.825 -12.226 -38.116  1.00  0.00     0.109 A 
HETATM    9  N4  UNL     1     -18.163 -12.381 -36.972  1.00  0.00    -0.335 N 
ATOM     10  H4  UNL     1     -17.815 -13.291 -36.673  1.00  0.00     0.168 HD
HETATM   11  C6  UNL     1     -17.976 -11.260 -36.223  1.00  0.00     0.150 A 
HETATM   12  N5  UNL     1     -17.316 -11.352 -35.058  1.00  0.00    -0.175 N 
ATOM     13  H5  UNL     1     -16.959 -12.253 -34.741  1.00  0.00     0.186 HD
HETATM   14  C7  UNL     1     -17.125 -10.236 -34.303  1.00  0.00     0.677 A 
HETATM   15  N6  UNL     1     -16.498 -10.280 -33.183  1.00  0.00    -0.234 N 
ATOM     16  H61 UNL     1     -16.355  -9.444 -32.617  1.00  0.00     0.174 HD
ATOM     17  H62 UNL     1     -16.145 -11.185 -32.871  1.00  0.00     0.174 HD
HETATM   18  N7  UNL     1     -17.592  -9.042 -34.715  1.00  0.00    -0.200 N 
ATOM     19  H7  UNL     1     -17.430  -8.226 -34.126  1.00  0.00     0.183 HD
HETATM   20  C8  UNL     1     -18.259  -8.881 -35.868  1.00  0.00     0.139 A 
HETATM   21  C9  UNL     1     -18.451 -10.035 -36.637  1.00  0.00     0.095 A 
HETATM   22  N8  UNL     1     -19.117  -9.896 -37.796  1.00  0.00    -0.336 N 
ATOM     23  H8  UNL     1     -19.469  -8.990 -38.103  1.00  0.00     0.168 HD
HETATM   24  C10 UNL     1     -19.300 -11.011 -38.535  1.00  0.00     0.145 A 
HETATM   25  N9  UNL     1     -19.941 -11.129 -39.742  1.00  0.00    -0.266 N 
HETATM   26  C16 UNL     1     -19.884 -12.418 -40.111  1.00  0.00     0.124 A 
ENDROOT
BRANCH  25  27
HETATM   27  C11 UNL     1     -20.557 -10.059 -40.469  1.00  0.00     0.199 C 
BRANCH  27  28
HETATM   28  O2  UNL     1     -21.904 -10.236 -40.762  1.00  0.00    -0.343 OA
ATOM     29  H2  UNL     1     -22.502 -10.078 -40.040  1.00  0.00     0.219 HD
ENDBRANCH  27  28
BRANCH  27  30
HETATM   30  C12 UNL     1     -19.747  -9.465 -41.536  1.00  0.00     0.231 C 
HETATM   31  O3  UNL     1     -19.809  -9.964 -42.645  1.00  0.00    -0.286 OA
BRANCH  30  32
HETATM   32  C13 UNL     1     -18.861  -8.303 -41.353  1.00  0.00     0.228 C 
BRANCH  32  33
HETATM   33  O4  UNL     1     -18.042  -8.532 -40.253  1.00  0.00    -0.385 OA
ATOM     34  H4  UNL     1     -18.312  -7.958 -39.546  1.00  0.00     0.210 HD
ENDBRANCH  32  33
BRANCH  32  35
HETATM   35  C14 UNL     1     -17.933  -8.086 -42.531  1.00  0.00     0.212 C 
BRANCH  35  36
HETATM   36  O5  UNL     1     -17.215  -9.229 -42.835  1.00  0.00    -0.389 OA
ATOM     37  H5  UNL     1     -16.850  -9.631 -42.055  1.00  0.00     0.210 HD
ENDBRANCH  35  36
BRANCH  35  38
HETATM   38  C15 UNL     1     -16.926  -7.016 -42.096  1.00  0.00     0.409 C 
BRANCH  38  39
HETATM   39  N10 UNL     1     -15.677  -7.637 -41.686  1.00  0.00    -0.048 N 
ATOM     40 3H10 UNL     1     -15.327  -7.248 -40.810  1.00  0.00     0.276 HD
ATOM     41 2H10 UNL     1     -15.813  -8.600 -41.378  1.00  0.00     0.276 HD
ATOM     42 1H10 UNL     1     -14.986  -7.572 -42.434  1.00  0.00     0.276 HD
ENDBRANCH  38  39
BRANCH  38  43
HETATM   43  N11 UNL     1     -16.675  -6.070 -43.159  1.00  0.00    -0.048 N 
ATOM     44 3H11 UNL     1     -15.942  -6.398 -43.788  1.00  0.00     0.276 HD
ATOM     45 2H11 UNL     1     -17.448  -6.040 -43.824  1.00  0.00     0.276 HD
ATOM     46 1H11 UNL     1     -16.465  -5.144 -42.787  1.00  0.00     0.276 HD
ENDBRANCH  38  43
ENDBRANCH  35  38
ENDBRANCH  32  35
ENDBRANCH  30  32
ENDBRANCH  27  30
ENDBRANCH  25  27
BRANCH   1  47
HETATM   47  O1  UNL     1     -21.044 -12.423 -42.231  1.00  0.00    -0.339 OA
HETATM   48  C1  UNL     1     -22.161 -13.077 -42.800  1.00  0.00     0.211 C 
ENDBRANCH   1  47
BRANCH   4  49
HETATM   49  N2  UNL     1     -19.284 -16.319 -40.463  1.00  0.00    -0.234 N 
ATOM     50  H22 UNL     1     -18.348 -16.718 -40.399  1.00  0.00     0.174 HD
ATOM     51  H21 UNL     1     -20.104 -16.900 -40.637  1.00  0.00     0.174 HD
ENDBRANCH   4  49
TORSDOF 12
ENDMDL
