MODEL 1
REMARK VINA RESULT: -5.398174605      0.000      0.000
REMARK  13 active torsions:
REMARK  status: ('A' for Active; 'I' for Inactive)
REMARK    1  A    between atoms: C3_4  and  C4_5 
REMARK    2  A    between atoms: C4_5  and  O2_6 
REMARK    3  A    between atoms: C4_5  and  C5_8 
REMARK    4  A    between atoms: C5_8  and  O3_9 
REMARK    5  A    between atoms: C5_8  and  C6_11 
REMARK    6  A    between atoms: C6_11  and  O4_12 
REMARK    7  A    between atoms: C6_11  and  C7_14 
REMARK    8  A    between atoms: C7_14  and  O5_15 
REMARK    9  A    between atoms: C10_21  and  O8_22 
REMARK   10  A    between atoms: C10_21  and  O9_24 
REMARK   11  A    between atoms: C11_26  and  C12_27 
REMARK   12  A    between atoms: C12_27  and  O10_28 
REMARK   13  A    between atoms: C12_27  and  O11_30 
ROOT
HETATM    1  O1  UNL     1     -21.129 -14.558 -35.356  1.00  0.00    -0.271 OA
HETATM    2  C1  UNL     1     -20.436 -13.568 -35.771  1.00  0.00     0.245 C 
HETATM    3  C2  UNL     1     -20.200 -12.386 -34.901  1.00  0.00     0.139 C 
HETATM    4  C3  UNL     1     -19.699 -11.277 -35.802  1.00  0.00     0.168 C 
HETATM    5  O6  UNL     1     -18.576 -11.641 -36.507  1.00  0.00    -0.319 OA
HETATM    6  C8  UNL     1     -18.703 -12.742 -37.291  1.00  0.00     0.338 C 
HETATM    7  O7  UNL     1     -18.563 -12.359 -38.620  1.00  0.00    -0.322 OA
HETATM    8  C9  UNL     1     -19.722 -12.083 -39.284  1.00  0.00     0.243 C 
HETATM    9  C10 UNL     1     -20.066 -13.106 -40.344  1.00  0.00     0.192 C 
HETATM   10  C11 UNL     1     -19.340 -14.406 -40.175  1.00  0.00     0.140 C 
HETATM   11  C13 UNL     1     -19.598 -15.100 -38.872  1.00  0.00     0.186 C 
HETATM   12  N1  UNL     1     -20.457 -14.329 -38.056  1.00  0.00    -0.310 N 
ATOM     13  H1  UNL     1     -21.468 -14.342 -38.189  1.00  0.00     0.182 HD
HETATM   14  N2  UNL     1     -19.871 -13.559 -37.071  1.00  0.00    -0.192 N 
HETATM   15  S1  UNL     1     -18.077 -15.672 -38.067  1.00  0.00    -0.063 SA
HETATM   16  S2  UNL     1     -17.310 -13.934 -37.039  1.00  0.00    -0.001 SA
ENDROOT
BRANCH   4  17
HETATM   17  C4  UNL     1     -19.318 -10.112 -34.902  1.00  0.00     0.179 C 
BRANCH  17  18
HETATM   18  O2  UNL     1     -18.475 -10.627 -33.922  1.00  0.00    -0.390 OA
ATOM     19  H2  UNL     1     -19.019 -10.808 -33.165  1.00  0.00     0.210 HD
ENDBRANCH  17  18
BRANCH  17  20
HETATM   20  C5  UNL     1     -18.575  -9.038 -35.656  1.00  0.00     0.180 C 
BRANCH  20  21
HETATM   21  O3  UNL     1     -18.069  -8.054 -34.840  1.00  0.00    -0.390 OA
ATOM     22  H3  UNL     1     -18.639  -7.297 -34.768  1.00  0.00     0.210 HD
ENDBRANCH  20  21
BRANCH  20  23
HETATM   23  C6  UNL     1     -19.602  -8.368 -36.572  1.00  0.00     0.173 C 
BRANCH  23  24
HETATM   24  O4  UNL     1     -19.743  -7.019 -36.263  1.00  0.00    -0.391 OA
ATOM     25  H4  UNL     1     -20.631  -6.722 -36.427  1.00  0.00     0.210 HD
ENDBRANCH  23  24
BRANCH  23  26
HETATM   26  C7  UNL     1     -19.189  -8.488 -38.023  1.00  0.00     0.198 C 
BRANCH  26  27
HETATM   27  O5  UNL     1     -18.090  -9.351 -38.137  1.00  0.00    -0.398 OA
ATOM     28  H5  UNL     1     -17.596  -9.144 -38.921  1.00  0.00     0.209 HD
ENDBRANCH  26  27
ENDBRANCH  23  26
ENDBRANCH  20  23
ENDBRANCH  17  20
ENDBRANCH   4  17
BRANCH   9  29
HETATM   29  O8  UNL     1     -21.433 -13.376 -40.275  1.00  0.00    -0.363 OA
ATOM     30  H8  UNL     1     -21.753 -13.549 -41.153  1.00  0.00     0.213 HD
ENDBRANCH   9  29
BRANCH   9  31
HETATM   31  O9  UNL     1     -19.818 -12.623 -41.626  1.00  0.00    -0.363 OA
ATOM     32  H9  UNL     1     -19.668 -13.329 -42.244  1.00  0.00     0.213 HD
ENDBRANCH   9  31
BRANCH  10  33
HETATM   33  C12 UNL     1     -19.721 -15.293 -41.359  1.00  0.00     0.266 C 
BRANCH  33  34
HETATM   34  O10 UNL     1     -20.924 -15.962 -41.083  1.00  0.00    -0.371 OA
ATOM     35  H10 UNL     1     -21.132 -16.554 -41.795  1.00  0.00     0.212 HD
ENDBRANCH  33  34
BRANCH  33  36
HETATM   36  O11 UNL     1     -18.751 -16.213 -41.679  1.00  0.00    -0.371 OA
ATOM     37  H11 UNL     1     -18.907 -16.647 -42.508  1.00  0.00     0.212 HD
ENDBRANCH  33  36
ENDBRANCH  10  33
TORSDOF 13
ENDMDL
MODEL 2
REMARK VINA RESULT: -5.362943957      1.182      1.971
REMARK  13 active torsions:
REMARK  status: ('A' for Active; 'I' for Inactive)
REMARK    1  A    between atoms: C3_4  and  C4_5 
REMARK    2  A    between atoms: C4_5  and  O2_6 
REMARK    3  A    between atoms: C4_5  and  C5_8 
REMARK    4  A    between atoms: C5_8  and  O3_9 
REMARK    5  A    between atoms: C5_8  and  C6_11 
REMARK    6  A    between atoms: C6_11  and  O4_12 
REMARK    7  A    between atoms: C6_11  and  C7_14 
REMARK    8  A    between atoms: C7_14  and  O5_15 
REMARK    9  A    between atoms: C10_21  and  O8_22 
REMARK   10  A    between atoms: C10_21  and  O9_24 
REMARK   11  A    between atoms: C11_26  and  C12_27 
REMARK   12  A    between atoms: C12_27  and  O10_28 
REMARK   13  A    between atoms: C12_27  and  O11_30 
ROOT
HETATM    1  O1  UNL     1     -21.214 -14.427 -35.419  1.00  0.00    -0.271 OA
HETATM    2  C1  UNL     1     -20.526 -13.436 -35.841  1.00  0.00     0.245 C 
HETATM    3  C2  UNL     1     -20.317 -12.235 -34.989  1.00  0.00     0.139 C 
HETATM    4  C3  UNL     1     -19.814 -11.138 -35.902  1.00  0.00     0.168 C 
HETATM    5  O6  UNL     1     -18.676 -11.501 -36.582  1.00  0.00    -0.319 OA
HETATM    6  C8  UNL     1     -18.778 -12.618 -37.348  1.00  0.00     0.338 C 
HETATM    7  O7  UNL     1     -18.621 -12.257 -38.681  1.00  0.00    -0.322 OA
HETATM    8  C9  UNL     1     -19.772 -12.006 -39.369  1.00  0.00     0.243 C 
HETATM    9  C10 UNL     1     -20.087 -13.053 -40.415  1.00  0.00     0.192 C 
HETATM   10  C11 UNL     1     -19.349 -14.340 -40.210  1.00  0.00     0.140 C 
HETATM   11  C13 UNL     1     -19.620 -15.014 -38.900  1.00  0.00     0.186 C 
HETATM   12  N1  UNL     1     -20.501 -14.239 -38.111  1.00  0.00    -0.310 N 
ATOM     13  H1  UNL     1     -21.509 -14.266 -38.260  1.00  0.00     0.182 HD
HETATM   14  N2  UNL     1     -19.940 -13.443 -37.131  1.00  0.00    -0.192 N 
HETATM   15  S1  UNL     1     -18.107 -15.554 -38.060  1.00  0.00    -0.063 SA
HETATM   16  S2  UNL     1     -17.376 -13.788 -37.052  1.00  0.00    -0.001 SA
ENDROOT
BRANCH   4  17
HETATM   17  C4  UNL     1     -19.461  -9.952 -35.018  1.00  0.00     0.179 C 
BRANCH  17  18
HETATM   18  O2  UNL     1     -20.632  -9.587 -34.359  1.00  0.00    -0.390 OA
ATOM     19  H2  UNL     1     -20.383  -8.954 -33.696  1.00  0.00     0.210 HD
ENDBRANCH  17  18
BRANCH  17  20
HETATM   20  C5  UNL     1     -18.422 -10.309 -33.986  1.00  0.00     0.180 C 
BRANCH  20  21
HETATM   21  O3  UNL     1     -18.681  -9.770 -32.747  1.00  0.00    -0.390 OA
ATOM     22  H3  UNL     1     -18.802  -8.827 -32.766  1.00  0.00     0.210 HD
ENDBRANCH  20  21
BRANCH  20  23
HETATM   23  C6  UNL     1     -17.106  -9.694 -34.469  1.00  0.00     0.173 C 
BRANCH  23  24
HETATM   24  O4  UNL     1     -17.262  -8.344 -34.761  1.00  0.00    -0.391 OA
ATOM     25  H4  UNL     1     -16.432  -7.948 -35.001  1.00  0.00     0.210 HD
ENDBRANCH  23  24
BRANCH  23  26
HETATM   26  C7  UNL     1     -16.027  -9.838 -33.418  1.00  0.00     0.198 C 
BRANCH  26  27
HETATM   27  O5  UNL     1     -16.008 -11.150 -32.929  1.00  0.00    -0.398 OA
ATOM     28  H5  UNL     1     -15.411 -11.680 -33.445  1.00  0.00     0.209 HD
ENDBRANCH  26  27
ENDBRANCH  23  26
ENDBRANCH  20  23
ENDBRANCH  17  20
ENDBRANCH   4  17
BRANCH   9  29
HETATM   29  O8  UNL     1     -21.452 -13.337 -40.363  1.00  0.00    -0.363 OA
ATOM     30  H8  UNL     1     -21.562 -14.265 -40.193  1.00  0.00     0.213 HD
ENDBRANCH   9  29
BRANCH   9  31
HETATM   31  O9  UNL     1     -19.824 -12.590 -41.701  1.00  0.00    -0.363 OA
ATOM     32  H9  UNL     1     -19.873 -13.289 -42.342  1.00  0.00     0.213 HD
ENDBRANCH   9  31
BRANCH  10  33
HETATM   33  C12 UNL     1     -19.701 -15.253 -41.384  1.00  0.00     0.266 C 
BRANCH  33  34
HETATM   34  O10 UNL     1     -20.908 -15.919 -41.122  1.00  0.00    -0.371 OA
ATOM     35  H10 UNL     1     -21.326 -15.537 -40.359  1.00  0.00     0.212 HD
ENDBRANCH  33  34
BRANCH  33  36
HETATM   36  O11 UNL     1     -18.722 -16.178 -41.661  1.00  0.00    -0.371 OA
ATOM     37  H11 UNL     1     -17.849 -15.805 -41.674  1.00  0.00     0.212 HD
ENDBRANCH  33  36
ENDBRANCH  10  33
TORSDOF 13
ENDMDL
MODEL 3
REMARK VINA RESULT: -5.342892084      2.431      3.858
REMARK  13 active torsions:
REMARK  status: ('A' for Active; 'I' for Inactive)
REMARK    1  A    between atoms: C3_4  and  C4_5 
REMARK    2  A    between atoms: C4_5  and  O2_6 
REMARK    3  A    between atoms: C4_5  and  C5_8 
REMARK    4  A    between atoms: C5_8  and  O3_9 
REMARK    5  A    between atoms: C5_8  and  C6_11 
REMARK    6  A    between atoms: C6_11  and  O4_12 
REMARK    7  A    between atoms: C6_11  and  C7_14 
REMARK    8  A    between atoms: C7_14  and  O5_15 
REMARK    9  A    between atoms: C10_21  and  O8_22 
REMARK   10  A    between atoms: C10_21  and  O9_24 
REMARK   11  A    between atoms: C11_26  and  C12_27 
REMARK   12  A    between atoms: C12_27  and  O10_28 
REMARK   13  A    between atoms: C12_27  and  O11_30 
ROOT
HETATM    1  O1  UNL     1     -18.947 -10.457 -38.978  1.00  0.00    -0.271 OA
HETATM    2  C1  UNL     1     -18.746 -10.928 -37.807  1.00  0.00     0.245 C 
HETATM    3  C2  UNL     1     -18.457 -10.026 -36.661  1.00  0.00     0.139 C 
HETATM    4  C3  UNL     1     -17.904 -10.897 -35.553  1.00  0.00     0.168 C 
HETATM    5  O6  UNL     1     -18.759 -11.918 -35.212  1.00  0.00    -0.319 OA
HETATM    6  C8  UNL     1     -19.105 -12.759 -36.221  1.00  0.00     0.338 C 
HETATM    7  O7  UNL     1     -18.598 -14.023 -35.939  1.00  0.00    -0.322 OA
HETATM    8  C9  UNL     1     -17.379 -14.309 -36.479  1.00  0.00     0.243 C 
HETATM    9  C10 UNL     1     -17.438 -15.344 -37.580  1.00  0.00     0.192 C 
HETATM   10  C11 UNL     1     -18.810 -15.530 -38.150  1.00  0.00     0.140 C 
HETATM   11  C13 UNL     1     -19.410 -14.296 -38.752  1.00  0.00     0.186 C 
HETATM   12  N1  UNL     1     -18.538 -13.193 -38.602  1.00  0.00    -0.310 N 
ATOM     13  H1  UNL     1     -17.755 -13.045 -39.238  1.00  0.00     0.182 HD
HETATM   14  N2  UNL     1     -18.791 -12.323 -37.559  1.00  0.00    -0.192 N 
HETATM   15  S1  UNL     1     -21.117 -14.007 -38.213  1.00  0.00    -0.063 SA
HETATM   16  S2  UNL     1     -20.933 -13.036 -36.292  1.00  0.00    -0.001 SA
ENDROOT
BRANCH   4  17
HETATM   17  C4  UNL     1     -17.742 -10.008 -34.329  1.00  0.00     0.179 C 
BRANCH  17  18
HETATM   18  O2  UNL     1     -17.998  -8.706 -34.749  1.00  0.00    -0.390 OA
ATOM     19  H2  UNL     1     -18.382  -8.254 -34.008  1.00  0.00     0.210 HD
ENDBRANCH  17  18
BRANCH  17  20
HETATM   20  C5  UNL     1     -18.723 -10.363 -33.242  1.00  0.00     0.180 C 
BRANCH  20  21
HETATM   21  O3  UNL     1     -19.972  -9.822 -33.441  1.00  0.00    -0.390 OA
ATOM     22  H3  UNL     1     -20.543  -9.910 -32.686  1.00  0.00     0.210 HD
ENDBRANCH  20  21
BRANCH  20  23
HETATM   23  C6  UNL     1     -18.176  -9.748 -31.951  1.00  0.00     0.173 C 
BRANCH  23  24
HETATM   24  O4  UNL     1     -16.949  -9.132 -32.171  1.00  0.00    -0.391 OA
ATOM     25  H4  UNL     1     -16.496  -8.969 -31.351  1.00  0.00     0.210 HD
ENDBRANCH  23  24
BRANCH  23  26
HETATM   26  C7  UNL     1     -19.137  -8.720 -31.395  1.00  0.00     0.198 C 
BRANCH  26  27
HETATM   27  O5  UNL     1     -19.125  -7.571 -32.197  1.00  0.00    -0.398 OA
ATOM     28  H5  UNL     1     -19.866  -7.017 -31.980  1.00  0.00     0.209 HD
ENDBRANCH  26  27
ENDBRANCH  23  26
ENDBRANCH  20  23
ENDBRANCH  17  20
ENDBRANCH   4  17
BRANCH   9  29
HETATM   29  O8  UNL     1     -16.602 -14.936 -38.621  1.00  0.00    -0.363 OA
ATOM     30  H8  UNL     1     -15.952 -15.612 -38.770  1.00  0.00     0.213 HD
ENDBRANCH   9  29
BRANCH   9  31
HETATM   31  O9  UNL     1     -16.965 -16.581 -37.150  1.00  0.00    -0.363 OA
ATOM     32  H9  UNL     1     -16.103 -16.768 -37.503  1.00  0.00     0.213 HD
ENDBRANCH   9  31
BRANCH  10  33
HETATM   33  C12 UNL     1     -18.724 -16.659 -39.177  1.00  0.00     0.266 C 
BRANCH  33  34
HETATM   34  O10 UNL     1     -17.575 -17.429 -38.938  1.00  0.00    -0.371 OA
ATOM     35  H10 UNL     1     -17.494 -18.100 -39.606  1.00  0.00     0.212 HD
ENDBRANCH  33  34
BRANCH  33  36
HETATM   36  O11 UNL     1     -18.709 -16.209 -40.475  1.00  0.00    -0.371 OA
ATOM     37  H11 UNL     1     -17.940 -15.690 -40.681  1.00  0.00     0.212 HD
ENDBRANCH  33  36
ENDBRANCH  10  33
TORSDOF 13
ENDMDL
MODEL 4
REMARK VINA RESULT: -5.287873763      2.799      7.423
REMARK  13 active torsions:
REMARK  status: ('A' for Active; 'I' for Inactive)
REMARK    1  A    between atoms: C3_4  and  C4_5 
REMARK    2  A    between atoms: C4_5  and  O2_6 
REMARK    3  A    between atoms: C4_5  and  C5_8 
REMARK    4  A    between atoms: C5_8  and  O3_9 
REMARK    5  A    between atoms: C5_8  and  C6_11 
REMARK    6  A    between atoms: C6_11  and  O4_12 
REMARK    7  A    between atoms: C6_11  and  C7_14 
REMARK    8  A    between atoms: C7_14  and  O5_15 
REMARK    9  A    between atoms: C10_21  and  O8_22 
REMARK   10  A    between atoms: C10_21  and  O9_24 
REMARK   11  A    between atoms: C11_26  and  C12_27 
REMARK   12  A    between atoms: C12_27  and  O10_28 
REMARK   13  A    between atoms: C12_27  and  O11_30 
ROOT
HETATM    1  O1  UNL     1     -21.504 -13.393 -34.494  1.00  0.00    -0.271 OA
HETATM    2  C1  UNL     1     -20.439 -13.026 -35.099  1.00  0.00     0.245 C 
HETATM    3  C2  UNL     1     -19.856 -13.855 -36.187  1.00  0.00     0.139 C 
HETATM    4  C3  UNL     1     -18.445 -13.352 -36.406  1.00  0.00     0.168 C 
HETATM    5  O6  UNL     1     -18.405 -12.008 -36.693  1.00  0.00    -0.319 OA
HETATM    6  C8  UNL     1     -18.962 -11.189 -35.763  1.00  0.00     0.338 C 
HETATM    7  O7  UNL     1     -17.962 -10.392 -35.218  1.00  0.00    -0.322 OA
HETATM    8  C9  UNL     1     -17.388 -10.859 -34.072  1.00  0.00     0.243 C 
HETATM    9  C10 UNL     1     -17.739 -10.042 -32.848  1.00  0.00     0.192 C 
HETATM   10  C11 UNL     1     -18.947  -9.177 -33.035  1.00  0.00     0.140 C 
HETATM   11  C13 UNL     1     -20.202  -9.922 -33.372  1.00  0.00     0.186 C 
HETATM   12  N1  UNL     1     -19.947 -11.308 -33.484  1.00  0.00    -0.310 N 
ATOM     13  H1  UNL     1     -19.891 -11.905 -32.659  1.00  0.00     0.182 HD
HETATM   14  N2  UNL     1     -19.778 -11.821 -34.755  1.00  0.00    -0.192 N 
HETATM   15  S1  UNL     1     -21.103  -9.190 -34.765  1.00  0.00    -0.063 SA
HETATM   16  S2  UNL     1     -20.119  -9.964 -36.526  1.00  0.00    -0.001 SA
ENDROOT
BRANCH   4  17
HETATM   17  C4  UNL     1     -17.891 -14.095 -37.611  1.00  0.00     0.179 C 
BRANCH  17  18
HETATM   18  O2  UNL     1     -16.505 -14.005 -37.529  1.00  0.00    -0.390 OA
ATOM     19  H2  UNL     1     -16.204 -14.814 -37.134  1.00  0.00     0.210 HD
ENDBRANCH  17  18
BRANCH  17  20
HETATM   20  C5  UNL     1     -18.278 -15.552 -37.601  1.00  0.00     0.180 C 
BRANCH  20  21
HETATM   21  O3  UNL     1     -17.533 -16.304 -36.723  1.00  0.00    -0.390 OA
ATOM     22  H3  UNL     1     -17.628 -16.028 -35.819  1.00  0.00     0.210 HD
ENDBRANCH  20  21
BRANCH  20  23
HETATM   23  C6  UNL     1     -17.980 -16.086 -39.004  1.00  0.00     0.173 C 
BRANCH  23  24
HETATM   24  O4  UNL     1     -17.504 -17.391 -38.952  1.00  0.00    -0.391 OA
ATOM     25  H4  UNL     1     -18.203 -18.003 -38.749  1.00  0.00     0.210 HD
ENDBRANCH  23  24
BRANCH  23  26
HETATM   26  C7  UNL     1     -19.225 -16.062 -39.864  1.00  0.00     0.198 C 
BRANCH  26  27
HETATM   27  O5  UNL     1     -18.871 -16.096 -41.219  1.00  0.00    -0.398 OA
ATOM     28  H5  UNL     1     -19.627 -15.895 -41.757  1.00  0.00     0.209 HD
ENDBRANCH  26  27
ENDBRANCH  23  26
ENDBRANCH  20  23
ENDBRANCH  17  20
ENDBRANCH   4  17
BRANCH   9  29
HETATM   29  O8  UNL     1     -18.005 -10.914 -31.792  1.00  0.00    -0.363 OA
ATOM     30  H8  UNL     1     -17.182 -11.160 -31.386  1.00  0.00     0.213 HD
ENDBRANCH   9  29
BRANCH   9  31
HETATM   31  O9  UNL     1     -16.676  -9.239 -32.444  1.00  0.00    -0.363 OA
ATOM     32  H9  UNL     1     -15.891  -9.751 -32.285  1.00  0.00     0.213 HD
ENDBRANCH   9  31
BRANCH  10  33
HETATM   33  C12 UNL     1     -19.117  -8.356 -31.758  1.00  0.00     0.266 C 
BRANCH  33  34
HETATM   34  O10 UNL     1     -20.088  -8.951 -30.938  1.00  0.00    -0.371 OA
ATOM     35  H10 UNL     1     -19.872  -8.804 -30.026  1.00  0.00     0.212 HD
ENDBRANCH  33  34
BRANCH  33  36
HETATM   36  O11 UNL     1     -19.464  -7.048 -31.999  1.00  0.00    -0.371 OA
ATOM     37  H11 UNL     1     -20.336  -6.955 -32.363  1.00  0.00     0.212 HD
ENDBRANCH  33  36
ENDBRANCH  10  33
TORSDOF 13
ENDMDL
MODEL 5
REMARK VINA RESULT: -5.278866321      2.574      4.112
REMARK  13 active torsions:
REMARK  status: ('A' for Active; 'I' for Inactive)
REMARK    1  A    between atoms: C3_4  and  C4_5 
REMARK    2  A    between atoms: C4_5  and  O2_6 
REMARK    3  A    between atoms: C4_5  and  C5_8 
REMARK    4  A    between atoms: C5_8  and  O3_9 
REMARK    5  A    between atoms: C5_8  and  C6_11 
REMARK    6  A    between atoms: C6_11  and  O4_12 
REMARK    7  A    between atoms: C6_11  and  C7_14 
REMARK    8  A    between atoms: C7_14  and  O5_15 
REMARK    9  A    between atoms: C10_21  and  O8_22 
REMARK   10  A    between atoms: C10_21  and  O9_24 
REMARK   11  A    between atoms: C11_26  and  C12_27 
REMARK   12  A    between atoms: C12_27  and  O10_28 
REMARK   13  A    between atoms: C12_27  and  O11_30 
ROOT
HETATM    1  O1  UNL     1     -19.833 -10.521 -38.217  1.00  0.00    -0.271 OA
HETATM    2  C1  UNL     1     -19.804 -11.198 -37.134  1.00  0.00     0.245 C 
HETATM    3  C2  UNL     1     -20.044 -10.546 -35.819  1.00  0.00     0.139 C 
HETATM    4  C3  UNL     1     -19.566 -11.517 -34.760  1.00  0.00     0.168 C 
HETATM    5  O6  UNL     1     -20.181 -12.743 -34.856  1.00  0.00    -0.319 OA
HETATM    6  C8  UNL     1     -20.044 -13.380 -36.047  1.00  0.00     0.338 C 
HETATM    7  O7  UNL     1     -19.309 -14.543 -35.846  1.00  0.00    -0.322 OA
HETATM    8  C9  UNL     1     -17.964 -14.440 -36.052  1.00  0.00     0.243 C 
HETATM    9  C10 UNL     1     -17.486 -15.182 -37.281  1.00  0.00     0.192 C 
HETATM   10  C11 UNL     1     -18.585 -15.509 -38.245  1.00  0.00     0.140 C 
HETATM   11  C13 UNL     1     -19.322 -14.319 -38.778  1.00  0.00     0.186 C 
HETATM   12  N1  UNL     1     -18.830 -13.125 -38.201  1.00  0.00    -0.310 N 
ATOM     13  H1  UNL     1     -17.983 -12.677 -38.551  1.00  0.00     0.182 HD
HETATM   14  N2  UNL     1     -19.543 -12.592 -37.145  1.00  0.00    -0.192 N 
HETATM   15  S1  UNL     1     -21.123 -14.519 -38.715  1.00  0.00    -0.063 SA
HETATM   16  S2  UNL     1     -21.664 -14.002 -36.688  1.00  0.00    -0.001 SA
ENDROOT
BRANCH   4  17
HETATM   17  C4  UNL     1     -19.938 -10.921 -33.412  1.00  0.00     0.179 C 
BRANCH  17  18
HETATM   18  O2  UNL     1     -20.416 -11.971 -32.633  1.00  0.00    -0.390 OA
ATOM     19  H2  UNL     1     -20.165 -11.779 -31.738  1.00  0.00     0.210 HD
ENDBRANCH  17  18
BRANCH  17  20
HETATM   20  C5  UNL     1     -18.747 -10.313 -32.717  1.00  0.00     0.180 C 
BRANCH  20  21
HETATM   21  O3  UNL     1     -17.546 -10.819 -33.157  1.00  0.00    -0.390 OA
ATOM     22  H3  UNL     1     -16.793 -10.381 -32.777  1.00  0.00     0.210 HD
ENDBRANCH  20  21
BRANCH  20  23
HETATM   23  C6  UNL     1     -18.871 -10.692 -31.239  1.00  0.00     0.173 C 
BRANCH  23  24
HETATM   24  O4  UNL     1     -18.088 -11.801 -30.940  1.00  0.00    -0.391 OA
ATOM     25  H4  UNL     1     -17.940 -12.334 -31.712  1.00  0.00     0.210 HD
ENDBRANCH  23  24
BRANCH  23  26
HETATM   26  C7  UNL     1     -18.440  -9.544 -30.351  1.00  0.00     0.198 C 
BRANCH  26  27
HETATM   27  O5  UNL     1     -17.531  -8.726 -31.034  1.00  0.00    -0.398 OA
ATOM     28  H5  UNL     1     -17.291  -9.128 -31.861  1.00  0.00     0.209 HD
ENDBRANCH  26  27
ENDBRANCH  23  26
ENDBRANCH  20  23
ENDBRANCH  17  20
ENDBRANCH   4  17
BRANCH   9  29
HETATM   29  O8  UNL     1     -16.561 -14.381 -37.952  1.00  0.00    -0.363 OA
ATOM     30  H8  UNL     1     -15.689 -14.614 -37.656  1.00  0.00     0.213 HD
ENDBRANCH   9  29
BRANCH   9  31
HETATM   31  O9  UNL     1     -16.825 -16.360 -36.944  1.00  0.00    -0.363 OA
ATOM     32  H9  UNL     1     -17.432 -17.083 -36.831  1.00  0.00     0.213 HD
ENDBRANCH   9  31
BRANCH  10  33
HETATM   33  C12 UNL     1     -17.964 -16.328 -39.376  1.00  0.00     0.266 C 
BRANCH  33  34
HETATM   34  O10 UNL     1     -18.846 -16.372 -40.467  1.00  0.00    -0.371 OA
ATOM     35  H10 UNL     1     -18.970 -15.498 -40.815  1.00  0.00     0.212 HD
ENDBRANCH  33  34
BRANCH  33  36
HETATM   36  O11 UNL     1     -17.640 -17.609 -38.999  1.00  0.00    -0.371 OA
ATOM     37  H11 UNL     1     -17.012 -17.642 -38.288  1.00  0.00     0.212 HD
ENDBRANCH  33  36
ENDBRANCH  10  33
TORSDOF 13
ENDMDL
