MODEL 1
REMARK VINA RESULT: -5.246091786      0.000      0.000
REMARK  3 active torsions:
REMARK  status: ('A' for Active; 'I' for Inactive)
REMARK    1  A    between atoms: C1_2  and  N1_3 
REMARK    2  A    between atoms: N1_3  and  C2_5 
REMARK    3  A    between atoms: C2_5  and  C3_6 
ROOT
HETATM    1  C3  UNL     1      14.678   8.940  -0.110  1.00  0.00     0.032 C 
HETATM    2  C4  UNL     1      14.234   7.797   0.708  1.00  0.00     0.012 C 
HETATM    3  C5  UNL     1      13.677   8.123   2.053  1.00  0.00    -0.011 C 
HETATM    4  C6  UNL     1      14.775   8.685   2.923  1.00  0.00     0.035 C 
HETATM    5  C7  UNL     1      15.243  10.021   2.405  1.00  0.00     0.272 C 
HETATM    6  N2  UNL     1      14.207  10.614   1.643  1.00  0.00     0.088 N 
HETATM    7  C8  UNL     1      12.918  10.468   2.271  1.00  0.00     0.272 C 
HETATM    8  C9  UNL     1      12.489   9.013   2.045  1.00  0.00     0.035 C 
HETATM    9  C10 UNL     1      14.152  10.279   0.269  1.00  0.00     0.278 C 
ENDROOT
BRANCH   1  10
HETATM   10  C2  UNL     1      14.285   8.689  -1.555  1.00  0.00     0.126 C 
BRANCH  10  11
HETATM   11  N1  UNL     1      13.451   9.752  -2.071  1.00  0.00    -0.390 N 
ATOM     12  H1  UNL     1      12.920  10.359  -1.446  1.00  0.00     0.159 HD
BRANCH  11  13
HETATM   13  C1  UNL     1      13.400   9.921  -3.476  1.00  0.00     0.165 C 
HETATM   14  S1  UNL     1      12.219   9.270  -4.401  1.00  0.00    -0.075 SA
ENDBRANCH  11  13
ENDBRANCH  10  11
ENDBRANCH   1  10
TORSDOF 3
ENDMDL
MODEL 2
REMARK VINA RESULT: -5.229352841      1.374      1.733
REMARK  3 active torsions:
REMARK  status: ('A' for Active; 'I' for Inactive)
REMARK    1  A    between atoms: C1_2  and  N1_3 
REMARK    2  A    between atoms: N1_3  and  C2_5 
REMARK    3  A    between atoms: C2_5  and  C3_6 
ROOT
HETATM    1  C3  UNL     1      14.539   9.888   0.300  1.00  0.00     0.032 C 
HETATM    2  C4  UNL     1      13.135   9.641   0.674  1.00  0.00     0.012 C 
HETATM    3  C5  UNL     1      12.817   9.710   2.131  1.00  0.00    -0.011 C 
HETATM    4  C6  UNL     1      13.504   8.571   2.844  1.00  0.00     0.035 C 
HETATM    5  C7  UNL     1      15.002   8.736   2.805  1.00  0.00     0.272 C 
HETATM    6  N2  UNL     1      15.316  10.107   2.634  1.00  0.00     0.088 N 
HETATM    7  C8  UNL     1      14.492  10.959   3.455  1.00  0.00     0.272 C 
HETATM    8  C9  UNL     1      13.116  11.010   2.781  1.00  0.00     0.035 C 
HETATM    9  C10 UNL     1      15.387  10.585   1.304  1.00  0.00     0.278 C 
ENDROOT
BRANCH   1  10
HETATM   10  C2  UNL     1      14.568  10.713  -0.973  1.00  0.00     0.126 C 
BRANCH  10  11
HETATM   11  N1  UNL     1      13.313  10.631  -1.688  1.00  0.00    -0.390 N 
ATOM     12  H1  UNL     1      12.452  11.006  -1.290  1.00  0.00     0.159 HD
BRANCH  11  13
HETATM   13  C1  UNL     1      13.324  10.010  -2.961  1.00  0.00     0.165 C 
HETATM   14  S1  UNL     1      14.654   9.965  -3.911  1.00  0.00    -0.075 SA
ENDBRANCH  11  13
ENDBRANCH  10  11
ENDBRANCH   1  10
TORSDOF 3
ENDMDL
MODEL 3
REMARK VINA RESULT: -5.104785150      1.242      2.219
REMARK  3 active torsions:
REMARK  status: ('A' for Active; 'I' for Inactive)
REMARK    1  A    between atoms: C1_2  and  N1_3 
REMARK    2  A    between atoms: N1_3  and  C2_5 
REMARK    3  A    between atoms: C2_5  and  C3_6 
ROOT
HETATM    1  C3  UNL     1      13.301   9.739  -0.074  1.00  0.00     0.032 C 
HETATM    2  C4  UNL     1      12.786  10.695   0.922  1.00  0.00     0.012 C 
HETATM    3  C5  UNL     1      13.210  10.471   2.334  1.00  0.00    -0.011 C 
HETATM    4  C6  UNL     1      12.605   9.184   2.838  1.00  0.00     0.035 C 
HETATM    5  C7  UNL     1      13.179   7.997   2.108  1.00  0.00     0.272 C 
HETATM    6  N2  UNL     1      14.456   8.336   1.598  1.00  0.00     0.088 N 
HETATM    7  C8  UNL     1      15.243   9.078   2.551  1.00  0.00     0.272 C 
HETATM    8  C9  UNL     1      14.676  10.502   2.565  1.00  0.00     0.035 C 
HETATM    9  C10 UNL     1      14.493   8.940   0.318  1.00  0.00     0.278 C 
ENDROOT
BRANCH   1  10
HETATM   10  C2  UNL     1      13.657  10.497  -1.341  1.00  0.00     0.126 C 
BRANCH  10  11
HETATM   11  N1  UNL     1      12.638  10.345  -2.355  1.00  0.00    -0.390 N 
ATOM     12  H1  UNL     1      11.719  10.776  -2.251  1.00  0.00     0.159 HD
BRANCH  11  13
HETATM   13  C1  UNL     1      12.961   9.575  -3.499  1.00  0.00     0.165 C 
HETATM   14  S1  UNL     1      14.337   9.799  -4.354  1.00  0.00    -0.075 SA
ENDBRANCH  11  13
ENDBRANCH  10  11
ENDBRANCH   1  10
TORSDOF 3
ENDMDL
MODEL 4
REMARK VINA RESULT: -5.092231224      3.615      5.067
REMARK  3 active torsions:
REMARK  status: ('A' for Active; 'I' for Inactive)
REMARK    1  A    between atoms: C1_2  and  N1_3 
REMARK    2  A    between atoms: N1_3  and  C2_5 
REMARK    3  A    between atoms: C2_5  and  C3_6 
ROOT
HETATM    1  C3  UNL     1      16.135  10.779  -0.214  1.00  0.00     0.032 C 
HETATM    2  C4  UNL     1      15.360  10.004   0.772  1.00  0.00     0.012 C 
HETATM    3  C5  UNL     1      14.235   9.186   0.233  1.00  0.00    -0.011 C 
HETATM    4  C6  UNL     1      13.167  10.103  -0.310  1.00  0.00     0.035 C 
HETATM    5  C7  UNL     1      13.663  10.853  -1.519  1.00  0.00     0.272 C 
HETATM    6  N2  UNL     1      14.714  10.119  -2.123  1.00  0.00     0.088 N 
HETATM    7  C8  UNL     1      14.425   8.709  -2.187  1.00  0.00     0.272 C 
HETATM    8  C9  UNL     1      14.624   8.162  -0.769  1.00  0.00     0.035 C 
HETATM    9  C10 UNL     1      16.022  10.356  -1.636  1.00  0.00     0.278 C 
ENDROOT
BRANCH   1  10
HETATM   10  C2  UNL     1      17.604  10.720   0.163  1.00  0.00     0.126 C 
BRANCH  10  11
HETATM   11  N1  UNL     1      17.811   9.953   1.372  1.00  0.00    -0.390 N 
ATOM     12  H1  UNL     1      17.287   9.096   1.551  1.00  0.00     0.159 HD
BRANCH  11  13
HETATM   13  C1  UNL     1      18.770  10.433   2.297  1.00  0.00     0.165 C 
HETATM   14  S1  UNL     1      18.785   9.980   3.868  1.00  0.00    -0.075 SA
ENDBRANCH  11  13
ENDBRANCH  10  11
ENDBRANCH   1  10
TORSDOF 3
ENDMDL
MODEL 5
REMARK VINA RESULT: -5.058404364      1.071      1.886
REMARK  3 active torsions:
REMARK  status: ('A' for Active; 'I' for Inactive)
REMARK    1  A    between atoms: C1_2  and  N1_3 
REMARK    2  A    between atoms: N1_3  and  C2_5 
REMARK    3  A    between atoms: C2_5  and  C3_6 
ROOT
HETATM    1  C3  UNL     1      14.281  10.554   0.001  1.00  0.00     0.032 C 
HETATM    2  C4  UNL     1      15.440  10.531   0.911  1.00  0.00     0.012 C 
HETATM    3  C5  UNL     1      15.215   9.915   2.252  1.00  0.00    -0.011 C 
HETATM    4  C6  UNL     1      14.253  10.771   3.038  1.00  0.00     0.035 C 
HETATM    5  C7  UNL     1      12.882  10.755   2.413  1.00  0.00     0.272 C 
HETATM    6  N2  UNL     1      12.731   9.569   1.652  1.00  0.00     0.088 N 
HETATM    7  C8  UNL     1      13.251   8.414   2.337  1.00  0.00     0.272 C 
HETATM    8  C9  UNL     1      14.778   8.497   2.229  1.00  0.00     0.035 C 
HETATM    9  C10 UNL     1      13.170   9.613   0.307  1.00  0.00     0.278 C 
ENDROOT
BRANCH   1  10
HETATM   10  C2  UNL     1      14.760  10.250  -1.407  1.00  0.00     0.126 C 
BRANCH  10  11
HETATM   11  N1  UNL     1      13.718  10.479  -2.384  1.00  0.00    -0.390 N 
ATOM     12  H1  UNL     1      13.010  11.200  -2.243  1.00  0.00     0.159 HD
BRANCH  11  13
HETATM   13  C1  UNL     1      13.716   9.665  -3.543  1.00  0.00     0.165 C 
HETATM   14  S1  UNL     1      12.353   9.322  -4.378  1.00  0.00    -0.075 SA
ENDBRANCH  11  13
ENDBRANCH  10  11
ENDBRANCH   1  10
TORSDOF 3
ENDMDL
