MODEL 1
REMARK VINA RESULT: -6.954405793      0.000      0.000
REMARK  6 active torsions:
REMARK  status: ('A' for Active; 'I' for Inactive)
REMARK    1  A    between atoms: C7_8  and  C8_9 
REMARK    2  A    between atoms: C9_10  and  C10_11 
REMARK    3  A    between atoms: C14_15  and  C15_16 
REMARK    4  A    between atoms: C15_16  and  O2_17 
REMARK    5  A    between atoms: C16_19  and  O3_20 
REMARK    6  A    between atoms: C17_22  and  O4_23 
ROOT
HETATM    1  C1  UNL     1      -1.495  51.652   8.524  1.00  0.00     0.050 C 
HETATM    2  C2  UNL     1      -1.486  52.219   9.920  1.00  0.00    -0.028 A 
HETATM    3  C3  UNL     1      -0.471  52.918  10.522  1.00  0.00     0.152 A 
HETATM    4  O1  UNL     1      -0.875  53.214  11.703  1.00  0.00    -0.299 OA
HETATM    5  C4  UNL     1      -2.107  52.766  11.965  1.00  0.00     0.194 A 
HETATM    6  C5  UNL     1      -2.524  52.118  10.824  1.00  0.00     0.012 A 
HETATM    7  C6  UNL     1      -3.848  51.457  10.669  1.00  0.00     0.082 C 
HETATM    8  C7  UNL     1      -4.349  50.823  11.911  1.00  0.00    -0.057 C 
HETATM    9  C13 UNL     1      -5.276  51.401  12.664  1.00  0.00    -0.010 C 
HETATM   10  C14 UNL     1      -5.909  52.702  12.380  1.00  0.00     0.066 C 
HETATM   11  C16 UNL     1      -5.060  53.885  12.618  1.00  0.00     0.183 C 
HETATM   12  C17 UNL     1      -3.868  53.733  13.477  1.00  0.00     0.294 C 
HETATM   13  O5  UNL     1      -2.867  52.881  13.095  1.00  0.00    -0.296 OA
ENDROOT
BRANCH   8  14
HETATM   14  C8  UNL     1      -3.769  49.513  12.272  1.00  0.00     0.003 C 
HETATM   15  C9  UNL     1      -2.698  49.030  11.732  1.00  0.00    -0.022 C 
BRANCH  15  16
HETATM   16  C10 UNL     1      -2.184  47.708  12.155  1.00  0.00     0.008 A 
HETATM   17  C11 UNL     1      -2.594  46.480  11.429  1.00  0.00     0.009 A 
HETATM   18  C12 UNL     1      -1.169  46.987  11.363  1.00  0.00     0.009 A 
ENDBRANCH  15  16
ENDBRANCH   8  14
BRANCH  10  19
HETATM   19  C15 UNL     1      -7.214  52.776  13.145  1.00  0.00     0.175 C 
BRANCH  19  20
HETATM   20  O2  UNL     1      -7.086  52.801  14.504  1.00  0.00    -0.400 OA
ATOM     21  H2  UNL     1      -6.653  52.043  14.881  1.00  0.00     0.209 HD
ENDBRANCH  19  20
ENDBRANCH  10  19
BRANCH  11  22
HETATM   22  O3  UNL     1      -5.876  54.880  13.214  1.00  0.00    -0.390 OA
ATOM     23  H3  UNL     1      -5.318  55.622  13.415  1.00  0.00     0.210 HD
ENDBRANCH  11  22
BRANCH  12  24
HETATM   24  O4  UNL     1      -4.326  53.336  14.764  1.00  0.00    -0.368 OA
ATOM     25  H4  UNL     1      -3.704  53.673  15.398  1.00  0.00     0.212 HD
ENDBRANCH  12  24
TORSDOF 6
ENDMDL
MODEL 2
REMARK VINA RESULT: -6.935759144      2.558      4.097
REMARK  6 active torsions:
REMARK  status: ('A' for Active; 'I' for Inactive)
REMARK    1  A    between atoms: C7_8  and  C8_9 
REMARK    2  A    between atoms: C9_10  and  C10_11 
REMARK    3  A    between atoms: C14_15  and  C15_16 
REMARK    4  A    between atoms: C15_16  and  O2_17 
REMARK    5  A    between atoms: C16_19  and  O3_20 
REMARK    6  A    between atoms: C17_22  and  O4_23 
ROOT
HETATM    1  C1  UNL     1      -9.359  50.267   8.944  1.00  0.00     0.050 C 
HETATM    2  C2  UNL     1      -8.441  51.451   9.107  1.00  0.00    -0.028 A 
HETATM    3  C3  UNL     1      -8.253  52.479   8.220  1.00  0.00     0.152 A 
HETATM    4  O1  UNL     1      -7.392  53.271   8.747  1.00  0.00    -0.299 OA
HETATM    5  C4  UNL     1      -6.966  52.860   9.945  1.00  0.00     0.194 A 
HETATM    6  C5  UNL     1      -7.632  51.682  10.201  1.00  0.00     0.012 A 
HETATM    7  C6  UNL     1      -7.458  50.868  11.435  1.00  0.00     0.082 C 
HETATM    8  C7  UNL     1      -6.077  50.881  11.970  1.00  0.00    -0.057 C 
HETATM    9  C13 UNL     1      -5.739  51.634  13.009  1.00  0.00    -0.010 C 
HETATM   10  C14 UNL     1      -6.655  52.526  13.743  1.00  0.00     0.066 C 
HETATM   11  C16 UNL     1      -7.030  53.767  13.040  1.00  0.00     0.183 C 
HETATM   12  C17 UNL     1      -6.187  54.218  11.913  1.00  0.00     0.294 C 
HETATM   13  O5  UNL     1      -6.065  53.425  10.804  1.00  0.00    -0.296 OA
ENDROOT
BRANCH   8  14
HETATM   14  C8  UNL     1      -5.092  50.013  11.294  1.00  0.00     0.003 C 
HETATM   15  C9  UNL     1      -4.032  49.547  11.869  1.00  0.00    -0.022 C 
BRANCH  15  16
HETATM   16  C10 UNL     1      -3.097  48.681  11.116  1.00  0.00     0.008 A 
HETATM   17  C11 UNL     1      -1.632  48.818  11.309  1.00  0.00     0.009 A 
HETATM   18  C12 UNL     1      -2.369  47.580  11.774  1.00  0.00     0.009 A 
ENDBRANCH  15  16
ENDBRANCH   8  14
BRANCH  10  19
HETATM   19  C15 UNL     1      -6.059  52.804  15.108  1.00  0.00     0.175 C 
BRANCH  19  20
HETATM   20  O2  UNL     1      -4.729  53.112  15.105  1.00  0.00    -0.400 OA
ATOM     21  H2  UNL     1      -4.503  53.922  15.548  1.00  0.00     0.209 HD
ENDBRANCH  19  20
ENDBRANCH  10  19
BRANCH  11  22
HETATM   22  O3  UNL     1      -7.035  54.813  13.997  1.00  0.00    -0.390 OA
ATOM     23  H3  UNL     1      -7.087  55.634  13.521  1.00  0.00     0.210 HD
ENDBRANCH  11  22
BRANCH  12  24
HETATM   24  O4  UNL     1      -4.886  54.461  12.433  1.00  0.00    -0.368 OA
ATOM     25  H4  UNL     1      -4.297  53.845  12.015  1.00  0.00     0.212 HD
ENDBRANCH  12  24
TORSDOF 6
ENDMDL
MODEL 3
REMARK VINA RESULT: -6.880071929      3.347      5.317
REMARK  6 active torsions:
REMARK  status: ('A' for Active; 'I' for Inactive)
REMARK    1  A    between atoms: C7_8  and  C8_9 
REMARK    2  A    between atoms: C9_10  and  C10_11 
REMARK    3  A    between atoms: C14_15  and  C15_16 
REMARK    4  A    between atoms: C15_16  and  O2_17 
REMARK    5  A    between atoms: C16_19  and  O3_20 
REMARK    6  A    between atoms: C17_22  and  O4_23 
ROOT
HETATM    1  C1  UNL     1     -11.489  52.194  10.460  1.00  0.00     0.050 C 
HETATM    2  C2  UNL     1     -10.294  53.107  10.365  1.00  0.00    -0.028 A 
HETATM    3  C3  UNL     1     -10.155  54.204   9.553  1.00  0.00     0.152 A 
HETATM    4  O1  UNL     1      -8.991  54.691   9.785  1.00  0.00    -0.299 OA
HETATM    5  C4  UNL     1      -8.309  54.005  10.707  1.00  0.00     0.194 A 
HETATM    6  C5  UNL     1      -9.132  52.973  11.098  1.00  0.00     0.012 A 
HETATM    7  C6  UNL     1      -8.771  51.948  12.114  1.00  0.00     0.082 C 
HETATM    8  C7  UNL     1      -7.338  51.573  12.102  1.00  0.00    -0.057 C 
HETATM    9  C13 UNL     1      -6.485  52.051  12.998  1.00  0.00    -0.010 C 
HETATM   10  C14 UNL     1      -6.831  52.986  14.084  1.00  0.00     0.066 C 
HETATM   11  C16 UNL     1      -7.083  54.378  13.667  1.00  0.00     0.183 C 
HETATM   12  C17 UNL     1      -6.584  54.816  12.347  1.00  0.00     0.294 C 
HETATM   13  O5  UNL     1      -7.056  54.211  11.214  1.00  0.00    -0.296 OA
ENDROOT
BRANCH   8  14
HETATM   14  C8  UNL     1      -6.903  50.636  11.045  1.00  0.00     0.003 C 
HETATM   15  C9  UNL     1      -5.933  49.794  11.188  1.00  0.00    -0.022 C 
BRANCH  15  16
HETATM   16  C10 UNL     1      -5.564  48.890  10.077  1.00  0.00     0.008 A 
HETATM   17  C11 UNL     1      -5.168  47.487  10.355  1.00  0.00     0.009 A 
HETATM   18  C12 UNL     1      -6.461  47.806   9.635  1.00  0.00     0.009 A 
ENDBRANCH  15  16
ENDBRANCH   8  14
BRANCH  10  19
HETATM   19  C15 UNL     1      -5.759  52.898  15.151  1.00  0.00     0.175 C 
BRANCH  19  20
HETATM   20  O2  UNL     1      -4.500  53.219  14.732  1.00  0.00    -0.400 OA
ATOM     21  H2  UNL     1      -4.442  53.524  13.833  1.00  0.00     0.209 HD
ENDBRANCH  19  20
ENDBRANCH  10  19
BRANCH  11  22
HETATM   22  O3  UNL     1      -6.492  55.226  14.636  1.00  0.00    -0.390 OA
ATOM     23  H3  UNL     1      -6.102  55.958  14.173  1.00  0.00     0.210 HD
ENDBRANCH  11  22
BRANCH  12  24
HETATM   24  O4  UNL     1      -5.169  54.683  12.369  1.00  0.00    -0.368 OA
ATOM     25  H4  UNL     1      -4.831  55.154  11.616  1.00  0.00     0.212 HD
ENDBRANCH  12  24
TORSDOF 6
ENDMDL
MODEL 4
REMARK VINA RESULT: -6.627510518      2.597      3.992
REMARK  6 active torsions:
REMARK  status: ('A' for Active; 'I' for Inactive)
REMARK    1  A    between atoms: C7_8  and  C8_9 
REMARK    2  A    between atoms: C9_10  and  C10_11 
REMARK    3  A    between atoms: C14_15  and  C15_16 
REMARK    4  A    between atoms: C15_16  and  O2_17 
REMARK    5  A    between atoms: C16_19  and  O3_20 
REMARK    6  A    between atoms: C17_22  and  O4_23 
ROOT
HETATM    1  C1  UNL     1      -7.871  49.000   8.776  1.00  0.00     0.050 C 
HETATM    2  C2  UNL     1      -7.362  50.411   8.922  1.00  0.00    -0.028 A 
HETATM    3  C3  UNL     1      -7.397  51.404   7.977  1.00  0.00     0.152 A 
HETATM    4  O1  UNL     1      -6.864  52.442   8.510  1.00  0.00    -0.299 OA
HETATM    5  C4  UNL     1      -6.458  52.237   9.767  1.00  0.00     0.194 A 
HETATM    6  C5  UNL     1      -6.770  50.927  10.057  1.00  0.00     0.012 A 
HETATM    7  C6  UNL     1      -6.489  50.264  11.359  1.00  0.00     0.082 C 
HETATM    8  C7  UNL     1      -5.234  50.717  12.002  1.00  0.00    -0.057 C 
HETATM    9  C13 UNL     1      -5.237  51.586  13.004  1.00  0.00    -0.010 C 
HETATM   10  C14 UNL     1      -6.443  52.198  13.591  1.00  0.00     0.066 C 
HETATM   11  C16 UNL     1      -7.094  53.234  12.767  1.00  0.00     0.183 C 
HETATM   12  C17 UNL     1      -6.312  53.860  11.681  1.00  0.00     0.294 C 
HETATM   13  O5  UNL     1      -5.853  53.087  10.650  1.00  0.00    -0.296 OA
ENDROOT
BRANCH   8  14
HETATM   14  C8  UNL     1      -3.974  50.151  11.476  1.00  0.00     0.003 C 
HETATM   15  C9  UNL     1      -3.017  50.866  10.982  1.00  0.00    -0.022 C 
BRANCH  15  16
HETATM   16  C10 UNL     1      -1.787  50.217  10.478  1.00  0.00     0.008 A 
HETATM   17  C11 UNL     1      -0.859  50.961   9.592  1.00  0.00     0.009 A 
HETATM   18  C12 UNL     1      -0.456  50.578  11.000  1.00  0.00     0.009 A 
ENDBRANCH  15  16
ENDBRANCH   8  14
BRANCH  10  19
HETATM   19  C15 UNL     1      -6.095  52.708  14.975  1.00  0.00     0.175 C 
BRANCH  19  20
HETATM   20  O2  UNL     1      -4.860  53.280  15.085  1.00  0.00    -0.400 OA
ATOM     21  H2  UNL     1      -4.131  52.671  15.056  1.00  0.00     0.209 HD
ENDBRANCH  19  20
ENDBRANCH  10  19
BRANCH  11  22
HETATM   22  O3  UNL     1      -7.501  54.275  13.638  1.00  0.00    -0.390 OA
ATOM     23  H3  UNL     1      -8.360  54.565  13.352  1.00  0.00     0.210 HD
ENDBRANCH  11  22
BRANCH  12  24
HETATM   24  O4  UNL     1      -5.199  54.507  12.285  1.00  0.00    -0.368 OA
ATOM     25  H4  UNL     1      -4.647  54.830  11.582  1.00  0.00     0.212 HD
ENDBRANCH  12  24
TORSDOF 6
ENDMDL
MODEL 5
REMARK VINA RESULT: -6.624681997      2.681      4.462
REMARK  6 active torsions:
REMARK  status: ('A' for Active; 'I' for Inactive)
REMARK    1  A    between atoms: C7_8  and  C8_9 
REMARK    2  A    between atoms: C9_10  and  C10_11 
REMARK    3  A    between atoms: C14_15  and  C15_16 
REMARK    4  A    between atoms: C15_16  and  O2_17 
REMARK    5  A    between atoms: C16_19  and  O3_20 
REMARK    6  A    between atoms: C17_22  and  O4_23 
ROOT
HETATM    1  C1  UNL     1      -3.850  49.672   9.692  1.00  0.00     0.050 C 
HETATM    2  C2  UNL     1      -3.994  50.100  11.130  1.00  0.00    -0.028 A 
HETATM    3  C3  UNL     1      -3.244  49.677  12.197  1.00  0.00     0.152 A 
HETATM    4  O1  UNL     1      -3.695  50.286  13.231  1.00  0.00    -0.299 OA
HETATM    5  C4  UNL     1      -4.712  51.107  12.955  1.00  0.00     0.194 A 
HETATM    6  C5  UNL     1      -4.924  51.004  11.599  1.00  0.00     0.012 A 
HETATM    7  C6  UNL     1      -5.975  51.749  10.853  1.00  0.00     0.082 C 
HETATM    8  C7  UNL     1      -7.225  51.950  11.621  1.00  0.00    -0.057 C 
HETATM    9  C13 UNL     1      -7.509  53.109  12.202  1.00  0.00    -0.010 C 
HETATM   10  C14 UNL     1      -6.651  54.308  12.164  1.00  0.00     0.066 C 
HETATM   11  C16 UNL     1      -5.441  54.249  13.005  1.00  0.00     0.183 C 
HETATM   12  C17 UNL     1      -5.388  53.247  14.090  1.00  0.00     0.294 C 
HETATM   13  O5  UNL     1      -5.444  51.915  13.779  1.00  0.00    -0.296 OA
ENDROOT
BRANCH   8  14
HETATM   14  C8  UNL     1      -8.146  50.798  11.709  1.00  0.00     0.003 C 
HETATM   15  C9  UNL     1      -9.345  50.800  11.227  1.00  0.00    -0.022 C 
BRANCH  15  16
HETATM   16  C10 UNL     1     -10.201  49.600  11.359  1.00  0.00     0.008 A 
HETATM   17  C11 UNL     1     -11.117  49.211  10.258  1.00  0.00     0.009 A 
HETATM   18  C12 UNL     1      -9.914  48.363  10.608  1.00  0.00     0.009 A 
ENDBRANCH  15  16
ENDBRANCH   8  14
BRANCH  10  19
HETATM   19  C15 UNL     1      -7.506  55.517  12.483  1.00  0.00     0.175 C 
BRANCH  19  20
HETATM   20  O2  UNL     1      -8.221  55.429  13.643  1.00  0.00    -0.400 OA
ATOM     21  H2  UNL     1      -7.833  54.877  14.312  1.00  0.00     0.209 HD
ENDBRANCH  19  20
ENDBRANCH  10  19
BRANCH  11  22
HETATM   22  O3  UNL     1      -5.281  55.521  13.608  1.00  0.00    -0.390 OA
ATOM     23  H3  UNL     1      -4.668  55.420  14.328  1.00  0.00     0.210 HD
ENDBRANCH  11  22
BRANCH  12  24
HETATM   24  O4  UNL     1      -6.453  53.542  14.986  1.00  0.00    -0.368 OA
ATOM     25  H4  UNL     1      -7.130  53.979  14.482  1.00  0.00     0.212 HD
ENDBRANCH  12  24
TORSDOF 6
ENDMDL
