MODEL 1
REMARK VINA RESULT: -7.383443253      0.000      0.000
REMARK  8 active torsions:
REMARK  status: ('A' for Active; 'I' for Inactive)
REMARK    1  A    between atoms: N1_1  and  C1_5 
REMARK    2  A    between atoms: C1_5  and  C2_6 
REMARK    3  A    between atoms: C2_6  and  S1_7 
REMARK    4  A    between atoms: S1_7  and  N2_10 
REMARK    5  A    between atoms: N2_10  and  C3_12 
REMARK    6  A    between atoms: C9_18  and  C10_19 
REMARK    7  A    between atoms: C10_19  and  O3_20 
REMARK    8  A    between atoms: C10_19  and  C11_22 
ROOT
HETATM    1  C3  UNL     1      -5.267  53.733  13.906  1.00  0.00     0.097 C 
HETATM    2  C4  UNL     1      -6.252  54.885  14.123  1.00  0.00     0.031 C 
HETATM    3  C5  UNL     1      -6.441  54.923  12.646  1.00  0.00     0.000 C 
HETATM    4  C6  UNL     1      -5.960  53.482  12.583  1.00  0.00     0.013 C 
HETATM    5  C7  UNL     1      -7.205  52.642  12.689  1.00  0.00     0.007 C 
HETATM    6  C8  UNL     1      -8.338  53.531  12.174  1.00  0.00     0.008 C 
HETATM    7  C9  UNL     1      -7.836  54.923  12.084  1.00  0.00     0.019 C 
ENDROOT
BRANCH   1   8
HETATM    8  N2  UNL     1      -3.926  54.029  13.921  1.00  0.00    -0.314 N 
ATOM      9  H2  UNL     1      -3.620  54.713  14.612  1.00  0.00     0.172 HD
BRANCH   8  10
HETATM   10  S1  UNL     1      -2.758  53.402  12.947  1.00  0.00     0.228 S 
HETATM   11  O1  UNL     1      -2.701  54.053  11.557  1.00  0.00    -0.206 OA
HETATM   12  O2  UNL     1      -1.344  53.567  13.464  1.00  0.00    -0.206 OA
BRANCH  10  13
HETATM   13  C2  UNL     1      -2.982  51.683  12.644  1.00  0.00     0.190 C 
BRANCH  13  14
HETATM   14  C1  UNL     1      -1.740  50.875  12.481  1.00  0.00     0.246 C 
BRANCH  14  15
HETATM   15  N1  UNL     1      -0.838  51.536  11.540  1.00  0.00    -0.078 N 
ATOM     16  H13 UNL     1      -1.022  51.260  10.575  1.00  0.00     0.274 HD
ATOM     17  H12 UNL     1      -1.041  52.532  11.450  1.00  0.00     0.274 HD
ATOM     18  H11 UNL     1       0.131  51.365  11.810  1.00  0.00     0.274 HD
ENDBRANCH  14  15
ENDBRANCH  13  14
ENDBRANCH  10  13
ENDBRANCH   8  10
ENDBRANCH   1   8
BRANCH   7  19
HETATM   19  C10 UNL     1      -8.699  56.008  12.594  1.00  0.00     0.126 C 
BRANCH  19  20
HETATM   20  O3  UNL     1      -9.310  55.779  13.820  1.00  0.00    -0.395 OA
ATOM     21  H3  UNL     1      -9.433  56.541  14.375  1.00  0.00     0.210 HD
ENDBRANCH  19  20
BRANCH  19  22
HETATM   22  C11 UNL     1      -9.638  56.549  11.571  1.00  0.00     0.015 C 
HETATM   23  C12 UNL     1      -8.899  57.267  10.452  1.00  0.00     0.007 C 
HETATM   24  C13 UNL     1      -9.959  58.101   9.786  1.00  0.00     0.000 C 
HETATM   25  C14 UNL     1     -11.129  58.157  10.707  1.00  0.00     0.000 C 
HETATM   26  C15 UNL     1     -10.583  57.603  12.032  1.00  0.00     0.007 C 
ENDBRANCH  19  22
ENDBRANCH   7  19
TORSDOF 8
ENDMDL
MODEL 2
REMARK VINA RESULT: -7.212549367      1.141      1.259
REMARK  8 active torsions:
REMARK  status: ('A' for Active; 'I' for Inactive)
REMARK    1  A    between atoms: N1_1  and  C1_5 
REMARK    2  A    between atoms: C1_5  and  C2_6 
REMARK    3  A    between atoms: C2_6  and  S1_7 
REMARK    4  A    between atoms: S1_7  and  N2_10 
REMARK    5  A    between atoms: N2_10  and  C3_12 
REMARK    6  A    between atoms: C9_18  and  C10_19 
REMARK    7  A    between atoms: C10_19  and  O3_20 
REMARK    8  A    between atoms: C10_19  and  C11_22 
ROOT
HETATM    1  C3  UNL     1      -4.807  54.143  13.202  1.00  0.00     0.097 C 
HETATM    2  C4  UNL     1      -5.744  55.342  13.371  1.00  0.00     0.031 C 
HETATM    3  C5  UNL     1      -6.477  54.864  12.167  1.00  0.00     0.000 C 
HETATM    4  C6  UNL     1      -5.920  53.473  12.424  1.00  0.00     0.013 C 
HETATM    5  C7  UNL     1      -6.947  52.786  13.285  1.00  0.00     0.007 C 
HETATM    6  C8  UNL     1      -8.270  53.488  12.974  1.00  0.00     0.008 C 
HETATM    7  C9  UNL     1      -7.974  54.732  12.224  1.00  0.00     0.019 C 
ENDROOT
BRANCH   1   8
HETATM    8  N2  UNL     1      -3.594  54.359  12.597  1.00  0.00    -0.314 N 
ATOM      9  H2  UNL     1      -3.468  55.265  12.145  1.00  0.00     0.172 HD
BRANCH   8  10
HETATM   10  S1  UNL     1      -2.322  53.320  12.518  1.00  0.00     0.228 S 
HETATM   11  O1  UNL     1      -1.289  53.527  13.635  1.00  0.00    -0.206 OA
HETATM   12  O2  UNL     1      -2.688  51.856  12.652  1.00  0.00    -0.206 OA
BRANCH  10  13
HETATM   13  C2  UNL     1      -1.416  53.473  11.017  1.00  0.00     0.190 C 
BRANCH  13  14
HETATM   14  C1  UNL     1      -0.982  52.200  10.376  1.00  0.00     0.246 C 
BRANCH  14  15
HETATM   15  N1  UNL     1      -0.216  51.400  11.330  1.00  0.00    -0.078 N 
ATOM     16  H13 UNL     1       0.240  50.605  10.884  1.00  0.00     0.274 HD
ATOM     17  H12 UNL     1       0.619  51.888  11.655  1.00  0.00     0.274 HD
ATOM     18  H11 UNL     1      -0.818  51.114  12.103  1.00  0.00     0.274 HD
ENDBRANCH  14  15
ENDBRANCH  13  14
ENDBRANCH  10  13
ENDBRANCH   8  10
ENDBRANCH   1   8
BRANCH   7  19
HETATM   19  C10 UNL     1      -8.681  55.968  12.618  1.00  0.00     0.126 C 
BRANCH  19  20
HETATM   20  O3  UNL     1      -9.251  55.969  13.884  1.00  0.00    -0.395 OA
ATOM     21  H3  UNL     1     -10.107  56.374  13.957  1.00  0.00     0.210 HD
ENDBRANCH  19  20
BRANCH  19  22
HETATM   22  C11 UNL     1      -9.603  56.484  11.567  1.00  0.00     0.015 C 
HETATM   23  C12 UNL     1      -8.846  57.176  10.443  1.00  0.00     0.007 C 
HETATM   24  C13 UNL     1      -9.894  57.993   9.740  1.00  0.00     0.000 C 
HETATM   25  C14 UNL     1     -11.079  58.071  10.641  1.00  0.00     0.000 C 
HETATM   26  C15 UNL     1     -10.555  57.548  11.988  1.00  0.00     0.007 C 
ENDBRANCH  19  22
ENDBRANCH   7  19
TORSDOF 8
ENDMDL
MODEL 3
REMARK VINA RESULT: -7.163256951      1.173      1.489
REMARK  8 active torsions:
REMARK  status: ('A' for Active; 'I' for Inactive)
REMARK    1  A    between atoms: N1_1  and  C1_5 
REMARK    2  A    between atoms: C1_5  and  C2_6 
REMARK    3  A    between atoms: C2_6  and  S1_7 
REMARK    4  A    between atoms: S1_7  and  N2_10 
REMARK    5  A    between atoms: N2_10  and  C3_12 
REMARK    6  A    between atoms: C9_18  and  C10_19 
REMARK    7  A    between atoms: C10_19  and  O3_20 
REMARK    8  A    between atoms: C10_19  and  C11_22 
ROOT
HETATM    1  C3  UNL     1      -4.440  53.478  12.576  1.00  0.00     0.097 C 
HETATM    2  C4  UNL     1      -5.192  54.764  12.928  1.00  0.00     0.031 C 
HETATM    3  C5  UNL     1      -6.137  54.444  11.823  1.00  0.00     0.000 C 
HETATM    4  C6  UNL     1      -5.722  52.987  11.938  1.00  0.00     0.013 C 
HETATM    5  C7  UNL     1      -6.697  52.371  12.907  1.00  0.00     0.007 C 
HETATM    6  C8  UNL     1      -7.955  53.236  12.821  1.00  0.00     0.008 C 
HETATM    7  C9  UNL     1      -7.617  54.480  12.089  1.00  0.00     0.019 C 
ENDROOT
BRANCH   1   8
HETATM    8  N2  UNL     1      -3.305  53.591  11.811  1.00  0.00    -0.314 N 
ATOM      9  H2  UNL     1      -3.424  53.984  10.878  1.00  0.00     0.172 HD
BRANCH   8  10
HETATM   10  S1  UNL     1      -1.774  53.161  12.233  1.00  0.00     0.228 S 
HETATM   11  O1  UNL     1      -0.694  53.767  11.326  1.00  0.00    -0.206 OA
HETATM   12  O2  UNL     1      -1.350  53.602  13.618  1.00  0.00    -0.206 OA
BRANCH  10  13
HETATM   13  C2  UNL     1      -1.517  51.422  12.160  1.00  0.00     0.190 C 
BRANCH  13  14
HETATM   14  C1  UNL     1      -1.003  50.884  10.869  1.00  0.00     0.246 C 
BRANCH  14  15
HETATM   15  N1  UNL     1       0.439  51.107  10.778  1.00  0.00    -0.078 N 
ATOM     16  H13 UNL     1       0.702  52.041  11.091  1.00  0.00     0.274 HD
ATOM     17  H12 UNL     1       0.954  50.567  11.474  1.00  0.00     0.274 HD
ATOM     18  H11 UNL     1       0.760  50.915   9.829  1.00  0.00     0.274 HD
ENDBRANCH  14  15
ENDBRANCH  13  14
ENDBRANCH  10  13
ENDBRANCH   8  10
ENDBRANCH   1   8
BRANCH   7  19
HETATM   19  C10 UNL     1      -8.108  55.763  12.634  1.00  0.00     0.126 C 
BRANCH  19  20
HETATM   20  O3  UNL     1      -8.963  55.678  13.724  1.00  0.00    -0.395 OA
ATOM     21  H3  UNL     1      -9.846  56.001  13.590  1.00  0.00     0.210 HD
ENDBRANCH  19  20
BRANCH  19  22
HETATM   22  C11 UNL     1      -8.598  56.702  11.586  1.00  0.00     0.015 C 
HETATM   23  C12 UNL     1     -10.029  57.147  11.852  1.00  0.00     0.007 C 
HETATM   24  C13 UNL     1     -10.497  57.695  10.532  1.00  0.00     0.000 C 
HETATM   25  C14 UNL     1      -9.538  57.232   9.490  1.00  0.00     0.000 C 
HETATM   26  C15 UNL     1      -8.705  56.156  10.205  1.00  0.00     0.007 C 
ENDBRANCH  19  22
ENDBRANCH   7  19
TORSDOF 8
ENDMDL
MODEL 4
REMARK VINA RESULT: -7.105353936      0.612      1.045
REMARK  8 active torsions:
REMARK  status: ('A' for Active; 'I' for Inactive)
REMARK    1  A    between atoms: N1_1  and  C1_5 
REMARK    2  A    between atoms: C1_5  and  C2_6 
REMARK    3  A    between atoms: C2_6  and  S1_7 
REMARK    4  A    between atoms: S1_7  and  N2_10 
REMARK    5  A    between atoms: N2_10  and  C3_12 
REMARK    6  A    between atoms: C9_18  and  C10_19 
REMARK    7  A    between atoms: C10_19  and  O3_20 
REMARK    8  A    between atoms: C10_19  and  C11_22 
ROOT
HETATM    1  C3  UNL     1      -5.252  53.561  14.043  1.00  0.00     0.097 C 
HETATM    2  C4  UNL     1      -6.151  54.794  14.168  1.00  0.00     0.031 C 
HETATM    3  C5  UNL     1      -6.252  54.798  12.683  1.00  0.00     0.000 C 
HETATM    4  C6  UNL     1      -5.888  53.322  12.690  1.00  0.00     0.013 C 
HETATM    5  C7  UNL     1      -7.202  52.588  12.746  1.00  0.00     0.007 C 
HETATM    6  C8  UNL     1      -8.227  53.547  12.140  1.00  0.00     0.008 C 
HETATM    7  C9  UNL     1      -7.609  54.891  12.040  1.00  0.00     0.019 C 
ENDROOT
BRANCH   1   8
HETATM    8  N2  UNL     1      -3.895  53.748  14.128  1.00  0.00    -0.314 N 
ATOM      9  H2  UNL     1      -3.550  54.187  14.983  1.00  0.00     0.172 HD
BRANCH   8  10
HETATM   10  S1  UNL     1      -2.762  53.344  13.007  1.00  0.00     0.228 S 
HETATM   11  O1  UNL     1      -2.864  54.157  11.709  1.00  0.00    -0.206 OA
HETATM   12  O2  UNL     1      -1.329  53.567  13.443  1.00  0.00    -0.206 OA
BRANCH  10  13
HETATM   13  C2  UNL     1      -2.877  51.660  12.508  1.00  0.00     0.190 C 
BRANCH  13  14
HETATM   14  C1  UNL     1      -1.588  50.967  12.223  1.00  0.00     0.246 C 
BRANCH  14  15
HETATM   15  N1  UNL     1      -0.776  51.782  11.321  1.00  0.00    -0.078 N 
ATOM     16  H13 UNL     1      -0.207  51.210  10.697  1.00  0.00     0.274 HD
ATOM     17  H12 UNL     1      -1.343  52.253  10.615  1.00  0.00     0.274 HD
ATOM     18  H11 UNL     1      -0.212  52.439  11.861  1.00  0.00     0.274 HD
ENDBRANCH  14  15
ENDBRANCH  13  14
ENDBRANCH  10  13
ENDBRANCH   8  10
ENDBRANCH   1   8
BRANCH   7  19
HETATM   19  C10 UNL     1      -8.407  56.059  12.466  1.00  0.00     0.126 C 
BRANCH  19  20
HETATM   20  O3  UNL     1      -9.331  55.832  13.477  1.00  0.00    -0.395 OA
ATOM     21  H3  UNL     1      -9.749  54.979  13.478  1.00  0.00     0.210 HD
ENDBRANCH  19  20
BRANCH  19  22
HETATM   22  C11 UNL     1      -8.973  56.837  11.328  1.00  0.00     0.015 C 
HETATM   23  C12 UNL     1     -10.471  56.612  11.182  1.00  0.00     0.007 C 
HETATM   24  C13 UNL     1     -10.781  57.081   9.788  1.00  0.00     0.000 C 
HETATM   25  C14 UNL     1      -9.487  57.193   9.055  1.00  0.00     0.000 C 
HETATM   26  C15 UNL     1      -8.482  56.476   9.970  1.00  0.00     0.007 C 
ENDBRANCH  19  22
ENDBRANCH   7  19
TORSDOF 8
ENDMDL
MODEL 5
REMARK VINA RESULT: -7.046303218      2.857      4.373
REMARK  8 active torsions:
REMARK  status: ('A' for Active; 'I' for Inactive)
REMARK    1  A    between atoms: N1_1  and  C1_5 
REMARK    2  A    between atoms: C1_5  and  C2_6 
REMARK    3  A    between atoms: C2_6  and  S1_7 
REMARK    4  A    between atoms: S1_7  and  N2_10 
REMARK    5  A    between atoms: N2_10  and  C3_12 
REMARK    6  A    between atoms: C9_18  and  C10_19 
REMARK    7  A    between atoms: C10_19  and  O3_20 
REMARK    8  A    between atoms: C10_19  and  C11_22 
ROOT
HETATM    1  C3  UNL     1      -1.761  53.136  11.805  1.00  0.00     0.097 C 
HETATM    2  C4  UNL     1      -2.586  53.998  12.765  1.00  0.00     0.031 C 
HETATM    3  C5  UNL     1      -3.806  53.379  12.178  1.00  0.00     0.000 C 
HETATM    4  C6  UNL     1      -2.953  52.204  11.730  1.00  0.00     0.013 C 
HETATM    5  C7  UNL     1      -3.027  51.207  12.857  1.00  0.00     0.007 C 
HETATM    6  C8  UNL     1      -4.346  51.502  13.572  1.00  0.00     0.008 C 
HETATM    7  C9  UNL     1      -4.854  52.810  13.095  1.00  0.00     0.019 C 
ENDROOT
BRANCH   1   8
HETATM    8  N2  UNL     1      -1.293  53.727  10.658  1.00  0.00    -0.314 N 
ATOM      9  H2  UNL     1      -1.667  54.650  10.437  1.00  0.00     0.172 HD
BRANCH   8  10
HETATM   10  S1  UNL     1      -0.195  53.111   9.599  1.00  0.00     0.228 S 
HETATM   11  O1  UNL     1       0.918  54.100   9.222  1.00  0.00    -0.206 OA
HETATM   12  O2  UNL     1       0.570  51.907  10.105  1.00  0.00    -0.206 OA
BRANCH  10  13
HETATM   13  C2  UNL     1      -0.926  52.634   8.071  1.00  0.00     0.190 C 
BRANCH  13  14
HETATM   14  C1  UNL     1      -2.348  52.194   8.129  1.00  0.00     0.246 C 
BRANCH  14  15
HETATM   15  N1  UNL     1      -3.152  52.989   7.203  1.00  0.00    -0.078 N 
ATOM     16  H13 UNL     1      -2.834  53.957   7.154  1.00  0.00     0.274 HD
ATOM     17  H12 UNL     1      -2.985  52.729   6.230  1.00  0.00     0.274 HD
ATOM     18  H11 UNL     1      -4.139  52.921   7.454  1.00  0.00     0.274 HD
ENDBRANCH  14  15
ENDBRANCH  13  14
ENDBRANCH  10  13
ENDBRANCH   8  10
ENDBRANCH   1   8
BRANCH   7  19
HETATM   19  C10 UNL     1      -5.371  53.765  14.097  1.00  0.00     0.126 C 
BRANCH  19  20
HETATM   20  O3  UNL     1      -5.219  53.396  15.427  1.00  0.00    -0.395 OA
ATOM     21  H3  UNL     1      -5.147  54.108  16.053  1.00  0.00     0.210 HD
ENDBRANCH  19  20
BRANCH  19  22
HETATM   22  C11 UNL     1      -6.740  54.266  13.788  1.00  0.00     0.015 C 
HETATM   23  C12 UNL     1      -7.483  53.330  12.846  1.00  0.00     0.007 C 
HETATM   24  C13 UNL     1      -8.608  54.168  12.304  1.00  0.00     0.000 C 
HETATM   25  C14 UNL     1      -8.293  55.592  12.610  1.00  0.00     0.000 C 
HETATM   26  C15 UNL     1      -6.821  55.558  13.053  1.00  0.00     0.007 C 
ENDBRANCH  19  22
ENDBRANCH   7  19
TORSDOF 8
ENDMDL
