MODEL 1
REMARK VINA RESULT: -5.877815366      0.000      0.000
REMARK  2 active torsions:
REMARK  status: ('A' for Active; 'I' for Inactive)
REMARK    1  A    between atoms: C6_6  and  N1_7 
REMARK    2  A    between atoms: C15_21  and  O1_22 
ROOT
HETATM    1  N1  UNL     1      15.948  40.716  31.804  1.00  0.00    -0.227 N 
HETATM    2  N2  UNL     1      16.926  41.380  32.530  1.00  0.00    -0.099 NA
HETATM    3  C7  UNL     1      17.420  40.443  33.518  1.00  0.00     0.124 C 
HETATM    4  C8  UNL     1      18.811  39.981  33.132  1.00  0.00     0.051 C 
HETATM    5  C9  UNL     1      19.904  40.690  33.896  1.00  0.00     0.004 C 
HETATM    6  C10 UNL     1      19.734  40.375  35.368  1.00  0.00     0.000 C 
HETATM    7  C11 UNL     1      18.334  40.553  35.862  1.00  0.00     0.004 C 
HETATM    8  C12 UNL     1      17.407  41.165  34.838  1.00  0.00     0.051 C 
HETATM    9  N3  UNL     1      16.521  39.333  33.427  1.00  0.00    -0.338 N 
ATOM     10  H3  UNL     1      16.539  38.527  34.052  1.00  0.00     0.164 HD
HETATM   11  C13 UNL     1      15.672  39.482  32.440  1.00  0.00     0.209 C 
HETATM   12  N4  UNL     1      14.686  38.511  32.144  1.00  0.00    -0.062 NA
ENDROOT
BRANCH   1  13
HETATM   13  C6  UNL     1      15.330  41.220  30.632  1.00  0.00     0.088 A 
HETATM   14  C4  UNL     1      15.884  41.063  29.379  1.00  0.00    -0.031 A 
HETATM   15  C3  UNL     1      15.244  41.553  28.236  1.00  0.00     0.018 A 
HETATM   16  C5  UNL     1      17.169  40.386  29.174  1.00  0.00     0.050 C 
HETATM   17  C2  UNL     1      14.039  42.207  28.327  1.00  0.00    -0.026 A 
HETATM   18  C1  UNL     1      13.343  42.736  27.114  1.00  0.00     0.051 C 
HETATM   19  C15 UNL     1      13.469  42.376  29.555  1.00  0.00     0.098 A 
HETATM   20  C14 UNL     1      14.104  41.891  30.680  1.00  0.00     0.108 A 
HETATM   21  N5  UNL     1      13.531  42.045  31.986  1.00  0.00    -0.097 NA
BRANCH  19  22
HETATM   22  O1  UNL     1      12.249  43.034  29.671  1.00  0.00    -0.358 OA
ATOM     23  H1  UNL     1      11.751  42.971  30.478  1.00  0.00     0.217 HD
ENDBRANCH  19  22
ENDBRANCH   1  13
TORSDOF 2
ENDMDL
MODEL 2
REMARK VINA RESULT: -5.864447534      2.522      6.548
REMARK  2 active torsions:
REMARK  status: ('A' for Active; 'I' for Inactive)
REMARK    1  A    between atoms: C6_6  and  N1_7 
REMARK    2  A    between atoms: C15_21  and  O1_22 
ROOT
HETATM    1  N1  UNL     1      15.408  40.261  31.594  1.00  0.00    -0.227 N 
HETATM    2  N2  UNL     1      15.223  41.135  30.532  1.00  0.00    -0.099 NA
HETATM    3  C7  UNL     1      14.006  40.723  29.861  1.00  0.00     0.124 C 
HETATM    4  C8  UNL     1      12.903  41.722  30.146  1.00  0.00     0.051 C 
HETATM    5  C9  UNL     1      12.679  42.697  29.015  1.00  0.00     0.004 C 
HETATM    6  C10 UNL     1      12.249  41.912  27.792  1.00  0.00     0.000 C 
HETATM    7  C11 UNL     1      13.114  40.725  27.506  1.00  0.00     0.004 C 
HETATM    8  C12 UNL     1      14.332  40.640  28.394  1.00  0.00     0.051 C 
HETATM    9  N3  UNL     1      13.673  39.475  30.478  1.00  0.00    -0.338 N 
ATOM     10  H3  UNL     1      12.908  38.872  30.176  1.00  0.00     0.164 HD
HETATM   11  C13 UNL     1      14.474  39.204  31.478  1.00  0.00     0.209 C 
HETATM   12  N4  UNL     1      14.340  38.026  32.250  1.00  0.00    -0.062 NA
ENDROOT
BRANCH   1  13
HETATM   13  C6  UNL     1      16.390  40.416  32.604  1.00  0.00     0.088 A 
HETATM   14  C4  UNL     1      16.182  41.195  33.723  1.00  0.00    -0.031 A 
HETATM   15  C3  UNL     1      17.160  41.316  34.716  1.00  0.00     0.018 A 
HETATM   16  C5  UNL     1      14.938  41.944  33.931  1.00  0.00     0.050 C 
HETATM   17  C2  UNL     1      18.362  40.658  34.607  1.00  0.00    -0.026 A 
HETATM   18  C1  UNL     1      19.416  40.776  35.660  1.00  0.00     0.051 C 
HETATM   19  C15 UNL     1      18.592  39.880  33.510  1.00  0.00     0.098 A 
HETATM   20  C14 UNL     1      17.625  39.764  32.533  1.00  0.00     0.108 A 
HETATM   21  N5  UNL     1      17.831  38.950  31.369  1.00  0.00    -0.097 NA
BRANCH  19  22
HETATM   22  O1  UNL     1      19.801  39.203  33.379  1.00  0.00    -0.358 OA
ATOM     23  H1  UNL     1      19.815  38.322  33.023  1.00  0.00     0.217 HD
ENDBRANCH  19  22
ENDBRANCH   1  13
TORSDOF 2
ENDMDL
MODEL 3
REMARK VINA RESULT: -5.849855272      3.293      5.627
REMARK  2 active torsions:
REMARK  status: ('A' for Active; 'I' for Inactive)
REMARK    1  A    between atoms: C6_6  and  N1_7 
REMARK    2  A    between atoms: C15_21  and  O1_22 
ROOT
HETATM    1  N1  UNL     1      15.337  38.524  31.150  1.00  0.00    -0.227 N 
HETATM    2  N2  UNL     1      16.260  38.238  30.153  1.00  0.00    -0.099 NA
HETATM    3  C7  UNL     1      15.895  36.947  29.606  1.00  0.00     0.124 C 
HETATM    4  C8  UNL     1      15.298  37.129  28.224  1.00  0.00     0.051 C 
HETATM    5  C9  UNL     1      16.278  36.835  27.113  1.00  0.00     0.004 C 
HETATM    6  C10 UNL     1      16.693  35.382  27.219  1.00  0.00     0.000 C 
HETATM    7  C11 UNL     1      17.090  34.971  28.601  1.00  0.00     0.004 C 
HETATM    8  C12 UNL     1      17.153  36.122  29.577  1.00  0.00     0.051 C 
HETATM    9  N3  UNL     1      14.877  36.467  30.491  1.00  0.00    -0.338 N 
ATOM     10  H3  UNL     1      14.460  35.538  30.436  1.00  0.00     0.164 HD
HETATM   11  C13 UNL     1      14.550  37.371  31.380  1.00  0.00     0.209 C 
HETATM   12  N4  UNL     1      13.558  37.133  32.363  1.00  0.00    -0.062 NA
ENDROOT
BRANCH   1  13
HETATM   13  C6  UNL     1      15.234  39.767  31.821  1.00  0.00     0.088 A 
HETATM   14  C4  UNL     1      14.241  40.681  31.535  1.00  0.00    -0.031 A 
HETATM   15  C3  UNL     1      14.149  41.893  32.227  1.00  0.00     0.018 A 
HETATM   16  C5  UNL     1      13.237  40.441  30.494  1.00  0.00     0.050 C 
HETATM   17  C2  UNL     1      15.049  42.212  33.216  1.00  0.00    -0.026 A 
HETATM   18  C1  UNL     1      14.964  43.503  33.964  1.00  0.00     0.051 C 
HETATM   19  C15 UNL     1      16.040  41.325  33.518  1.00  0.00     0.098 A 
HETATM   20  C14 UNL     1      16.127  40.130  32.834  1.00  0.00     0.108 A 
HETATM   21  N5  UNL     1      17.154  39.172  33.129  1.00  0.00    -0.097 NA
BRANCH  19  22
HETATM   22  O1  UNL     1      16.962  41.625  34.517  1.00  0.00    -0.358 OA
ATOM     23  H1  UNL     1      17.290  40.936  35.083  1.00  0.00     0.217 HD
ENDBRANCH  19  22
ENDBRANCH   1  13
TORSDOF 2
ENDMDL
MODEL 4
REMARK VINA RESULT: -5.767445393      1.220      2.084
REMARK  2 active torsions:
REMARK  status: ('A' for Active; 'I' for Inactive)
REMARK    1  A    between atoms: C6_6  and  N1_7 
REMARK    2  A    between atoms: C15_21  and  O1_22 
ROOT
HETATM    1  N1  UNL     1      15.817  40.734  31.855  1.00  0.00    -0.227 N 
HETATM    2  N2  UNL     1      16.799  41.393  32.582  1.00  0.00    -0.099 NA
HETATM    3  C7  UNL     1      17.334  40.433  33.526  1.00  0.00     0.124 C 
HETATM    4  C8  UNL     1      18.725  40.013  33.093  1.00  0.00     0.051 C 
HETATM    5  C9  UNL     1      19.821  40.718  33.856  1.00  0.00     0.004 C 
HETATM    6  C10 UNL     1      19.692  40.350  35.320  1.00  0.00     0.000 C 
HETATM    7  C11 UNL     1      18.300  40.482  35.851  1.00  0.00     0.004 C 
HETATM    8  C12 UNL     1      17.338  41.109  34.870  1.00  0.00     0.051 C 
HETATM    9  N3  UNL     1      16.455  39.308  33.416  1.00  0.00    -0.338 N 
ATOM     10  H3  UNL     1      16.503  38.482  34.012  1.00  0.00     0.164 HD
HETATM   11  C13 UNL     1      15.581  39.474  32.455  1.00  0.00     0.209 C 
HETATM   12  N4  UNL     1      14.608  38.493  32.148  1.00  0.00    -0.062 NA
ENDROOT
BRANCH   1  13
HETATM   13  C6  UNL     1      15.163  41.265  30.717  1.00  0.00     0.088 A 
HETATM   14  C4  UNL     1      13.902  41.820  30.781  1.00  0.00    -0.031 A 
HETATM   15  C3  UNL     1      13.286  42.357  29.646  1.00  0.00     0.018 A 
HETATM   16  C5  UNL     1      13.137  41.873  32.031  1.00  0.00     0.050 C 
HETATM   17  C2  UNL     1      13.920  42.347  28.427  1.00  0.00    -0.026 A 
HETATM   18  C1  UNL     1      13.275  42.917  27.205  1.00  0.00     0.051 C 
HETATM   19  C15 UNL     1      15.169  41.805  28.336  1.00  0.00     0.098 A 
HETATM   20  C14 UNL     1      15.774  41.277  29.459  1.00  0.00     0.108 A 
HETATM   21  N5  UNL     1      17.087  40.703  29.400  1.00  0.00    -0.097 NA
BRANCH  19  22
HETATM   22  O1  UNL     1      15.832  41.786  27.113  1.00  0.00    -0.358 OA
ATOM     23  H1  UNL     1      16.573  42.362  26.966  1.00  0.00     0.217 HD
ENDBRANCH  19  22
ENDBRANCH   1  13
TORSDOF 2
ENDMDL
MODEL 5
REMARK VINA RESULT: -5.744737838      3.477      5.845
REMARK  2 active torsions:
REMARK  status: ('A' for Active; 'I' for Inactive)
REMARK    1  A    between atoms: C6_6  and  N1_7 
REMARK    2  A    between atoms: C15_21  and  O1_22 
ROOT
HETATM    1  N1  UNL     1      16.084  39.392  30.046  1.00  0.00    -0.227 N 
HETATM    2  N2  UNL     1      15.672  38.068  29.977  1.00  0.00    -0.099 NA
HETATM    3  C7  UNL     1      16.340  37.484  28.831  1.00  0.00     0.124 C 
HETATM    4  C8  UNL     1      17.425  36.537  29.302  1.00  0.00     0.051 C 
HETATM    5  C9  UNL     1      17.009  35.086  29.250  1.00  0.00     0.004 C 
HETATM    6  C10 UNL     1      16.717  34.728  27.808  1.00  0.00     0.000 C 
HETATM    7  C11 UNL     1      15.832  35.715  27.113  1.00  0.00     0.004 C 
HETATM    8  C12 UNL     1      15.279  36.778  28.031  1.00  0.00     0.051 C 
HETATM    9  N3  UNL     1      16.950  38.600  28.176  1.00  0.00    -0.338 N 
ATOM     10  H3  UNL     1      17.434  38.545  27.280  1.00  0.00     0.164 HD
HETATM   11  C13 UNL     1      16.809  39.701  28.871  1.00  0.00     0.209 C 
HETATM   12  N4  UNL     1      17.335  40.940  28.431  1.00  0.00    -0.062 NA
ENDROOT
BRANCH   1  13
HETATM   13  C6  UNL     1      15.796  40.271  31.119  1.00  0.00     0.088 A 
HETATM   14  C4  UNL     1      14.697  41.105  31.116  1.00  0.00    -0.031 A 
HETATM   15  C3  UNL     1      14.424  41.950  32.197  1.00  0.00     0.018 A 
HETATM   16  C5  UNL     1      13.764  41.161  29.986  1.00  0.00     0.050 C 
HETATM   17  C2  UNL     1      15.245  41.974  33.299  1.00  0.00    -0.026 A 
HETATM   18  C1  UNL     1      14.966  42.870  34.463  1.00  0.00     0.051 C 
HETATM   19  C15 UNL     1      16.338  41.159  33.328  1.00  0.00     0.098 A 
HETATM   20  C14 UNL     1      16.604  40.327  32.259  1.00  0.00     0.108 A 
HETATM   21  N5  UNL     1      17.741  39.452  32.258  1.00  0.00    -0.097 NA
BRANCH  19  22
HETATM   22  O1  UNL     1      17.182  41.164  34.434  1.00  0.00    -0.358 OA
ATOM     23  H1  UNL     1      17.954  40.611  34.445  1.00  0.00     0.217 HD
ENDBRANCH  19  22
ENDBRANCH   1  13
TORSDOF 2
ENDMDL
