MODEL 1
REMARK VINA RESULT: -7.944572418      0.000      0.000
REMARK  7 active torsions:
REMARK  status: ('A' for Active; 'I' for Inactive)
REMARK    1  A    between atoms: C1_2  and  C2_3 
REMARK    2  A    between atoms: C1_2  and  O5_19 
REMARK    3  A    between atoms: C2_3  and  C3_4 
REMARK    4  A    between atoms: C3_4  and  C4_5 
REMARK    5  A    between atoms: C3_4  and  C11_14 
REMARK    6  A    between atoms: O5_19  and  N1_20 
REMARK    7  A    between atoms: N1_20  and  C15_22 
ROOT
HETATM    1  C3  UNL     1       7.408  38.048  58.700  1.00  0.00     0.014 C 
ENDROOT
BRANCH   1   2
HETATM    2  C2  UNL     1       6.937  37.616  57.591  1.00  0.00     0.099 C 
BRANCH   2   3
HETATM    3  C1  UNL     1       5.685  37.111  57.130  1.00  0.00     0.305 C 
HETATM    4  O1  UNL     1       4.672  37.915  57.241  1.00  0.00    -0.258 OA
BRANCH   3   5
HETATM    5  O5  UNL     1       5.384  35.920  56.583  1.00  0.00    -0.195 OA
BRANCH   5   6
HETATM    6  N1  UNL     1       4.252  35.712  55.837  1.00  0.00    -0.258 N 
ATOM      7  H1  UNL     1       3.360  35.634  56.325  1.00  0.00     0.195 HD
BRANCH   6   8
HETATM    8  C15 UNL     1       4.256  35.611  54.578  1.00  0.00     0.195 C 
HETATM    9  S1  UNL     1       3.844  35.249  53.049  1.00  0.00    -0.072 SA
ENDBRANCH   6   8
ENDBRANCH   5   6
ENDBRANCH   3   5
ENDBRANCH   2   3
ENDBRANCH   1   2
BRANCH   1  10
HETATM   10  C4  UNL     1       8.528  39.030  58.670  1.00  0.00    -0.020 A 
HETATM   11  C5  UNL     1       8.893  39.613  57.485  1.00  0.00     0.015 A 
HETATM   12  C6  UNL     1       9.895  40.607  57.455  1.00  0.00     0.040 A 
HETATM   13  C7  UNL     1      10.508  40.992  58.617  1.00  0.00     0.105 A 
HETATM   14  C8  UNL     1      10.168  40.429  59.820  1.00  0.00     0.105 A 
HETATM   15  O3  UNL     1      11.505  41.925  58.882  1.00  0.00    -0.323 OA
HETATM   16  C9  UNL     1       9.174  39.451  59.814  1.00  0.00     0.052 A 
HETATM   17  O2  UNL     1      10.945  41.008  60.808  1.00  0.00    -0.323 OA
HETATM   18  C10 UNL     1      12.012  41.746  60.193  1.00  0.00     0.352 C 
ENDBRANCH   1  10
BRANCH   1  19
HETATM   19  C11 UNL     1       6.888  37.778  60.022  1.00  0.00     0.086 A 
HETATM   20  C12 UNL     1       7.393  37.046  61.062  1.00  0.00     0.040 A 
HETATM   21  C13 UNL     1       6.526  37.094  62.162  1.00  0.00     0.027 A 
HETATM   22  C14 UNL     1       5.499  37.880  61.716  1.00  0.00     0.142 A 
HETATM   23  O4  UNL     1       5.730  38.256  60.496  1.00  0.00    -0.322 OA
ENDBRANCH   1  19
TORSDOF 7
ENDMDL
MODEL 2
REMARK VINA RESULT: -7.907937821      4.449      7.798
REMARK  7 active torsions:
REMARK  status: ('A' for Active; 'I' for Inactive)
REMARK    1  A    between atoms: C1_2  and  C2_3 
REMARK    2  A    between atoms: C1_2  and  O5_19 
REMARK    3  A    between atoms: C2_3  and  C3_4 
REMARK    4  A    between atoms: C3_4  and  C4_5 
REMARK    5  A    between atoms: C3_4  and  C11_14 
REMARK    6  A    between atoms: O5_19  and  N1_20 
REMARK    7  A    between atoms: N1_20  and  C15_22 
ROOT
HETATM    1  C3  UNL     1      10.662  41.022  58.149  1.00  0.00     0.014 C 
ENDROOT
BRANCH   1   2
HETATM    2  C2  UNL     1      11.611  41.203  58.988  1.00  0.00     0.099 C 
BRANCH   2   3
HETATM    3  C1  UNL     1      12.069  42.273  59.812  1.00  0.00     0.305 C 
HETATM    4  O1  UNL     1      12.006  42.070  61.093  1.00  0.00    -0.258 OA
BRANCH   3   5
HETATM    5  O5  UNL     1      12.569  43.473  59.470  1.00  0.00    -0.195 OA
BRANCH   5   6
HETATM    6  N1  UNL     1      13.582  43.622  58.557  1.00  0.00    -0.258 N 
ATOM      7  H1  UNL     1      14.519  43.316  58.822  1.00  0.00     0.195 HD
BRANCH   6   8
HETATM    8  C15 UNL     1      13.419  44.116  57.407  1.00  0.00     0.195 C 
HETATM    9  S1  UNL     1      13.078  45.138  56.191  1.00  0.00    -0.072 SA
ENDBRANCH   6   8
ENDBRANCH   5   6
ENDBRANCH   3   5
ENDBRANCH   2   3
ENDBRANCH   1   2
BRANCH   1  10
HETATM   10  C4  UNL     1       9.601  40.024  58.468  1.00  0.00    -0.020 A 
HETATM   11  C5  UNL     1       8.750  39.597  57.483  1.00  0.00     0.015 A 
HETATM   12  C6  UNL     1       7.796  38.591  57.750  1.00  0.00     0.040 A 
HETATM   13  C7  UNL     1       7.719  38.039  59.000  1.00  0.00     0.105 A 
HETATM   14  C8  UNL     1       8.555  38.444  60.009  1.00  0.00     0.105 A 
HETATM   15  O3  UNL     1       6.896  37.054  59.537  1.00  0.00    -0.323 OA
HETATM   16  C9  UNL     1       9.486  39.439  59.711  1.00  0.00     0.052 A 
HETATM   17  O2  UNL     1       8.248  37.719  61.147  1.00  0.00    -0.323 OA
HETATM   18  C10 UNL     1       6.997  37.042  60.950  1.00  0.00     0.352 C 
ENDBRANCH   1  10
BRANCH   1  19
HETATM   19  C11 UNL     1      10.421  41.780  56.941  1.00  0.00     0.086 A 
HETATM   20  C12 UNL     1       9.786  42.974  56.732  1.00  0.00     0.040 A 
HETATM   21  C13 UNL     1       9.822  43.317  55.375  1.00  0.00     0.027 A 
HETATM   22  C14 UNL     1      10.500  42.273  54.806  1.00  0.00     0.142 A 
HETATM   23  O4  UNL     1      10.829  41.413  55.720  1.00  0.00    -0.322 OA
ENDBRANCH   1  19
TORSDOF 7
ENDMDL
MODEL 3
REMARK VINA RESULT: -7.861843592      3.363      4.403
REMARK  7 active torsions:
REMARK  status: ('A' for Active; 'I' for Inactive)
REMARK    1  A    between atoms: C1_2  and  C2_3 
REMARK    2  A    between atoms: C1_2  and  O5_19 
REMARK    3  A    between atoms: C2_3  and  C3_4 
REMARK    4  A    between atoms: C3_4  and  C4_5 
REMARK    5  A    between atoms: C3_4  and  C11_14 
REMARK    6  A    between atoms: O5_19  and  N1_20 
REMARK    7  A    between atoms: N1_20  and  C15_22 
ROOT
HETATM    1  C3  UNL     1       8.857  39.206  59.061  1.00  0.00     0.014 C 
ENDROOT
BRANCH   1   2
HETATM    2  C2  UNL     1       7.929  38.527  58.500  1.00  0.00     0.099 C 
BRANCH   2   3
HETATM    3  C1  UNL     1       6.804  37.765  58.932  1.00  0.00     0.305 C 
HETATM    4  O1  UNL     1       6.335  36.909  58.076  1.00  0.00    -0.258 OA
BRANCH   3   5
HETATM    5  O5  UNL     1       6.144  37.788  60.103  1.00  0.00    -0.195 OA
BRANCH   5   6
HETATM    6  N1  UNL     1       6.547  37.062  61.195  1.00  0.00    -0.258 N 
ATOM      7  H1  UNL     1       7.187  36.282  61.047  1.00  0.00     0.195 HD
BRANCH   6   8
HETATM    8  C15 UNL     1       6.167  37.308  62.375  1.00  0.00     0.195 C 
HETATM    9  S1  UNL     1       5.700  37.140  63.922  1.00  0.00    -0.072 SA
ENDBRANCH   6   8
ENDBRANCH   5   6
ENDBRANCH   3   5
ENDBRANCH   2   3
ENDBRANCH   1   2
BRANCH   1  10
HETATM   10  C4  UNL     1       9.358  40.435  58.383  1.00  0.00    -0.020 A 
HETATM   11  C5  UNL     1       8.722  41.633  58.585  1.00  0.00     0.015 A 
HETATM   12  C6  UNL     1       9.235  42.819  58.017  1.00  0.00     0.040 A 
HETATM   13  C7  UNL     1      10.375  42.775  57.260  1.00  0.00     0.105 A 
HETATM   14  C8  UNL     1      11.036  41.594  57.038  1.00  0.00     0.105 A 
HETATM   15  O3  UNL     1      11.092  43.764  56.593  1.00  0.00    -0.323 OA
HETATM   16  C9  UNL     1      10.503  40.441  57.614  1.00  0.00     0.052 A 
HETATM   17  O2  UNL     1      12.140  41.855  56.246  1.00  0.00    -0.323 OA
HETATM   18  C10 UNL     1      12.027  43.180  55.704  1.00  0.00     0.352 C 
ENDBRANCH   1  10
BRANCH   1  19
HETATM   19  C11 UNL     1       9.416  38.983  60.377  1.00  0.00     0.086 A 
HETATM   20  C12 UNL     1      10.050  39.828  61.247  1.00  0.00     0.040 A 
HETATM   21  C13 UNL     1      10.399  39.149  62.422  1.00  0.00     0.027 A 
HETATM   22  C14 UNL     1       9.943  37.879  62.195  1.00  0.00     0.142 A 
HETATM   23  O4  UNL     1       9.389  37.811  61.025  1.00  0.00    -0.322 OA
ENDBRANCH   1  19
TORSDOF 7
ENDMDL
MODEL 4
REMARK VINA RESULT: -7.727968322      1.796      2.349
REMARK  7 active torsions:
REMARK  status: ('A' for Active; 'I' for Inactive)
REMARK    1  A    between atoms: C1_2  and  C2_3 
REMARK    2  A    between atoms: C1_2  and  O5_19 
REMARK    3  A    between atoms: C2_3  and  C3_4 
REMARK    4  A    between atoms: C3_4  and  C4_5 
REMARK    5  A    between atoms: C3_4  and  C11_14 
REMARK    6  A    between atoms: O5_19  and  N1_20 
REMARK    7  A    between atoms: N1_20  and  C15_22 
ROOT
HETATM    1  C3  UNL     1       8.163  38.864  58.293  1.00  0.00     0.014 C 
ENDROOT
BRANCH   1   2
HETATM    2  C2  UNL     1       7.353  38.363  57.439  1.00  0.00     0.099 C 
BRANCH   2   3
HETATM    3  C1  UNL     1       6.117  37.652  57.484  1.00  0.00     0.305 C 
HETATM    4  O1  UNL     1       5.148  38.235  58.122  1.00  0.00    -0.258 OA
BRANCH   3   5
HETATM    5  O5  UNL     1       5.788  36.460  56.957  1.00  0.00    -0.195 OA
BRANCH   5   6
HETATM    6  N1  UNL     1       4.634  36.257  56.243  1.00  0.00    -0.258 N 
ATOM      7  H1  UNL     1       3.757  36.600  56.636  1.00  0.00     0.195 HD
BRANCH   6   8
HETATM    8  C15 UNL     1       4.599  35.669  55.126  1.00  0.00     0.195 C 
HETATM    9  S1  UNL     1       4.219  35.252  53.603  1.00  0.00    -0.072 SA
ENDBRANCH   6   8
ENDBRANCH   5   6
ENDBRANCH   3   5
ENDBRANCH   2   3
ENDBRANCH   1   2
BRANCH   1  10
HETATM   10  C4  UNL     1       8.840  40.152  57.971  1.00  0.00    -0.020 A 
HETATM   11  C5  UNL     1       8.546  41.277  58.698  1.00  0.00     0.015 A 
HETATM   12  C6  UNL     1       9.240  42.483  58.460  1.00  0.00     0.040 A 
HETATM   13  C7  UNL     1      10.214  42.531  57.499  1.00  0.00     0.105 A 
HETATM   14  C8  UNL     1      10.532  41.425  56.754  1.00  0.00     0.105 A 
HETATM   15  O3  UNL     1      11.041  43.559  57.059  1.00  0.00    -0.323 OA
HETATM   16  C9  UNL     1       9.828  40.250  57.014  1.00  0.00     0.052 A 
HETATM   17  O2  UNL     1      11.540  41.770  55.870  1.00  0.00    -0.323 OA
HETATM   18  C10 UNL     1      11.670  43.200  55.842  1.00  0.00     0.352 C 
ENDBRANCH   1  10
BRANCH   1  19
HETATM   19  C11 UNL     1       8.420  38.375  59.630  1.00  0.00     0.086 A 
HETATM   20  C12 UNL     1       9.526  38.467  60.430  1.00  0.00     0.040 A 
HETATM   21  C13 UNL     1       9.290  37.846  61.664  1.00  0.00     0.027 A 
HETATM   22  C14 UNL     1       8.005  37.390  61.544  1.00  0.00     0.142 A 
HETATM   23  O4  UNL     1       7.534  37.704  60.377  1.00  0.00    -0.322 OA
ENDBRANCH   1  19
TORSDOF 7
ENDMDL
MODEL 5
REMARK VINA RESULT: -7.694169992      4.356      6.376
REMARK  7 active torsions:
REMARK  status: ('A' for Active; 'I' for Inactive)
REMARK    1  A    between atoms: C1_2  and  C2_3 
REMARK    2  A    between atoms: C1_2  and  O5_19 
REMARK    3  A    between atoms: C2_3  and  C3_4 
REMARK    4  A    between atoms: C3_4  and  C4_5 
REMARK    5  A    between atoms: C3_4  and  C11_14 
REMARK    6  A    between atoms: O5_19  and  N1_20 
REMARK    7  A    between atoms: N1_20  and  C15_22 
ROOT
HETATM    1  C3  UNL     1       9.149  40.221  59.006  1.00  0.00     0.014 C 
ENDROOT
BRANCH   1   2
HETATM    2  C2  UNL     1       9.469  40.498  60.213  1.00  0.00     0.099 C 
BRANCH   2   3
HETATM    3  C1  UNL     1      10.638  40.385  61.022  1.00  0.00     0.305 C 
HETATM    4  O1  UNL     1      10.516  39.673  62.101  1.00  0.00    -0.258 OA
BRANCH   3   5
HETATM    5  O5  UNL     1      11.867  40.900  60.841  1.00  0.00    -0.195 OA
BRANCH   5   6
HETATM    6  N1  UNL     1      12.104  42.249  60.775  1.00  0.00    -0.258 N 
ATOM      7  H1  UNL     1      12.059  42.789  61.640  1.00  0.00     0.195 HD
BRANCH   6   8
HETATM    8  C15 UNL     1      12.374  42.859  59.703  1.00  0.00     0.195 C 
HETATM    9  S1  UNL     1      13.175  43.542  58.466  1.00  0.00    -0.072 SA
ENDBRANCH   6   8
ENDBRANCH   5   6
ENDBRANCH   3   5
ENDBRANCH   2   3
ENDBRANCH   1   2
BRANCH   1  10
HETATM   10  C4  UNL     1       9.835  40.941  57.896  1.00  0.00    -0.020 A 
HETATM   11  C5  UNL     1      10.853  40.327  57.214  1.00  0.00     0.015 A 
HETATM   12  C6  UNL     1      11.456  40.963  56.107  1.00  0.00     0.040 A 
HETATM   13  C7  UNL     1      11.023  42.200  55.712  1.00  0.00     0.105 A 
HETATM   14  C8  UNL     1      10.007  42.842  56.373  1.00  0.00     0.105 A 
HETATM   15  O3  UNL     1      11.423  43.045  54.681  1.00  0.00    -0.323 OA
HETATM   16  C9  UNL     1       9.433  42.186  57.462  1.00  0.00     0.052 A 
HETATM   17  O2  UNL     1       9.789  44.062  55.757  1.00  0.00    -0.323 OA
HETATM   18  C10 UNL     1      10.879  44.339  54.865  1.00  0.00     0.352 C 
ENDBRANCH   1  10
BRANCH   1  19
HETATM   19  C11 UNL     1       8.253  39.172  58.570  1.00  0.00     0.086 A 
HETATM   20  C12 UNL     1       7.760  38.858  57.332  1.00  0.00     0.040 A 
HETATM   21  C13 UNL     1       6.933  37.730  57.406  1.00  0.00     0.027 A 
HETATM   22  C14 UNL     1       6.965  37.406  58.735  1.00  0.00     0.142 A 
HETATM   23  O4  UNL     1       7.723  38.242  59.375  1.00  0.00    -0.322 OA
ENDBRANCH   1  19
TORSDOF 7
ENDMDL
