MODEL 1
REMARK VINA RESULT: -9.270818692      0.000      0.000
REMARK  15 active torsions:
REMARK  status: ('A' for Active; 'I' for Inactive)
REMARK    1  A    between atoms: C2_2  and  C3_3 
REMARK    2  A    between atoms: C2_2  and  C27_45 
REMARK    3  A    between atoms: C3_3  and  C4_4 
REMARK    4  A    between atoms: C4_4  and  C5_5 
REMARK    5  A    between atoms: C5_5  and  N1_6 
REMARK    6  A    between atoms: C7_13  and  C8_14 
REMARK    7  A    between atoms: C8_14  and  C9_15 
REMARK    8  A    between atoms: C9_15  and  C10_16 
REMARK    9  A    between atoms: C10_16  and  C11_17 
REMARK   10  A    between atoms: C11_17  and  C12_18 
REMARK   11  A    between atoms: C14_22  and  N5_23 
REMARK       I    between atoms: N5_23  and  C15_25 
REMARK   12  A    between atoms: C15_25  and  C16_27 
REMARK   13  A    between atoms: C16_27  and  N6_28 
REMARK       I    between atoms: N6_28  and  C17_30 
REMARK   14  A    between atoms: C17_30  and  C18_32 
REMARK   15  A    between atoms: N7_36  and  C22_37 
ROOT
HETATM    1  C12 UNL     1      20.622  24.940  20.347  1.00  0.00     0.001 A 
HETATM    2  C13 UNL     1      20.997  26.120  19.755  1.00  0.00     0.104 A 
HETATM    3  N4  UNL     1      22.180  26.192  19.241  1.00  0.00    -0.345 N 
ATOM      4  H4  UNL     1      22.495  27.052  18.791  1.00  0.00     0.167 HD
HETATM    5  C14 UNL     1      22.989  25.128  19.303  1.00  0.00     0.151 A 
HETATM    6  S1  UNL     1      22.021  23.982  20.127  1.00  0.00    -0.057 SA
ENDROOT
BRANCH   1   7
HETATM    7  C11 UNL     1      19.309  24.640  20.992  1.00  0.00     0.048 C 
BRANCH   7   8
HETATM    8  C10 UNL     1      18.457  23.866  20.016  1.00  0.00     0.006 C 
BRANCH   8   9
HETATM    9  C9  UNL     1      17.954  22.577  20.629  1.00  0.00     0.007 C 
BRANCH   9  10
HETATM   10  C8  UNL     1      17.607  21.565  19.551  1.00  0.00     0.066 C 
BRANCH  10  11
HETATM   11  C7  UNL     1      16.389  22.089  18.836  1.00  0.00     0.069 A 
HETATM   12  N3  UNL     1      15.237  22.468  19.374  1.00  0.00    -0.296 N 
HETATM   13  N2  UNL     1      14.292  22.882  18.639  1.00  0.00    -0.279 N 
ATOM     14  H3  UNL     1      15.111  22.425  20.385  1.00  0.00     0.187 HD
HETATM   15  C6  UNL     1      14.477  22.929  17.317  1.00  0.00     0.161 A 
ATOM     16  H2  UNL     1      13.405  23.173  19.050  1.00  0.00     0.189 HD
HETATM   17  N1  UNL     1      13.626  23.325  16.397  1.00  0.00    -0.369 N 
HETATM   18  S2  UNL     1      16.080  22.349  17.171  1.00  0.00    -0.038 SA
ATOM     19  H1  UNL     1      12.690  23.652  16.634  1.00  0.00     0.161 HD
BRANCH  17  20
HETATM   20  C5  UNL     1      14.093  23.270  15.031  1.00  0.00     0.121 C 
BRANCH  20  21
HETATM   21  C4  UNL     1      12.967  22.667  14.196  1.00  0.00     0.020 C 
BRANCH  21  22
HETATM   22  C3  UNL     1      13.281  21.186  14.048  1.00  0.00     0.013 C 
BRANCH  22  23
HETATM   23  C2  UNL     1      12.178  20.348  14.675  1.00  0.00     0.049 C 
HETATM   24  C1  UNL     1      10.920  21.160  14.666  1.00  0.00     0.018 C 
BRANCH  23  25
HETATM   25  C27 UNL     1      12.585  19.976  16.065  1.00  0.00     0.084 A 
HETATM   26  N8  UNL     1      13.805  19.480  16.294  1.00  0.00    -0.355 N 
HETATM   27  C28 UNL     1      14.197  19.133  17.517  1.00  0.00     0.090 A 
ATOM     28  H8  UNL     1      14.450  19.364  15.512  1.00  0.00     0.166 HD
HETATM   29  C29 UNL     1      13.336  19.280  18.598  1.00  0.00     0.034 A 
HETATM   30  C30 UNL     1      12.088  19.793  18.335  1.00  0.00     0.090 A 
HETATM   31  N9  UNL     1      11.740  20.128  17.090  1.00  0.00    -0.355 N 
ATOM     32  H9  UNL     1      10.809  20.508  16.918  1.00  0.00     0.166 HD
ENDBRANCH  23  25
ENDBRANCH  22  23
ENDBRANCH  21  22
ENDBRANCH  20  21
ENDBRANCH  17  20
ENDBRANCH  10  11
ENDBRANCH   9  10
ENDBRANCH   8   9
ENDBRANCH   7   8
ENDBRANCH   1   7
BRANCH   5  33
HETATM   33  N5  UNL     1      24.213  25.048  18.835  1.00  0.00    -0.305 N 
HETATM   34  C15 UNL     1      24.877  26.204  18.441  1.00  0.00     0.252 C 
HETATM   35  O1  UNL     1      25.058  27.127  19.267  1.00  0.00    -0.270 OA
ATOM     36  H5  UNL     1      24.675  24.142  18.760  1.00  0.00     0.171 HD
BRANCH  34  37
HETATM   37  C16 UNL     1      25.408  26.417  17.055  1.00  0.00     0.114 C 
HETATM   38  C23 UNL     1      26.566  25.432  16.898  1.00  0.00     0.041 C 
HETATM   39  C24 UNL     1      27.811  26.247  17.078  1.00  0.00     0.003 C 
HETATM   40  C25 UNL     1      27.488  27.647  16.693  1.00  0.00     0.003 C 
HETATM   41  C26 UNL     1      26.003  27.764  16.874  1.00  0.00     0.041 C 
BRANCH  37  42
HETATM   42  N6  UNL     1      24.341  26.090  16.127  1.00  0.00    -0.341 N 
HETATM   43  C17 UNL     1      23.193  26.917  15.977  1.00  0.00     0.241 C 
HETATM   44  O2  UNL     1      23.128  27.957  16.672  1.00  0.00    -0.271 OA
ATOM     45  H6  UNL     1      24.417  25.241  15.565  1.00  0.00     0.163 HD
BRANCH  43  46
HETATM   46  C18 UNL     1      22.068  26.624  15.058  1.00  0.00     0.178 C 
HETATM   47  C19 UNL     1      21.599  27.786  14.254  1.00  0.00     0.037 C 
HETATM   48  C20 UNL     1      20.114  27.861  14.525  1.00  0.00     0.022 C 
HETATM   49  C21 UNL     1      19.862  26.983  15.718  1.00  0.00     0.126 C 
HETATM   50  N7  UNL     1      20.955  26.046  15.757  1.00  0.00    -0.346 N 
BRANCH  50  51
HETATM   51  C22 UNL     1      20.962  24.768  16.371  1.00  0.00     0.351 C 
HETATM   52  O3  UNL     1      19.921  24.226  16.836  1.00  0.00    -0.284 OA
ENDBRANCH  50  51
ENDBRANCH  43  46
ENDBRANCH  37  42
ENDBRANCH  34  37
ENDBRANCH   5  33
TORSDOF 15
ENDMDL
MODEL 2
REMARK VINA RESULT: -9.266599366      2.829     10.365
REMARK  15 active torsions:
REMARK  status: ('A' for Active; 'I' for Inactive)
REMARK    1  A    between atoms: C2_2  and  C3_3 
REMARK    2  A    between atoms: C2_2  and  C27_45 
REMARK    3  A    between atoms: C3_3  and  C4_4 
REMARK    4  A    between atoms: C4_4  and  C5_5 
REMARK    5  A    between atoms: C5_5  and  N1_6 
REMARK    6  A    between atoms: C7_13  and  C8_14 
REMARK    7  A    between atoms: C8_14  and  C9_15 
REMARK    8  A    between atoms: C9_15  and  C10_16 
REMARK    9  A    between atoms: C10_16  and  C11_17 
REMARK   10  A    between atoms: C11_17  and  C12_18 
REMARK   11  A    between atoms: C14_22  and  N5_23 
REMARK       I    between atoms: N5_23  and  C15_25 
REMARK   12  A    between atoms: C15_25  and  C16_27 
REMARK   13  A    between atoms: C16_27  and  N6_28 
REMARK       I    between atoms: N6_28  and  C17_30 
REMARK   14  A    between atoms: C17_30  and  C18_32 
REMARK   15  A    between atoms: N7_36  and  C22_37 
ROOT
HETATM    1  C12 UNL     1      17.828  23.251  19.620  1.00  0.00     0.001 A 
HETATM    2  C13 UNL     1      16.911  23.822  18.773  1.00  0.00     0.104 A 
HETATM    3  N4  UNL     1      16.377  23.075  17.865  1.00  0.00    -0.345 N 
ATOM      4  H4  UNL     1      15.691  23.462  17.217  1.00  0.00     0.167 HD
HETATM    5  C14 UNL     1      16.731  21.787  17.781  1.00  0.00     0.151 A 
HETATM    6  S1  UNL     1      17.870  21.641  19.050  1.00  0.00    -0.057 SA
ENDROOT
BRANCH   1   7
HETATM    7  C11 UNL     1      18.556  23.926  20.736  1.00  0.00     0.048 C 
BRANCH   7   8
HETATM    8  C10 UNL     1      19.838  24.509  20.195  1.00  0.00     0.006 C 
BRANCH   8   9
HETATM    9  C9  UNL     1      20.944  23.477  20.171  1.00  0.00     0.007 C 
BRANCH   9  10
HETATM   10  C8  UNL     1      22.137  23.945  20.986  1.00  0.00     0.066 C 
BRANCH  10  11
HETATM   11  C7  UNL     1      23.152  24.474  20.008  1.00  0.00     0.069 A 
HETATM   12  N3  UNL     1      24.280  23.894  19.618  1.00  0.00    -0.296 N 
HETATM   13  N2  UNL     1      25.044  24.469  18.788  1.00  0.00    -0.279 N 
ATOM     14  H3  UNL     1      24.533  22.978  19.990  1.00  0.00     0.187 HD
HETATM   15  C6  UNL     1      24.695  25.668  18.314  1.00  0.00     0.161 A 
ATOM     16  H2  UNL     1      25.912  24.025  18.488  1.00  0.00     0.189 HD
HETATM   17  N1  UNL     1      25.348  26.417  17.455  1.00  0.00    -0.369 N 
HETATM   18  S2  UNL     1      23.208  25.938  19.117  1.00  0.00    -0.038 SA
ATOM     19  H1  UNL     1      26.237  26.123  17.050  1.00  0.00     0.161 HD
BRANCH  17  20
HETATM   20  C5  UNL     1      24.735  27.681  17.116  1.00  0.00     0.121 C 
BRANCH  20  21
HETATM   21  C4  UNL     1      24.165  27.540  15.707  1.00  0.00     0.020 C 
BRANCH  21  22
HETATM   22  C3  UNL     1      22.658  27.710  15.830  1.00  0.00     0.013 C 
BRANCH  22  23
HETATM   23  C2  UNL     1      21.964  27.155  14.597  1.00  0.00     0.049 C 
HETATM   24  C1  UNL     1      21.372  28.306  13.843  1.00  0.00     0.018 C 
BRANCH  23  25
HETATM   25  C27 UNL     1      20.913  26.182  15.032  1.00  0.00     0.084 A 
HETATM   26  N8  UNL     1      21.251  24.924  15.329  1.00  0.00    -0.355 N 
HETATM   27  C28 UNL     1      20.342  24.032  15.712  1.00  0.00     0.090 A 
ATOM     28  H8  UNL     1      22.229  24.641  15.260  1.00  0.00     0.166 HD
HETATM   29  C29 UNL     1      19.003  24.392  15.813  1.00  0.00     0.034 A 
HETATM   30  C30 UNL     1      18.683  25.692  15.501  1.00  0.00     0.090 A 
HETATM   31  N9  UNL     1      19.631  26.553  15.122  1.00  0.00    -0.355 N 
ATOM     32  H9  UNL     1      19.372  27.513  14.896  1.00  0.00     0.166 HD
ENDBRANCH  23  25
ENDBRANCH  22  23
ENDBRANCH  21  22
ENDBRANCH  20  21
ENDBRANCH  17  20
ENDBRANCH  10  11
ENDBRANCH   9  10
ENDBRANCH   8   9
ENDBRANCH   7   8
ENDBRANCH   1   7
BRANCH   5  33
HETATM   33  N5  UNL     1      16.284  20.908  16.915  1.00  0.00    -0.305 N 
HETATM   34  C15 UNL     1      15.778  21.339  15.694  1.00  0.00     0.252 C 
HETATM   35  O1  UNL     1      16.505  22.003  14.921  1.00  0.00    -0.270 OA
ATOM     36  H5  UNL     1      16.308  19.913  17.137  1.00  0.00     0.171 HD
BRANCH  34  37
HETATM   37  C16 UNL     1      14.381  21.047  15.232  1.00  0.00     0.114 C 
HETATM   38  C23 UNL     1      14.487  20.784  13.730  1.00  0.00     0.041 C 
HETATM   39  C24 UNL     1      14.022  22.047  13.070  1.00  0.00     0.003 C 
HETATM   40  C25 UNL     1      13.095  22.728  14.013  1.00  0.00     0.003 C 
HETATM   41  C26 UNL     1      13.480  22.216  15.371  1.00  0.00     0.041 C 
BRANCH  37  42
HETATM   42  N6  UNL     1      13.940  19.848  15.921  1.00  0.00    -0.341 N 
HETATM   43  C17 UNL     1      13.407  19.890  17.240  1.00  0.00     0.241 C 
HETATM   44  O2  UNL     1      13.320  21.008  17.799  1.00  0.00    -0.271 OA
ATOM     45  H6  UNL     1      14.013  18.948  15.445  1.00  0.00     0.163 HD
BRANCH  43  46
HETATM   46  C18 UNL     1      12.955  18.699  17.996  1.00  0.00     0.178 C 
HETATM   47  C19 UNL     1      11.680  18.878  18.743  1.00  0.00     0.037 C 
HETATM   48  C20 UNL     1      12.012  18.478  20.162  1.00  0.00     0.022 C 
HETATM   49  C21 UNL     1      13.511  18.428  20.243  1.00  0.00     0.126 C 
HETATM   50  N7  UNL     1      13.972  18.229  18.893  1.00  0.00    -0.346 N 
BRANCH  50  51
HETATM   51  C22 UNL     1      15.211  17.668  18.489  1.00  0.00     0.351 C 
HETATM   52  O3  UNL     1      15.308  16.515  17.985  1.00  0.00    -0.284 OA
ENDBRANCH  50  51
ENDBRANCH  43  46
ENDBRANCH  37  42
ENDBRANCH  34  37
ENDBRANCH   5  33
TORSDOF 15
ENDMDL
MODEL 3
REMARK VINA RESULT: -9.214811692      2.303      5.447
REMARK  15 active torsions:
REMARK  status: ('A' for Active; 'I' for Inactive)
REMARK    1  A    between atoms: C2_2  and  C3_3 
REMARK    2  A    between atoms: C2_2  and  C27_45 
REMARK    3  A    between atoms: C3_3  and  C4_4 
REMARK    4  A    between atoms: C4_4  and  C5_5 
REMARK    5  A    between atoms: C5_5  and  N1_6 
REMARK    6  A    between atoms: C7_13  and  C8_14 
REMARK    7  A    between atoms: C8_14  and  C9_15 
REMARK    8  A    between atoms: C9_15  and  C10_16 
REMARK    9  A    between atoms: C10_16  and  C11_17 
REMARK   10  A    between atoms: C11_17  and  C12_18 
REMARK   11  A    between atoms: C14_22  and  N5_23 
REMARK       I    between atoms: N5_23  and  C15_25 
REMARK   12  A    between atoms: C15_25  and  C16_27 
REMARK   13  A    between atoms: C16_27  and  N6_28 
REMARK       I    between atoms: N6_28  and  C17_30 
REMARK   14  A    between atoms: C17_30  and  C18_32 
REMARK   15  A    between atoms: N7_36  and  C22_37 
ROOT
HETATM    1  C12 UNL     1      14.926  22.307  18.382  1.00  0.00     0.001 A 
HETATM    2  C13 UNL     1      14.494  23.609  18.336  1.00  0.00     0.104 A 
HETATM    3  N4  UNL     1      15.383  24.545  18.372  1.00  0.00    -0.345 N 
ATOM      4  H4  UNL     1      15.101  25.525  18.339  1.00  0.00     0.167 HD
HETATM    5  C14 UNL     1      16.679  24.219  18.453  1.00  0.00     0.151 A 
HETATM    6  S1  UNL     1      16.621  22.508  18.478  1.00  0.00    -0.057 SA
ENDROOT
BRANCH   1   7
HETATM    7  C11 UNL     1      14.076  21.080  18.345  1.00  0.00     0.048 C 
BRANCH   7   8
HETATM    8  C10 UNL     1      14.776  19.983  19.109  1.00  0.00     0.006 C 
BRANCH   8   9
HETATM    9  C9  UNL     1      13.903  19.445  20.222  1.00  0.00     0.007 C 
BRANCH   9  10
HETATM   10  C8  UNL     1      13.737  17.940  20.099  1.00  0.00     0.066 C 
BRANCH  10  11
HETATM   11  C7  UNL     1      12.526  17.704  19.236  1.00  0.00     0.069 A 
HETATM   12  N3  UNL     1      11.258  17.642  19.622  1.00  0.00    -0.296 N 
HETATM   13  N2  UNL     1      10.340  17.427  18.776  1.00  0.00    -0.279 N 
ATOM     14  H3  UNL     1      11.021  17.769  20.606  1.00  0.00     0.187 HD
HETATM   15  C6  UNL     1      10.672  17.263  17.492  1.00  0.00     0.161 A 
ATOM     16  H2  UNL     1       9.364  17.378  19.070  1.00  0.00     0.189 HD
HETATM   17  N1  UNL     1       9.872  17.033  16.476  1.00  0.00    -0.369 N 
HETATM   18  S2  UNL     1      12.373  17.433  17.550  1.00  0.00    -0.038 SA
ATOM     19  H1  UNL     1       8.861  16.956  16.591  1.00  0.00     0.161 HD
BRANCH  17  20
HETATM   20  C5  UNL     1      10.505  16.895  15.185  1.00  0.00     0.121 C 
BRANCH  20  21
HETATM   21  C4  UNL     1      10.016  18.052  14.319  1.00  0.00     0.020 C 
BRANCH  21  22
HETATM   22  C3  UNL     1      11.219  18.952  14.077  1.00  0.00     0.013 C 
BRANCH  22  23
HETATM   23  C2  UNL     1      11.184  20.143  15.020  1.00  0.00     0.049 C 
HETATM   24  C1  UNL     1      10.016  21.000  14.639  1.00  0.00     0.018 C 
BRANCH  23  25
HETATM   25  C27 UNL     1      12.476  20.888  14.904  1.00  0.00     0.084 A 
HETATM   26  N8  UNL     1      13.620  20.218  14.731  1.00  0.00    -0.355 N 
HETATM   27  C28 UNL     1      14.786  20.849  14.631  1.00  0.00     0.090 A 
ATOM     28  H8  UNL     1      13.597  19.200  14.674  1.00  0.00     0.166 HD
HETATM   29  C29 UNL     1      14.844  22.236  14.706  1.00  0.00     0.034 A 
HETATM   30  C30 UNL     1      13.654  22.900  14.885  1.00  0.00     0.090 A 
HETATM   31  N9  UNL     1      12.506  22.223  14.979  1.00  0.00    -0.355 N 
ATOM     32  H9  UNL     1      11.634  22.736  15.111  1.00  0.00     0.166 HD
ENDBRANCH  23  25
ENDBRANCH  22  23
ENDBRANCH  21  22
ENDBRANCH  20  21
ENDBRANCH  17  20
ENDBRANCH  10  11
ENDBRANCH   9  10
ENDBRANCH   8   9
ENDBRANCH   7   8
ENDBRANCH   1   7
BRANCH   5  33
HETATM   33  N5  UNL     1      17.693  25.050  18.505  1.00  0.00    -0.305 N 
HETATM   34  C15 UNL     1      18.814  24.818  17.717  1.00  0.00     0.252 C 
HETATM   35  O1  UNL     1      18.697  24.753  16.473  1.00  0.00    -0.270 OA
ATOM     36  H5  UNL     1      17.658  25.862  19.120  1.00  0.00     0.171 HD
BRANCH  34  37
HETATM   37  C16 UNL     1      20.194  24.642  18.280  1.00  0.00     0.114 C 
HETATM   38  C23 UNL     1      20.293  23.171  18.683  1.00  0.00     0.041 C 
HETATM   39  C24 UNL     1      20.108  23.151  20.171  1.00  0.00     0.003 C 
HETATM   40  C25 UNL     1      20.542  24.475  20.692  1.00  0.00     0.003 C 
HETATM   41  C26 UNL     1      20.400  25.414  19.530  1.00  0.00     0.041 C 
BRANCH  37  42
HETATM   42  N6  UNL     1      21.136  24.936  17.216  1.00  0.00    -0.341 N 
HETATM   43  C17 UNL     1      21.688  26.235  17.035  1.00  0.00     0.241 C 
HETATM   44  O2  UNL     1      21.339  27.133  17.837  1.00  0.00    -0.271 OA
ATOM     45  H6  UNL     1      21.412  24.188  16.579  1.00  0.00     0.163 HD
BRANCH  43  46
HETATM   46  C18 UNL     1      22.641  26.595  15.960  1.00  0.00     0.178 C 
HETATM   47  C19 UNL     1      24.072  26.607  16.369  1.00  0.00     0.037 C 
HETATM   48  C20 UNL     1      24.570  27.976  15.969  1.00  0.00     0.022 C 
HETATM   49  C21 UNL     1      23.346  28.798  15.677  1.00  0.00     0.126 C 
HETATM   50  N7  UNL     1      22.305  27.855  15.360  1.00  0.00    -0.346 N 
BRANCH  50  51
HETATM   51  C22 UNL     1      21.138  28.100  14.592  1.00  0.00     0.351 C 
HETATM   52  O3  UNL     1      20.115  28.671  15.063  1.00  0.00    -0.284 OA
ENDBRANCH  50  51
ENDBRANCH  43  46
ENDBRANCH  37  42
ENDBRANCH  34  37
ENDBRANCH   5  33
TORSDOF 15
ENDMDL
MODEL 4
REMARK VINA RESULT: -9.165262459      3.403      6.161
REMARK  15 active torsions:
REMARK  status: ('A' for Active; 'I' for Inactive)
REMARK    1  A    between atoms: C2_2  and  C3_3 
REMARK    2  A    between atoms: C2_2  and  C27_45 
REMARK    3  A    between atoms: C3_3  and  C4_4 
REMARK    4  A    between atoms: C4_4  and  C5_5 
REMARK    5  A    between atoms: C5_5  and  N1_6 
REMARK    6  A    between atoms: C7_13  and  C8_14 
REMARK    7  A    between atoms: C8_14  and  C9_15 
REMARK    8  A    between atoms: C9_15  and  C10_16 
REMARK    9  A    between atoms: C10_16  and  C11_17 
REMARK   10  A    between atoms: C11_17  and  C12_18 
REMARK   11  A    between atoms: C14_22  and  N5_23 
REMARK       I    between atoms: N5_23  and  C15_25 
REMARK   12  A    between atoms: C15_25  and  C16_27 
REMARK   13  A    between atoms: C16_27  and  N6_28 
REMARK       I    between atoms: N6_28  and  C17_30 
REMARK   14  A    between atoms: C17_30  and  C18_32 
REMARK   15  A    between atoms: N7_36  and  C22_37 
ROOT
HETATM    1  C12 UNL     1      14.992  21.966  17.293  1.00  0.00     0.001 A 
HETATM    2  C13 UNL     1      16.130  21.870  16.531  1.00  0.00     0.104 A 
HETATM    3  N4  UNL     1      16.877  22.918  16.420  1.00  0.00    -0.345 N 
ATOM      4  H4  UNL     1      17.731  22.885  15.863  1.00  0.00     0.167 HD
HETATM    5  C14 UNL     1      16.520  24.048  17.042  1.00  0.00     0.151 A 
HETATM    6  S1  UNL     1      15.062  23.592  17.815  1.00  0.00    -0.057 SA
ENDROOT
BRANCH   1   7
HETATM    7  C11 UNL     1      13.998  20.884  17.559  1.00  0.00     0.048 C 
BRANCH   7   8
HETATM    8  C10 UNL     1      14.062  20.517  19.021  1.00  0.00     0.006 C 
BRANCH   8   9
HETATM    9  C9  UNL     1      14.586  19.111  19.212  1.00  0.00     0.007 C 
BRANCH   9  10
HETATM   10  C8  UNL     1      13.677  18.315  20.131  1.00  0.00     0.066 C 
BRANCH  10  11
HETATM   11  C7  UNL     1      12.488  17.891  19.309  1.00  0.00     0.069 A 
HETATM   12  N3  UNL     1      11.224  17.804  19.700  1.00  0.00    -0.296 N 
HETATM   13  N2  UNL     1      10.327  17.420  18.892  1.00  0.00    -0.279 N 
ATOM     14  H3  UNL     1      10.972  18.047  20.658  1.00  0.00     0.187 HD
HETATM   15  C6  UNL     1      10.679  17.106  17.641  1.00  0.00     0.161 A 
ATOM     16  H2  UNL     1       9.354  17.352  19.190  1.00  0.00     0.189 HD
HETATM   17  N1  UNL     1       9.902  16.692  16.666  1.00  0.00    -0.369 N 
HETATM   18  S2  UNL     1      12.366  17.387  17.675  1.00  0.00    -0.038 SA
ATOM     19  H1  UNL     1       8.897  16.570  16.791  1.00  0.00     0.161 HD
BRANCH  17  20
HETATM   20  C5  UNL     1      10.553  16.421  15.405  1.00  0.00     0.121 C 
BRANCH  20  21
HETATM   21  C4  UNL     1       9.925  17.347  14.367  1.00  0.00     0.020 C 
BRANCH  21  22
HETATM   22  C3  UNL     1      11.050  18.216  13.824  1.00  0.00     0.013 C 
BRANCH  22  23
HETATM   23  C2  UNL     1      11.238  19.443  14.702  1.00  0.00     0.049 C 
HETATM   24  C1  UNL     1       9.967  20.234  14.669  1.00  0.00     0.018 C 
BRANCH  23  25
HETATM   25  C27 UNL     1      12.395  20.236  14.181  1.00  0.00     0.084 A 
HETATM   26  N8  UNL     1      12.404  21.567  14.311  1.00  0.00    -0.355 N 
HETATM   27  C28 UNL     1      13.413  22.303  13.853  1.00  0.00     0.090 A 
ATOM     28  H8  UNL     1      11.620  22.028  14.772  1.00  0.00     0.166 HD
HETATM   29  C29 UNL     1      14.493  21.698  13.221  1.00  0.00     0.034 A 
HETATM   30  C30 UNL     1      14.458  20.329  13.100  1.00  0.00     0.090 A 
HETATM   31  N9  UNL     1      13.423  19.632  13.577  1.00  0.00    -0.355 N 
ATOM     32  H9  UNL     1      13.418  18.617  13.477  1.00  0.00     0.166 HD
ENDBRANCH  23  25
ENDBRANCH  22  23
ENDBRANCH  21  22
ENDBRANCH  20  21
ENDBRANCH  17  20
ENDBRANCH  10  11
ENDBRANCH   9  10
ENDBRANCH   8   9
ENDBRANCH   7   8
ENDBRANCH   1   7
BRANCH   5  33
HETATM   33  N5  UNL     1      17.167  25.190  17.020  1.00  0.00    -0.305 N 
HETATM   34  C15 UNL     1      18.106  25.430  16.024  1.00  0.00     0.252 C 
HETATM   35  O1  UNL     1      17.759  25.395  14.822  1.00  0.00    -0.270 OA
ATOM     36  H5  UNL     1      16.981  25.897  17.731  1.00  0.00     0.171 HD
BRANCH  34  37
HETATM   37  C16 UNL     1      19.545  25.743  16.308  1.00  0.00     0.114 C 
HETATM   38  C23 UNL     1      19.765  27.173  15.815  1.00  0.00     0.041 C 
HETATM   39  C24 UNL     1      20.461  27.038  14.495  1.00  0.00     0.003 C 
HETATM   40  C25 UNL     1      21.198  25.746  14.508  1.00  0.00     0.003 C 
HETATM   41  C26 UNL     1      20.477  24.901  15.518  1.00  0.00     0.041 C 
BRANCH  37  42
HETATM   42  N6  UNL     1      19.728  25.674  17.746  1.00  0.00    -0.341 N 
HETATM   43  C17 UNL     1      19.832  24.433  18.434  1.00  0.00     0.241 C 
HETATM   44  O2  UNL     1      19.768  23.382  17.754  1.00  0.00    -0.271 OA
ATOM     45  H6  UNL     1      19.784  26.542  18.280  1.00  0.00     0.163 HD
BRANCH  43  46
HETATM   46  C18 UNL     1      20.003  24.303  19.900  1.00  0.00     0.178 C 
HETATM   47  C19 UNL     1      21.416  24.325  20.369  1.00  0.00     0.037 C 
HETATM   48  C20 UNL     1      21.562  23.068  21.194  1.00  0.00     0.022 C 
HETATM   49  C21 UNL     1      20.363  22.219  20.880  1.00  0.00     0.126 C 
HETATM   50  N7  UNL     1      19.352  23.126  20.403  1.00  0.00    -0.346 N 
BRANCH  50  51
HETATM   51  C22 UNL     1      17.948  22.922  20.414  1.00  0.00     0.351 C 
HETATM   52  O3  UNL     1      17.406  21.871  19.975  1.00  0.00    -0.284 OA
ENDBRANCH  50  51
ENDBRANCH  43  46
ENDBRANCH  37  42
ENDBRANCH  34  37
ENDBRANCH   5  33
TORSDOF 15
ENDMDL
MODEL 5
REMARK VINA RESULT: -9.145744741      3.665     11.336
REMARK  15 active torsions:
REMARK  status: ('A' for Active; 'I' for Inactive)
REMARK    1  A    between atoms: C2_2  and  C3_3 
REMARK    2  A    between atoms: C2_2  and  C27_45 
REMARK    3  A    between atoms: C3_3  and  C4_4 
REMARK    4  A    between atoms: C4_4  and  C5_5 
REMARK    5  A    between atoms: C5_5  and  N1_6 
REMARK    6  A    between atoms: C7_13  and  C8_14 
REMARK    7  A    between atoms: C8_14  and  C9_15 
REMARK    8  A    between atoms: C9_15  and  C10_16 
REMARK    9  A    between atoms: C10_16  and  C11_17 
REMARK   10  A    between atoms: C11_17  and  C12_18 
REMARK   11  A    between atoms: C14_22  and  N5_23 
REMARK       I    between atoms: N5_23  and  C15_25 
REMARK   12  A    between atoms: C15_25  and  C16_27 
REMARK   13  A    between atoms: C16_27  and  N6_28 
REMARK       I    between atoms: N6_28  and  C17_30 
REMARK   14  A    between atoms: C17_30  and  C18_32 
REMARK   15  A    between atoms: N7_36  and  C22_37 
ROOT
HETATM    1  C12 UNL     1      15.879  22.209  18.213  1.00  0.00     0.001 A 
HETATM    2  C13 UNL     1      14.512  22.249  18.319  1.00  0.00     0.104 A 
HETATM    3  N4  UNL     1      13.814  21.680  17.393  1.00  0.00    -0.345 N 
ATOM      4  H4  UNL     1      12.795  21.688  17.437  1.00  0.00     0.167 HD
HETATM    5  C14 UNL     1      14.441  21.078  16.375  1.00  0.00     0.151 A 
HETATM    6  S1  UNL     1      16.089  21.338  16.758  1.00  0.00    -0.057 SA
ENDROOT
BRANCH   1   7
HETATM    7  C11 UNL     1      16.868  22.792  19.168  1.00  0.00     0.048 C 
BRANCH   7   8
HETATM    8  C10 UNL     1      17.792  21.695  19.639  1.00  0.00     0.006 C 
BRANCH   8   9
HETATM    9  C9  UNL     1      18.693  22.178  20.755  1.00  0.00     0.007 C 
BRANCH   9  10
HETATM   10  C8  UNL     1      18.828  23.690  20.726  1.00  0.00     0.066 C 
BRANCH  10  11
HETATM   11  C7  UNL     1      20.197  23.995  20.179  1.00  0.00     0.069 A 
HETATM   12  N3  UNL     1      21.225  23.164  20.061  1.00  0.00    -0.296 N 
HETATM   13  N2  UNL     1      22.327  23.570  19.586  1.00  0.00    -0.279 N 
ATOM     14  H3  UNL     1      21.126  22.192  20.354  1.00  0.00     0.187 HD
HETATM   15  C6  UNL     1      22.434  24.847  19.208  1.00  0.00     0.161 A 
ATOM     16  H2  UNL     1      23.118  22.933  19.495  1.00  0.00     0.189 HD
HETATM   17  N1  UNL     1      23.484  25.451  18.698  1.00  0.00    -0.369 N 
HETATM   18  S2  UNL     1      20.872  25.447  19.566  1.00  0.00    -0.038 SA
ATOM     19  H1  UNL     1      24.363  24.960  18.537  1.00  0.00     0.161 HD
BRANCH  17  20
HETATM   20  C5  UNL     1      23.321  26.850  18.380  1.00  0.00     0.121 C 
BRANCH  20  21
HETATM   21  C4  UNL     1      23.476  26.987  16.867  1.00  0.00     0.020 C 
BRANCH  21  22
HETATM   22  C3  UNL     1      22.179  27.594  16.352  1.00  0.00     0.013 C 
BRANCH  22  23
HETATM   23  C2  UNL     1      21.734  26.886  15.083  1.00  0.00     0.049 C 
HETATM   24  C1  UNL     1      21.274  27.928  14.110  1.00  0.00     0.018 C 
BRANCH  23  25
HETATM   25  C27 UNL     1      20.637  25.928  15.425  1.00  0.00     0.084 A 
HETATM   26  N8  UNL     1      19.360  26.312  15.322  1.00  0.00    -0.355 N 
HETATM   27  C28 UNL     1      18.360  25.488  15.624  1.00  0.00     0.090 A 
ATOM     28  H8  UNL     1      19.148  27.257  15.004  1.00  0.00     0.166 HD
HETATM   29  C29 UNL     1      18.623  24.195  16.060  1.00  0.00     0.034 A 
HETATM   30  C30 UNL     1      19.944  23.826  16.157  1.00  0.00     0.090 A 
HETATM   31  N9  UNL     1      20.914  24.688  15.841  1.00  0.00    -0.355 N 
ATOM     32  H9  UNL     1      21.888  24.394  15.920  1.00  0.00     0.166 HD
ENDBRANCH  23  25
ENDBRANCH  22  23
ENDBRANCH  21  22
ENDBRANCH  20  21
ENDBRANCH  17  20
ENDBRANCH  10  11
ENDBRANCH   9  10
ENDBRANCH   8   9
ENDBRANCH   7   8
ENDBRANCH   1   7
BRANCH   5  33
HETATM   33  N5  UNL     1      13.875  20.466  15.361  1.00  0.00    -0.305 N 
HETATM   34  C15 UNL     1      12.497  20.538  15.195  1.00  0.00     0.252 C 
HETATM   35  O1  UNL     1      11.945  21.653  15.063  1.00  0.00    -0.270 OA
ATOM     36  H5  UNL     1      14.444  19.940  14.698  1.00  0.00     0.171 HD
BRANCH  34  37
HETATM   37  C16 UNL     1      11.608  19.330  15.156  1.00  0.00     0.114 C 
HETATM   38  C23 UNL     1      11.838  18.689  13.788  1.00  0.00     0.041 C 
HETATM   39  C24 UNL     1      10.662  19.096  12.952  1.00  0.00     0.003 C 
HETATM   40  C25 UNL     1       9.526  19.356  13.877  1.00  0.00     0.003 C 
HETATM   41  C26 UNL     1      10.167  19.683  15.194  1.00  0.00     0.041 C 
BRANCH  37  42
HETATM   42  N6  UNL     1      12.047  18.435  16.211  1.00  0.00    -0.341 N 
HETATM   43  C17 UNL     1      11.861  18.744  17.587  1.00  0.00     0.241 C 
HETATM   44  O2  UNL     1      11.291  19.823  17.871  1.00  0.00    -0.271 OA
ATOM     45  H6  UNL     1      12.503  17.558  15.958  1.00  0.00     0.163 HD
BRANCH  43  46
HETATM   46  C18 UNL     1      12.302  17.876  18.704  1.00  0.00     0.178 C 
HETATM   47  C19 UNL     1      11.447  17.940  19.922  1.00  0.00     0.037 C 
HETATM   48  C20 UNL     1      12.408  18.261  21.043  1.00  0.00     0.022 C 
HETATM   49  C21 UNL     1      13.684  18.705  20.387  1.00  0.00     0.126 C 
HETATM   50  N7  UNL     1      13.667  18.136  19.064  1.00  0.00    -0.346 N 
BRANCH  50  51
HETATM   51  C22 UNL     1      14.787  17.867  18.237  1.00  0.00     0.351 C 
HETATM   52  O3  UNL     1      15.180  16.697  17.976  1.00  0.00    -0.284 OA
ENDBRANCH  50  51
ENDBRANCH  43  46
ENDBRANCH  37  42
ENDBRANCH  34  37
ENDBRANCH   5  33
TORSDOF 15
ENDMDL
