MODEL 1
REMARK VINA RESULT: -8.392887034      0.000      0.000
REMARK  13 active torsions:
REMARK  status: ('A' for Active; 'I' for Inactive)
REMARK    1  A    between atoms: N1_1  and  C1_4 
REMARK    2  A    between atoms: N3_8  and  C3_9 
REMARK    3  A    between atoms: C4_10  and  C5_11 
REMARK    4  A    between atoms: C5_11  and  N4_12 
REMARK    5  A    between atoms: N4_12  and  S1_14 
REMARK    6  A    between atoms: C6_19  and  C7_20 
REMARK    7  A    between atoms: C7_20  and  O5_21 
REMARK    8  A    between atoms: C8_23  and  O6_24 
REMARK    9  A    between atoms: C9_26  and  C10_27 
REMARK   10  A    between atoms: C11_31  and  O7_32 
REMARK   11  A    between atoms: C12_34  and  C13_35 
REMARK   12  A    between atoms: C13_35  and  O8_36 
REMARK   13  A    between atoms: C14_42  and  N8_43 
ROOT
HETATM    1  C1  UNL     1      -7.606  12.353 -33.505  1.00  0.00     0.705 A 
HETATM    2  N2  UNL     1      -7.762  13.599 -33.034  1.00  0.00    -0.019 N 
ATOM      3  H2  UNL     1      -7.692  13.739 -32.026  1.00  0.00     0.203 HD
HETATM    4  C2  UNL     1      -8.005  14.674 -33.801  1.00  0.00     0.737 A 
HETATM    5  N3  UNL     1      -8.204  16.001 -33.586  1.00  0.00    -0.153 N 
HETATM    6  C9  UNL     1      -8.415  16.598 -34.789  1.00  0.00     0.173 A 
HETATM    7  N6  UNL     1      -8.335  15.607 -35.689  1.00  0.00    -0.248 N 
ATOM      8  H6  UNL     1      -8.450  15.742 -36.693  1.00  0.00     0.190 HD
HETATM    9  N7  UNL     1      -8.091  14.436 -35.127  1.00  0.00     0.092 N 
HETATM   10  C14 UNL     1      -7.935  13.183 -35.628  1.00  0.00     0.727 A 
HETATM   11  N9  UNL     1      -7.692  12.134 -34.828  1.00  0.00    -0.020 N 
ATOM     12  H9  UNL     1      -7.577  11.198 -35.214  1.00  0.00     0.203 HD
ENDROOT
BRANCH   5  13
HETATM   13  C3  UNL     1      -8.193  16.690 -32.348  1.00  0.00     0.171 C 
HETATM   14  C4  UNL     1      -6.849  17.237 -31.913  1.00  0.00     0.167 C 
HETATM   15  O4  UNL     1      -6.959  17.494 -30.547  1.00  0.00    -0.372 OA
HETATM   16  C6  UNL     1      -8.004  16.796 -30.016  1.00  0.00     0.176 C 
HETATM   17  C8  UNL     1      -8.500  15.856 -31.122  1.00  0.00     0.175 C 
BRANCH  14  18
HETATM   18  C5  UNL     1      -5.719  16.256 -32.080  1.00  0.00     0.168 C 
BRANCH  18  19
HETATM   19  N4  UNL     1      -5.029  16.223 -30.780  1.00  0.00    -0.298 N 
ATOM     20  H4  UNL     1      -4.931  17.000 -30.126  1.00  0.00     0.174 HD
BRANCH  19  21
HETATM   21  S1  UNL     1      -4.420  14.625 -30.573  1.00  0.00     0.204 S 
HETATM   22  O1  UNL     1      -4.945  13.984 -29.310  1.00  0.00    -0.578 OA
HETATM   23  O2  UNL     1      -2.937  14.611 -30.641  1.00  0.00    -0.578 OA
HETATM   24  O3  UNL     1      -5.014  13.693 -31.857  1.00  0.00    -0.578 OA
ENDBRANCH  19  21
ENDBRANCH  18  19
ENDBRANCH  14  18
BRANCH  16  25
HETATM   25  C7  UNL     1      -7.627  16.021 -28.779  1.00  0.00     0.198 C 
BRANCH  25  26
HETATM   26  O5  UNL     1      -6.474  16.545 -28.195  1.00  0.00    -0.398 OA
ATOM     27  H5  UNL     1      -5.719  16.000 -28.387  1.00  0.00     0.209 HD
ENDBRANCH  25  26
ENDBRANCH  16  25
BRANCH  17  28
HETATM   28  O6  UNL     1      -9.849  15.665 -30.892  1.00  0.00    -0.391 OA
ATOM     29  H6  UNL     1     -10.176  16.104 -30.115  1.00  0.00     0.210 HD
ENDBRANCH  17  28
ENDBRANCH   5  13
BRANCH   6  30
HETATM   30  C10 UNL     1      -8.707  18.039 -35.090  1.00  0.00     0.395 C 
HETATM   31  N5  UNL     1      -9.622  18.208 -36.197  1.00  0.00    -0.013 N 
HETATM   32  C11 UNL     1      -9.088  19.393 -36.893  1.00  0.00     0.353 C 
ATOM     33  H52 UNL     1      -9.734  17.383 -36.786  1.00  0.00     0.283 HD
ATOM     34  H51 UNL     1     -10.605  18.278 -35.929  1.00  0.00     0.283 HD
HETATM   35  C12 UNL     1      -7.600  19.107 -36.737  1.00  0.00     0.204 C 
HETATM   36  O9  UNL     1      -7.515  18.666 -35.448  1.00  0.00    -0.341 OA
BRANCH  32  37
HETATM   37  O7  UNL     1      -9.501  20.489 -36.180  1.00  0.00    -0.368 OA
ATOM     38  H7  UNL     1      -8.803  20.694 -35.568  1.00  0.00     0.212 HD
ENDBRANCH  32  37
BRANCH  35  39
HETATM   39  C13 UNL     1      -6.786  20.379 -36.857  1.00  0.00     0.200 C 
BRANCH  39  40
HETATM   40  O8  UNL     1      -6.479  20.948 -35.644  1.00  0.00    -0.398 OA
ATOM     41  H8  UNL     1      -5.656  20.641 -35.280  1.00  0.00     0.209 HD
ENDBRANCH  39  40
ENDBRANCH  35  39
ENDBRANCH   6  30
BRANCH   1  42
HETATM   42  N1  UNL     1      -7.372  11.332 -32.750  1.00  0.00    -0.234 N 
ATOM     43  H12 UNL     1      -7.484  11.459 -31.744  1.00  0.00     0.174 HD
ATOM     44  H11 UNL     1      -7.087  10.422 -33.110  1.00  0.00     0.174 HD
ENDBRANCH   1  42
BRANCH  10  45
HETATM   45  N8  UNL     1      -8.030  13.048 -36.892  1.00  0.00    -0.232 N 
ATOM     46  H82 UNL     1      -8.635  13.653 -37.447  1.00  0.00     0.174 HD
ATOM     47  H81 UNL     1      -7.474  12.310 -37.322  1.00  0.00     0.174 HD
ENDBRANCH  10  45
TORSDOF 13
ENDMDL
MODEL 2
REMARK VINA RESULT: -8.267349223      2.343      6.080
REMARK  13 active torsions:
REMARK  status: ('A' for Active; 'I' for Inactive)
REMARK    1  A    between atoms: N1_1  and  C1_4 
REMARK    2  A    between atoms: N3_8  and  C3_9 
REMARK    3  A    between atoms: C4_10  and  C5_11 
REMARK    4  A    between atoms: C5_11  and  N4_12 
REMARK    5  A    between atoms: N4_12  and  S1_14 
REMARK    6  A    between atoms: C6_19  and  C7_20 
REMARK    7  A    between atoms: C7_20  and  O5_21 
REMARK    8  A    between atoms: C8_23  and  O6_24 
REMARK    9  A    between atoms: C9_26  and  C10_27 
REMARK   10  A    between atoms: C11_31  and  O7_32 
REMARK   11  A    between atoms: C12_34  and  C13_35 
REMARK   12  A    between atoms: C13_35  and  O8_36 
REMARK   13  A    between atoms: C14_42  and  N8_43 
ROOT
HETATM    1  C1  UNL     1      -7.747  12.798 -35.524  1.00  0.00     0.705 A 
HETATM    2  N2  UNL     1      -7.515  14.061 -35.138  1.00  0.00    -0.019 N 
ATOM      3  H2  UNL     1      -7.694  14.805 -35.813  1.00  0.00     0.203 HD
HETATM    4  C2  UNL     1      -7.063  14.412 -33.923  1.00  0.00     0.737 A 
HETATM    5  N3  UNL     1      -6.749  15.576 -33.298  1.00  0.00    -0.153 N 
HETATM    6  C9  UNL     1      -6.327  15.281 -32.039  1.00  0.00     0.173 A 
HETATM    7  N6  UNL     1      -6.403  13.945 -31.951  1.00  0.00    -0.248 N 
ATOM      8  H6  UNL     1      -6.151  13.417 -31.116  1.00  0.00     0.190 HD
HETATM    9  N7  UNL     1      -6.841  13.391 -33.067  1.00  0.00     0.092 N 
HETATM   10  C14 UNL     1      -7.070  12.104 -33.435  1.00  0.00     0.727 A 
HETATM   11  N9  UNL     1      -7.522  11.794 -34.659  1.00  0.00    -0.020 N 
ATOM     12  H9  UNL     1      -7.691  10.825 -34.925  1.00  0.00     0.203 HD
ENDROOT
BRANCH   5  13
HETATM   13  C3  UNL     1      -6.837  16.891 -33.818  1.00  0.00     0.171 C 
HETATM   14  C4  UNL     1      -7.640  17.873 -32.989  1.00  0.00     0.167 C 
HETATM   15  O4  UNL     1      -7.946  18.937 -33.837  1.00  0.00    -0.372 OA
HETATM   16  C6  UNL     1      -7.823  18.555 -35.140  1.00  0.00     0.176 C 
HETATM   17  C8  UNL     1      -7.589  17.039 -35.124  1.00  0.00     0.175 C 
BRANCH  14  18
HETATM   18  C5  UNL     1      -8.950  17.316 -32.501  1.00  0.00     0.168 C 
BRANCH  18  19
HETATM   19  N4  UNL     1      -9.074  17.764 -31.104  1.00  0.00    -0.298 N 
ATOM     20  H4  UNL     1      -8.687  17.300 -30.281  1.00  0.00     0.174 HD
BRANCH  19  21
HETATM   21  S1  UNL     1      -9.995  19.219 -31.121  1.00  0.00     0.204 S 
HETATM   22  O1  UNL     1     -10.700  19.453 -29.805  1.00  0.00    -0.578 OA
HETATM   23  O2  UNL     1     -10.929  19.241 -32.276  1.00  0.00    -0.578 OA
HETATM   24  O3  UNL     1      -8.903  20.501 -31.304  1.00  0.00    -0.578 OA
ENDBRANCH  19  21
ENDBRANCH  18  19
ENDBRANCH  14  18
BRANCH  16  25
HETATM   25  C7  UNL     1      -9.030  18.906 -35.974  1.00  0.00     0.198 C 
BRANCH  25  26
HETATM   26  O5  UNL     1     -10.104  19.274 -35.164  1.00  0.00    -0.398 OA
ATOM     27  H5  UNL     1     -10.928  19.165 -35.625  1.00  0.00     0.209 HD
ENDBRANCH  25  26
ENDBRANCH  16  25
BRANCH  17  28
HETATM   28  O6  UNL     1      -6.836  16.751 -36.245  1.00  0.00    -0.391 OA
ATOM     29  H6  UNL     1      -7.027  17.304 -36.994  1.00  0.00     0.210 HD
ENDBRANCH  17  28
ENDBRANCH   5  13
BRANCH   6  30
HETATM   30  C10 UNL     1      -5.845  16.209 -30.963  1.00  0.00     0.395 C 
HETATM   31  N5  UNL     1      -4.650  15.731 -30.303  1.00  0.00    -0.013 N 
HETATM   32  C11 UNL     1      -4.871  16.112 -28.896  1.00  0.00     0.353 C 
ATOM     33  H52 UNL     1      -4.450  14.742 -30.450  1.00  0.00     0.283 HD
ATOM     34  H51 UNL     1      -3.777  16.075 -30.704  1.00  0.00     0.283 HD
HETATM   35  C12 UNL     1      -6.364  15.819 -28.804  1.00  0.00     0.204 C 
HETATM   36  O9  UNL     1      -6.836  16.308 -29.988  1.00  0.00    -0.341 OA
BRANCH  32  37
HETATM   37  O7  UNL     1      -4.581  17.448 -28.799  1.00  0.00    -0.368 OA
ATOM     38  H7  UNL     1      -3.741  17.514 -28.358  1.00  0.00     0.212 HD
ENDBRANCH  32  37
BRANCH  35  39
HETATM   39  C13 UNL     1      -7.005  16.605 -27.679  1.00  0.00     0.200 C 
BRANCH  39  40
HETATM   40  O8  UNL     1      -6.198  16.735 -26.574  1.00  0.00    -0.398 OA
ATOM     41  H8  UNL     1      -5.748  17.571 -26.531  1.00  0.00     0.209 HD
ENDBRANCH  39  40
ENDBRANCH  35  39
ENDBRANCH   6  30
BRANCH   1  42
HETATM   42  N1  UNL     1      -8.182  12.482 -36.698  1.00  0.00    -0.234 N 
ATOM     43  H12 UNL     1      -8.969  11.834 -36.746  1.00  0.00     0.174 HD
ATOM     44  H11 UNL     1      -7.781  12.846 -37.562  1.00  0.00     0.174 HD
ENDBRANCH   1  42
BRANCH  10  45
HETATM   45  N8  UNL     1      -6.835  11.202 -32.565  1.00  0.00    -0.232 N 
ATOM     46  H82 UNL     1      -7.358  11.159 -31.691  1.00  0.00     0.174 HD
ATOM     47  H81 UNL     1      -6.103  10.527 -32.783  1.00  0.00     0.174 HD
ENDBRANCH  10  45
TORSDOF 13
ENDMDL
MODEL 3
REMARK VINA RESULT: -7.987865516      3.173      4.480
REMARK  13 active torsions:
REMARK  status: ('A' for Active; 'I' for Inactive)
REMARK    1  A    between atoms: N1_1  and  C1_4 
REMARK    2  A    between atoms: N3_8  and  C3_9 
REMARK    3  A    between atoms: C4_10  and  C5_11 
REMARK    4  A    between atoms: C5_11  and  N4_12 
REMARK    5  A    between atoms: N4_12  and  S1_14 
REMARK    6  A    between atoms: C6_19  and  C7_20 
REMARK    7  A    between atoms: C7_20  and  O5_21 
REMARK    8  A    between atoms: C8_23  and  O6_24 
REMARK    9  A    between atoms: C9_26  and  C10_27 
REMARK   10  A    between atoms: C11_31  and  O7_32 
REMARK   11  A    between atoms: C12_34  and  C13_35 
REMARK   12  A    between atoms: C13_35  and  O8_36 
REMARK   13  A    between atoms: C14_42  and  N8_43 
ROOT
HETATM    1  C1  UNL     1      -5.568   9.969 -31.910  1.00  0.00     0.705 A 
HETATM    2  N2  UNL     1      -6.078  11.126 -32.359  1.00  0.00    -0.019 N 
ATOM      3  H2  UNL     1      -6.661  11.669 -31.721  1.00  0.00     0.203 HD
HETATM    4  C2  UNL     1      -5.874  11.616 -33.592  1.00  0.00     0.737 A 
HETATM    5  N3  UNL     1      -6.264  12.722 -34.279  1.00  0.00    -0.153 N 
HETATM    6  C9  UNL     1      -5.727  12.657 -35.527  1.00  0.00     0.173 A 
HETATM    7  N6  UNL     1      -5.030  11.512 -35.547  1.00  0.00    -0.248 N 
ATOM      8  H6  UNL     1      -4.506  11.180 -36.356  1.00  0.00     0.190 HD
HETATM    9  N7  UNL     1      -5.098  10.861 -34.399  1.00  0.00     0.092 N 
HETATM   10  C14 UNL     1      -4.570   9.687 -33.967  1.00  0.00     0.727 A 
HETATM   11  N9  UNL     1      -4.797   9.230 -32.726  1.00  0.00    -0.020 N 
ATOM     12  H9  UNL     1      -4.396   8.348 -32.411  1.00  0.00     0.203 HD
ENDROOT
BRANCH   5  13
HETATM   13  C3  UNL     1      -7.078  13.787 -33.819  1.00  0.00     0.171 C 
HETATM   14  C4  UNL     1      -6.369  15.108 -33.603  1.00  0.00     0.167 C 
HETATM   15  O4  UNL     1      -7.208  15.869 -32.790  1.00  0.00    -0.372 OA
HETATM   16  C6  UNL     1      -8.098  15.064 -32.142  1.00  0.00     0.176 C 
HETATM   17  C8  UNL     1      -7.665  13.621 -32.433  1.00  0.00     0.175 C 
BRANCH  14  18
HETATM   18  C5  UNL     1      -5.060  14.975 -32.872  1.00  0.00     0.168 C 
BRANCH  18  19
HETATM   19  N4  UNL     1      -5.013  16.110 -31.936  1.00  0.00    -0.298 N 
ATOM     20  H4  UNL     1      -5.269  17.076 -32.140  1.00  0.00     0.174 HD
BRANCH  19  21
HETATM   21  S1  UNL     1      -4.445  15.497 -30.429  1.00  0.00     0.204 S 
HETATM   22  O1  UNL     1      -5.220  14.276 -29.992  1.00  0.00    -0.578 OA
HETATM   23  O2  UNL     1      -4.434  16.562 -29.394  1.00  0.00    -0.578 OA
HETATM   24  O3  UNL     1      -2.849  14.981 -30.669  1.00  0.00    -0.578 OA
ENDBRANCH  19  21
ENDBRANCH  18  19
ENDBRANCH  14  18
BRANCH  16  25
HETATM   25  C7  UNL     1      -8.153  15.321 -30.657  1.00  0.00     0.198 C 
BRANCH  25  26
HETATM   26  O5  UNL     1      -7.494  16.507 -30.332  1.00  0.00    -0.398 OA
ATOM     27  H5  UNL     1      -6.815  16.351 -29.687  1.00  0.00     0.209 HD
ENDBRANCH  25  26
ENDBRANCH  16  25
BRANCH  17  28
HETATM   28  O6  UNL     1      -8.814  12.857 -32.394  1.00  0.00    -0.391 OA
ATOM     29  H6  UNL     1      -9.258  12.864 -31.554  1.00  0.00     0.210 HD
ENDBRANCH  17  28
ENDBRANCH   5  13
BRANCH   6  30
HETATM   30  C10 UNL     1      -5.879  13.615 -36.671  1.00  0.00     0.395 C 
HETATM   31  N5  UNL     1      -7.109  13.423 -37.406  1.00  0.00    -0.013 N 
HETATM   32  C11 UNL     1      -6.702  13.655 -38.805  1.00  0.00     0.353 C 
ATOM     33  H52 UNL     1      -7.567  12.527 -37.241  1.00  0.00     0.283 HD
ATOM     34  H51 UNL     1      -7.889  13.999 -37.089  1.00  0.00     0.283 HD
HETATM   35  C12 UNL     1      -5.333  12.986 -38.766  1.00  0.00     0.204 C 
HETATM   36  O9  UNL     1      -4.832  13.404 -37.567  1.00  0.00    -0.341 OA
BRANCH  32  37
HETATM   37  O7  UNL     1      -6.629  15.014 -38.973  1.00  0.00    -0.368 OA
ATOM     38  H7  UNL     1      -6.188  15.361 -38.206  1.00  0.00     0.212 HD
ENDBRANCH  32  37
BRANCH  35  39
HETATM   39  C13 UNL     1      -4.436  13.518 -39.864  1.00  0.00     0.200 C 
BRANCH  39  40
HETATM   40  O8  UNL     1      -3.762  14.663 -39.514  1.00  0.00    -0.398 OA
ATOM     41  H8  UNL     1      -2.841  14.645 -39.743  1.00  0.00     0.209 HD
ENDBRANCH  39  40
ENDBRANCH  35  39
ENDBRANCH   6  30
BRANCH   1  42
HETATM   42  N1  UNL     1      -5.777   9.515 -30.720  1.00  0.00    -0.234 N 
ATOM     43  H12 UNL     1      -6.363  10.075 -30.102  1.00  0.00     0.174 HD
ATOM     44  H11 UNL     1      -5.388   8.636 -30.379  1.00  0.00     0.174 HD
ENDBRANCH   1  42
BRANCH  10  45
HETATM   45  N8  UNL     1      -3.848   9.037 -34.792  1.00  0.00    -0.232 N 
ATOM     46  H82 UNL     1      -2.855   9.240 -34.904  1.00  0.00     0.174 HD
ATOM     47  H81 UNL     1      -4.308   8.306 -35.334  1.00  0.00     0.174 HD
ENDBRANCH  10  45
TORSDOF 13
ENDMDL
MODEL 4
REMARK VINA RESULT: -7.806631752      8.924     11.531
REMARK  13 active torsions:
REMARK  status: ('A' for Active; 'I' for Inactive)
REMARK    1  A    between atoms: N1_1  and  C1_4 
REMARK    2  A    between atoms: N3_8  and  C3_9 
REMARK    3  A    between atoms: C4_10  and  C5_11 
REMARK    4  A    between atoms: C5_11  and  N4_12 
REMARK    5  A    between atoms: N4_12  and  S1_14 
REMARK    6  A    between atoms: C6_19  and  C7_20 
REMARK    7  A    between atoms: C7_20  and  O5_21 
REMARK    8  A    between atoms: C8_23  and  O6_24 
REMARK    9  A    between atoms: C9_26  and  C10_27 
REMARK   10  A    between atoms: C11_31  and  O7_32 
REMARK   11  A    between atoms: C12_34  and  C13_35 
REMARK   12  A    between atoms: C13_35  and  O8_36 
REMARK   13  A    between atoms: C14_42  and  N8_43 
ROOT
HETATM    1  C1  UNL     1      -5.342   8.142 -29.761  1.00  0.00     0.705 A 
HETATM    2  N2  UNL     1      -4.248   7.559 -30.272  1.00  0.00    -0.019 N 
ATOM      3  H2  UNL     1      -3.803   6.821 -29.726  1.00  0.00     0.203 HD
HETATM    4  C2  UNL     1      -3.698   7.882 -31.454  1.00  0.00     0.737 A 
HETATM    5  N3  UNL     1      -2.625   7.467 -32.177  1.00  0.00    -0.153 N 
HETATM    6  C9  UNL     1      -2.579   8.197 -33.323  1.00  0.00     0.173 A 
HETATM    7  N6  UNL     1      -3.629   9.027 -33.250  1.00  0.00    -0.248 N 
ATOM      8  H6  UNL     1      -3.865   9.708 -33.972  1.00  0.00     0.190 HD
HETATM    9  N7  UNL     1      -4.322   8.865 -32.137  1.00  0.00     0.092 N 
HETATM   10  C14 UNL     1      -5.433   9.470 -31.641  1.00  0.00     0.727 A 
HETATM   11  N9  UNL     1      -5.952   9.119 -30.456  1.00  0.00    -0.020 N 
ATOM     12  H9  UNL     1      -6.786   9.579 -30.092  1.00  0.00     0.203 HD
ENDROOT
BRANCH   5  13
HETATM   13  C3  UNL     1      -1.696   6.451 -31.844  1.00  0.00     0.171 C 
HETATM   14  C4  UNL     1      -2.050   5.056 -32.318  1.00  0.00     0.167 C 
HETATM   15  O4  UNL     1      -1.267   4.181 -31.565  1.00  0.00    -0.372 OA
HETATM   16  C6  UNL     1      -0.822   4.798 -30.433  1.00  0.00     0.176 C 
HETATM   17  C8  UNL     1      -1.543   6.150 -30.368  1.00  0.00     0.175 C 
BRANCH  14  18
HETATM   18  C5  UNL     1      -3.486   4.682 -32.065  1.00  0.00     0.168 C 
BRANCH  18  19
HETATM   19  N4  UNL     1      -3.687   3.399 -32.759  1.00  0.00    -0.298 N 
ATOM     20  H4  UNL     1      -3.451   3.191 -33.729  1.00  0.00     0.174 HD
BRANCH  19  21
HETATM   21  S1  UNL     1      -4.397   2.318 -31.621  1.00  0.00     0.204 S 
HETATM   22  O1  UNL     1      -3.482   1.157 -31.305  1.00  0.00    -0.578 OA
HETATM   23  O2  UNL     1      -5.738   1.874 -32.079  1.00  0.00    -0.578 OA
HETATM   24  O3  UNL     1      -4.593   3.173 -30.172  1.00  0.00    -0.578 OA
ENDBRANCH  19  21
ENDBRANCH  18  19
ENDBRANCH  14  18
BRANCH  16  25
HETATM   25  C7  UNL     1      -1.073   3.991 -29.184  1.00  0.00     0.198 C 
BRANCH  25  26
HETATM   26  O5  UNL     1      -1.745   2.806 -29.484  1.00  0.00    -0.398 OA
ATOM     27  H5  UNL     1      -1.372   2.075 -29.006  1.00  0.00     0.209 HD
ENDBRANCH  25  26
ENDBRANCH  16  25
BRANCH  17  28
HETATM   28  O6  UNL     1      -0.692   7.010 -29.701  1.00  0.00    -0.391 OA
ATOM     29  H6  UNL     1       0.206   6.985 -30.010  1.00  0.00     0.210 HD
ENDBRANCH  17  28
ENDBRANCH   5  13
BRANCH   6  30
HETATM   30  C10 UNL     1      -1.576   8.140 -34.438  1.00  0.00     0.395 C 
HETATM   31  N5  UNL     1      -1.061   9.443 -34.797  1.00  0.00    -0.013 N 
HETATM   32  C11 UNL     1      -0.941   9.362 -36.265  1.00  0.00     0.353 C 
ATOM     33  H52 UNL     1      -1.618  10.228 -34.459  1.00  0.00     0.283 HD
ATOM     34  H51 UNL     1      -0.202   9.708 -34.314  1.00  0.00     0.283 HD
HETATM   35  C12 UNL     1      -2.206   8.566 -36.561  1.00  0.00     0.204 C 
HETATM   36  O9  UNL     1      -2.204   7.625 -35.571  1.00  0.00    -0.341 OA
BRANCH  32  37
HETATM   37  O7  UNL     1       0.207   8.661 -36.528  1.00  0.00    -0.368 OA
ATOM     38  H7  UNL     1       0.298   8.632 -37.474  1.00  0.00     0.212 HD
ENDBRANCH  32  37
BRANCH  35  39
HETATM   39  C13 UNL     1      -2.100   7.852 -37.892  1.00  0.00     0.200 C 
BRANCH  39  40
HETATM   40  O8  UNL     1      -1.801   6.516 -37.775  1.00  0.00    -0.398 OA
ATOM     41  H8  UNL     1      -1.024   6.347 -37.255  1.00  0.00     0.209 HD
ENDBRANCH  39  40
ENDBRANCH  35  39
ENDBRANCH   6  30
BRANCH   1  42
HETATM   42  N1  UNL     1      -5.855   7.817 -28.622  1.00  0.00    -0.234 N 
ATOM     43  H12 UNL     1      -5.295   7.996 -27.789  1.00  0.00     0.174 HD
ATOM     44  H11 UNL     1      -6.779   7.398 -28.522  1.00  0.00     0.174 HD
ENDBRANCH   1  42
BRANCH  10  45
HETATM   45  N8  UNL     1      -5.960  10.387 -32.352  1.00  0.00    -0.232 N 
ATOM     46  H82 UNL     1      -5.405  10.934 -33.011  1.00  0.00     0.174 HD
ATOM     47  H81 UNL     1      -6.959  10.550 -32.233  1.00  0.00     0.174 HD
ENDBRANCH  10  45
TORSDOF 13
ENDMDL
MODEL 5
REMARK VINA RESULT: -7.651949873      7.745     10.892
REMARK  13 active torsions:
REMARK  status: ('A' for Active; 'I' for Inactive)
REMARK    1  A    between atoms: N1_1  and  C1_4 
REMARK    2  A    between atoms: N3_8  and  C3_9 
REMARK    3  A    between atoms: C4_10  and  C5_11 
REMARK    4  A    between atoms: C5_11  and  N4_12 
REMARK    5  A    between atoms: N4_12  and  S1_14 
REMARK    6  A    between atoms: C6_19  and  C7_20 
REMARK    7  A    between atoms: C7_20  and  O5_21 
REMARK    8  A    between atoms: C8_23  and  O6_24 
REMARK    9  A    between atoms: C9_26  and  C10_27 
REMARK   10  A    between atoms: C11_31  and  O7_32 
REMARK   11  A    between atoms: C12_34  and  C13_35 
REMARK   12  A    between atoms: C13_35  and  O8_36 
REMARK   13  A    between atoms: C14_42  and  N8_43 
ROOT
HETATM    1  C1  UNL     1      -3.840   6.839 -29.072  1.00  0.00     0.705 A 
HETATM    2  N2  UNL     1      -3.234   6.873 -30.268  1.00  0.00    -0.019 N 
ATOM      3  H2  UNL     1      -2.427   6.265 -30.410  1.00  0.00     0.203 HD
HETATM    4  C2  UNL     1      -3.619   7.653 -31.291  1.00  0.00     0.737 A 
HETATM    5  N3  UNL     1      -3.192   7.877 -32.562  1.00  0.00    -0.153 N 
HETATM    6  C9  UNL     1      -4.004   8.812 -33.124  1.00  0.00     0.173 A 
HETATM    7  N6  UNL     1      -4.895   9.117 -32.169  1.00  0.00    -0.248 N 
ATOM      8  H6  UNL     1      -5.645   9.797 -32.291  1.00  0.00     0.190 HD
HETATM    9  N7  UNL     1      -4.691   8.439 -31.054  1.00  0.00     0.092 N 
HETATM   10  C14 UNL     1      -5.322   8.422 -29.851  1.00  0.00     0.727 A 
HETATM   11  N9  UNL     1      -4.907   7.627 -28.854  1.00  0.00    -0.020 N 
ATOM     12  H9  UNL     1      -5.388   7.621 -27.955  1.00  0.00     0.203 HD
ENDROOT
BRANCH   5  13
HETATM   13  C3  UNL     1      -2.104   7.264 -33.232  1.00  0.00     0.171 C 
HETATM   14  C4  UNL     1      -2.440   6.022 -34.030  1.00  0.00     0.167 C 
HETATM   15  O4  UNL     1      -1.231   5.364 -34.251  1.00  0.00    -0.372 OA
HETATM   16  C6  UNL     1      -0.291   5.786 -33.358  1.00  0.00     0.176 C 
HETATM   17  C8  UNL     1      -1.027   6.673 -32.346  1.00  0.00     0.175 C 
BRANCH  14  18
HETATM   18  C5  UNL     1      -3.330   5.057 -33.292  1.00  0.00     0.168 C 
BRANCH  18  19
HETATM   19  N4  UNL     1      -3.271   3.801 -34.057  1.00  0.00    -0.298 N 
ATOM     20  H4  UNL     1      -3.088   3.707 -35.057  1.00  0.00     0.174 HD
BRANCH  19  21
HETATM   21  S1  UNL     1      -3.566   2.519 -32.945  1.00  0.00     0.204 S 
HETATM   22  O1  UNL     1      -2.888   1.238 -33.373  1.00  0.00    -0.578 OA
HETATM   23  O2  UNL     1      -5.023   2.340 -32.718  1.00  0.00    -0.578 OA
HETATM   24  O3  UNL     1      -2.855   2.959 -31.472  1.00  0.00    -0.578 OA
ENDBRANCH  19  21
ENDBRANCH  18  19
ENDBRANCH  14  18
BRANCH  16  25
HETATM   25  C7  UNL     1       0.416   4.650 -32.664  1.00  0.00     0.198 C 
BRANCH  25  26
HETATM   26  O5  UNL     1      -0.171   4.377 -31.429  1.00  0.00    -0.398 OA
ATOM     27  H5  UNL     1       0.174   3.573 -31.060  1.00  0.00     0.209 HD
ENDBRANCH  25  26
ENDBRANCH  16  25
BRANCH  17  28
HETATM   28  O6  UNL     1      -0.102   7.593 -31.891  1.00  0.00    -0.391 OA
ATOM     29  H6  UNL     1       0.741   7.217 -31.668  1.00  0.00     0.210 HD
ENDBRANCH  17  28
ENDBRANCH   5  13
BRANCH   6  30
HETATM   30  C10 UNL     1      -3.939   9.418 -34.494  1.00  0.00     0.395 C 
HETATM   31  N5  UNL     1      -4.058  10.859 -34.477  1.00  0.00    -0.013 N 
HETATM   32  C11 UNL     1      -4.869  11.142 -35.676  1.00  0.00     0.353 C 
ATOM     33  H52 UNL     1      -4.432  11.245 -33.610  1.00  0.00     0.283 HD
ATOM     34  H51 UNL     1      -3.169  11.359 -34.438  1.00  0.00     0.283 HD
HETATM   35  C12 UNL     1      -5.831   9.963 -35.592  1.00  0.00     0.204 C 
HETATM   36  O9  UNL     1      -5.007   8.931 -35.245  1.00  0.00    -0.341 OA
BRANCH  32  37
HETATM   37  O7  UNL     1      -4.022  11.067 -36.751  1.00  0.00    -0.368 OA
ATOM     38  H7  UNL     1      -4.431  11.558 -37.455  1.00  0.00     0.212 HD
ENDBRANCH  32  37
BRANCH  35  39
HETATM   39  C13 UNL     1      -6.431   9.653 -36.948  1.00  0.00     0.200 C 
BRANCH  39  40
HETATM   40  O8  UNL     1      -5.658   8.810 -37.709  1.00  0.00    -0.398 OA
ATOM     41  H8  UNL     1      -4.772   9.125 -37.841  1.00  0.00     0.209 HD
ENDBRANCH  39  40
ENDBRANCH  35  39
ENDBRANCH   6  30
BRANCH   1  42
HETATM   42  N1  UNL     1      -3.455   6.081 -28.101  1.00  0.00    -0.234 N 
ATOM     43  H12 UNL     1      -3.755   6.338 -27.161  1.00  0.00     0.174 HD
ATOM     44  H11 UNL     1      -2.876   5.252 -28.232  1.00  0.00     0.174 HD
ENDBRANCH   1  42
BRANCH  10  45
HETATM   45  N8  UNL     1      -6.326   9.194 -29.713  1.00  0.00    -0.232 N 
ATOM     46  H82 UNL     1      -6.218  10.208 -29.696  1.00  0.00     0.174 HD
ATOM     47  H81 UNL     1      -7.241   8.753 -29.619  1.00  0.00     0.174 HD
ENDBRANCH  10  45
TORSDOF 13
ENDMDL
