MODEL 1
REMARK VINA RESULT: -8.510507175      0.000      0.000
REMARK  13 active torsions:
REMARK  status: ('A' for Active; 'I' for Inactive)
REMARK    1  A    between atoms: N1_1  and  C1_4 
REMARK    2  A    between atoms: N4_12  and  C5_13 
REMARK    3  A    between atoms: C6_15  and  O2_16 
REMARK    4  A    between atoms: C7_18  and  N5_19 
REMARK       I    between atoms: N5_19  and  C8_21 
REMARK    5  A    between atoms: C8_21  and  C9_23 
REMARK    6  A    between atoms: C9_23  and  N6_24 
REMARK    7  A    between atoms: N6_24  and  C10_26 
REMARK    8  A    between atoms: C11_28  and  O5_29 
REMARK    9  A    between atoms: N7_33  and  C13_34 
REMARK   10  A    between atoms: C14_35  and  O7_36 
REMARK   11  A    between atoms: C15_38  and  O8_39 
REMARK   12  A    between atoms: C16_41  and  O9_42 
REMARK   13  A    between atoms: C17_44  and  O10_45 
ROOT
HETATM    1  C1  UNL     1      -3.701  10.562 -37.527  1.00  0.00     0.683 A 
HETATM    2  N2  UNL     1      -4.730  11.100 -36.818  1.00  0.00    -0.174 N 
ATOM      3  H2  UNL     1      -5.187  10.523 -36.111  1.00  0.00     0.186 HD
HETATM    4  C2  UNL     1      -5.172  12.350 -37.003  1.00  0.00     0.159 A 
HETATM    5  C3  UNL     1      -4.523  13.087 -37.966  1.00  0.00     0.148 A 
HETATM    6  N3  UNL     1      -5.114  14.285 -37.985  1.00  0.00    -0.345 N 
ATOM      7  H3  UNL     1      -4.865  15.065 -38.593  1.00  0.00     0.167 HD
HETATM    8  C4  UNL     1      -6.107  14.286 -37.054  1.00  0.00     0.188 A 
HETATM    9  N4  UNL     1      -6.152  13.089 -36.438  1.00  0.00    -0.297 N 
HETATM   10  C12 UNL     1      -3.471  12.516 -38.679  1.00  0.00     0.293 A 
HETATM   11  O6  UNL     1      -2.933  13.235 -39.529  1.00  0.00    -0.265 OA
HETATM   12  N7  UNL     1      -3.033  11.260 -38.488  1.00  0.00    -0.136 N 
ENDROOT
BRANCH   9  13
HETATM   13  C5  UNL     1      -7.051  12.651 -35.385  1.00  0.00     0.264 C 
HETATM   14  O1  UNL     1      -6.584  11.574 -34.680  1.00  0.00    -0.332 OA
HETATM   15  C6  UNL     1      -6.293  11.955 -33.398  1.00  0.00     0.284 C 
HETATM   16  C7  UNL     1      -7.318  13.016 -33.083  1.00  0.00     0.172 C 
HETATM   17  C11 UNL     1      -7.406  13.742 -34.425  1.00  0.00     0.195 C 
BRANCH  15  18
HETATM   18  O2  UNL     1      -4.990  12.409 -33.228  1.00  0.00    -0.369 OA
ATOM     19  H2  UNL     1      -4.465  11.863 -32.656  1.00  0.00     0.212 HD
ENDBRANCH  15  18
BRANCH  16  20
HETATM   20  N5  UNL     1      -6.860  13.923 -32.032  1.00  0.00    -0.348 N 
HETATM   21  C8  UNL     1      -7.795  14.650 -31.295  1.00  0.00     0.235 C 
HETATM   22  O3  UNL     1      -9.032  14.499 -31.580  1.00  0.00    -0.272 OA
ATOM     23  H5  UNL     1      -5.863  14.023 -31.839  1.00  0.00     0.163 HD
BRANCH  21  24
HETATM   24  C9  UNL     1      -7.446  15.576 -30.221  1.00  0.00     0.224 C 
BRANCH  24  25
HETATM   25  N6  UNL     1      -6.315  16.411 -30.544  1.00  0.00    -0.359 N 
ATOM     26  H6  UNL     1      -6.423  17.124 -31.264  1.00  0.00     0.162 HD
BRANCH  25  27
HETATM   27  C10 UNL     1      -5.069  16.278 -29.905  1.00  0.00     0.348 C 
HETATM   28  O4  UNL     1      -4.634  17.106 -29.056  1.00  0.00    -0.284 OA
ENDBRANCH  25  27
ENDBRANCH  24  25
ENDBRANCH  21  24
ENDBRANCH  16  20
BRANCH  17  29
HETATM   29  O5  UNL     1      -8.704  14.243 -34.636  1.00  0.00    -0.389 OA
ATOM     30  H5  UNL     1      -8.711  15.008 -35.198  1.00  0.00     0.210 HD
ENDBRANCH  17  29
ENDBRANCH   9  13
BRANCH   1  31
HETATM   31  N1  UNL     1      -3.414   9.367 -37.227  1.00  0.00    -0.234 N 
ATOM     32  H12 UNL     1      -2.803   9.126 -36.447  1.00  0.00     0.174 HD
ATOM     33  H11 UNL     1      -3.839   8.659 -37.826  1.00  0.00     0.174 HD
ENDBRANCH   1  31
BRANCH  12  34
HETATM   34  C13 UNL     1      -1.955  10.759 -39.256  1.00  0.00     0.174 C 
HETATM   35  C14 UNL     1      -2.242   9.556 -40.128  1.00  0.00     0.176 C 
HETATM   36  C15 UNL     1      -1.278   8.485 -39.740  1.00  0.00     0.180 C 
HETATM   37  C16 UNL     1      -0.141   9.228 -39.132  1.00  0.00     0.180 C 
HETATM   38  C17 UNL     1      -0.652  10.529 -38.563  1.00  0.00     0.176 C 
BRANCH  35  39
HETATM   39  O7  UNL     1      -3.566   9.180 -40.179  1.00  0.00    -0.391 OA
ATOM     40  H7  UNL     1      -3.979   9.284 -41.028  1.00  0.00     0.210 HD
ENDBRANCH  35  39
BRANCH  36  41
HETATM   41  O8  UNL     1      -0.768   7.801 -40.878  1.00  0.00    -0.390 OA
ATOM     42  H8  UNL     1      -0.880   8.310 -41.672  1.00  0.00     0.210 HD
ENDBRANCH  36  41
BRANCH  37  43
HETATM   43  O9  UNL     1       0.779   9.523 -40.168  1.00  0.00    -0.390 OA
ATOM     44  H9  UNL     1       1.551   9.902 -39.765  1.00  0.00     0.210 HD
ENDBRANCH  37  43
BRANCH  38  45
HETATM   45  O10 UNL     1      -0.682  10.563 -37.178  1.00  0.00    -0.391 OA
ATOM     46  H10 UNL     1      -0.948   9.761 -36.745  1.00  0.00     0.210 HD
ENDBRANCH  38  45
ENDBRANCH  12  34
TORSDOF 13
ENDMDL
MODEL 2
REMARK VINA RESULT: -8.239237127      1.984      9.507
REMARK  13 active torsions:
REMARK  status: ('A' for Active; 'I' for Inactive)
REMARK    1  A    between atoms: N1_1  and  C1_4 
REMARK    2  A    between atoms: N4_12  and  C5_13 
REMARK    3  A    between atoms: C6_15  and  O2_16 
REMARK    4  A    between atoms: C7_18  and  N5_19 
REMARK       I    between atoms: N5_19  and  C8_21 
REMARK    5  A    between atoms: C8_21  and  C9_23 
REMARK    6  A    between atoms: C9_23  and  N6_24 
REMARK    7  A    between atoms: N6_24  and  C10_26 
REMARK    8  A    between atoms: C11_28  and  O5_29 
REMARK    9  A    between atoms: N7_33  and  C13_34 
REMARK   10  A    between atoms: C14_35  and  O7_36 
REMARK   11  A    between atoms: C15_38  and  O8_39 
REMARK   12  A    between atoms: C16_41  and  O9_42 
REMARK   13  A    between atoms: C17_44  and  O10_45 
ROOT
HETATM    1  C1  UNL     1      -6.541  15.328 -34.250  1.00  0.00     0.683 A 
HETATM    2  N2  UNL     1      -6.239  14.445 -35.240  1.00  0.00    -0.174 N 
ATOM      3  H2  UNL     1      -6.350  14.745 -36.209  1.00  0.00     0.186 HD
HETATM    4  C2  UNL     1      -5.803  13.201 -35.005  1.00  0.00     0.159 A 
HETATM    5  C3  UNL     1      -5.670  12.846 -33.682  1.00  0.00     0.148 A 
HETATM    6  N3  UNL     1      -5.229  11.584 -33.675  1.00  0.00    -0.345 N 
ATOM      7  H3  UNL     1      -5.027  11.026 -32.846  1.00  0.00     0.167 HD
HETATM    8  C4  UNL     1      -5.095  11.172 -34.965  1.00  0.00     0.188 A 
HETATM    9  N4  UNL     1      -5.449  12.168 -35.799  1.00  0.00    -0.297 N 
HETATM   10  C12 UNL     1      -5.983  13.767 -32.686  1.00  0.00     0.293 A 
HETATM   11  O6  UNL     1      -5.840  13.379 -31.520  1.00  0.00    -0.265 OA
HETATM   12  N7  UNL     1      -6.420  15.013 -32.930  1.00  0.00    -0.136 N 
ENDROOT
BRANCH   9  13
HETATM   13  C5  UNL     1      -5.460  12.167 -37.252  1.00  0.00     0.264 C 
HETATM   14  O1  UNL     1      -5.725  13.393 -37.798  1.00  0.00    -0.332 OA
HETATM   15  C6  UNL     1      -4.610  13.861 -38.441  1.00  0.00     0.284 C 
HETATM   16  C7  UNL     1      -3.949  12.621 -38.988  1.00  0.00     0.172 C 
HETATM   17  C11 UNL     1      -4.194  11.634 -37.847  1.00  0.00     0.195 C 
BRANCH  15  18
HETATM   18  O2  UNL     1      -3.761  14.602 -37.628  1.00  0.00    -0.369 OA
ATOM     19  H2  UNL     1      -4.031  15.504 -37.511  1.00  0.00     0.212 HD
ENDBRANCH  15  18
BRANCH  16  20
HETATM   20  N5  UNL     1      -2.516  12.816 -39.204  1.00  0.00    -0.348 N 
HETATM   21  C8  UNL     1      -1.838  11.996 -40.106  1.00  0.00     0.235 C 
HETATM   22  O3  UNL     1      -2.504  11.086 -40.707  1.00  0.00    -0.272 OA
ATOM     23  H5  UNL     1      -2.016  13.548 -38.698  1.00  0.00     0.163 HD
BRANCH  21  24
HETATM   24  C9  UNL     1      -0.412  12.111 -40.400  1.00  0.00     0.224 C 
BRANCH  24  25
HETATM   25  N6  UNL     1       0.280  10.848 -40.329  1.00  0.00    -0.359 N 
ATOM     26  H6  UNL     1       0.791  10.523 -41.149  1.00  0.00     0.162 HD
BRANCH  25  27
HETATM   27  C10 UNL     1       0.275  10.045 -39.174  1.00  0.00     0.348 C 
HETATM   28  O4  UNL     1       0.286   8.783 -39.207  1.00  0.00    -0.284 OA
ENDBRANCH  25  27
ENDBRANCH  24  25
ENDBRANCH  21  24
ENDBRANCH  16  20
BRANCH  17  29
HETATM   29  O5  UNL     1      -4.344  10.326 -38.344  1.00  0.00    -0.389 OA
ATOM     30  H5  UNL     1      -4.716  10.310 -39.218  1.00  0.00     0.210 HD
ENDBRANCH  17  29
ENDBRANCH   9  13
BRANCH   1  31
HETATM   31  N1  UNL     1      -6.941  16.460 -34.648  1.00  0.00    -0.234 N 
ATOM     32  H12 UNL     1      -6.518  16.948 -35.437  1.00  0.00     0.174 HD
ATOM     33  H11 UNL     1      -7.721  16.850 -34.120  1.00  0.00     0.174 HD
ENDBRANCH   1  31
BRANCH  12  34
HETATM   34  C13 UNL     1      -6.714  15.886 -31.855  1.00  0.00     0.174 C 
HETATM   35  C14 UNL     1      -5.582  16.196 -30.900  1.00  0.00     0.176 C 
HETATM   36  C15 UNL     1      -6.041  15.820 -29.530  1.00  0.00     0.180 C 
HETATM   37  C16 UNL     1      -7.525  15.872 -29.621  1.00  0.00     0.180 C 
HETATM   38  C17 UNL     1      -7.940  15.610 -31.048  1.00  0.00     0.176 C 
BRANCH  35  39
HETATM   39  O7  UNL     1      -4.354  15.700 -31.278  1.00  0.00    -0.391 OA
ATOM     40  H7  UNL     1      -3.690  16.360 -31.441  1.00  0.00     0.210 HD
ENDBRANCH  35  39
BRANCH  36  41
HETATM   41  O8  UNL     1      -5.647  16.784 -28.562  1.00  0.00    -0.390 OA
ATOM     42  H8  UNL     1      -6.056  17.627 -28.720  1.00  0.00     0.210 HD
ENDBRANCH  36  41
BRANCH  37  43
HETATM   43  O9  UNL     1      -7.928  17.185 -29.272  1.00  0.00    -0.390 OA
ATOM     44  H9  UNL     1      -8.415  17.539 -30.006  1.00  0.00     0.210 HD
ENDBRANCH  37  43
BRANCH  38  45
HETATM   45  O10 UNL     1      -8.534  14.373 -31.242  1.00  0.00    -0.391 OA
ATOM     46  H10 UNL     1      -8.934  14.229 -32.091  1.00  0.00     0.210 HD
ENDBRANCH  38  45
ENDBRANCH  12  34
TORSDOF 13
ENDMDL
MODEL 3
REMARK VINA RESULT: -8.209540955      2.459      9.246
REMARK  13 active torsions:
REMARK  status: ('A' for Active; 'I' for Inactive)
REMARK    1  A    between atoms: N1_1  and  C1_4 
REMARK    2  A    between atoms: N4_12  and  C5_13 
REMARK    3  A    between atoms: C6_15  and  O2_16 
REMARK    4  A    between atoms: C7_18  and  N5_19 
REMARK       I    between atoms: N5_19  and  C8_21 
REMARK    5  A    between atoms: C8_21  and  C9_23 
REMARK    6  A    between atoms: C9_23  and  N6_24 
REMARK    7  A    between atoms: N6_24  and  C10_26 
REMARK    8  A    between atoms: C11_28  and  O5_29 
REMARK    9  A    between atoms: N7_33  and  C13_34 
REMARK   10  A    between atoms: C14_35  and  O7_36 
REMARK   11  A    between atoms: C15_38  and  O8_39 
REMARK   12  A    between atoms: C16_41  and  O9_42 
REMARK   13  A    between atoms: C17_44  and  O10_45 
ROOT
HETATM    1  C1  UNL     1      -5.586  13.358 -32.522  1.00  0.00     0.683 A 
HETATM    2  N2  UNL     1      -5.347  12.459 -33.515  1.00  0.00    -0.174 N 
ATOM      3  H2  UNL     1      -5.018  11.528 -33.258  1.00  0.00     0.186 HD
HETATM    4  C2  UNL     1      -5.522  12.737 -34.813  1.00  0.00     0.159 A 
HETATM    5  C3  UNL     1      -5.968  14.005 -35.106  1.00  0.00     0.148 A 
HETATM    6  N3  UNL     1      -6.074  14.067 -36.437  1.00  0.00    -0.345 N 
ATOM      7  H3  UNL     1      -6.381  14.877 -36.975  1.00  0.00     0.167 HD
HETATM    8  C4  UNL     1      -5.701  12.863 -36.952  1.00  0.00     0.188 A 
HETATM    9  N4  UNL     1      -5.356  12.029 -35.952  1.00  0.00    -0.297 N 
HETATM   10  C12 UNL     1      -6.207  14.908 -34.074  1.00  0.00     0.293 A 
HETATM   11  O6  UNL     1      -6.605  16.029 -34.411  1.00  0.00    -0.265 OA
HETATM   12  N7  UNL     1      -6.028  14.622 -32.774  1.00  0.00    -0.136 N 
ENDROOT
BRANCH   9  13
HETATM   13  C5  UNL     1      -4.898  10.653 -36.042  1.00  0.00     0.264 C 
HETATM   14  O1  UNL     1      -4.813  10.189 -37.326  1.00  0.00    -0.332 OA
HETATM   15  C6  UNL     1      -3.500   9.977 -37.653  1.00  0.00     0.284 C 
HETATM   16  C7  UNL     1      -2.863   9.532 -36.360  1.00  0.00     0.172 C 
HETATM   17  C11 UNL     1      -3.588  10.426 -35.355  1.00  0.00     0.195 C 
BRANCH  15  18
HETATM   18  O2  UNL     1      -2.871  11.089 -38.200  1.00  0.00    -0.369 OA
ATOM     19  H2  UNL     1      -2.086  11.353 -37.735  1.00  0.00     0.212 HD
ENDBRANCH  15  18
BRANCH  16  20
HETATM   20  N5  UNL     1      -1.425   9.793 -36.342  1.00  0.00    -0.348 N 
HETATM   21  C8  UNL     1      -0.544   8.822 -36.818  1.00  0.00     0.235 C 
HETATM   22  O3  UNL     1      -1.036   7.722 -37.246  1.00  0.00    -0.272 OA
ATOM     23  H5  UNL     1      -1.069  10.680 -35.985  1.00  0.00     0.163 HD
BRANCH  21  24
HETATM   24  C9  UNL     1       0.908   8.983 -36.851  1.00  0.00     0.224 C 
BRANCH  24  25
HETATM   25  N6  UNL     1       1.564   8.404 -35.705  1.00  0.00    -0.359 N 
ATOM     26  H6  UNL     1       1.020   8.242 -34.858  1.00  0.00     0.162 HD
BRANCH  25  27
HETATM   27  C10 UNL     1       2.927   8.052 -35.710  1.00  0.00     0.348 C 
HETATM   28  O4  UNL     1       3.354   6.928 -35.325  1.00  0.00    -0.284 OA
ENDBRANCH  25  27
ENDBRANCH  24  25
ENDBRANCH  21  24
ENDBRANCH  16  20
BRANCH  17  29
HETATM   29  O5  UNL     1      -3.737   9.768 -34.120  1.00  0.00    -0.389 OA
ATOM     30  H5  UNL     1      -4.583   9.347 -34.033  1.00  0.00     0.210 HD
ENDBRANCH  17  29
ENDBRANCH   9  13
BRANCH   1  31
HETATM   31  N1  UNL     1      -5.365  12.932 -31.352  1.00  0.00    -0.234 N 
ATOM     32  H12 UNL     1      -4.573  12.332 -31.124  1.00  0.00     0.174 HD
ATOM     33  H11 UNL     1      -6.042  13.232 -30.650  1.00  0.00     0.174 HD
ENDBRANCH   1  31
BRANCH  12  34
HETATM   34  C13 UNL     1      -6.298  15.601 -31.787  1.00  0.00     0.174 C 
HETATM   35  C14 UNL     1      -5.160  15.960 -30.856  1.00  0.00     0.176 C 
HETATM   36  C15 UNL     1      -5.636  15.729 -29.461  1.00  0.00     0.180 C 
HETATM   37  C16 UNL     1      -7.118  15.822 -29.567  1.00  0.00     0.180 C 
HETATM   38  C17 UNL     1      -7.536  15.442 -30.967  1.00  0.00     0.176 C 
BRANCH  35  39
HETATM   39  O7  UNL     1      -3.947  15.390 -31.177  1.00  0.00    -0.391 OA
ATOM     40  H7  UNL     1      -3.238  15.595 -30.578  1.00  0.00     0.210 HD
ENDBRANCH  35  39
BRANCH  36  41
HETATM   41  O8  UNL     1      -5.214  16.765 -28.584  1.00  0.00    -0.390 OA
ATOM     42  H8  UNL     1      -4.320  16.634 -28.290  1.00  0.00     0.210 HD
ENDBRANCH  36  41
BRANCH  37  43
HETATM   43  O9  UNL     1      -7.477  17.174 -29.345  1.00  0.00    -0.390 OA
ATOM     44  H9  UNL     1      -8.418  17.242 -29.450  1.00  0.00     0.210 HD
ENDBRANCH  37  43
BRANCH  38  45
HETATM   45  O10 UNL     1      -8.170  14.214 -31.049  1.00  0.00    -0.391 OA
ATOM     46  H10 UNL     1      -9.112  14.236 -31.172  1.00  0.00     0.210 HD
ENDBRANCH  38  45
ENDBRANCH  12  34
TORSDOF 13
ENDMDL
MODEL 4
REMARK VINA RESULT: -8.201536861      2.575      9.229
REMARK  13 active torsions:
REMARK  status: ('A' for Active; 'I' for Inactive)
REMARK    1  A    between atoms: N1_1  and  C1_4 
REMARK    2  A    between atoms: N4_12  and  C5_13 
REMARK    3  A    between atoms: C6_15  and  O2_16 
REMARK    4  A    between atoms: C7_18  and  N5_19 
REMARK       I    between atoms: N5_19  and  C8_21 
REMARK    5  A    between atoms: C8_21  and  C9_23 
REMARK    6  A    between atoms: C9_23  and  N6_24 
REMARK    7  A    between atoms: N6_24  and  C10_26 
REMARK    8  A    between atoms: C11_28  and  O5_29 
REMARK    9  A    between atoms: N7_33  and  C13_34 
REMARK   10  A    between atoms: C14_35  and  O7_36 
REMARK   11  A    between atoms: C15_38  and  O8_39 
REMARK   12  A    between atoms: C16_41  and  O9_42 
REMARK   13  A    between atoms: C17_44  and  O10_45 
ROOT
HETATM    1  C1  UNL     1      -5.595  12.756 -32.464  1.00  0.00     0.683 A 
HETATM    2  N2  UNL     1      -5.264  11.870 -33.443  1.00  0.00    -0.174 N 
ATOM      3  H2  UNL     1      -4.686  11.067 -33.195  1.00  0.00     0.186 HD
HETATM    4  C2  UNL     1      -5.660  12.002 -34.715  1.00  0.00     0.159 A 
HETATM    5  C3  UNL     1      -6.437  13.101 -34.997  1.00  0.00     0.148 A 
HETATM    6  N3  UNL     1      -6.717  13.039 -36.303  1.00  0.00    -0.345 N 
ATOM      7  H3  UNL     1      -7.278  13.710 -36.826  1.00  0.00     0.167 HD
HETATM    8  C4  UNL     1      -6.123  11.926 -36.813  1.00  0.00     0.188 A 
HETATM    9  N4  UNL     1      -5.464  11.274 -35.836  1.00  0.00    -0.297 N 
HETATM   10  C12 UNL     1      -6.765  13.994 -33.979  1.00  0.00     0.293 A 
HETATM   11  O6  UNL     1      -7.466  14.959 -34.305  1.00  0.00    -0.265 OA
HETATM   12  N7  UNL     1      -6.364  13.855 -32.705  1.00  0.00    -0.136 N 
ENDROOT
BRANCH   9  13
HETATM   13  C5  UNL     1      -4.695  10.045 -35.931  1.00  0.00     0.264 C 
HETATM   14  O1  UNL     1      -4.523   9.606 -37.216  1.00  0.00    -0.332 OA
HETATM   15  C6  UNL     1      -3.203   9.710 -37.565  1.00  0.00     0.284 C 
HETATM   16  C7  UNL     1      -2.457   9.436 -36.283  1.00  0.00     0.172 C 
HETATM   17  C11 UNL     1      -3.357  10.139 -35.267  1.00  0.00     0.195 C 
BRANCH  15  18
HETATM   18  O2  UNL     1      -2.864  10.935 -38.125  1.00  0.00    -0.369 OA
ATOM     19  H2  UNL     1      -3.130  11.683 -37.604  1.00  0.00     0.212 HD
ENDBRANCH  15  18
BRANCH  16  20
HETATM   20  N5  UNL     1      -1.122  10.031 -36.290  1.00  0.00    -0.348 N 
HETATM   21  C8  UNL     1      -0.037   9.279 -36.741  1.00  0.00     0.235 C 
HETATM   22  O3  UNL     1      -0.255   8.079 -37.124  1.00  0.00    -0.272 OA
ATOM     23  H5  UNL     1      -0.985  10.989 -35.968  1.00  0.00     0.163 HD
BRANCH  21  24
HETATM   24  C9  UNL     1       1.335   9.778 -36.797  1.00  0.00     0.224 C 
BRANCH  24  25
HETATM   25  N6  UNL     1       2.208   9.128 -35.851  1.00  0.00    -0.359 N 
ATOM     26  H6  UNL     1       1.954   9.136 -34.864  1.00  0.00     0.162 HD
BRANCH  25  27
HETATM   27  C10 UNL     1       3.398   8.483 -36.238  1.00  0.00     0.348 C 
HETATM   28  O4  UNL     1       3.722   7.330 -35.839  1.00  0.00    -0.284 OA
ENDBRANCH  25  27
ENDBRANCH  24  25
ENDBRANCH  21  24
ENDBRANCH  16  20
BRANCH  17  29
HETATM   29  O5  UNL     1      -3.325   9.473 -34.028  1.00  0.00    -0.389 OA
ATOM     30  H5  UNL     1      -2.785   9.923 -33.388  1.00  0.00     0.210 HD
ENDBRANCH  17  29
ENDBRANCH   9  13
BRANCH   1  31
HETATM   31  N1  UNL     1      -5.135  12.482 -31.319  1.00  0.00    -0.234 N 
ATOM     32  H12 UNL     1      -4.335  12.969 -30.915  1.00  0.00     0.174 HD
ATOM     33  H11 UNL     1      -5.624  11.735 -30.826  1.00  0.00     0.174 HD
ENDBRANCH   1  31
BRANCH  12  34
HETATM   34  C13 UNL     1      -6.744  14.811 -31.732  1.00  0.00     0.174 C 
HETATM   35  C14 UNL     1      -8.211  14.861 -31.366  1.00  0.00     0.176 C 
HETATM   36  C15 UNL     1      -8.682  16.257 -31.606  1.00  0.00     0.180 C 
HETATM   37  C16 UNL     1      -7.440  17.074 -31.525  1.00  0.00     0.180 C 
HETATM   38  C17 UNL     1      -6.260  16.213 -31.904  1.00  0.00     0.176 C 
BRANCH  35  39
HETATM   39  O7  UNL     1      -8.982  13.865 -31.923  1.00  0.00    -0.391 OA
ATOM     40  H7  UNL     1      -9.770  14.167 -32.361  1.00  0.00     0.210 HD
ENDBRANCH  35  39
BRANCH  36  41
HETATM   41  O8  UNL     1      -9.545  16.706 -30.568  1.00  0.00    -0.390 OA
ATOM     42  H8  UNL     1      -9.444  17.637 -30.407  1.00  0.00     0.210 HD
ENDBRANCH  36  41
BRANCH  37  43
HETATM   43  O9  UNL     1      -7.283  17.480 -30.178  1.00  0.00    -0.390 OA
ATOM     44  H9  UNL     1      -7.998  17.102 -29.680  1.00  0.00     0.210 HD
ENDBRANCH  37  43
BRANCH  38  45
HETATM   45  O10 UNL     1      -5.712  16.523 -33.139  1.00  0.00    -0.391 OA
ATOM     46  H10 UNL     1      -5.376  17.406 -33.238  1.00  0.00     0.210 HD
ENDBRANCH  38  45
ENDBRANCH  12  34
TORSDOF 13
ENDMDL
MODEL 5
REMARK VINA RESULT: -8.191798740      2.199      9.199
REMARK  13 active torsions:
REMARK  status: ('A' for Active; 'I' for Inactive)
REMARK    1  A    between atoms: N1_1  and  C1_4 
REMARK    2  A    between atoms: N4_12  and  C5_13 
REMARK    3  A    between atoms: C6_15  and  O2_16 
REMARK    4  A    between atoms: C7_18  and  N5_19 
REMARK       I    between atoms: N5_19  and  C8_21 
REMARK    5  A    between atoms: C8_21  and  C9_23 
REMARK    6  A    between atoms: C9_23  and  N6_24 
REMARK    7  A    between atoms: N6_24  and  C10_26 
REMARK    8  A    between atoms: C11_28  and  O5_29 
REMARK    9  A    between atoms: N7_33  and  C13_34 
REMARK   10  A    between atoms: C14_35  and  O7_36 
REMARK   11  A    between atoms: C15_38  and  O8_39 
REMARK   12  A    between atoms: C16_41  and  O9_42 
REMARK   13  A    between atoms: C17_44  and  O10_45 
ROOT
HETATM    1  C1  UNL     1      -5.627  13.087 -32.497  1.00  0.00     0.683 A 
HETATM    2  N2  UNL     1      -5.366  12.111 -33.410  1.00  0.00    -0.174 N 
ATOM      3  H2  UNL     1      -4.694  11.384 -33.164  1.00  0.00     0.186 HD
HETATM    4  C2  UNL     1      -5.950  12.060 -34.613  1.00  0.00     0.159 A 
HETATM    5  C3  UNL     1      -6.849  13.062 -34.895  1.00  0.00     0.148 A 
HETATM    6  N3  UNL     1      -7.307  12.821 -36.127  1.00  0.00    -0.345 N 
ATOM      7  H3  UNL     1      -7.992  13.384 -36.631  1.00  0.00     0.167 HD
HETATM    8  C4  UNL     1      -6.702  11.695 -36.594  1.00  0.00     0.188 A 
HETATM    9  N4  UNL     1      -5.857  11.214 -35.663  1.00  0.00    -0.297 N 
HETATM   10  C12 UNL     1      -7.101  14.049 -33.945  1.00  0.00     0.293 A 
HETATM   11  O6  UNL     1      -7.920  14.919 -34.265  1.00  0.00    -0.265 OA
HETATM   12  N7  UNL     1      -6.511  14.095 -32.739  1.00  0.00    -0.136 N 
ENDROOT
BRANCH   9  13
HETATM   13  C5  UNL     1      -5.009  10.036 -35.736  1.00  0.00     0.264 C 
HETATM   14  O1  UNL     1      -5.206   9.290 -36.866  1.00  0.00    -0.332 OA
HETATM   15  C6  UNL     1      -4.093   9.358 -37.662  1.00  0.00     0.284 C 
HETATM   16  C7  UNL     1      -2.946   9.455 -36.688  1.00  0.00     0.172 C 
HETATM   17  C11 UNL     1      -3.552  10.355 -35.612  1.00  0.00     0.195 C 
BRANCH  15  18
HETATM   18  O2  UNL     1      -4.113  10.413 -38.566  1.00  0.00    -0.369 OA
ATOM     19  H2  UNL     1      -4.881  10.426 -39.125  1.00  0.00     0.212 HD
ENDBRANCH  15  18
BRANCH  16  20
HETATM   20  N5  UNL     1      -1.772  10.085 -37.289  1.00  0.00    -0.348 N 
HETATM   21  C8  UNL     1      -0.802   9.290 -37.900  1.00  0.00     0.235 C 
HETATM   22  O3  UNL     1      -0.975   8.024 -37.900  1.00  0.00    -0.272 OA
ATOM     23  H5  UNL     1      -1.663  11.099 -37.262  1.00  0.00     0.163 HD
BRANCH  21  24
HETATM   24  C9  UNL     1       0.404   9.818 -38.535  1.00  0.00     0.224 C 
BRANCH  24  25
HETATM   25  N6  UNL     1       0.146  10.410 -39.824  1.00  0.00    -0.359 N 
ATOM     26  H6  UNL     1       0.370   9.875 -40.663  1.00  0.00     0.162 HD
BRANCH  25  27
HETATM   27  C10 UNL     1      -0.400  11.698 -39.970  1.00  0.00     0.348 C 
HETATM   28  O4  UNL     1      -1.622  11.957 -39.785  1.00  0.00    -0.284 OA
ENDBRANCH  25  27
ENDBRANCH  24  25
ENDBRANCH  21  24
ENDBRANCH  16  20
BRANCH  17  29
HETATM   29  O5  UNL     1      -3.037  10.030 -34.343  1.00  0.00    -0.389 OA
ATOM     30  H5  UNL     1      -3.462  10.514 -33.645  1.00  0.00     0.210 HD
ENDBRANCH  17  29
ENDBRANCH   9  13
BRANCH   1  31
HETATM   31  N1  UNL     1      -4.986  12.987 -31.412  1.00  0.00    -0.234 N 
ATOM     32  H12 UNL     1      -5.417  13.141 -30.500  1.00  0.00     0.174 HD
ATOM     33  H11 UNL     1      -4.001  12.740 -31.515  1.00  0.00     0.174 HD
ENDBRANCH   1  31
BRANCH  12  34
HETATM   34  C13 UNL     1      -6.827  15.135 -31.832  1.00  0.00     0.174 C 
HETATM   35  C14 UNL     1      -8.243  15.168 -31.301  1.00  0.00     0.176 C 
HETATM   36  C15 UNL     1      -8.810  16.509 -31.627  1.00  0.00     0.180 C 
HETATM   37  C16 UNL     1      -7.611  17.378 -31.781  1.00  0.00     0.180 C 
HETATM   38  C17 UNL     1      -6.439  16.528 -32.207  1.00  0.00     0.176 C 
BRANCH  35  39
HETATM   39  O7  UNL     1      -9.019  14.087 -31.655  1.00  0.00    -0.391 OA
ATOM     40  H7  UNL     1      -9.901  14.303 -31.936  1.00  0.00     0.210 HD
ENDBRANCH  35  39
BRANCH  36  41
HETATM   41  O8  UNL     1      -9.570  17.035 -30.546  1.00  0.00    -0.390 OA
ATOM     42  H8  UNL     1      -9.864  16.349 -29.958  1.00  0.00     0.210 HD
ENDBRANCH  36  41
BRANCH  37  43
HETATM   43  O9  UNL     1      -7.322  17.935 -30.511  1.00  0.00    -0.390 OA
ATOM     44  H9  UNL     1      -6.911  17.257 -29.988  1.00  0.00     0.210 HD
ENDBRANCH  37  43
BRANCH  38  45
HETATM   45  O10 UNL     1      -6.053  16.723 -33.523  1.00  0.00    -0.391 OA
ATOM     46  H10 UNL     1      -5.401  17.397 -33.674  1.00  0.00     0.210 HD
ENDBRANCH  38  45
ENDBRANCH  12  34
TORSDOF 13
ENDMDL
