MODEL 1
REMARK VINA RESULT: -8.675873413      0.000      0.000
REMARK  12 active torsions:
REMARK  status: ('A' for Active; 'I' for Inactive)
REMARK    1  A    between atoms: N1_1  and  C1_4 
REMARK    2  A    between atoms: N5_15  and  C5_16 
REMARK    3  A    between atoms: C6_18  and  C7_19 
REMARK    4  A    between atoms: C7_19  and  O2_20 
REMARK    5  A    between atoms: C8_22  and  O3_23 
REMARK    6  A    between atoms: O3_23  and  C9_24 
REMARK    7  A    between atoms: C9_24  and  C10_25 
REMARK    8  A    between atoms: C12_32  and  O7_33 
REMARK    9  A    between atoms: C13_35  and  C14_36 
REMARK   10  A    between atoms: C14_36  and  O8_37 
REMARK   11  A    between atoms: C14_36  and  O9_39 
REMARK   12  A    between atoms: C15_42  and  O11_43 
ROOT
HETATM    1  C5  UNL     1      -5.900  12.703 -38.317  1.00  0.00     0.262 C 
HETATM    2  O1  UNL     1      -6.008  11.400 -37.833  1.00  0.00    -0.353 OA
HETATM    3  C6  UNL     1      -6.893  11.489 -36.769  1.00  0.00     0.179 C 
HETATM    4  C8  UNL     1      -6.610  12.798 -36.052  1.00  0.00     0.191 C 
HETATM    5  C15 UNL     1      -5.794  13.574 -37.101  1.00  0.00     0.199 C 
ENDROOT
BRANCH   4   6
HETATM    6  O3  UNL     1      -5.829  12.640 -34.946  1.00  0.00    -0.319 OA
BRANCH   6   7
HETATM    7  C9  UNL     1      -6.265  13.194 -33.775  1.00  0.00     0.346 C 
HETATM    8  N6  UNL     1      -6.774  14.531 -34.137  1.00  0.00    -0.294 N 
HETATM    9  C11 UNL     1      -6.234  15.716 -33.576  1.00  0.00     0.253 C 
ATOM     10  H6  UNL     1      -7.536  14.605 -34.810  1.00  0.00     0.168 HD
HETATM   11  O6  UNL     1      -6.383  16.855 -34.133  1.00  0.00    -0.270 OA
HETATM   12  C12 UNL     1      -5.478  15.585 -32.301  1.00  0.00     0.243 C 
HETATM   13  C13 UNL     1      -5.701  14.160 -31.815  1.00  0.00     0.220 C 
HETATM   14  O10 UNL     1      -5.267  13.319 -32.810  1.00  0.00    -0.316 OA
BRANCH   7  15
HETATM   15  C10 UNL     1      -7.393  12.450 -33.170  1.00  0.00     0.263 C 
HETATM   16  O4  UNL     1      -7.295  11.194 -32.958  1.00  0.00    -0.642 OA
HETATM   17  O5  UNL     1      -8.602  13.004 -32.794  1.00  0.00    -0.642 OA
ENDBRANCH   7  15
BRANCH  12  18
HETATM   18  O7  UNL     1      -5.936  16.502 -31.348  1.00  0.00    -0.383 OA
ATOM     19  H7  UNL     1      -5.964  16.111 -30.482  1.00  0.00     0.210 HD
ENDBRANCH  12  18
BRANCH  13  20
HETATM   20  C14 UNL     1      -5.007  13.918 -30.494  1.00  0.00     0.285 C 
BRANCH  20  21
HETATM   21  O8  UNL     1      -5.945  14.221 -29.483  1.00  0.00    -0.369 OA
ATOM     22  H8  UNL     1      -5.517  14.823 -28.886  1.00  0.00     0.212 HD
ENDBRANCH  20  21
BRANCH  20  23
HETATM   23  O9  UNL     1      -3.907  14.719 -30.309  1.00  0.00    -0.369 OA
ATOM     24  H9  UNL     1      -3.632  14.771 -29.401  1.00  0.00     0.212 HD
ENDBRANCH  20  23
ENDBRANCH  13  20
ENDBRANCH   6   7
ENDBRANCH   4   6
BRANCH   3  25
HETATM   25  C7  UNL     1      -6.725  10.292 -35.858  1.00  0.00     0.198 C 
BRANCH  25  26
HETATM   26  O2  UNL     1      -7.588   9.260 -36.149  1.00  0.00    -0.398 OA
ATOM     27  H2  UNL     1      -7.167   8.408 -36.153  1.00  0.00     0.209 HD
ENDBRANCH  25  26
ENDBRANCH   3  25
BRANCH   5  28
HETATM   28  O11 UNL     1      -4.495  13.761 -36.665  1.00  0.00    -0.388 OA
ATOM     29  H11 UNL     1      -4.183  14.652 -36.769  1.00  0.00     0.210 HD
ENDBRANCH   5  28
BRANCH   1  30
HETATM   30  N5  UNL     1      -4.747  12.833 -39.185  1.00  0.00    -0.297 N 
HETATM   31  C4  UNL     1      -4.571  13.656 -40.226  1.00  0.00     0.188 A 
HETATM   32  N4  UNL     1      -3.357  13.470 -40.777  1.00  0.00    -0.346 N 
HETATM   33  C3  UNL     1      -2.734  12.508 -40.082  1.00  0.00     0.123 A 
ATOM     34  H4  UNL     1      -2.979  13.971 -41.581  1.00  0.00     0.167 HD
HETATM   35  C2  UNL     1      -1.488  11.951 -40.233  1.00  0.00     0.145 A 
HETATM   36  C16 UNL     1      -3.611  12.119 -39.092  1.00  0.00     0.157 A 
HETATM   37  N2  UNL     1      -1.116  10.991 -39.380  1.00  0.00    -0.175 N 
HETATM   38  N3  UNL     1      -0.668  12.310 -41.152  1.00  0.00    -0.383 N 
HETATM   39  C1  UNL     1      -1.973  10.594 -38.395  1.00  0.00     0.679 A 
ATOM     40  H2  UNL     1      -0.196  10.558 -39.465  1.00  0.00     0.186 HD
HETATM   41  N7  UNL     1      -3.190  11.147 -38.256  1.00  0.00    -0.174 N 
ATOM     42  H7  UNL     1      -3.804  10.826 -37.507  1.00  0.00     0.186 HD
ATOM     43  H32 UNL     1       0.257  11.896 -41.264  1.00  0.00     0.157 HD
ATOM     44  H31 UNL     1      -0.952  13.042 -41.803  1.00  0.00     0.157 HD
BRANCH  39  45
HETATM   45  N1  UNL     1      -1.619   9.669 -37.570  1.00  0.00    -0.234 N 
ATOM     46  H12 UNL     1      -1.445   8.732 -37.934  1.00  0.00     0.174 HD
ATOM     47  H11 UNL     1      -1.521   9.883 -36.577  1.00  0.00     0.174 HD
ENDBRANCH  39  45
ENDBRANCH   1  30
TORSDOF 12
ENDMDL
MODEL 2
REMARK VINA RESULT: -8.512209556      1.492      2.250
REMARK  12 active torsions:
REMARK  status: ('A' for Active; 'I' for Inactive)
REMARK    1  A    between atoms: N1_1  and  C1_4 
REMARK    2  A    between atoms: N5_15  and  C5_16 
REMARK    3  A    between atoms: C6_18  and  C7_19 
REMARK    4  A    between atoms: C7_19  and  O2_20 
REMARK    5  A    between atoms: C8_22  and  O3_23 
REMARK    6  A    between atoms: O3_23  and  C9_24 
REMARK    7  A    between atoms: C9_24  and  C10_25 
REMARK    8  A    between atoms: C12_32  and  O7_33 
REMARK    9  A    between atoms: C13_35  and  C14_36 
REMARK   10  A    between atoms: C14_36  and  O8_37 
REMARK   11  A    between atoms: C14_36  and  O9_39 
REMARK   12  A    between atoms: C15_42  and  O11_43 
ROOT
HETATM    1  C5  UNL     1      -7.484  12.670 -37.980  1.00  0.00     0.262 C 
HETATM    2  O1  UNL     1      -6.597  11.641 -37.666  1.00  0.00    -0.353 OA
HETATM    3  C6  UNL     1      -6.919  11.279 -36.366  1.00  0.00     0.179 C 
HETATM    4  C8  UNL     1      -7.274  12.552 -35.617  1.00  0.00     0.191 C 
HETATM    5  C15 UNL     1      -7.527  13.546 -36.764  1.00  0.00     0.199 C 
ENDROOT
BRANCH   4   6
HETATM    6  O3  UNL     1      -6.243  13.032 -34.865  1.00  0.00    -0.319 OA
BRANCH   6   7
HETATM    7  C9  UNL     1      -6.531  13.494 -33.612  1.00  0.00     0.346 C 
HETATM    8  N6  UNL     1      -7.007  14.877 -33.800  1.00  0.00    -0.294 N 
HETATM    9  C11 UNL     1      -6.355  15.984 -33.199  1.00  0.00     0.253 C 
ATOM     10  H6  UNL     1      -7.828  15.043 -34.381  1.00  0.00     0.168 HD
HETATM   11  O6  UNL     1      -6.504  17.174 -33.635  1.00  0.00    -0.270 OA
HETATM   12  C12 UNL     1      -5.482  15.706 -32.026  1.00  0.00     0.243 C 
HETATM   13  C13 UNL     1      -5.724  14.253 -31.645  1.00  0.00     0.220 C 
HETATM   14  O10 UNL     1      -5.436  13.489 -32.749  1.00  0.00    -0.316 OA
BRANCH   7  15
HETATM   15  C10 UNL     1      -7.627  12.743 -32.959  1.00  0.00     0.263 C 
HETATM   16  O4  UNL     1      -8.660  13.359 -32.526  1.00  0.00    -0.642 OA
HETATM   17  O5  UNL     1      -7.648  11.376 -32.759  1.00  0.00    -0.642 OA
ENDBRANCH   7  15
BRANCH  12  18
HETATM   18  O7  UNL     1      -5.795  16.550 -30.954  1.00  0.00    -0.383 OA
ATOM     19  H7  UNL     1      -5.180  17.272 -30.895  1.00  0.00     0.210 HD
ENDBRANCH  12  18
BRANCH  13  20
HETATM   20  C14 UNL     1      -4.914  13.863 -30.430  1.00  0.00     0.285 C 
BRANCH  20  21
HETATM   21  O8  UNL     1      -5.738  14.084 -29.306  1.00  0.00    -0.369 OA
ATOM     22  H8  UNL     1      -5.597  13.352 -28.717  1.00  0.00     0.212 HD
ENDBRANCH  20  21
BRANCH  20  23
HETATM   23  O9  UNL     1      -3.775  14.616 -30.279  1.00  0.00    -0.369 OA
ATOM     24  H9  UNL     1      -2.977  14.111 -30.387  1.00  0.00     0.212 HD
ENDBRANCH  20  23
ENDBRANCH  13  20
ENDBRANCH   6   7
ENDBRANCH   4   6
BRANCH   3  25
HETATM   25  C7  UNL     1      -5.755  10.550 -35.732  1.00  0.00     0.198 C 
BRANCH  25  26
HETATM   26  O2  UNL     1      -6.049  10.027 -34.493  1.00  0.00    -0.398 OA
ATOM     27  H2  UNL     1      -5.568   9.231 -34.296  1.00  0.00     0.209 HD
ENDBRANCH  25  26
ENDBRANCH   3  25
BRANCH   5  28
HETATM   28  O11 UNL     1      -6.567  14.541 -36.765  1.00  0.00    -0.388 OA
ATOM     29  H11 UNL     1      -6.162  14.680 -35.917  1.00  0.00     0.210 HD
ENDBRANCH   5  28
BRANCH   1  30
HETATM   30  N5  UNL     1      -7.040  13.388 -39.157  1.00  0.00    -0.297 N 
HETATM   31  C4  UNL     1      -7.773  14.038 -40.068  1.00  0.00     0.188 A 
HETATM   32  N4  UNL     1      -6.983  14.578 -41.016  1.00  0.00    -0.346 N 
HETATM   33  C3  UNL     1      -5.714  14.271 -40.714  1.00  0.00     0.123 A 
ATOM     34  H4  UNL     1      -7.295  15.122 -41.820  1.00  0.00     0.167 HD
HETATM   35  C2  UNL     1      -4.537  14.578 -41.353  1.00  0.00     0.145 A 
HETATM   36  C16 UNL     1      -5.762  13.529 -39.554  1.00  0.00     0.157 A 
HETATM   37  N2  UNL     1      -3.393  14.135 -40.819  1.00  0.00    -0.175 N 
HETATM   38  N3  UNL     1      -4.486  15.268 -42.432  1.00  0.00    -0.383 N 
HETATM   39  C1  UNL     1      -3.425  13.399 -39.671  1.00  0.00     0.679 A 
ATOM     40  H2  UNL     1      -2.502  14.346 -41.269  1.00  0.00     0.186 HD
HETATM   41  N7  UNL     1      -4.582  13.105 -39.054  1.00  0.00    -0.174 N 
ATOM     42  H7  UNL     1      -4.568  12.553 -38.196  1.00  0.00     0.186 HD
ATOM     43  H32 UNL     1      -3.612  15.496 -42.906  1.00  0.00     0.157 HD
ATOM     44  H31 UNL     1      -5.358  15.606 -42.839  1.00  0.00     0.157 HD
BRANCH  39  45
HETATM   45  N1  UNL     1      -2.324  12.969 -39.153  1.00  0.00    -0.234 N 
ATOM     46  H12 UNL     1      -1.686  12.434 -39.741  1.00  0.00     0.174 HD
ATOM     47  H11 UNL     1      -2.112  13.167 -38.175  1.00  0.00     0.174 HD
ENDBRANCH  39  45
ENDBRANCH   1  30
TORSDOF 12
ENDMDL
MODEL 3
REMARK VINA RESULT: -8.442420919      2.910      7.985
REMARK  12 active torsions:
REMARK  status: ('A' for Active; 'I' for Inactive)
REMARK    1  A    between atoms: N1_1  and  C1_4 
REMARK    2  A    between atoms: N5_15  and  C5_16 
REMARK    3  A    between atoms: C6_18  and  C7_19 
REMARK    4  A    between atoms: C7_19  and  O2_20 
REMARK    5  A    between atoms: C8_22  and  O3_23 
REMARK    6  A    between atoms: O3_23  and  C9_24 
REMARK    7  A    between atoms: C9_24  and  C10_25 
REMARK    8  A    between atoms: C12_32  and  O7_33 
REMARK    9  A    between atoms: C13_35  and  C14_36 
REMARK   10  A    between atoms: C14_36  and  O8_37 
REMARK   11  A    between atoms: C14_36  and  O9_39 
REMARK   12  A    between atoms: C15_42  and  O11_43 
ROOT
HETATM    1  C5  UNL     1      -5.687  11.583 -34.419  1.00  0.00     0.262 C 
HETATM    2  O1  UNL     1      -6.547  10.699 -35.070  1.00  0.00    -0.353 OA
HETATM    3  C6  UNL     1      -5.816  10.221 -36.147  1.00  0.00     0.179 C 
HETATM    4  C8  UNL     1      -4.985  11.377 -36.679  1.00  0.00     0.191 C 
HETATM    5  C15 UNL     1      -5.027  12.375 -35.508  1.00  0.00     0.199 C 
ENDROOT
BRANCH   4   6
HETATM    6  O3  UNL     1      -5.546  11.979 -37.765  1.00  0.00    -0.319 OA
BRANCH   6   7
HETATM    7  C9  UNL     1      -4.741  12.226 -38.842  1.00  0.00     0.346 C 
HETATM    8  N6  UNL     1      -5.505  11.774 -40.019  1.00  0.00    -0.294 N 
HETATM    9  C11 UNL     1      -5.018  10.765 -40.888  1.00  0.00     0.253 C 
ATOM     10  H6  UNL     1      -6.411  12.200 -40.214  1.00  0.00     0.168 HD
HETATM   11  O6  UNL     1      -5.793  10.108 -41.661  1.00  0.00    -0.270 OA
HETATM   12  C12 UNL     1      -3.555  10.495 -40.868  1.00  0.00     0.243 C 
HETATM   13  C13 UNL     1      -2.927  11.599 -40.029  1.00  0.00     0.220 C 
HETATM   14  O10 UNL     1      -3.519  11.556 -38.791  1.00  0.00    -0.316 OA
BRANCH   7  15
HETATM   15  C10 UNL     1      -4.461  13.668 -39.033  1.00  0.00     0.263 C 
HETATM   16  O4  UNL     1      -3.832  14.326 -38.137  1.00  0.00    -0.642 OA
HETATM   17  O5  UNL     1      -4.830  14.411 -40.138  1.00  0.00    -0.642 OA
ENDBRANCH   7  15
BRANCH  12  18
HETATM   18  O7  UNL     1      -3.023  10.505 -42.163  1.00  0.00    -0.383 OA
ATOM     19  H7  UNL     1      -3.087   9.646 -42.565  1.00  0.00     0.210 HD
ENDBRANCH  12  18
BRANCH  13  20
HETATM   20  C14 UNL     1      -1.423  11.452 -39.969  1.00  0.00     0.285 C 
BRANCH  20  21
HETATM   21  O8  UNL     1      -0.904  12.147 -41.082  1.00  0.00    -0.369 OA
ATOM     22  H8  UNL     1      -0.015  11.837 -41.206  1.00  0.00     0.212 HD
ENDBRANCH  20  21
BRANCH  20  23
HETATM   23  O9  UNL     1      -1.006  10.145 -40.049  1.00  0.00    -0.369 OA
ATOM     24  H9  UNL     1      -0.130  10.055 -40.404  1.00  0.00     0.212 HD
ENDBRANCH  20  23
ENDBRANCH  13  20
ENDBRANCH   6   7
ENDBRANCH   4   6
BRANCH   3  25
HETATM   25  C7  UNL     1      -6.751   9.662 -37.197  1.00  0.00     0.198 C 
BRANCH  25  26
HETATM   26  O2  UNL     1      -7.882  10.423 -37.381  1.00  0.00    -0.398 OA
ATOM     27  H2  UNL     1      -8.622   9.924 -37.709  1.00  0.00     0.209 HD
ENDBRANCH  25  26
ENDBRANCH   3  25
BRANCH   5  28
HETATM   28  O11 UNL     1      -5.726  13.513 -35.866  1.00  0.00    -0.388 OA
ATOM     29  H11 UNL     1      -5.871  13.593 -36.802  1.00  0.00     0.210 HD
ENDBRANCH   5  28
BRANCH   1  30
HETATM   30  N5  UNL     1      -6.421  12.426 -33.497  1.00  0.00    -0.297 N 
HETATM   31  C4  UNL     1      -7.743  12.505 -33.306  1.00  0.00     0.188 A 
HETATM   32  N4  UNL     1      -8.032  13.415 -32.356  1.00  0.00    -0.346 N 
HETATM   33  C3  UNL     1      -6.875  13.937 -31.924  1.00  0.00     0.123 A 
ATOM     34  H4  UNL     1      -8.963  13.662 -32.024  1.00  0.00     0.167 HD
HETATM   35  C2  UNL     1      -6.618  14.894 -30.973  1.00  0.00     0.145 A 
HETATM   36  C16 UNL     1      -5.879  13.313 -32.644  1.00  0.00     0.157 A 
HETATM   37  N2  UNL     1      -5.345  15.229 -30.739  1.00  0.00    -0.175 N 
HETATM   38  N3  UNL     1      -7.542  15.477 -30.300  1.00  0.00    -0.383 N 
HETATM   39  C1  UNL     1      -4.347  14.621 -31.444  1.00  0.00     0.679 A 
ATOM     40  H2  UNL     1      -5.121  15.935 -30.039  1.00  0.00     0.186 HD
HETATM   41  N7  UNL     1      -4.609  13.685 -32.373  1.00  0.00    -0.174 N 
ATOM     42  H7  UNL     1      -3.839  13.250 -32.879  1.00  0.00     0.186 HD
ATOM     43  H32 UNL     1      -7.351  16.187 -29.594  1.00  0.00     0.157 HD
ATOM     44  H31 UNL     1      -8.513  15.221 -30.478  1.00  0.00     0.157 HD
BRANCH  39  45
HETATM   45  N1  UNL     1      -3.117  14.940 -31.223  1.00  0.00    -0.234 N 
ATOM     46  H12 UNL     1      -2.907  15.897 -30.939  1.00  0.00     0.174 HD
ATOM     47  H11 UNL     1      -2.383  14.241 -31.335  1.00  0.00     0.174 HD
ENDBRANCH  39  45
ENDBRANCH   1  30
TORSDOF 12
ENDMDL
MODEL 4
REMARK VINA RESULT: -8.356271560      1.324      1.686
REMARK  12 active torsions:
REMARK  status: ('A' for Active; 'I' for Inactive)
REMARK    1  A    between atoms: N1_1  and  C1_4 
REMARK    2  A    between atoms: N5_15  and  C5_16 
REMARK    3  A    between atoms: C6_18  and  C7_19 
REMARK    4  A    between atoms: C7_19  and  O2_20 
REMARK    5  A    between atoms: C8_22  and  O3_23 
REMARK    6  A    between atoms: O3_23  and  C9_24 
REMARK    7  A    between atoms: C9_24  and  C10_25 
REMARK    8  A    between atoms: C12_32  and  O7_33 
REMARK    9  A    between atoms: C13_35  and  C14_36 
REMARK   10  A    between atoms: C14_36  and  O8_37 
REMARK   11  A    between atoms: C14_36  and  O9_39 
REMARK   12  A    between atoms: C15_42  and  O11_43 
ROOT
HETATM    1  C5  UNL     1      -6.056  10.792 -37.767  1.00  0.00     0.262 C 
HETATM    2  O1  UNL     1      -5.015  10.353 -36.949  1.00  0.00    -0.353 OA
HETATM    3  C6  UNL     1      -5.523  10.427 -35.660  1.00  0.00     0.179 C 
HETATM    4  C8  UNL     1      -6.391  11.671 -35.586  1.00  0.00     0.191 C 
HETATM    5  C15 UNL     1      -6.633  11.989 -37.072  1.00  0.00     0.199 C 
ENDROOT
BRANCH   4   6
HETATM    6  O3  UNL     1      -5.748  12.736 -35.028  1.00  0.00    -0.319 OA
BRANCH   6   7
HETATM    7  C9  UNL     1      -6.243  13.236 -33.856  1.00  0.00     0.346 C 
HETATM    8  N6  UNL     1      -6.729  14.591 -34.178  1.00  0.00    -0.294 N 
HETATM    9  C11 UNL     1      -6.216  15.744 -33.532  1.00  0.00     0.253 C 
ATOM     10  H6  UNL     1      -7.455  14.701 -34.885  1.00  0.00     0.168 HD
HETATM   11  O6  UNL     1      -6.334  16.910 -34.040  1.00  0.00    -0.270 OA
HETATM   12  C12 UNL     1      -5.528  15.548 -32.228  1.00  0.00     0.243 C 
HETATM   13  C13 UNL     1      -5.779  14.102 -31.825  1.00  0.00     0.220 C 
HETATM   14  O10 UNL     1      -5.297  13.307 -32.836  1.00  0.00    -0.316 OA
BRANCH   7  15
HETATM   15  C10 UNL     1      -7.403  12.469 -33.348  1.00  0.00     0.263 C 
HETATM   16  O4  UNL     1      -8.578  12.968 -33.400  1.00  0.00    -0.642 OA
HETATM   17  O5  UNL     1      -7.341  11.204 -32.794  1.00  0.00    -0.642 OA
ENDBRANCH   7  15
BRANCH  12  18
HETATM   18  O7  UNL     1      -6.032  16.419 -31.256  1.00  0.00    -0.383 OA
ATOM     19  H7  UNL     1      -6.818  16.858 -31.563  1.00  0.00     0.210 HD
ENDBRANCH  12  18
BRANCH  13  20
HETATM   20  C14 UNL     1      -5.156  13.792 -30.483  1.00  0.00     0.285 C 
BRANCH  20  21
HETATM   21  O8  UNL     1      -6.097  14.172 -29.502  1.00  0.00    -0.369 OA
ATOM     22  H8  UNL     1      -6.040  13.528 -28.806  1.00  0.00     0.212 HD
ENDBRANCH  20  21
BRANCH  20  23
HETATM   23  O9  UNL     1      -3.995  14.490 -30.254  1.00  0.00    -0.369 OA
ATOM     24  H9  UNL     1      -4.049  15.066 -29.501  1.00  0.00     0.212 HD
ENDBRANCH  20  23
ENDBRANCH  13  20
ENDBRANCH   6   7
ENDBRANCH   4   6
BRANCH   3  25
HETATM   25  C7  UNL     1      -4.387  10.465 -34.661  1.00  0.00     0.198 C 
BRANCH  25  26
HETATM   26  O2  UNL     1      -4.785  10.198 -33.372  1.00  0.00    -0.398 OA
ATOM     27  H2  UNL     1      -4.926  10.980 -32.851  1.00  0.00     0.209 HD
ENDBRANCH  25  26
ENDBRANCH   3  25
BRANCH   5  28
HETATM   28  O11 UNL     1      -6.022  13.180 -37.421  1.00  0.00    -0.388 OA
ATOM     29  H11 UNL     1      -5.661  13.653 -36.680  1.00  0.00     0.210 HD
ENDBRANCH   5  28
BRANCH   1  30
HETATM   30  N5  UNL     1      -5.564  11.113 -39.092  1.00  0.00    -0.297 N 
HETATM   31  C4  UNL     1      -6.262  11.340 -40.211  1.00  0.00     0.188 A 
HETATM   32  N4  UNL     1      -5.434  11.606 -41.240  1.00  0.00    -0.346 N 
HETATM   33  C3  UNL     1      -4.177  11.549 -40.780  1.00  0.00     0.123 A 
ATOM     34  H4  UNL     1      -5.714  11.813 -42.198  1.00  0.00     0.167 HD
HETATM   35  C2  UNL     1      -2.975  11.741 -41.416  1.00  0.00     0.145 A 
HETATM   36  C16 UNL     1      -4.272  11.242 -39.439  1.00  0.00     0.157 A 
HETATM   37  N2  UNL     1      -1.852  11.623 -40.699  1.00  0.00    -0.175 N 
HETATM   38  N3  UNL     1      -2.882  12.028 -42.663  1.00  0.00    -0.383 N 
HETATM   39  C1  UNL     1      -1.929  11.318 -39.371  1.00  0.00     0.679 A 
ATOM     40  H2  UNL     1      -0.944  11.760 -41.142  1.00  0.00     0.186 HD
HETATM   41  N7  UNL     1      -3.111  11.133 -38.758  1.00  0.00    -0.174 N 
ATOM     42  H7  UNL     1      -3.131  10.907 -37.763  1.00  0.00     0.186 HD
ATOM     43  H32 UNL     1      -1.989  12.170 -43.135  1.00  0.00     0.157 HD
ATOM     44  H31 UNL     1      -3.738  12.119 -43.210  1.00  0.00     0.157 HD
BRANCH  39  45
HETATM   45  N1  UNL     1      -0.850  11.202 -38.675  1.00  0.00    -0.234 N 
ATOM     46  H12 UNL     1      -0.879  11.452 -37.686  1.00  0.00     0.174 HD
ATOM     47  H11 UNL     1       0.007  10.868 -39.117  1.00  0.00     0.174 HD
ENDBRANCH  39  45
ENDBRANCH   1  30
TORSDOF 12
ENDMDL
MODEL 5
REMARK VINA RESULT: -8.343171563      2.472      4.025
REMARK  12 active torsions:
REMARK  status: ('A' for Active; 'I' for Inactive)
REMARK    1  A    between atoms: N1_1  and  C1_4 
REMARK    2  A    between atoms: N5_15  and  C5_16 
REMARK    3  A    between atoms: C6_18  and  C7_19 
REMARK    4  A    between atoms: C7_19  and  O2_20 
REMARK    5  A    between atoms: C8_22  and  O3_23 
REMARK    6  A    between atoms: O3_23  and  C9_24 
REMARK    7  A    between atoms: C9_24  and  C10_25 
REMARK    8  A    between atoms: C12_32  and  O7_33 
REMARK    9  A    between atoms: C13_35  and  C14_36 
REMARK   10  A    between atoms: C14_36  and  O8_37 
REMARK   11  A    between atoms: C14_36  and  O9_39 
REMARK   12  A    between atoms: C15_42  and  O11_43 
ROOT
HETATM    1  C5  UNL     1      -8.150  13.015 -35.903  1.00  0.00     0.262 C 
HETATM    2  O1  UNL     1      -7.121  12.201 -35.430  1.00  0.00    -0.353 OA
HETATM    3  C6  UNL     1      -7.097  12.421 -34.060  1.00  0.00     0.179 C 
HETATM    4  C8  UNL     1      -7.388  13.895 -33.833  1.00  0.00     0.191 C 
HETATM    5  C15 UNL     1      -7.992  14.320 -35.183  1.00  0.00     0.199 C 
ENDROOT
BRANCH   4   6
HETATM    6  O3  UNL     1      -6.260  14.633 -33.627  1.00  0.00    -0.319 OA
BRANCH   6   7
HETATM    7  C9  UNL     1      -6.252  15.499 -32.569  1.00  0.00     0.346 C 
HETATM    8  N6  UNL     1      -4.837  15.621 -32.169  1.00  0.00    -0.294 N 
HETATM    9  C11 UNL     1      -4.393  15.273 -30.868  1.00  0.00     0.253 C 
ATOM     10  H6  UNL     1      -4.159  15.965 -32.848  1.00  0.00     0.168 HD
HETATM   11  O6  UNL     1      -3.168  15.012 -30.621  1.00  0.00    -0.270 OA
HETATM   12  C12 UNL     1      -5.415  15.223 -29.788  1.00  0.00     0.243 C 
HETATM   13  C13 UNL     1      -6.690  15.810 -30.377  1.00  0.00     0.220 C 
HETATM   14  O10 UNL     1      -7.009  15.062 -31.484  1.00  0.00    -0.316 OA
BRANCH   7  15
HETATM   15  C10 UNL     1      -6.718  16.856 -32.932  1.00  0.00     0.263 C 
HETATM   16  O4  UNL     1      -6.443  17.345 -34.080  1.00  0.00    -0.642 OA
HETATM   17  O5  UNL     1      -7.458  17.690 -32.115  1.00  0.00    -0.642 OA
ENDBRANCH   7  15
BRANCH  12  18
HETATM   18  O7  UNL     1      -5.007  15.964 -28.673  1.00  0.00    -0.383 OA
ATOM     19  H7  UNL     1      -5.598  15.833 -27.940  1.00  0.00     0.210 HD
ENDBRANCH  12  18
BRANCH  13  20
HETATM   20  C14 UNL     1      -7.800  15.848 -29.351  1.00  0.00     0.285 C 
BRANCH  20  21
HETATM   21  O8  UNL     1      -9.010  15.956 -30.068  1.00  0.00    -0.369 OA
ATOM     22  H8  UNL     1      -9.060  16.850 -30.385  1.00  0.00     0.212 HD
ENDBRANCH  20  21
BRANCH  20  23
HETATM   23  O9  UNL     1      -7.710  16.924 -28.501  1.00  0.00    -0.369 OA
ATOM     24  H9  UNL     1      -8.013  16.731 -27.622  1.00  0.00     0.212 HD
ENDBRANCH  20  23
ENDBRANCH  13  20
ENDBRANCH   6   7
ENDBRANCH   4   6
BRANCH   3  25
HETATM   25  C7  UNL     1      -5.755  12.011 -33.496  1.00  0.00     0.198 C 
BRANCH  25  26
HETATM   26  O2  UNL     1      -5.607  12.316 -32.163  1.00  0.00    -0.398 OA
ATOM     27  H2  UNL     1      -6.203  12.992 -31.862  1.00  0.00     0.209 HD
ENDBRANCH  25  26
ENDBRANCH   3  25
BRANCH   5  28
HETATM   28  O11 UNL     1      -7.156  15.212 -35.830  1.00  0.00    -0.388 OA
ATOM     29  H11 UNL     1      -7.579  15.684 -36.538  1.00  0.00     0.210 HD
ENDBRANCH   5  28
BRANCH   1  30
HETATM   30  N5  UNL     1      -8.060  13.169 -37.341  1.00  0.00    -0.297 N 
HETATM   31  C4  UNL     1      -9.038  13.111 -38.252  1.00  0.00     0.188 A 
HETATM   32  N4  UNL     1      -8.545  13.306 -39.491  1.00  0.00    -0.346 N 
HETATM   33  C3  UNL     1      -7.222  13.492 -39.380  1.00  0.00     0.123 A 
ATOM     34  H4  UNL     1      -9.082  13.310 -40.357  1.00  0.00     0.167 HD
HETATM   35  C2  UNL     1      -6.263  13.728 -40.335  1.00  0.00     0.145 A 
HETATM   36  C16 UNL     1      -6.932  13.404 -38.036  1.00  0.00     0.157 A 
HETATM   37  N2  UNL     1      -4.996  13.879 -39.935  1.00  0.00    -0.175 N 
HETATM   38  N3  UNL     1      -6.528  13.811 -41.587  1.00  0.00    -0.383 N 
HETATM   39  C1  UNL     1      -4.693  13.795 -38.607  1.00  0.00     0.679 A 
ATOM     40  H2  UNL     1      -4.260  14.057 -40.619  1.00  0.00     0.186 HD
HETATM   41  N7  UNL     1      -5.639  13.564 -37.681  1.00  0.00    -0.174 N 
ATOM     42  H7  UNL     1      -5.376  13.508 -36.698  1.00  0.00     0.186 HD
ATOM     43  H32 UNL     1      -5.816  13.986 -42.295  1.00  0.00     0.157 HD
ATOM     44  H31 UNL     1      -7.495  13.696 -41.891  1.00  0.00     0.157 HD
BRANCH  39  45
HETATM   45  N1  UNL     1      -3.472  13.939 -38.217  1.00  0.00    -0.234 N 
ATOM     46  H12 UNL     1      -3.017  13.159 -37.743  1.00  0.00     0.174 HD
ATOM     47  H11 UNL     1      -2.986  14.821 -38.384  1.00  0.00     0.174 HD
ENDBRANCH  39  45
ENDBRANCH   1  30
TORSDOF 12
ENDMDL
