MODEL 1
REMARK VINA RESULT: -7.149597097      0.000      0.000
REMARK  8 active torsions:
REMARK  status: ('A' for Active; 'I' for Inactive)
REMARK    1  A    between atoms: C4_8  and  N3_9 
REMARK    2  A    between atoms: C5_10  and  O1_11 
REMARK    3  A    between atoms: C6_13  and  C7_14 
REMARK    4  A    between atoms: C7_14  and  N4_15 
REMARK    5  A    between atoms: C7_14  and  N7_25 
REMARK    6  A    between atoms: N4_15  and  C8_17 
REMARK    7  A    between atoms: N7_25  and  N8_26 
REMARK       I    between atoms: N8_26  and  C12_28 
REMARK    8  A    between atoms: C12_28  and  C13_30 
ROOT
HETATM    1  C7  UNL     1      27.085  -6.781  10.538  1.00  0.00     0.241 C 
ENDROOT
BRANCH   1   2
HETATM    2  C6  UNL     1      28.037  -7.804  11.069  1.00  0.00     0.101 A 
HETATM    3  C5  UNL     1      28.588  -8.701  10.198  1.00  0.00     0.167 A 
HETATM    4  N3  UNL     1      29.444  -9.634  10.650  1.00  0.00    -0.226 N 
HETATM    5  C15 UNL     1      29.760  -9.684  11.955  1.00  0.00     0.337 A 
HETATM    6  N13 UNL     1      29.241  -8.820  12.843  1.00  0.00    -0.274 N 
HETATM    7  O4  UNL     1      30.575 -10.568  12.396  1.00  0.00    -0.246 OA
HETATM    8  C14 UNL     1      28.384  -7.886  12.398  1.00  0.00     0.263 A 
ATOM      9  H13 UNL     1      29.490  -8.872  13.831  1.00  0.00     0.173 HD
HETATM   10  O3  UNL     1      27.870  -7.051  13.200  1.00  0.00    -0.267 OA
BRANCH   3  11
HETATM   11  O1  UNL     1      28.265  -8.658   8.829  1.00  0.00    -0.345 OA
ATOM     12  H1  UNL     1      27.378  -8.445   8.562  1.00  0.00     0.219 HD
ENDBRANCH   3  11
BRANCH   4  13
HETATM   13  C4  UNL     1      30.035 -10.590   9.760  1.00  0.00     0.140 A 
HETATM   14  C2  UNL     1      29.347 -11.695   9.289  1.00  0.00     0.001 A 
HETATM   15  C1  UNL     1      27.967 -12.108   9.576  1.00  0.00     0.054 C 
HETATM   16  C3  UNL     1      30.232 -12.368   8.466  1.00  0.00     0.117 A 
HETATM   17  N1  UNL     1      31.389 -11.709   8.439  1.00  0.00    -0.310 N 
HETATM   18  N2  UNL     1      31.245 -10.655   9.217  1.00  0.00    -0.285 N 
ATOM     19  H1  UNL     1      32.225 -11.970   7.916  1.00  0.00     0.186 HD
ATOM     20  H2  UNL     1      31.981  -9.968   9.384  1.00  0.00     0.188 HD
ENDBRANCH   4  13
ENDBRANCH   1   2
BRANCH   1  21
HETATM   21  N4  UNL     1      27.542  -5.445  10.854  1.00  0.00    -0.352 N 
ATOM     22  H4  UNL     1      28.534  -5.225  10.760  1.00  0.00     0.163 HD
BRANCH  21  23
HETATM   23  C8  UNL     1      26.732  -4.526  11.253  1.00  0.00     0.104 A 
HETATM   24  C9  UNL     1      26.223  -3.572  10.387  1.00  0.00     0.065 A 
HETATM   25  C10 UNL     1      25.362  -2.621  10.890  1.00  0.00     0.092 A 
HETATM   26  N5  UNL     1      25.002  -2.591  12.194  1.00  0.00    -0.362 N 
HETATM   27  C11 UNL     1      25.537  -3.549  12.976  1.00  0.00     0.181 A 
ATOM     28  H5  UNL     1      24.364  -1.886  12.563  1.00  0.00     0.165 HD
HETATM   29  N6  UNL     1      26.374  -4.494  12.549  1.00  0.00    -0.339 N 
ATOM     30  H6  UNL     1      26.741  -5.188  13.201  1.00  0.00     0.168 HD
ENDBRANCH  21  23
ENDBRANCH   1  21
BRANCH   1  31
HETATM   31  N7  UNL     1      25.778  -6.951  11.128  1.00  0.00    -0.107 NA
BRANCH  31  32
HETATM   32  N8  UNL     1      24.850  -7.466  10.208  1.00  0.00    -0.265 N 
HETATM   33  C12 UNL     1      23.659  -6.740   9.908  1.00  0.00     0.303 C 
HETATM   34  O2  UNL     1      23.416  -5.625  10.458  1.00  0.00    -0.263 OA
ATOM     35  H8  UNL     1      25.028  -8.362   9.753  1.00  0.00     0.185 HD
BRANCH  33  36
HETATM   36  C13 UNL     1      22.728  -7.321   8.945  1.00  0.00     0.204 A 
HETATM   37  N9  UNL     1      22.705  -8.541   8.417  1.00  0.00    -0.267 N 
HETATM   38  N10 UNL     1      21.673  -8.595   7.597  1.00  0.00    -0.225 N 
ATOM     39  H9  UNL     1      23.364  -9.294   8.611  1.00  0.00     0.190 HD
HETATM   40  N11 UNL     1      21.029  -7.436   7.585  1.00  0.00    -0.005 NA
ATOM     41  H10 UNL     1      21.407  -9.413   7.050  1.00  0.00     0.205 HD
HETATM   42  N12 UNL     1      21.690  -6.651   8.423  1.00  0.00    -0.262 N 
ATOM     43  H12 UNL     1      21.445  -5.684   8.639  1.00  0.00     0.186 HD
ENDBRANCH  33  36
ENDBRANCH  31  32
ENDBRANCH   1  31
TORSDOF 8
ENDMDL
MODEL 2
REMARK VINA RESULT: -6.844453645     10.843     12.673
REMARK  8 active torsions:
REMARK  status: ('A' for Active; 'I' for Inactive)
REMARK    1  A    between atoms: C4_8  and  N3_9 
REMARK    2  A    between atoms: C5_10  and  O1_11 
REMARK    3  A    between atoms: C6_13  and  C7_14 
REMARK    4  A    between atoms: C7_14  and  N4_15 
REMARK    5  A    between atoms: C7_14  and  N7_25 
REMARK    6  A    between atoms: N4_15  and  C8_17 
REMARK    7  A    between atoms: N7_25  and  N8_26 
REMARK       I    between atoms: N8_26  and  C12_28 
REMARK    8  A    between atoms: C12_28  and  C13_30 
ROOT
HETATM    1  C7  UNL     1      31.821   0.369   2.514  1.00  0.00     0.241 C 
ENDROOT
BRANCH   1   2
HETATM    2  C6  UNL     1      32.103  -0.928   1.825  1.00  0.00     0.101 A 
HETATM    3  C5  UNL     1      32.659  -1.946   2.546  1.00  0.00     0.167 A 
HETATM    4  N3  UNL     1      32.926  -3.121   1.949  1.00  0.00    -0.226 N 
HETATM    5  C15 UNL     1      32.646  -3.296   0.647  1.00  0.00     0.337 A 
HETATM    6  N13 UNL     1      32.100  -2.320  -0.097  1.00  0.00    -0.274 N 
HETATM    7  O4  UNL     1      32.896  -4.411   0.070  1.00  0.00    -0.246 OA
HETATM    8  C14 UNL     1      31.831  -1.143   0.494  1.00  0.00     0.263 A 
ATOM      9  H13 UNL     1      31.894  -2.468  -1.085  1.00  0.00     0.173 HD
HETATM   10  O3  UNL     1      31.315  -0.194  -0.169  1.00  0.00    -0.267 OA
BRANCH   3  11
HETATM   11  O1  UNL     1      32.956  -1.775   3.911  1.00  0.00    -0.345 OA
ATOM     12  H1  UNL     1      32.491  -2.290   4.561  1.00  0.00     0.219 HD
ENDBRANCH   3  11
BRANCH   4  13
HETATM   13  C4  UNL     1      33.512  -4.206   2.681  1.00  0.00     0.140 A 
HETATM   14  C2  UNL     1      32.752  -5.168   3.325  1.00  0.00     0.001 A 
HETATM   15  C1  UNL     1      31.291  -5.282   3.402  1.00  0.00     0.054 C 
HETATM   16  C3  UNL     1      33.658  -6.036   3.908  1.00  0.00     0.117 A 
HETATM   17  N1  UNL     1      34.895  -5.625   3.632  1.00  0.00    -0.310 N 
HETATM   18  N2  UNL     1      34.780  -4.534   2.902  1.00  0.00    -0.285 N 
ATOM     19  H1  UNL     1      35.763  -6.069   3.930  1.00  0.00     0.186 HD
ATOM     20  H2  UNL     1      35.575  -4.003   2.546  1.00  0.00     0.188 HD
ENDBRANCH   4  13
ENDBRANCH   1   2
BRANCH   1  21
HETATM   21  N4  UNL     1      33.045   0.963   3.005  1.00  0.00    -0.352 N 
ATOM     22  H4  UNL     1      33.396   0.691   3.924  1.00  0.00     0.163 HD
BRANCH  21  23
HETATM   23  C8  UNL     1      33.706   1.827   2.313  1.00  0.00     0.104 A 
HETATM   24  C9  UNL     1      34.775   2.529   2.845  1.00  0.00     0.065 A 
HETATM   25  C10 UNL     1      35.430   3.437   2.042  1.00  0.00     0.092 A 
HETATM   26  N5  UNL     1      35.063   3.661   0.759  1.00  0.00    -0.362 N 
HETATM   27  C11 UNL     1      34.014   2.944   0.311  1.00  0.00     0.181 A 
ATOM     28  H5  UNL     1      35.550   4.334   0.166  1.00  0.00     0.165 HD
HETATM   29  N6  UNL     1      33.341   2.053   1.038  1.00  0.00    -0.339 N 
ATOM     30  H6  UNL     1      32.555   1.546   0.631  1.00  0.00     0.168 HD
ENDBRANCH  21  23
ENDBRANCH   1  21
BRANCH   1  31
HETATM   31  N7  UNL     1      30.948   0.161   3.645  1.00  0.00    -0.107 NA
BRANCH  31  32
HETATM   32  N8  UNL     1      30.936   1.269   4.509  1.00  0.00    -0.265 N 
HETATM   33  C12 UNL     1      30.817   1.079   5.918  1.00  0.00     0.303 C 
HETATM   34  O2  UNL     1      30.722  -0.082   6.416  1.00  0.00    -0.263 OA
ATOM     35  H8  UNL     1      31.013   2.212   4.128  1.00  0.00     0.185 HD
BRANCH  33  36
HETATM   36  C13 UNL     1      30.810   2.264   6.770  1.00  0.00     0.204 A 
HETATM   37  N9  UNL     1      31.635   3.306   6.781  1.00  0.00    -0.267 N 
HETATM   38  N10 UNL     1      31.222   4.124   7.730  1.00  0.00    -0.225 N 
ATOM     39  H9  UNL     1      32.438   3.446   6.169  1.00  0.00     0.190 HD
HETATM   40  N11 UNL     1      30.148   3.632   8.332  1.00  0.00    -0.005 NA
ATOM     41  H10 UNL     1      31.667   5.011   7.968  1.00  0.00     0.205 HD
HETATM   42  N12 UNL     1      29.899   2.479   7.731  1.00  0.00    -0.262 N 
ATOM     43  H12 UNL     1      29.130   1.849   7.964  1.00  0.00     0.186 HD
ENDBRANCH  33  36
ENDBRANCH  31  32
ENDBRANCH   1  31
TORSDOF 8
ENDMDL
MODEL 3
REMARK VINA RESULT: -6.826147443      2.589      5.481
REMARK  8 active torsions:
REMARK  status: ('A' for Active; 'I' for Inactive)
REMARK    1  A    between atoms: C4_8  and  N3_9 
REMARK    2  A    between atoms: C5_10  and  O1_11 
REMARK    3  A    between atoms: C6_13  and  C7_14 
REMARK    4  A    between atoms: C7_14  and  N4_15 
REMARK    5  A    between atoms: C7_14  and  N7_25 
REMARK    6  A    between atoms: N4_15  and  C8_17 
REMARK    7  A    between atoms: N7_25  and  N8_26 
REMARK       I    between atoms: N8_26  and  C12_28 
REMARK    8  A    between atoms: C12_28  and  C13_30 
ROOT
HETATM    1  C7  UNL     1      28.236  -8.016  10.204  1.00  0.00     0.241 C 
ENDROOT
BRANCH   1   2
HETATM    2  C6  UNL     1      29.657  -8.180  10.640  1.00  0.00     0.101 A 
HETATM    3  C5  UNL     1      29.925  -8.985  11.711  1.00  0.00     0.167 A 
HETATM    4  N3  UNL     1      31.193  -9.147  12.126  1.00  0.00    -0.226 N 
HETATM    5  C15 UNL     1      32.197  -8.520  11.489  1.00  0.00     0.337 A 
HETATM    6  N13 UNL     1      31.975  -7.721  10.433  1.00  0.00    -0.274 N 
HETATM    7  O4  UNL     1      33.408  -8.669  11.876  1.00  0.00    -0.246 OA
HETATM    8  C14 UNL     1      30.710  -7.554  10.014  1.00  0.00     0.263 A 
ATOM      9  H13 UNL     1      32.749  -7.252   9.961  1.00  0.00     0.173 HD
HETATM   10  O3  UNL     1      30.454  -6.809   9.021  1.00  0.00    -0.267 OA
BRANCH   3  11
HETATM   11  O1  UNL     1      28.882  -9.647  12.386  1.00  0.00    -0.345 OA
ATOM     12  H1  UNL     1      28.023  -9.244  12.432  1.00  0.00     0.219 HD
ENDBRANCH   3  11
BRANCH   4  13
HETATM   13  C4  UNL     1      31.503  -9.983  13.248  1.00  0.00     0.140 A 
HETATM   14  C2  UNL     1      31.392  -9.547  14.557  1.00  0.00     0.001 A 
HETATM   15  C1  UNL     1      30.969  -8.231  15.052  1.00  0.00     0.054 C 
HETATM   16  C3  UNL     1      31.769 -10.620  15.346  1.00  0.00     0.117 A 
HETATM   17  N1  UNL     1      32.088 -11.647  14.561  1.00  0.00    -0.310 N 
HETATM   18  N2  UNL     1      31.922 -11.242  13.318  1.00  0.00    -0.285 N 
ATOM     19  H1  UNL     1      32.401 -12.569  14.864  1.00  0.00     0.186 HD
ATOM     20  H2  UNL     1      32.096 -11.829  12.502  1.00  0.00     0.188 HD
ENDBRANCH   4  13
ENDBRANCH   1   2
BRANCH   1  21
HETATM   21  N4  UNL     1      27.457  -7.368  11.237  1.00  0.00    -0.352 N 
ATOM     22  H4  UNL     1      27.794  -7.389  12.200  1.00  0.00     0.163 HD
BRANCH  21  23
HETATM   23  C8  UNL     1      26.347  -6.767  10.975  1.00  0.00     0.104 A 
HETATM   24  C9  UNL     1      26.164  -5.419  11.238  1.00  0.00     0.065 A 
HETATM   25  C10 UNL     1      24.948  -4.849  10.931  1.00  0.00     0.092 A 
HETATM   26  N5  UNL     1      23.935  -5.561  10.383  1.00  0.00    -0.362 N 
HETATM   27  C11 UNL     1      24.186  -6.865  10.156  1.00  0.00     0.181 A 
ATOM     28  H5  UNL     1      23.036  -5.135  10.155  1.00  0.00     0.165 HD
HETATM   29  N6  UNL     1      25.339  -7.473  10.432  1.00  0.00    -0.339 N 
ATOM     30  H6  UNL     1      25.457  -8.467  10.233  1.00  0.00     0.168 HD
ENDBRANCH  21  23
ENDBRANCH   1  21
BRANCH   1  31
HETATM   31  N7  UNL     1      27.636  -9.302   9.940  1.00  0.00    -0.107 NA
BRANCH  31  32
HETATM   32  N8  UNL     1      28.467 -10.117   9.154  1.00  0.00    -0.265 N 
HETATM   33  C12 UNL     1      28.186 -11.510   9.019  1.00  0.00     0.303 C 
HETATM   34  O2  UNL     1      27.190 -12.035   9.598  1.00  0.00    -0.263 OA
ATOM     35  H8  UNL     1      29.275  -9.712   8.679  1.00  0.00     0.185 HD
BRANCH  33  36
HETATM   36  C13 UNL     1      29.083 -12.311   8.191  1.00  0.00     0.204 A 
HETATM   37  N9  UNL     1      30.342 -12.675   8.412  1.00  0.00    -0.267 N 
HETATM   38  N10 UNL     1      30.730 -13.395   7.376  1.00  0.00    -0.225 N 
ATOM     39  H9  UNL     1      30.903 -12.442   9.230  1.00  0.00     0.190 HD
HETATM   40  N11 UNL     1      29.748 -13.503   6.492  1.00  0.00    -0.005 NA
ATOM     41  H10 UNL     1      31.655 -13.811   7.270  1.00  0.00     0.205 HD
HETATM   42  N12 UNL     1      28.730 -12.828   7.005  1.00  0.00    -0.262 N 
ATOM     43  H12 UNL     1      27.816 -12.719   6.564  1.00  0.00     0.186 HD
ENDBRANCH  33  36
ENDBRANCH  31  32
ENDBRANCH   1  31
TORSDOF 8
ENDMDL
MODEL 4
REMARK VINA RESULT: -6.812830705      2.492      5.395
REMARK  8 active torsions:
REMARK  status: ('A' for Active; 'I' for Inactive)
REMARK    1  A    between atoms: C4_8  and  N3_9 
REMARK    2  A    between atoms: C5_10  and  O1_11 
REMARK    3  A    between atoms: C6_13  and  C7_14 
REMARK    4  A    between atoms: C7_14  and  N4_15 
REMARK    5  A    between atoms: C7_14  and  N7_25 
REMARK    6  A    between atoms: N4_15  and  C8_17 
REMARK    7  A    between atoms: N7_25  and  N8_26 
REMARK       I    between atoms: N8_26  and  C12_28 
REMARK    8  A    between atoms: C12_28  and  C13_30 
ROOT
HETATM    1  C7  UNL     1      27.972  -7.920  10.270  1.00  0.00     0.241 C 
ENDROOT
BRANCH   1   2
HETATM    2  C6  UNL     1      29.403  -7.911  10.703  1.00  0.00     0.101 A 
HETATM    3  C5  UNL     1      29.747  -8.574  11.846  1.00  0.00     0.167 A 
HETATM    4  N3  UNL     1      31.026  -8.578  12.259  1.00  0.00    -0.226 N 
HETATM    5  C15 UNL     1      31.966  -7.933  11.550  1.00  0.00     0.337 A 
HETATM    6  N13 UNL     1      31.670  -7.269  10.421  1.00  0.00    -0.274 N 
HETATM    7  O4  UNL     1      33.188  -7.931  11.934  1.00  0.00    -0.246 OA
HETATM    8  C14 UNL     1      30.393  -7.261  10.002  1.00  0.00     0.263 A 
ATOM      9  H13 UNL     1      32.396  -6.783   9.893  1.00  0.00     0.173 HD
HETATM   10  O3  UNL     1      30.068  -6.647   8.942  1.00  0.00    -0.267 OA
BRANCH   3  11
HETATM   11  O1  UNL     1      28.770  -9.255  12.598  1.00  0.00    -0.345 OA
ATOM     12  H1  UNL     1      28.065  -9.708  12.150  1.00  0.00     0.219 HD
ENDBRANCH   3  11
BRANCH   4  13
HETATM   13  C4  UNL     1      31.414  -9.264  13.457  1.00  0.00     0.140 A 
HETATM   14  C2  UNL     1      31.743 -10.609  13.474  1.00  0.00     0.001 A 
HETATM   15  C1  UNL     1      31.762 -11.562  12.358  1.00  0.00     0.054 C 
HETATM   16  C3  UNL     1      32.062 -10.902  14.788  1.00  0.00     0.117 A 
HETATM   17  N1  UNL     1      31.935  -9.800  15.524  1.00  0.00    -0.310 N 
HETATM   18  N2  UNL     1      31.549  -8.840  14.709  1.00  0.00    -0.285 N 
ATOM     19  H1  UNL     1      32.105  -9.716  16.526  1.00  0.00     0.186 HD
ATOM     20  H2  UNL     1      31.372  -7.880  15.006  1.00  0.00     0.188 HD
ENDBRANCH   4  13
ENDBRANCH   1   2
BRANCH   1  21
HETATM   21  N4  UNL     1      27.139  -7.251  11.245  1.00  0.00    -0.352 N 
ATOM     22  H4  UNL     1      27.444  -7.219  12.219  1.00  0.00     0.163 HD
BRANCH  21  23
HETATM   23  C8  UNL     1      26.023  -6.694  10.919  1.00  0.00     0.104 A 
HETATM   24  C9  UNL     1      25.788  -5.346  11.130  1.00  0.00     0.065 A 
HETATM   25  C10 UNL     1      24.569  -4.826  10.755  1.00  0.00     0.092 A 
HETATM   26  N5  UNL     1      23.602  -5.587  10.191  1.00  0.00    -0.362 N 
HETATM   27  C11 UNL     1      23.902  -6.889  10.018  1.00  0.00     0.181 A 
ATOM     28  H5  UNL     1      22.700  -5.198   9.913  1.00  0.00     0.165 HD
HETATM   29  N6  UNL     1      25.061  -7.450  10.360  1.00  0.00    -0.339 N 
ATOM     30  H6  UNL     1      25.218  -8.445  10.199  1.00  0.00     0.168 HD
ENDBRANCH  21  23
ENDBRANCH   1  21
BRANCH   1  31
HETATM   31  N7  UNL     1      27.493  -9.276  10.137  1.00  0.00    -0.107 NA
BRANCH  31  32
HETATM   32  N8  UNL     1      28.350 -10.060   9.347  1.00  0.00    -0.265 N 
HETATM   33  C12 UNL     1      28.076 -11.447   9.151  1.00  0.00     0.303 C 
HETATM   34  O2  UNL     1      27.063 -11.994   9.678  1.00  0.00    -0.263 OA
ATOM     35  H8  UNL     1      29.170  -9.637   8.912  1.00  0.00     0.185 HD
BRANCH  33  36
HETATM   36  C13 UNL     1      28.999 -12.215   8.321  1.00  0.00     0.204 A 
HETATM   37  N9  UNL     1      30.268 -12.541   8.543  1.00  0.00    -0.267 N 
HETATM   38  N10 UNL     1      30.681 -13.244   7.505  1.00  0.00    -0.225 N 
ATOM     39  H9  UNL     1      30.820 -12.295   9.364  1.00  0.00     0.190 HD
HETATM   40  N11 UNL     1      29.705 -13.377   6.618  1.00  0.00    -0.005 NA
ATOM     41  H10 UNL     1      31.619 -13.629   7.399  1.00  0.00     0.205 HD
HETATM   42  N12 UNL     1      28.665 -12.737   7.131  1.00  0.00    -0.262 N 
ATOM     43  H12 UNL     1      27.749 -12.653   6.689  1.00  0.00     0.186 HD
ENDBRANCH  33  36
ENDBRANCH  31  32
ENDBRANCH   1  31
TORSDOF 8
ENDMDL
MODEL 5
REMARK VINA RESULT: -6.803565473      1.778      4.512
REMARK  8 active torsions:
REMARK  status: ('A' for Active; 'I' for Inactive)
REMARK    1  A    between atoms: C4_8  and  N3_9 
REMARK    2  A    between atoms: C5_10  and  O1_11 
REMARK    3  A    between atoms: C6_13  and  C7_14 
REMARK    4  A    between atoms: C7_14  and  N4_15 
REMARK    5  A    between atoms: C7_14  and  N7_25 
REMARK    6  A    between atoms: N4_15  and  C8_17 
REMARK    7  A    between atoms: N7_25  and  N8_26 
REMARK       I    between atoms: N8_26  and  C12_28 
REMARK    8  A    between atoms: C12_28  and  C13_30 
ROOT
HETATM    1  C7  UNL     1      26.803  -6.641  11.203  1.00  0.00     0.241 C 
ENDROOT
BRANCH   1   2
HETATM    2  C6  UNL     1      27.806  -7.646  11.674  1.00  0.00     0.101 A 
HETATM    3  C5  UNL     1      28.356  -8.500  10.761  1.00  0.00     0.167 A 
HETATM    4  N3  UNL     1      29.258  -9.414  11.158  1.00  0.00    -0.226 N 
HETATM    5  C15 UNL     1      29.619  -9.489  12.450  1.00  0.00     0.337 A 
HETATM    6  N13 UNL     1      29.101  -8.668  13.378  1.00  0.00    -0.274 N 
HETATM    7  O4  UNL     1      30.477 -10.356  12.839  1.00  0.00    -0.246 OA
HETATM    8  C14 UNL     1      28.199  -7.752  12.988  1.00  0.00     0.263 A 
ATOM      9  H13 UNL     1      29.386  -8.737  14.356  1.00  0.00     0.173 HD
HETATM   10  O3  UNL     1      27.685  -6.956  13.829  1.00  0.00    -0.267 OA
BRANCH   3  11
HETATM   11  O1  UNL     1      27.986  -8.431   9.405  1.00  0.00    -0.345 OA
ATOM     12  H1  UNL     1      27.104  -8.673   9.146  1.00  0.00     0.219 HD
ENDBRANCH   3  11
BRANCH   4  13
HETATM   13  C4  UNL     1      29.849 -10.325  10.223  1.00  0.00     0.140 A 
HETATM   14  C2  UNL     1      29.199 -11.463   9.776  1.00  0.00     0.001 A 
HETATM   15  C1  UNL     1      27.863 -11.957  10.135  1.00  0.00     0.054 C 
HETATM   16  C3  UNL     1      30.072 -12.075   8.895  1.00  0.00     0.117 A 
HETATM   17  N1  UNL     1      31.186 -11.351   8.811  1.00  0.00    -0.310 N 
HETATM   18  N2  UNL     1      31.028 -10.316   9.611  1.00  0.00    -0.285 N 
ATOM     19  H1  UNL     1      32.004 -11.558   8.239  1.00  0.00     0.186 HD
ATOM     20  H2  UNL     1      31.732  -9.589   9.745  1.00  0.00     0.188 HD
ENDBRANCH   4  13
ENDBRANCH   1   2
BRANCH   1  21
HETATM   21  N4  UNL     1      25.676  -7.300  10.578  1.00  0.00    -0.352 N 
ATOM     22  H4  UNL     1      25.758  -8.283  10.319  1.00  0.00     0.163 HD
BRANCH  21  23
HETATM   23  C8  UNL     1      24.573  -6.678  10.338  1.00  0.00     0.104 A 
HETATM   24  C9  UNL     1      23.526  -7.278   9.658  1.00  0.00     0.065 A 
HETATM   25  C10 UNL     1      22.379  -6.547   9.440  1.00  0.00     0.092 A 
HETATM   26  N5  UNL     1      22.247  -5.269   9.866  1.00  0.00    -0.362 N 
HETATM   27  C11 UNL     1      23.306  -4.751  10.518  1.00  0.00     0.181 A 
ATOM     28  H5  UNL     1      21.395  -4.730   9.703  1.00  0.00     0.165 HD
HETATM   29  N6  UNL     1      24.440  -5.407  10.759  1.00  0.00    -0.339 N 
ATOM     30  H6  UNL     1      25.202  -4.949  11.259  1.00  0.00     0.168 HD
ENDBRANCH  21  23
ENDBRANCH   1  21
BRANCH   1  31
HETATM   31  N7  UNL     1      27.393  -5.756  10.228  1.00  0.00    -0.107 NA
BRANCH  31  32
HETATM   32  N8  UNL     1      27.865  -4.570  10.814  1.00  0.00    -0.265 N 
HETATM   33  C12 UNL     1      27.274  -3.316  10.473  1.00  0.00     0.303 C 
HETATM   34  O2  UNL     1      26.320  -3.247   9.644  1.00  0.00    -0.263 OA
ATOM     35  H8  UNL     1      28.633  -4.605  11.485  1.00  0.00     0.185 HD
BRANCH  33  36
HETATM   36  C13 UNL     1      27.804  -2.114  11.112  1.00  0.00     0.204 A 
HETATM   37  N9  UNL     1      28.890  -1.961  11.861  1.00  0.00    -0.267 N 
HETATM   38  N10 UNL     1      28.952  -0.690  12.209  1.00  0.00    -0.225 N 
ATOM     39  H9  UNL     1      29.554  -2.691  12.120  1.00  0.00     0.190 HD
HETATM   40  N11 UNL     1      27.928  -0.020  11.699  1.00  0.00    -0.005 NA
ATOM     41  H10 UNL     1      29.684  -0.279  12.788  1.00  0.00     0.205 HD
HETATM   42  N12 UNL     1      27.220  -0.910  11.020  1.00  0.00    -0.262 N 
ATOM     43  H12 UNL     1      26.362  -0.710  10.505  1.00  0.00     0.186 HD
ENDBRANCH  33  36
ENDBRANCH  31  32
ENDBRANCH   1  31
TORSDOF 8
ENDMDL
