MODEL 1
REMARK VINA RESULT: -7.869596839      0.000      0.000
REMARK  10 active torsions:
REMARK  status: ('A' for Active; 'I' for Inactive)
REMARK    1  A    between atoms: C1_2  and  O2_4 
REMARK    2  A    between atoms: O2_4  and  C2_5 
REMARK    3  A    between atoms: C2_5  and  C3_6 
REMARK       I    between atoms: C3_6  and  N2_8 
REMARK    4  A    between atoms: N2_8  and  C4_10 
REMARK    5  A    between atoms: C4_10  and  O4_11 
REMARK    6  A    between atoms: C4_10  and  C5_13 
REMARK       I    between atoms: C5_13  and  N3_15 
REMARK    7  A    between atoms: N3_15  and  C6_17 
REMARK    8  A    between atoms: N6_22  and  N7_23 
REMARK    9  A    between atoms: C7_26  and  N8_27 
REMARK       I    between atoms: C8_29  and  N10_31 
REMARK   10  A    between atoms: N10_31  and  O6_33 
ROOT
HETATM    1  C5  UNL     1      31.901 -11.938  12.605  1.00  0.00     0.272 C 
HETATM    2  O5  UNL     1      32.230 -11.806  13.810  1.00  0.00    -0.268 OA
HETATM    3  N3  UNL     1      30.993 -11.011  11.963  1.00  0.00    -0.305 N 
ATOM      4  H3  UNL     1      30.741 -11.113  10.981  1.00  0.00     0.170 HD
ENDROOT
BRANCH   1   5
HETATM    5  C4  UNL     1      32.488 -13.092  11.869  1.00  0.00     0.314 C 
BRANCH   5   6
HETATM    6  N2  UNL     1      32.388 -12.839  10.446  1.00  0.00    -0.324 N 
HETATM    7  C3  UNL     1      31.272 -13.167   9.671  1.00  0.00     0.264 C 
HETATM    8  O3  UNL     1      30.301 -13.729  10.293  1.00  0.00    -0.269 OA
ATOM      9  H2  UNL     1      33.180 -12.394   9.982  1.00  0.00     0.165 HD
BRANCH   7  10
HETATM   10  C2  UNL     1      31.066 -12.953   8.241  1.00  0.00     0.198 A 
HETATM   11  C9  UNL     1      31.070 -14.219   7.462  1.00  0.00     0.027 A 
HETATM   12  C10 UNL     1      32.120 -14.281   6.666  1.00  0.00     0.012 A 
HETATM   13  C11 UNL     1      32.946 -13.078   6.805  1.00  0.00    -0.026 A 
HETATM   14  C12 UNL     1      34.116 -12.646   6.225  1.00  0.00     0.012 A 
HETATM   15  C16 UNL     1      32.330 -12.286   7.736  1.00  0.00     0.000 A 
HETATM   16  C13 UNL     1      34.706 -11.439   6.537  1.00  0.00     0.001 A 
HETATM   17  C14 UNL     1      34.048 -10.678   7.479  1.00  0.00     0.001 A 
HETATM   18  C15 UNL     1      32.879 -11.067   8.087  1.00  0.00     0.012 A 
BRANCH  10  19
HETATM   19  O2  UNL     1      30.025 -12.110   7.879  1.00  0.00    -0.276 OA
BRANCH  19  20
HETATM   20  C1  UNL     1      28.801 -12.473   7.381  1.00  0.00     0.374 C 
HETATM   21  N1  UNL     1      28.432 -12.070   6.068  1.00  0.00    -0.032 NA
HETATM   22  O1  UNL     1      28.036 -13.158   8.114  1.00  0.00    -0.242 OA
ENDBRANCH  19  20
ENDBRANCH  10  19
ENDBRANCH   7  10
ENDBRANCH   5   6
BRANCH   5  23
HETATM   23  O4  UNL     1      31.863 -14.285  12.226  1.00  0.00    -0.368 OA
ATOM     24  H4  UNL     1      31.547 -14.262  13.122  1.00  0.00     0.212 HD
ENDBRANCH   5  23
ENDBRANCH   1   5
BRANCH   3  25
HETATM   25  C6  UNL     1      30.476  -9.969  12.740  1.00  0.00     0.172 A 
HETATM   26  N4  UNL     1      30.582  -9.828  14.097  1.00  0.00    -0.266 N 
HETATM   27  N5  UNL     1      29.926  -8.746  14.464  1.00  0.00    -0.218 N 
ATOM     28  H4  UNL     1      31.085 -10.457  14.721  1.00  0.00     0.190 HD
HETATM   29  N6  UNL     1      29.381  -8.145  13.424  1.00  0.00    -0.168 N 
ATOM     30  H5  UNL     1      29.851  -8.417  15.426  1.00  0.00     0.210 HD
HETATM   31  C7  UNL     1      29.721  -8.907  12.328  1.00  0.00     0.194 A 
BRANCH  29  32
HETATM   32  N7  UNL     1      28.614  -6.981  13.400  1.00  0.00    -0.321 N 
ATOM     33  H72 UNL     1      28.880  -6.102  12.958  1.00  0.00     0.179 HD
ATOM     34  H71 UNL     1      27.692  -6.821  13.806  1.00  0.00     0.179 HD
ENDBRANCH  29  32
BRANCH  31  35
HETATM   35  N8  UNL     1      29.339  -8.527  11.024  1.00  0.00    -0.309 N 
HETATM   36  C8  UNL     1      28.722  -9.229  10.158  1.00  0.00     0.213 C 
HETATM   37  N9  UNL     1      28.345 -10.557  10.463  1.00  0.00    -0.061 NA
HETATM   38  N10 UNL     1      28.381  -8.739   8.864  1.00  0.00    -0.241 N 
ATOM     39  H10 UNL     1      28.365  -9.391   8.080  1.00  0.00     0.197 HD
ATOM     40  H8  UNL     1      29.585  -7.579  10.741  1.00  0.00     0.170 HD
BRANCH  38  41
HETATM   41  O6  UNL     1      28.077  -7.440   8.639  1.00  0.00    -0.287 OA
ATOM     42  H6  UNL     1      28.676  -6.734   8.848  1.00  0.00     0.244 HD
ENDBRANCH  38  41
ENDBRANCH  31  35
ENDBRANCH   3  25
TORSDOF 10
ENDMDL
MODEL 2
REMARK VINA RESULT: -7.809034541      3.567      5.132
REMARK  10 active torsions:
REMARK  status: ('A' for Active; 'I' for Inactive)
REMARK    1  A    between atoms: C1_2  and  O2_4 
REMARK    2  A    between atoms: O2_4  and  C2_5 
REMARK    3  A    between atoms: C2_5  and  C3_6 
REMARK       I    between atoms: C3_6  and  N2_8 
REMARK    4  A    between atoms: N2_8  and  C4_10 
REMARK    5  A    between atoms: C4_10  and  O4_11 
REMARK    6  A    between atoms: C4_10  and  C5_13 
REMARK       I    between atoms: C5_13  and  N3_15 
REMARK    7  A    between atoms: N3_15  and  C6_17 
REMARK    8  A    between atoms: N6_22  and  N7_23 
REMARK    9  A    between atoms: C7_26  and  N8_27 
REMARK       I    between atoms: C8_29  and  N10_31 
REMARK   10  A    between atoms: N10_31  and  O6_33 
ROOT
HETATM    1  C5  UNL     1      27.434  -7.903  10.208  1.00  0.00     0.272 C 
HETATM    2  O5  UNL     1      27.134  -7.905   8.989  1.00  0.00    -0.268 OA
HETATM    3  N3  UNL     1      26.563  -7.307  11.200  1.00  0.00    -0.305 N 
ATOM      4  H3  UNL     1      26.804  -7.321  12.191  1.00  0.00     0.170 HD
ENDROOT
BRANCH   1   5
HETATM    5  C4  UNL     1      28.726  -8.540  10.586  1.00  0.00     0.314 C 
BRANCH   5   6
HETATM    6  N2  UNL     1      28.940  -9.699   9.743  1.00  0.00    -0.324 N 
HETATM    7  C3  UNL     1      29.950 -10.642   9.954  1.00  0.00     0.264 C 
HETATM    8  O3  UNL     1      30.715 -10.431  10.961  1.00  0.00    -0.269 OA
ATOM      9  H2  UNL     1      28.316  -9.835   8.948  1.00  0.00     0.165 HD
BRANCH   7  10
HETATM   10  C2  UNL     1      30.248 -11.841   9.174  1.00  0.00     0.198 A 
HETATM   11  C9  UNL     1      29.942 -13.097   9.909  1.00  0.00     0.027 A 
HETATM   12  C10 UNL     1      31.046 -13.763  10.188  1.00  0.00     0.012 A 
HETATM   13  C11 UNL     1      32.222 -13.048   9.681  1.00  0.00    -0.026 A 
HETATM   14  C12 UNL     1      33.576 -13.294   9.702  1.00  0.00     0.012 A 
HETATM   15  C16 UNL     1      31.760 -11.909   9.080  1.00  0.00     0.000 A 
HETATM   16  C13 UNL     1      34.501 -12.440   9.139  1.00  0.00     0.001 A 
HETATM   17  C14 UNL     1      33.986 -11.308   8.546  1.00  0.00     0.001 A 
HETATM   18  C15 UNL     1      32.643 -11.018   8.501  1.00  0.00     0.012 A 
BRANCH  10  19
HETATM   19  O2  UNL     1      29.788 -11.866   7.865  1.00  0.00    -0.276 OA
BRANCH  19  20
HETATM   20  C1  UNL     1      28.569 -12.313   7.424  1.00  0.00     0.374 C 
HETATM   21  N1  UNL     1      28.191 -12.092   6.072  1.00  0.00    -0.032 NA
HETATM   22  O1  UNL     1      27.820 -12.911   8.244  1.00  0.00    -0.242 OA
ENDBRANCH  19  20
ENDBRANCH  10  19
ENDBRANCH   7  10
ENDBRANCH   5   6
BRANCH   5  23
HETATM   23  O4  UNL     1      28.744  -8.874  11.938  1.00  0.00    -0.368 OA
ATOM     24  H4  UNL     1      29.405  -8.384  12.413  1.00  0.00     0.212 HD
ENDBRANCH   5  23
ENDBRANCH   1   5
BRANCH   3  25
HETATM   25  C6  UNL     1      25.380  -6.713  10.748  1.00  0.00     0.172 A 
HETATM   26  N4  UNL     1      24.372  -7.320  10.051  1.00  0.00    -0.266 N 
HETATM   27  N5  UNL     1      23.451  -6.423   9.767  1.00  0.00    -0.218 N 
ATOM     28  H4  UNL     1      24.340  -8.306   9.792  1.00  0.00     0.190 HD
HETATM   29  N6  UNL     1      23.782  -5.236  10.237  1.00  0.00    -0.168 N 
ATOM     30  H5  UNL     1      22.594  -6.620   9.250  1.00  0.00     0.210 HD
HETATM   31  C7  UNL     1      24.999  -5.405  10.862  1.00  0.00     0.194 A 
BRANCH  29  32
HETATM   32  N7  UNL     1      23.076  -4.039  10.143  1.00  0.00    -0.321 N 
ATOM     33  H72 UNL     1      22.551  -3.719   9.329  1.00  0.00     0.179 HD
ATOM     34  H71 UNL     1      22.969  -3.308  10.846  1.00  0.00     0.179 HD
ENDBRANCH  29  32
BRANCH  31  35
HETATM   35  N8  UNL     1      25.637  -4.337  11.526  1.00  0.00    -0.309 N 
HETATM   36  C8  UNL     1      26.549  -3.571  11.072  1.00  0.00     0.213 C 
HETATM   37  N9  UNL     1      27.035  -3.753   9.757  1.00  0.00    -0.061 NA
HETATM   38  N10 UNL     1      27.122  -2.513  11.836  1.00  0.00    -0.241 N 
ATOM     39  H10 UNL     1      28.102  -2.273  11.683  1.00  0.00     0.197 HD
ATOM     40  H8  UNL     1      25.332  -4.155  12.482  1.00  0.00     0.170 HD
BRANCH  38  41
HETATM   41  O6  UNL     1      26.415  -1.817  12.754  1.00  0.00    -0.287 OA
ATOM     42  H6  UNL     1      26.333  -2.102  13.656  1.00  0.00     0.244 HD
ENDBRANCH  38  41
ENDBRANCH  31  35
ENDBRANCH   3  25
TORSDOF 10
ENDMDL
MODEL 3
REMARK VINA RESULT: -7.608883229      4.587      8.881
REMARK  10 active torsions:
REMARK  status: ('A' for Active; 'I' for Inactive)
REMARK    1  A    between atoms: C1_2  and  O2_4 
REMARK    2  A    between atoms: O2_4  and  C2_5 
REMARK    3  A    between atoms: C2_5  and  C3_6 
REMARK       I    between atoms: C3_6  and  N2_8 
REMARK    4  A    between atoms: N2_8  and  C4_10 
REMARK    5  A    between atoms: C4_10  and  O4_11 
REMARK    6  A    between atoms: C4_10  and  C5_13 
REMARK       I    between atoms: C5_13  and  N3_15 
REMARK    7  A    between atoms: N3_15  and  C6_17 
REMARK    8  A    between atoms: N6_22  and  N7_23 
REMARK    9  A    between atoms: C7_26  and  N8_27 
REMARK       I    between atoms: C8_29  and  N10_31 
REMARK   10  A    between atoms: N10_31  and  O6_33 
ROOT
HETATM    1  C5  UNL     1      29.221  -7.818  10.638  1.00  0.00     0.272 C 
HETATM    2  O5  UNL     1      28.959  -8.045  11.845  1.00  0.00    -0.268 OA
HETATM    3  N3  UNL     1      29.893  -8.800   9.813  1.00  0.00    -0.305 N 
ATOM      4  H3  UNL     1      30.090  -8.618   8.829  1.00  0.00     0.170 HD
ENDROOT
BRANCH   1   5
HETATM    5  C4  UNL     1      28.809  -6.493  10.095  1.00  0.00     0.314 C 
BRANCH   5   6
HETATM    6  N2  UNL     1      27.486  -6.174  10.594  1.00  0.00    -0.324 N 
HETATM    7  C3  UNL     1      26.899  -4.909  10.496  1.00  0.00     0.264 C 
HETATM    8  O3  UNL     1      27.608  -4.003   9.929  1.00  0.00    -0.269 OA
ATOM      9  H2  UNL     1      26.952  -6.917  11.043  1.00  0.00     0.165 HD
BRANCH   7  10
HETATM   10  C2  UNL     1      25.580  -4.484  10.956  1.00  0.00     0.198 A 
HETATM   11  C9  UNL     1      25.025  -3.361  10.157  1.00  0.00     0.027 A 
HETATM   12  C10 UNL     1      24.942  -2.261  10.880  1.00  0.00     0.012 A 
HETATM   13  C11 UNL     1      25.425  -2.502  12.243  1.00  0.00    -0.026 A 
HETATM   14  C12 UNL     1      25.552  -1.718  13.367  1.00  0.00     0.012 A 
HETATM   15  C16 UNL     1      25.805  -3.815  12.298  1.00  0.00     0.000 A 
HETATM   16  C13 UNL     1      26.049  -2.197  14.561  1.00  0.00     0.001 A 
HETATM   17  C14 UNL     1      26.418  -3.525  14.566  1.00  0.00     0.001 A 
HETATM   18  C15 UNL     1      26.310  -4.346  13.470  1.00  0.00     0.012 A 
BRANCH  10  19
HETATM   19  O2  UNL     1      24.646  -5.485  11.187  1.00  0.00    -0.276 OA
BRANCH  19  20
HETATM   20  C1  UNL     1      23.930  -6.181  10.248  1.00  0.00     0.374 C 
HETATM   21  N1  UNL     1      22.551  -5.890  10.062  1.00  0.00    -0.032 NA
HETATM   22  O1  UNL     1      24.528  -7.067   9.577  1.00  0.00    -0.242 OA
ENDBRANCH  19  20
ENDBRANCH  10  19
ENDBRANCH   7  10
ENDBRANCH   5   6
BRANCH   5  23
HETATM   23  O4  UNL     1      28.852  -6.486   8.703  1.00  0.00    -0.368 OA
ATOM     24  H4  UNL     1      29.431  -5.809   8.372  1.00  0.00     0.212 HD
ENDBRANCH   5  23
ENDBRANCH   1   5
BRANCH   3  25
HETATM   25  C6  UNL     1      30.260 -10.008  10.415  1.00  0.00     0.172 A 
HETATM   26  N4  UNL     1      30.832 -10.169  11.647  1.00  0.00    -0.266 N 
HETATM   27  N5  UNL     1      31.072 -11.450  11.840  1.00  0.00    -0.218 N 
ATOM     28  H4  UNL     1      31.039  -9.421  12.308  1.00  0.00     0.190 HD
HETATM   29  N6  UNL     1      30.691 -12.167  10.801  1.00  0.00    -0.168 N 
ATOM     30  H5  UNL     1      31.497 -11.836  12.683  1.00  0.00     0.210 HD
HETATM   31  C7  UNL     1      30.174 -11.268   9.893  1.00  0.00     0.194 A 
BRANCH  29  32
HETATM   32  N7  UNL     1      30.776 -13.547  10.622  1.00  0.00    -0.321 N 
ATOM     33  H72 UNL     1      31.071 -14.221  11.328  1.00  0.00     0.179 HD
ATOM     34  H71 UNL     1      30.565 -14.092   9.787  1.00  0.00     0.179 HD
ENDBRANCH  29  32
BRANCH  31  35
HETATM   35  N8  UNL     1      29.623 -11.699   8.668  1.00  0.00    -0.309 N 
HETATM   36  C8  UNL     1      28.471 -12.206   8.467  1.00  0.00     0.213 C 
HETATM   37  N9  UNL     1      27.583 -12.393   9.552  1.00  0.00    -0.061 NA
HETATM   38  N10 UNL     1      28.014 -12.604   7.178  1.00  0.00    -0.241 N 
ATOM     39  H10 UNL     1      27.382 -13.401   7.105  1.00  0.00     0.197 HD
ATOM     40  H8  UNL     1      30.216 -11.592   7.846  1.00  0.00     0.170 HD
BRANCH  38  41
HETATM   41  O6  UNL     1      28.389 -11.963   6.047  1.00  0.00    -0.287 OA
ATOM     42  H6  UNL     1      29.085 -12.285   5.487  1.00  0.00     0.244 HD
ENDBRANCH  38  41
ENDBRANCH  31  35
ENDBRANCH   3  25
TORSDOF 10
ENDMDL
MODEL 4
REMARK VINA RESULT: -7.518744613      2.190      4.566
REMARK  10 active torsions:
REMARK  status: ('A' for Active; 'I' for Inactive)
REMARK    1  A    between atoms: C1_2  and  O2_4 
REMARK    2  A    between atoms: O2_4  and  C2_5 
REMARK    3  A    between atoms: C2_5  and  C3_6 
REMARK       I    between atoms: C3_6  and  N2_8 
REMARK    4  A    between atoms: N2_8  and  C4_10 
REMARK    5  A    between atoms: C4_10  and  O4_11 
REMARK    6  A    between atoms: C4_10  and  C5_13 
REMARK       I    between atoms: C5_13  and  N3_15 
REMARK    7  A    between atoms: N3_15  and  C6_17 
REMARK    8  A    between atoms: N6_22  and  N7_23 
REMARK    9  A    between atoms: C7_26  and  N8_27 
REMARK       I    between atoms: C8_29  and  N10_31 
REMARK   10  A    between atoms: N10_31  and  O6_33 
ROOT
HETATM    1  C5  UNL     1      29.136  -8.403  12.655  1.00  0.00     0.272 C 
HETATM    2  O5  UNL     1      29.214  -7.172  12.894  1.00  0.00    -0.268 OA
HETATM    3  N3  UNL     1      29.463  -9.390  13.662  1.00  0.00    -0.305 N 
ATOM      4  H3  UNL     1      29.385 -10.388  13.469  1.00  0.00     0.170 HD
ENDROOT
BRANCH   1   5
HETATM    5  C4  UNL     1      28.694  -8.798  11.289  1.00  0.00     0.314 C 
BRANCH   5   6
HETATM    6  N2  UNL     1      29.349 -10.038  10.926  1.00  0.00    -0.324 N 
HETATM    7  C3  UNL     1      29.306 -10.598   9.646  1.00  0.00     0.264 C 
HETATM    8  O3  UNL     1      28.633  -9.947   8.770  1.00  0.00    -0.269 OA
ATOM      9  H2  UNL     1      29.873 -10.533  11.648  1.00  0.00     0.165 HD
BRANCH   7  10
HETATM   10  C2  UNL     1      29.931 -11.831   9.174  1.00  0.00     0.198 A 
HETATM   11  C9  UNL     1      29.701 -12.980  10.090  1.00  0.00     0.027 A 
HETATM   12  C10 UNL     1      30.827 -13.365  10.658  1.00  0.00     0.012 A 
HETATM   13  C11 UNL     1      31.946 -12.534  10.202  1.00  0.00    -0.026 A 
HETATM   14  C12 UNL     1      33.295 -12.508  10.475  1.00  0.00     0.012 A 
HETATM   15  C16 UNL     1      31.425 -11.623   9.324  1.00  0.00     0.000 A 
HETATM   16  C13 UNL     1      34.158 -11.599   9.898  1.00  0.00     0.001 A 
HETATM   17  C14 UNL     1      33.586 -10.704   9.021  1.00  0.00     0.001 A 
HETATM   18  C15 UNL     1      32.246 -10.690   8.718  1.00  0.00     0.012 A 
BRANCH  10  19
HETATM   19  O2  UNL     1      29.729 -12.165   7.842  1.00  0.00    -0.276 OA
BRANCH  19  20
HETATM   20  C1  UNL     1      28.545 -12.511   7.245  1.00  0.00     0.374 C 
HETATM   21  N1  UNL     1      28.244 -12.015   5.948  1.00  0.00    -0.032 NA
HETATM   22  O1  UNL     1      27.755 -13.266   7.878  1.00  0.00    -0.242 OA
ENDBRANCH  19  20
ENDBRANCH  10  19
ENDBRANCH   7  10
ENDBRANCH   5   6
BRANCH   5  23
HETATM   23  O4  UNL     1      28.953  -7.788  10.366  1.00  0.00    -0.368 OA
ATOM     24  H4  UNL     1      28.170  -7.292  10.157  1.00  0.00     0.212 HD
ENDBRANCH   5  23
ENDBRANCH   1   5
BRANCH   3  25
HETATM   25  C6  UNL     1      29.890  -8.924  14.910  1.00  0.00     0.172 A 
HETATM   26  N4  UNL     1      29.343  -7.902  15.635  1.00  0.00    -0.266 N 
HETATM   27  N5  UNL     1      30.050  -7.732  16.733  1.00  0.00    -0.218 N 
ATOM     28  H4  UNL     1      28.522  -7.359  15.368  1.00  0.00     0.190 HD
HETATM   29  N6  UNL     1      31.050  -8.589  16.791  1.00  0.00    -0.168 N 
ATOM     30  H5  UNL     1      29.849  -7.030  17.445  1.00  0.00     0.210 HD
HETATM   31  C7  UNL     1      30.961  -9.350  15.646  1.00  0.00     0.194 A 
BRANCH  29  32
HETATM   32  N7  UNL     1      32.016  -8.727  17.787  1.00  0.00    -0.321 N 
ATOM     33  H72 UNL     1      31.998  -8.276  18.701  1.00  0.00     0.179 HD
ATOM     34  H71 UNL     1      32.871  -9.282  17.767  1.00  0.00     0.179 HD
ENDBRANCH  29  32
BRANCH  31  35
HETATM   35  N8  UNL     1      31.858 -10.411  15.399  1.00  0.00    -0.309 N 
HETATM   36  C8  UNL     1      32.049 -11.451  16.109  1.00  0.00     0.213 C 
HETATM   37  N9  UNL     1      31.315 -11.635  17.304  1.00  0.00    -0.061 NA
HETATM   38  N10 UNL     1      32.984 -12.467  15.759  1.00  0.00    -0.241 N 
ATOM     39  H10 UNL     1      33.463 -12.972  16.504  1.00  0.00     0.197 HD
ATOM     40  H8  UNL     1      32.419 -10.336  14.551  1.00  0.00     0.170 HD
BRANCH  38  41
HETATM   41  O6  UNL     1      33.259 -12.786  14.474  1.00  0.00    -0.287 OA
ATOM     42  H6  UNL     1      32.627 -13.217  13.910  1.00  0.00     0.244 HD
ENDBRANCH  38  41
ENDBRANCH  31  35
ENDBRANCH   3  25
TORSDOF 10
ENDMDL
MODEL 5
REMARK VINA RESULT: -7.487386689      2.009      4.088
REMARK  10 active torsions:
REMARK  status: ('A' for Active; 'I' for Inactive)
REMARK    1  A    between atoms: C1_2  and  O2_4 
REMARK    2  A    between atoms: O2_4  and  C2_5 
REMARK    3  A    between atoms: C2_5  and  C3_6 
REMARK       I    between atoms: C3_6  and  N2_8 
REMARK    4  A    between atoms: N2_8  and  C4_10 
REMARK    5  A    between atoms: C4_10  and  O4_11 
REMARK    6  A    between atoms: C4_10  and  C5_13 
REMARK       I    between atoms: C5_13  and  N3_15 
REMARK    7  A    between atoms: N3_15  and  C6_17 
REMARK    8  A    between atoms: N6_22  and  N7_23 
REMARK    9  A    between atoms: C7_26  and  N8_27 
REMARK       I    between atoms: C8_29  and  N10_31 
REMARK   10  A    between atoms: N10_31  and  O6_33 
ROOT
HETATM    1  C5  UNL     1      28.713  -8.130  10.806  1.00  0.00     0.272 C 
HETATM    2  O5  UNL     1      29.476  -7.164  10.556  1.00  0.00    -0.268 OA
HETATM    3  N3  UNL     1      28.467  -8.566  12.164  1.00  0.00    -0.305 N 
ATOM      4  H3  UNL     1      27.835  -9.341  12.365  1.00  0.00     0.170 HD
ENDROOT
BRANCH   1   5
HETATM    5  C4  UNL     1      28.076  -8.805   9.642  1.00  0.00     0.314 C 
BRANCH   5   6
HETATM    6  N2  UNL     1      28.992  -9.797   9.117  1.00  0.00    -0.324 N 
HETATM    7  C3  UNL     1      29.046 -11.121   9.562  1.00  0.00     0.264 C 
HETATM    8  O3  UNL     1      28.224 -11.436  10.494  1.00  0.00    -0.269 OA
ATOM      9  H2  UNL     1      29.636  -9.513   8.379  1.00  0.00     0.165 HD
BRANCH   7  10
HETATM   10  C2  UNL     1      29.921 -12.197   9.102  1.00  0.00     0.198 A 
HETATM   11  C9  UNL     1      29.927 -13.367  10.019  1.00  0.00     0.027 A 
HETATM   12  C10 UNL     1      31.103 -13.506  10.601  1.00  0.00     0.012 A 
HETATM   13  C11 UNL     1      32.027 -12.460  10.153  1.00  0.00    -0.026 A 
HETATM   14  C12 UNL     1      33.337 -12.151  10.440  1.00  0.00     0.012 A 
HETATM   15  C16 UNL     1      31.336 -11.680   9.266  1.00  0.00     0.000 A 
HETATM   16  C13 UNL     1      33.997 -11.082   9.869  1.00  0.00     0.001 A 
HETATM   17  C14 UNL     1      33.259 -10.328   8.983  1.00  0.00     0.001 A 
HETATM   18  C15 UNL     1      31.949 -10.596   8.666  1.00  0.00     0.012 A 
BRANCH  10  19
HETATM   19  O2  UNL     1      29.808 -12.568   7.769  1.00  0.00    -0.276 OA
BRANCH  19  20
HETATM   20  C1  UNL     1      28.653 -12.785   7.065  1.00  0.00     0.374 C 
HETATM   21  N1  UNL     1      28.328 -11.932   5.974  1.00  0.00    -0.032 NA
HETATM   22  O1  UNL     1      27.911 -13.743   7.414  1.00  0.00    -0.242 OA
ENDBRANCH  19  20
ENDBRANCH  10  19
ENDBRANCH   7  10
ENDBRANCH   5   6
BRANCH   5  23
HETATM   23  O4  UNL     1      27.703  -7.881   8.668  1.00  0.00    -0.368 OA
ATOM     24  H4  UNL     1      27.316  -7.102   9.051  1.00  0.00     0.212 HD
ENDBRANCH   5  23
ENDBRANCH   1   5
BRANCH   3  25
HETATM   25  C6  UNL     1      29.127  -7.884  13.193  1.00  0.00     0.172 A 
HETATM   26  N4  UNL     1      28.956  -6.575  13.549  1.00  0.00    -0.266 N 
HETATM   27  N5  UNL     1      29.788  -6.289  14.530  1.00  0.00    -0.218 N 
ATOM     28  H4  UNL     1      28.294  -5.926  13.126  1.00  0.00     0.190 HD
HETATM   29  N6  UNL     1      30.515  -7.340  14.858  1.00  0.00    -0.168 N 
ATOM     30  H5  UNL     1      29.859  -5.376  14.977  1.00  0.00     0.210 HD
HETATM   31  C7  UNL     1      30.106  -8.355  14.021  1.00  0.00     0.194 A 
BRANCH  29  32
HETATM   32  N7  UNL     1      31.499  -7.440  15.839  1.00  0.00    -0.321 N 
ATOM     33  H72 UNL     1      31.334  -7.536  16.841  1.00  0.00     0.179 HD
ATOM     34  H71 UNL     1      32.512  -7.434  15.724  1.00  0.00     0.179 HD
ENDBRANCH  29  32
BRANCH  31  35
HETATM   35  N8  UNL     1      30.648  -9.654  14.126  1.00  0.00    -0.309 N 
HETATM   36  C8  UNL     1      31.571 -10.173  13.415  1.00  0.00     0.213 C 
HETATM   37  N9  UNL     1      32.169  -9.422  12.377  1.00  0.00    -0.061 NA
HETATM   38  N10 UNL     1      32.046 -11.501  13.614  1.00  0.00    -0.241 N 
ATOM     39  H10 UNL     1      32.367 -12.034  12.805  1.00  0.00     0.197 HD
ATOM     40  H8  UNL     1      30.256 -10.247  14.856  1.00  0.00     0.170 HD
BRANCH  38  41
HETATM   41  O6  UNL     1      32.087 -12.081  14.835  1.00  0.00    -0.287 OA
ATOM     42  H6  UNL     1      32.811 -12.629  15.114  1.00  0.00     0.244 HD
ENDBRANCH  38  41
ENDBRANCH  31  35
ENDBRANCH   3  25
TORSDOF 10
ENDMDL
