MODEL 1
REMARK VINA RESULT: -9.263575366      0.000      0.000
REMARK  18 active torsions:
REMARK  status: ('A' for Active; 'I' for Inactive)
REMARK    1  A    between atoms: C2_3  and  C3_4 
REMARK    2  A    between atoms: C3_4  and  O1_5 
REMARK    3  A    between atoms: O1_5  and  C4_6 
REMARK    4  A    between atoms: C4_6  and  C5_7 
REMARK    5  A    between atoms: C6_11  and  C7_12 
REMARK    6  A    between atoms: C7_12  and  O2_13 
REMARK    7  A    between atoms: O2_13  and  C8_14 
REMARK    8  A    between atoms: C8_14  and  C9_15 
REMARK    9  A    between atoms: C9_15  and  O3_16 
REMARK   10  A    between atoms: O3_16  and  C10_17 
REMARK   11  A    between atoms: C10_17  and  C11_18 
REMARK   12  A    between atoms: C11_18  and  O4_19 
REMARK   13  A    between atoms: O4_19  and  C12_20 
REMARK   14  A    between atoms: C18_28  and  O5_29 
REMARK   15  A    between atoms: O5_29  and  C19_30 
REMARK   16  A    between atoms: C19_30  and  C20_31 
REMARK   17  A    between atoms: C26_37  and  O6_38 
REMARK   18  A    between atoms: C27_40  and  O7_41 
ROOT
HETATM    1  C5  UNL     1      17.963  29.435  12.648  1.00  0.00     0.241 C 
HETATM    2  N2  UNL     1      19.192  30.160  12.380  1.00  0.00    -0.058 N 
ATOM      3  H21 UNL     1      19.327  30.313  11.380  1.00  0.00     0.278 HD
ATOM      4  H22 UNL     1      20.015  29.585  12.562  1.00  0.00     0.278 HD
HETATM    5  C6  UNL     1      19.241  31.402  13.117  1.00  0.00     0.241 C 
HETATM    6  C18 UNL     1      19.003  31.255  14.576  1.00  0.00     0.185 C 
HETATM    7  C26 UNL     1      17.728  30.444  14.809  1.00  0.00     0.180 C 
HETATM    8  C27 UNL     1      17.967  29.078  14.083  1.00  0.00     0.182 C 
ENDROOT
BRANCH   5   9
HETATM    9  C7  UNL     1      20.520  32.094  12.767  1.00  0.00     0.203 C 
BRANCH   9  10
HETATM   10  O2  UNL     1      21.525  31.158  12.581  1.00  0.00    -0.387 OA
BRANCH  10  11
HETATM   11  C8  UNL     1      22.509  31.191  13.547  1.00  0.00     0.193 C 
BRANCH  11  12
HETATM   12  C9  UNL     1      22.662  32.535  14.203  1.00  0.00     0.193 C 
BRANCH  12  13
HETATM   13  O3  UNL     1      23.977  32.893  14.359  1.00  0.00    -0.387 OA
BRANCH  13  14
HETATM   14  C10 UNL     1      24.182  33.666  15.488  1.00  0.00     0.194 C 
BRANCH  14  15
HETATM   15  C11 UNL     1      23.356  33.147  16.658  1.00  0.00     0.202 C 
BRANCH  15  16
HETATM   16  O4  UNL     1      22.973  34.075  17.574  1.00  0.00    -0.346 OA
BRANCH  16  17
HETATM   17  C12 UNL     1      21.862  34.753  17.874  1.00  0.00     0.107 A 
HETATM   18  C13 UNL     1      20.798  34.892  17.037  1.00  0.00     0.043 A 
HETATM   19  C14 UNL     1      19.653  35.606  17.385  1.00  0.00     0.045 A 
HETATM   20  C15 UNL     1      19.583  36.199  18.626  1.00  0.00     0.119 A 
HETATM   21  F1  UNL     1      18.472  36.893  18.967  1.00  0.00    -0.206 F 
HETATM   22  C16 UNL     1      20.643  36.081  19.510  1.00  0.00     0.087 A 
HETATM   23  C17 UNL     1      21.753  35.372  19.130  1.00  0.00     0.152 A 
HETATM   24  F2  UNL     1      22.779  35.271  20.013  1.00  0.00    -0.203 F 
ENDBRANCH  16  17
ENDBRANCH  15  16
ENDBRANCH  14  15
ENDBRANCH  13  14
ENDBRANCH  12  13
ENDBRANCH  11  12
ENDBRANCH  10  11
ENDBRANCH   9  10
ENDBRANCH   5   9
BRANCH   6  25
HETATM   25  O5  UNL     1      18.803  32.470  15.201  1.00  0.00    -0.381 OA
BRANCH  25  26
HETATM   26  C19 UNL     1      17.641  33.089  14.761  1.00  0.00     0.172 C 
BRANCH  26  27
HETATM   27  C20 UNL     1      16.963  33.896  15.826  1.00  0.00     0.009 C 
HETATM   28  C21 UNL     1      15.733  33.205  16.380  1.00  0.00     0.007 C 
HETATM   29  C22 UNL     1      15.339  33.938  17.636  1.00  0.00     0.000 C 
HETATM   30  C23 UNL     1      15.113  35.402  17.429  1.00  0.00     0.000 C 
HETATM   31  C24 UNL     1      16.141  36.067  16.570  1.00  0.00     0.000 C 
HETATM   32  C25 UNL     1      16.542  35.260  15.365  1.00  0.00     0.007 C 
ENDBRANCH  26  27
ENDBRANCH  25  26
ENDBRANCH   6  25
BRANCH   1  33
HETATM   33  C4  UNL     1      17.634  28.456  11.612  1.00  0.00     0.203 C 
BRANCH  33  34
HETATM   34  O1  UNL     1      18.497  27.635  11.047  1.00  0.00    -0.382 OA
BRANCH  34  35
HETATM   35  C3  UNL     1      19.086  26.570  11.579  1.00  0.00     0.244 C 
BRANCH  35  36
HETATM   36  C2  UNL     1      20.574  26.588  11.560  1.00  0.00     0.108 A 
HETATM   37  N1  UNL     1      21.404  25.602  11.140  1.00  0.00    -0.337 N 
HETATM   38  C1  UNL     1      20.939  24.340  10.639  1.00  0.00     0.158 C 
HETATM   39  C33 UNL     1      22.686  26.023  11.282  1.00  0.00     0.062 A 
HETATM   40  C28 UNL     1      22.645  27.307  11.805  1.00  0.00     0.060 A 
HETATM   41  C32 UNL     1      23.884  25.406  11.004  1.00  0.00     0.032 A 
HETATM   42  N3  UNL     1      21.331  27.601  11.954  1.00  0.00    -0.342 N 
HETATM   43  C29 UNL     1      23.836  27.959  12.043  1.00  0.00     0.032 A 
ATOM     44  H3  UNL     1      20.972  28.483  12.321  1.00  0.00     0.167 HD
HETATM   45  C30 UNL     1      25.047  27.339  11.763  1.00  0.00     0.002 A 
HETATM   46  C31 UNL     1      25.080  26.049  11.239  1.00  0.00     0.002 A 
ENDBRANCH  35  36
ENDBRANCH  34  35
ENDBRANCH  33  34
ENDBRANCH   1  33
BRANCH   7  47
HETATM   47  O6  UNL     1      17.432  30.249  16.130  1.00  0.00    -0.390 OA
ATOM     48  H6  UNL     1      16.503  30.160  16.305  1.00  0.00     0.210 HD
ENDBRANCH   7  47
BRANCH   8  49
HETATM   49  O7  UNL     1      19.257  28.738  14.583  1.00  0.00    -0.391 OA
ATOM     50  H7  UNL     1      19.258  27.972  15.144  1.00  0.00     0.210 HD
ENDBRANCH   8  49
TORSDOF 18
ENDMDL
MODEL 2
REMARK VINA RESULT: -9.034160792      2.168      8.165
REMARK  18 active torsions:
REMARK  status: ('A' for Active; 'I' for Inactive)
REMARK    1  A    between atoms: C2_3  and  C3_4 
REMARK    2  A    between atoms: C3_4  and  O1_5 
REMARK    3  A    between atoms: O1_5  and  C4_6 
REMARK    4  A    between atoms: C4_6  and  C5_7 
REMARK    5  A    between atoms: C6_11  and  C7_12 
REMARK    6  A    between atoms: C7_12  and  O2_13 
REMARK    7  A    between atoms: O2_13  and  C8_14 
REMARK    8  A    between atoms: C8_14  and  C9_15 
REMARK    9  A    between atoms: C9_15  and  O3_16 
REMARK   10  A    between atoms: O3_16  and  C10_17 
REMARK   11  A    between atoms: C10_17  and  C11_18 
REMARK   12  A    between atoms: C11_18  and  O4_19 
REMARK   13  A    between atoms: O4_19  and  C12_20 
REMARK   14  A    between atoms: C18_28  and  O5_29 
REMARK   15  A    between atoms: O5_29  and  C19_30 
REMARK   16  A    between atoms: C19_30  and  C20_31 
REMARK   17  A    between atoms: C26_37  and  O6_38 
REMARK   18  A    between atoms: C27_40  and  O7_41 
ROOT
HETATM    1  C5  UNL     1      18.661  30.665  14.948  1.00  0.00     0.241 C 
HETATM    2  N2  UNL     1      19.599  31.199  13.975  1.00  0.00    -0.058 N 
ATOM      3  H21 UNL     1      20.026  32.066  14.304  1.00  0.00     0.278 HD
ATOM      4  H22 UNL     1      19.119  31.563  13.152  1.00  0.00     0.278 HD
HETATM    5  C6  UNL     1      20.598  30.219  13.616  1.00  0.00     0.241 C 
HETATM    6  C18 UNL     1      20.041  28.914  13.175  1.00  0.00     0.185 C 
HETATM    7  C26 UNL     1      19.025  28.417  14.203  1.00  0.00     0.180 C 
HETATM    8  C27 UNL     1      17.945  29.546  14.299  1.00  0.00     0.182 C 
ENDROOT
BRANCH   5   9
HETATM    9  C7  UNL     1      21.532  30.854  12.635  1.00  0.00     0.203 C 
BRANCH   9  10
HETATM   10  O2  UNL     1      21.696  32.195  12.942  1.00  0.00    -0.387 OA
BRANCH  10  11
HETATM   11  C8  UNL     1      22.760  32.454  13.780  1.00  0.00     0.193 C 
BRANCH  11  12
HETATM   12  C9  UNL     1      22.456  33.479  14.837  1.00  0.00     0.193 C 
BRANCH  12  13
HETATM   13  O3  UNL     1      21.285  33.215  15.500  1.00  0.00    -0.387 OA
BRANCH  13  14
HETATM   14  C10 UNL     1      21.499  32.631  16.735  1.00  0.00     0.194 C 
BRANCH  14  15
HETATM   15  C11 UNL     1      22.595  33.363  17.499  1.00  0.00     0.202 C 
BRANCH  15  16
HETATM   16  O4  UNL     1      22.192  34.412  18.263  1.00  0.00    -0.346 OA
BRANCH  16  17
HETATM   17  C12 UNL     1      21.598  35.592  18.069  1.00  0.00     0.107 A 
HETATM   18  C13 UNL     1      21.952  36.480  17.098  1.00  0.00     0.043 A 
HETATM   19  C14 UNL     1      21.307  37.703  16.924  1.00  0.00     0.045 A 
HETATM   20  C15 UNL     1      20.266  38.038  17.760  1.00  0.00     0.119 A 
HETATM   21  F1  UNL     1      19.637  39.225  17.593  1.00  0.00    -0.206 F 
HETATM   22  C16 UNL     1      19.872  37.164  18.759  1.00  0.00     0.087 A 
HETATM   23  C17 UNL     1      20.532  35.971  18.901  1.00  0.00     0.152 A 
HETATM   24  F2  UNL     1      20.128  35.129  19.888  1.00  0.00    -0.203 F 
ENDBRANCH  16  17
ENDBRANCH  15  16
ENDBRANCH  14  15
ENDBRANCH  13  14
ENDBRANCH  12  13
ENDBRANCH  11  12
ENDBRANCH  10  11
ENDBRANCH   9  10
ENDBRANCH   5   9
BRANCH   6  25
HETATM   25  O5  UNL     1      21.009  27.933  13.088  1.00  0.00    -0.381 OA
BRANCH  25  26
HETATM   26  C19 UNL     1      21.075  27.387  11.814  1.00  0.00     0.172 C 
BRANCH  26  27
HETATM   27  C20 UNL     1      22.472  27.064  11.381  1.00  0.00     0.009 C 
HETATM   28  C21 UNL     1      22.755  25.576  11.401  1.00  0.00     0.007 C 
HETATM   29  C22 UNL     1      24.044  25.358  10.651  1.00  0.00     0.000 C 
HETATM   30  C23 UNL     1      25.191  26.153  11.189  1.00  0.00     0.000 C 
HETATM   31  C24 UNL     1      24.852  27.570  11.526  1.00  0.00     0.000 C 
HETATM   32  C25 UNL     1      23.525  27.732  12.216  1.00  0.00     0.007 C 
ENDBRANCH  26  27
ENDBRANCH  25  26
ENDBRANCH   6  25
BRANCH   1  33
HETATM   33  C4  UNL     1      17.952  31.704  15.694  1.00  0.00     0.203 C 
BRANCH  33  34
HETATM   34  O1  UNL     1      16.737  31.580  16.194  1.00  0.00    -0.382 OA
BRANCH  34  35
HETATM   35  C3  UNL     1      15.692  32.381  16.018  1.00  0.00     0.244 C 
BRANCH  35  36
HETATM   36  C2  UNL     1      15.837  33.750  16.582  1.00  0.00     0.108 A 
HETATM   37  N1  UNL     1      16.265  34.864  15.938  1.00  0.00    -0.337 N 
HETATM   38  C1  UNL     1      16.665  34.873  14.560  1.00  0.00     0.158 C 
HETATM   39  C33 UNL     1      16.242  35.905  16.808  1.00  0.00     0.062 A 
HETATM   40  C28 UNL     1      15.786  35.419  18.023  1.00  0.00     0.060 A 
HETATM   41  C32 UNL     1      16.576  37.230  16.652  1.00  0.00     0.032 A 
HETATM   42  N3  UNL     1      15.554  34.098  17.828  1.00  0.00    -0.342 N 
HETATM   43  C29 UNL     1      15.672  36.295  19.082  1.00  0.00     0.032 A 
ATOM     44  H3  UNL     1      15.208  33.458  18.543  1.00  0.00     0.167 HD
HETATM   45  C30 UNL     1      16.009  37.634  18.928  1.00  0.00     0.002 A 
HETATM   46  C31 UNL     1      16.467  38.115  17.704  1.00  0.00     0.002 A 
ENDBRANCH  35  36
ENDBRANCH  34  35
ENDBRANCH  33  34
ENDBRANCH   1  33
BRANCH   7  47
HETATM   47  O6  UNL     1      18.450  27.219  13.876  1.00  0.00    -0.390 OA
ATOM     48  H6  UNL     1      18.735  26.496  14.420  1.00  0.00     0.210 HD
ENDBRANCH   7  47
BRANCH   8  49
HETATM   49  O7  UNL     1      17.673  29.766  12.918  1.00  0.00    -0.391 OA
ATOM     50  H7  UNL     1      16.928  30.335  12.762  1.00  0.00     0.210 HD
ENDBRANCH   8  49
TORSDOF 18
ENDMDL
MODEL 3
REMARK VINA RESULT: -8.968122178      1.885      3.500
REMARK  18 active torsions:
REMARK  status: ('A' for Active; 'I' for Inactive)
REMARK    1  A    between atoms: C2_3  and  C3_4 
REMARK    2  A    between atoms: C3_4  and  O1_5 
REMARK    3  A    between atoms: O1_5  and  C4_6 
REMARK    4  A    between atoms: C4_6  and  C5_7 
REMARK    5  A    between atoms: C6_11  and  C7_12 
REMARK    6  A    between atoms: C7_12  and  O2_13 
REMARK    7  A    between atoms: O2_13  and  C8_14 
REMARK    8  A    between atoms: C8_14  and  C9_15 
REMARK    9  A    between atoms: C9_15  and  O3_16 
REMARK   10  A    between atoms: O3_16  and  C10_17 
REMARK   11  A    between atoms: C10_17  and  C11_18 
REMARK   12  A    between atoms: C11_18  and  O4_19 
REMARK   13  A    between atoms: O4_19  and  C12_20 
REMARK   14  A    between atoms: C18_28  and  O5_29 
REMARK   15  A    between atoms: O5_29  and  C19_30 
REMARK   16  A    between atoms: C19_30  and  C20_31 
REMARK   17  A    between atoms: C26_37  and  O6_38 
REMARK   18  A    between atoms: C27_40  and  O7_41 
ROOT
HETATM    1  C5  UNL     1      21.689  28.388  12.355  1.00  0.00     0.241 C 
HETATM    2  N2  UNL     1      21.798  29.832  12.476  1.00  0.00    -0.058 N 
ATOM      3  H21 UNL     1      22.309  30.236  11.691  1.00  0.00     0.278 HD
ATOM      4  H22 UNL     1      22.432  30.099  13.229  1.00  0.00     0.278 HD
HETATM    5  C6  UNL     1      20.499  30.444  12.635  1.00  0.00     0.241 C 
HETATM    6  C18 UNL     1      19.683  29.866  13.734  1.00  0.00     0.185 C 
HETATM    7  C26 UNL     1      19.638  28.345  13.593  1.00  0.00     0.180 C 
HETATM    8  C27 UNL     1      21.133  27.881  13.627  1.00  0.00     0.182 C 
ENDROOT
BRANCH   5   9
HETATM    9  C7  UNL     1      20.697  31.924  12.728  1.00  0.00     0.203 C 
BRANCH   9  10
HETATM   10  O2  UNL     1      22.008  32.202  13.081  1.00  0.00    -0.387 OA
BRANCH  10  11
HETATM   11  C8  UNL     1      22.133  32.945  14.236  1.00  0.00     0.193 C 
BRANCH  11  12
HETATM   12  C9  UNL     1      22.409  32.114  15.458  1.00  0.00     0.193 C 
BRANCH  12  13
HETATM   13  O3  UNL     1      22.623  32.881  16.574  1.00  0.00    -0.387 OA
BRANCH  13  14
HETATM   14  C10 UNL     1      23.313  34.046  16.289  1.00  0.00     0.194 C 
BRANCH  14  15
HETATM   15  C11 UNL     1      22.787  35.206  17.124  1.00  0.00     0.202 C 
BRANCH  15  16
HETATM   16  O4  UNL     1      21.553  35.669  16.792  1.00  0.00    -0.346 OA
BRANCH  16  17
HETATM   17  C12 UNL     1      20.334  35.680  17.336  1.00  0.00     0.107 A 
HETATM   18  C13 UNL     1      19.624  34.562  17.652  1.00  0.00     0.043 A 
HETATM   19  C14 UNL     1      18.352  34.611  18.220  1.00  0.00     0.045 A 
HETATM   20  C15 UNL     1      17.781  35.837  18.479  1.00  0.00     0.119 A 
HETATM   21  F1  UNL     1      16.546  35.889  19.032  1.00  0.00    -0.206 F 
HETATM   22  C16 UNL     1      18.468  37.000  18.175  1.00  0.00     0.087 A 
HETATM   23  C17 UNL     1      19.716  36.910  17.615  1.00  0.00     0.152 A 
HETATM   24  F2  UNL     1      20.371  38.064  17.325  1.00  0.00    -0.203 F 
ENDBRANCH  16  17
ENDBRANCH  15  16
ENDBRANCH  14  15
ENDBRANCH  13  14
ENDBRANCH  12  13
ENDBRANCH  11  12
ENDBRANCH  10  11
ENDBRANCH   9  10
ENDBRANCH   5   9
BRANCH   6  25
HETATM   25  O5  UNL     1      18.369  30.293  13.692  1.00  0.00    -0.381 OA
BRANCH  25  26
HETATM   26  C19 UNL     1      17.920  30.698  14.941  1.00  0.00     0.172 C 
BRANCH  26  27
HETATM   27  C20 UNL     1      17.164  31.991  14.906  1.00  0.00     0.009 C 
HETATM   28  C21 UNL     1      18.072  33.188  14.706  1.00  0.00     0.007 C 
HETATM   29  C22 UNL     1      17.192  34.362  14.365  1.00  0.00     0.000 C 
HETATM   30  C23 UNL     1      16.130  34.629  15.383  1.00  0.00     0.000 C 
HETATM   31  C24 UNL     1      15.433  33.403  15.881  1.00  0.00     0.000 C 
HETATM   32  C25 UNL     1      16.355  32.243  16.143  1.00  0.00     0.007 C 
ENDBRANCH  26  27
ENDBRANCH  25  26
ENDBRANCH   6  25
BRANCH   1  33
HETATM   33  C4  UNL     1      22.858  27.774  11.727  1.00  0.00     0.203 C 
BRANCH  33  34
HETATM   34  O1  UNL     1      23.192  26.502  11.831  1.00  0.00    -0.382 OA
BRANCH  34  35
HETATM   35  C3  UNL     1      23.071  25.544  10.918  1.00  0.00     0.244 C 
BRANCH  35  36
HETATM   36  C2  UNL     1      21.702  24.984  10.762  1.00  0.00     0.108 A 
HETATM   37  N1  UNL     1      21.039  24.741   9.605  1.00  0.00    -0.337 N 
HETATM   38  C1  UNL     1      21.592  25.013   8.308  1.00  0.00     0.158 C 
HETATM   39  C33 UNL     1      19.821  24.221   9.901  1.00  0.00     0.062 A 
HETATM   40  C28 UNL     1      19.730  24.142  11.282  1.00  0.00     0.060 A 
HETATM   41  C32 UNL     1      18.784  23.812   9.095  1.00  0.00     0.032 A 
HETATM   42  N3  UNL     1      20.906  24.620  11.756  1.00  0.00    -0.342 N 
HETATM   43  C29 UNL     1      18.572  23.640  11.838  1.00  0.00     0.032 A 
ATOM     44  H3  UNL     1      21.146  24.691  12.746  1.00  0.00     0.167 HD
HETATM   45  C30 UNL     1      17.524  23.225  11.027  1.00  0.00     0.002 A 
HETATM   46  C31 UNL     1      17.622  23.309   9.641  1.00  0.00     0.002 A 
ENDBRANCH  35  36
ENDBRANCH  34  35
ENDBRANCH  33  34
ENDBRANCH   1  33
BRANCH   7  47
HETATM   47  O6  UNL     1      18.912  27.722  14.571  1.00  0.00    -0.390 OA
ATOM     48  H6  UNL     1      19.429  27.155  15.130  1.00  0.00     0.210 HD
ENDBRANCH   7  47
BRANCH   8  49
HETATM   49  O7  UNL     1      21.599  28.585  14.775  1.00  0.00    -0.391 OA
ATOM     50  H7  UNL     1      20.935  28.707  15.443  1.00  0.00     0.210 HD
ENDBRANCH   8  49
TORSDOF 18
ENDMDL
MODEL 4
REMARK VINA RESULT: -8.907036637      1.820      4.141
REMARK  18 active torsions:
REMARK  status: ('A' for Active; 'I' for Inactive)
REMARK    1  A    between atoms: C2_3  and  C3_4 
REMARK    2  A    between atoms: C3_4  and  O1_5 
REMARK    3  A    between atoms: O1_5  and  C4_6 
REMARK    4  A    between atoms: C4_6  and  C5_7 
REMARK    5  A    between atoms: C6_11  and  C7_12 
REMARK    6  A    between atoms: C7_12  and  O2_13 
REMARK    7  A    between atoms: O2_13  and  C8_14 
REMARK    8  A    between atoms: C8_14  and  C9_15 
REMARK    9  A    between atoms: C9_15  and  O3_16 
REMARK   10  A    between atoms: O3_16  and  C10_17 
REMARK   11  A    between atoms: C10_17  and  C11_18 
REMARK   12  A    between atoms: C11_18  and  O4_19 
REMARK   13  A    between atoms: O4_19  and  C12_20 
REMARK   14  A    between atoms: C18_28  and  O5_29 
REMARK   15  A    between atoms: O5_29  and  C19_30 
REMARK   16  A    between atoms: C19_30  and  C20_31 
REMARK   17  A    between atoms: C26_37  and  O6_38 
REMARK   18  A    between atoms: C27_40  and  O7_41 
ROOT
HETATM    1  C5  UNL     1      18.473  29.057  13.991  1.00  0.00     0.241 C 
HETATM    2  N2  UNL     1      18.935  30.257  13.314  1.00  0.00    -0.058 N 
ATOM      3  H21 UNL     1      18.309  30.523  12.554  1.00  0.00     0.278 HD
ATOM      4  H22 UNL     1      19.777  30.079  12.768  1.00  0.00     0.278 HD
HETATM    5  C6  UNL     1      19.127  31.344  14.248  1.00  0.00     0.241 C 
HETATM    6  C18 UNL     1      19.992  31.006  15.407  1.00  0.00     0.185 C 
HETATM    7  C26 UNL     1      19.498  29.712  16.055  1.00  0.00     0.180 C 
HETATM    8  C27 UNL     1      19.543  28.636  14.919  1.00  0.00     0.182 C 
ENDROOT
BRANCH   5   9
HETATM    9  C7  UNL     1      19.577  32.541  13.471  1.00  0.00     0.203 C 
BRANCH   9  10
HETATM   10  O2  UNL     1      18.831  33.649  13.840  1.00  0.00    -0.387 OA
BRANCH  10  11
HETATM   11  C8  UNL     1      17.617  33.342  14.416  1.00  0.00     0.193 C 
BRANCH  11  12
HETATM   12  C9  UNL     1      16.961  34.513  15.095  1.00  0.00     0.193 C 
BRANCH  12  13
HETATM   13  O3  UNL     1      15.721  34.201  15.592  1.00  0.00    -0.387 OA
BRANCH  13  14
HETATM   14  C10 UNL     1      15.789  33.358  16.685  1.00  0.00     0.194 C 
BRANCH  14  15
HETATM   15  C11 UNL     1      15.035  33.945  17.871  1.00  0.00     0.202 C 
BRANCH  15  16
HETATM   16  O4  UNL     1      15.764  34.723  18.715  1.00  0.00    -0.346 OA
BRANCH  16  17
HETATM   17  C12 UNL     1      16.511  35.826  18.628  1.00  0.00     0.107 A 
HETATM   18  C13 UNL     1      16.012  37.094  18.620  1.00  0.00     0.043 A 
HETATM   19  C14 UNL     1      16.823  38.223  18.530  1.00  0.00     0.045 A 
HETATM   20  C15 UNL     1      18.189  38.063  18.448  1.00  0.00     0.119 A 
HETATM   21  F1  UNL     1      18.980  39.158  18.361  1.00  0.00    -0.206 F 
HETATM   22  C16 UNL     1      18.739  36.792  18.454  1.00  0.00     0.087 A 
HETATM   23  C17 UNL     1      17.908  35.706  18.542  1.00  0.00     0.152 A 
HETATM   24  F2  UNL     1      18.470  34.469  18.546  1.00  0.00    -0.203 F 
ENDBRANCH  16  17
ENDBRANCH  15  16
ENDBRANCH  14  15
ENDBRANCH  13  14
ENDBRANCH  12  13
ENDBRANCH  11  12
ENDBRANCH  10  11
ENDBRANCH   9  10
ENDBRANCH   5   9
BRANCH   6  25
HETATM   25  O5  UNL     1      19.945  31.970  16.395  1.00  0.00    -0.381 OA
BRANCH  25  26
HETATM   26  C19 UNL     1      21.216  32.351  16.803  1.00  0.00     0.172 C 
BRANCH  26  27
HETATM   27  C20 UNL     1      21.345  33.826  17.033  1.00  0.00     0.009 C 
HETATM   28  C21 UNL     1      21.728  34.577  15.775  1.00  0.00     0.007 C 
HETATM   29  C22 UNL     1      21.509  36.043  16.047  1.00  0.00     0.000 C 
HETATM   30  C23 UNL     1      22.249  36.545  17.246  1.00  0.00     0.000 C 
HETATM   31  C24 UNL     1      22.190  35.635  18.431  1.00  0.00     0.000 C 
HETATM   32  C25 UNL     1      22.351  34.178  18.089  1.00  0.00     0.007 C 
ENDBRANCH  26  27
ENDBRANCH  25  26
ENDBRANCH   6  25
BRANCH   1  33
HETATM   33  C4  UNL     1      17.814  28.108  13.093  1.00  0.00     0.203 C 
BRANCH  33  34
HETATM   34  O1  UNL     1      18.289  27.716  11.927  1.00  0.00    -0.382 OA
BRANCH  34  35
HETATM   35  C3  UNL     1      18.860  26.556  11.621  1.00  0.00     0.244 C 
BRANCH  35  36
HETATM   36  C2  UNL     1      20.347  26.572  11.571  1.00  0.00     0.108 A 
HETATM   37  N1  UNL     1      21.169  25.549  11.231  1.00  0.00    -0.337 N 
HETATM   38  C1  UNL     1      20.695  24.246  10.861  1.00  0.00     0.158 C 
HETATM   39  C33 UNL     1      22.454  25.980  11.306  1.00  0.00     0.062 A 
HETATM   40  C28 UNL     1      22.422  27.308  11.704  1.00  0.00     0.060 A 
HETATM   41  C32 UNL     1      23.646  25.339  11.064  1.00  0.00     0.032 A 
HETATM   42  N3  UNL     1      21.111  27.617  11.852  1.00  0.00    -0.342 N 
HETATM   43  C29 UNL     1      23.617  27.979  11.855  1.00  0.00     0.032 A 
ATOM     44  H3  UNL     1      20.759  28.530  12.139  1.00  0.00     0.167 HD
HETATM   45  C30 UNL     1      24.823  27.334  11.612  1.00  0.00     0.002 A 
HETATM   46  C31 UNL     1      24.847  26.000  11.212  1.00  0.00     0.002 A 
ENDBRANCH  35  36
ENDBRANCH  34  35
ENDBRANCH  33  34
ENDBRANCH   1  33
BRANCH   7  47
HETATM   47  O6  UNL     1      20.242  29.315  17.132  1.00  0.00    -0.390 OA
ATOM     48  H6  UNL     1      20.064  29.809  17.924  1.00  0.00     0.210 HD
ENDBRANCH   7  47
BRANCH   8  49
HETATM   49  O7  UNL     1      20.857  28.848  14.410  1.00  0.00    -0.391 OA
ATOM     50  H7  UNL     1      21.374  29.452  14.930  1.00  0.00     0.210 HD
ENDBRANCH   8  49
TORSDOF 18
ENDMDL
MODEL 5
REMARK VINA RESULT: -8.903977557      3.155      8.692
REMARK  18 active torsions:
REMARK  status: ('A' for Active; 'I' for Inactive)
REMARK    1  A    between atoms: C2_3  and  C3_4 
REMARK    2  A    between atoms: C3_4  and  O1_5 
REMARK    3  A    between atoms: O1_5  and  C4_6 
REMARK    4  A    between atoms: C4_6  and  C5_7 
REMARK    5  A    between atoms: C6_11  and  C7_12 
REMARK    6  A    between atoms: C7_12  and  O2_13 
REMARK    7  A    between atoms: O2_13  and  C8_14 
REMARK    8  A    between atoms: C8_14  and  C9_15 
REMARK    9  A    between atoms: C9_15  and  O3_16 
REMARK   10  A    between atoms: O3_16  and  C10_17 
REMARK   11  A    between atoms: C10_17  and  C11_18 
REMARK   12  A    between atoms: C11_18  and  O4_19 
REMARK   13  A    between atoms: O4_19  and  C12_20 
REMARK   14  A    between atoms: C18_28  and  O5_29 
REMARK   15  A    between atoms: O5_29  and  C19_30 
REMARK   16  A    between atoms: C19_30  and  C20_31 
REMARK   17  A    between atoms: C26_37  and  O6_38 
REMARK   18  A    between atoms: C27_40  and  O7_41 
ROOT
HETATM    1  C5  UNL     1      18.846  31.132  15.546  1.00  0.00     0.241 C 
HETATM    2  N2  UNL     1      19.462  31.029  14.234  1.00  0.00    -0.058 N 
ATOM      3  H21 UNL     1      18.806  31.276  13.493  1.00  0.00     0.278 HD
ATOM      4  H22 UNL     1      19.632  30.057  13.976  1.00  0.00     0.278 HD
HETATM    5  C6  UNL     1      20.670  31.817  14.158  1.00  0.00     0.241 C 
HETATM    6  C18 UNL     1      21.648  31.540  15.242  1.00  0.00     0.185 C 
HETATM    7  C26 UNL     1      20.946  31.611  16.597  1.00  0.00     0.180 C 
HETATM    8  C27 UNL     1      19.793  30.554  16.523  1.00  0.00     0.182 C 
ENDROOT
BRANCH   5   9
HETATM    9  C7  UNL     1      21.224  31.675  12.777  1.00  0.00     0.203 C 
BRANCH   9  10
HETATM   10  O2  UNL     1      20.952  30.407  12.288  1.00  0.00    -0.387 OA
BRANCH  10  11
HETATM   11  C8  UNL     1      22.074  29.692  11.927  1.00  0.00     0.193 C 
BRANCH  11  12
HETATM   12  C9  UNL     1      22.613  28.822  13.029  1.00  0.00     0.193 C 
BRANCH  12  13
HETATM   13  O3  UNL     1      22.242  27.509  12.887  1.00  0.00    -0.387 OA
BRANCH  13  14
HETATM   14  C10 UNL     1      22.596  26.992  11.655  1.00  0.00     0.194 C 
BRANCH  14  15
HETATM   15  C11 UNL     1      21.483  26.117  11.093  1.00  0.00     0.202 C 
BRANCH  15  16
HETATM   16  O4  UNL     1      20.257  26.278  11.658  1.00  0.00    -0.346 OA
BRANCH  16  17
HETATM   17  C12 UNL     1      19.173  27.028  11.446  1.00  0.00     0.107 A 
HETATM   18  C13 UNL     1      18.500  27.089  10.264  1.00  0.00     0.043 A 
HETATM   19  C14 UNL     1      17.370  27.883  10.079  1.00  0.00     0.045 A 
HETATM   20  C15 UNL     1      16.903  28.640  11.131  1.00  0.00     0.119 A 
HETATM   21  F1  UNL     1      15.804  29.411  10.955  1.00  0.00    -0.206 F 
HETATM   22  C16 UNL     1      17.555  28.605  12.352  1.00  0.00     0.087 A 
HETATM   23  C17 UNL     1      18.665  27.814  12.494  1.00  0.00     0.152 A 
HETATM   24  F2  UNL     1      19.288  27.796  13.700  1.00  0.00    -0.203 F 
ENDBRANCH  16  17
ENDBRANCH  15  16
ENDBRANCH  14  15
ENDBRANCH  13  14
ENDBRANCH  12  13
ENDBRANCH  11  12
ENDBRANCH  10  11
ENDBRANCH   9  10
ENDBRANCH   5   9
BRANCH   6  25
HETATM   25  O5  UNL     1      22.662  32.478  15.287  1.00  0.00    -0.381 OA
BRANCH  25  26
HETATM   26  C19 UNL     1      22.184  33.762  15.071  1.00  0.00     0.172 C 
BRANCH  26  27
HETATM   27  C20 UNL     1      21.968  34.533  16.337  1.00  0.00     0.009 C 
HETATM   28  C21 UNL     1      21.655  35.993  16.080  1.00  0.00     0.007 C 
HETATM   29  C22 UNL     1      21.146  36.574  17.374  1.00  0.00     0.000 C 
HETATM   30  C23 UNL     1      22.091  36.398  18.520  1.00  0.00     0.000 C 
HETATM   31  C24 UNL     1      22.710  35.039  18.603  1.00  0.00     0.000 C 
HETATM   32  C25 UNL     1      23.140  34.484  17.272  1.00  0.00     0.007 C 
ENDBRANCH  26  27
ENDBRANCH  25  26
ENDBRANCH   6  25
BRANCH   1  33
HETATM   33  C4  UNL     1      17.427  30.776  15.546  1.00  0.00     0.203 C 
BRANCH  33  34
HETATM   34  O1  UNL     1      16.525  31.266  16.373  1.00  0.00    -0.382 OA
BRANCH  34  35
HETATM   35  C3  UNL     1      15.525  32.097  16.099  1.00  0.00     0.244 C 
BRANCH  35  36
HETATM   36  C2  UNL     1      15.701  33.490  16.591  1.00  0.00     0.108 A 
HETATM   37  N1  UNL     1      16.364  34.501  15.978  1.00  0.00    -0.337 N 
HETATM   38  C1  UNL     1      17.026  34.358  14.713  1.00  0.00     0.158 C 
HETATM   39  C33 UNL     1      16.280  35.610  16.756  1.00  0.00     0.062 A 
HETATM   40  C28 UNL     1      15.544  35.272  17.882  1.00  0.00     0.060 A 
HETATM   41  C32 UNL     1      16.778  36.881  16.588  1.00  0.00     0.032 A 
HETATM   42  N3  UNL     1      15.216  33.966  17.728  1.00  0.00    -0.342 N 
HETATM   43  C29 UNL     1      15.318  36.241  18.836  1.00  0.00     0.032 A 
ATOM     44  H3  UNL     1      14.670  33.423  18.397  1.00  0.00     0.167 HD
HETATM   45  C30 UNL     1      15.820  37.525  18.669  1.00  0.00     0.002 A 
HETATM   46  C31 UNL     1      16.558  37.857  17.536  1.00  0.00     0.002 A 
ENDBRANCH  35  36
ENDBRANCH  34  35
ENDBRANCH  33  34
ENDBRANCH   1  33
BRANCH   7  47
HETATM   47  O6  UNL     1      21.770  31.360  17.660  1.00  0.00    -0.390 OA
ATOM     48  H6  UNL     1      21.351  31.473  18.505  1.00  0.00     0.210 HD
ENDBRANCH   7  47
BRANCH   8  49
HETATM   49  O7  UNL     1      20.506  29.425  16.028  1.00  0.00    -0.391 OA
ATOM     50  H7  UNL     1      19.999  28.885  15.433  1.00  0.00     0.210 HD
ENDBRANCH   8  49
TORSDOF 18
ENDMDL
