MODEL 1
REMARK VINA RESULT: -8.420046019      0.000      0.000
REMARK  19 active torsions:
REMARK  status: ('A' for Active; 'I' for Inactive)
REMARK    1  A    between atoms: C2_2  and  C3_3 
REMARK    2  A    between atoms: C3_3  and  C4_4 
REMARK    3  A    between atoms: C4_4  and  C5_5 
REMARK    4  A    between atoms: C5_5  and  C6_6 
REMARK    5  A    between atoms: C6_6  and  C7_7 
REMARK    6  A    between atoms: C7_7  and  C8_8 
REMARK    7  A    between atoms: C8_8  and  C9_9 
REMARK    8  A    between atoms: C9_9  and  C10_10 
REMARK    9  A    between atoms: C11_11  and  C12_12 
REMARK   10  A    between atoms: N2_16  and  C14_17 
REMARK   11  A    between atoms: C15_19  and  C16_20 
REMARK   12  A    between atoms: C16_20  and  C17_21 
REMARK       I    between atoms: C17_21  and  N3_23 
REMARK   13  A    between atoms: N3_23  and  C18_24 
REMARK   14  A    between atoms: N3_23  and  C26_33 
REMARK   15  A    between atoms: C18_24  and  C19_25 
REMARK   16  A    between atoms: C19_25  and  N4_26 
REMARK   17  A    between atoms: C26_33  and  C27_34 
REMARK   18  A    between atoms: C30_37  and  O3_38 
REMARK   19  A    between atoms: C31_40  and  O4_41 
ROOT
HETATM    1  C14 UNL     1      18.475  30.979  16.579  1.00  0.00     0.276 C 
HETATM    2  O1  UNL     1      17.895  30.549  15.419  1.00  0.00    -0.354 OA
HETATM    3  C15 UNL     1      18.784  29.756  14.738  1.00  0.00     0.164 C 
HETATM    4  C30 UNL     1      20.140  29.885  15.335  1.00  0.00     0.180 C 
HETATM    5  C31 UNL     1      19.840  30.381  16.724  1.00  0.00     0.199 C 
ENDROOT
BRANCH   1   6
HETATM    6  N2  UNL     1      18.514  32.438  16.514  1.00  0.00    -0.254 N 
HETATM    7  C13 UNL     1      18.140  33.127  15.412  1.00  0.00     0.205 A 
HETATM    8  N1  UNL     1      18.287  34.434  15.653  1.00  0.00    -0.329 N 
HETATM    9  C12 UNL     1      18.761  34.576  16.928  1.00  0.00     0.177 A 
ATOM     10  H1  UNL     1      18.082  35.191  15.001  1.00  0.00     0.168 HD
HETATM   11  N5  UNL     1      18.877  33.335  17.396  1.00  0.00    -0.273 N 
ATOM     12  H5  UNL     1      19.211  33.108  18.333  1.00  0.00     0.189 HD
BRANCH   9  13
HETATM   13  C11 UNL     1      19.050  35.842  17.562  1.00  0.00    -0.029 C 
HETATM   14  C10 UNL     1      19.268  36.896  18.103  1.00  0.00    -0.098 C 
BRANCH  14  15
HETATM   15  C9  UNL     1      19.506  38.176  18.775  1.00  0.00     0.094 C 
BRANCH  15  16
HETATM   16  C8  UNL     1      18.785  39.251  17.950  1.00  0.00     0.012 C 
BRANCH  16  17
HETATM   17  C7  UNL     1      17.494  39.560  18.693  1.00  0.00     0.001 C 
BRANCH  17  18
HETATM   18  C6  UNL     1      16.295  39.100  17.908  1.00  0.00     0.000 C 
BRANCH  18  19
HETATM   19  C5  UNL     1      15.280  38.475  18.802  1.00  0.00     0.000 C 
BRANCH  19  20
HETATM   20  C4  UNL     1      15.507  37.005  18.904  1.00  0.00     0.000 C 
BRANCH  20  21
HETATM   21  C3  UNL     1      15.430  36.310  17.538  1.00  0.00    -0.000 C 
BRANCH  21  22
HETATM   22  C2  UNL     1      14.439  35.161  17.758  1.00  0.00    -0.005 C 
HETATM   23  C1  UNL     1      15.189  33.848  17.724  1.00  0.00     0.005 C 
ENDBRANCH  21  22
ENDBRANCH  20  21
ENDBRANCH  19  20
ENDBRANCH  18  19
ENDBRANCH  17  18
ENDBRANCH  16  17
ENDBRANCH  15  16
ENDBRANCH  14  15
ENDBRANCH   9  13
ENDBRANCH   1   6
BRANCH   5  24
HETATM   24  O4  UNL     1      20.806  31.272  17.184  1.00  0.00    -0.388 OA
ATOM     25  H4  UNL     1      21.097  31.900  16.533  1.00  0.00     0.210 HD
ENDBRANCH   5  24
BRANCH   3  26
HETATM   26  C16 UNL     1      18.725  30.128  13.274  1.00  0.00     0.138 C 
BRANCH  26  27
HETATM   27  C17 UNL     1      19.513  29.323  12.375  1.00  0.00     0.230 C 
HETATM   28  O2  UNL     1      20.663  29.824  12.069  1.00  0.00    -0.273 OA
HETATM   29  N3  UNL     1      19.233  28.065  11.759  1.00  0.00    -0.302 N 
BRANCH  29  30
HETATM   30  C18 UNL     1      20.239  27.625  10.841  1.00  0.00     0.116 C 
BRANCH  30  31
HETATM   31  C19 UNL     1      21.102  26.484  11.088  1.00  0.00     0.103 C 
BRANCH  31  32
HETATM   32  N4  UNL     1      22.486  26.465  10.985  1.00  0.00    -0.389 N 
HETATM   33  C20 UNL     1      23.088  25.242  10.604  1.00  0.00     0.122 C 
HETATM   34  C21 UNL     1      24.569  25.159  10.651  1.00  0.00     0.024 C 
HETATM   35  C22 UNL     1      25.233  26.392  10.153  1.00  0.00    -0.015 C 
HETATM   36  C23 UNL     1      26.186  26.909  11.209  1.00  0.00     0.010 C 
HETATM   37  C24 UNL     1      24.266  27.465   9.709  1.00  0.00     0.024 C 
HETATM   38  C25 UNL     1      23.182  27.668  10.729  1.00  0.00     0.122 C 
ENDBRANCH  31  32
ENDBRANCH  30  31
ENDBRANCH  29  30
BRANCH  29  39
HETATM   39  C26 UNL     1      17.996  27.434  11.946  1.00  0.00     0.101 C 
BRANCH  39  40
HETATM   40  C27 UNL     1      17.482  26.247  11.295  1.00  0.00    -0.072 C 
HETATM   41  C28 UNL     1      17.468  26.099   9.827  1.00  0.00     0.044 C 
HETATM   42  C29 UNL     1      17.901  24.896  11.863  1.00  0.00     0.044 C 
ENDBRANCH  39  40
ENDBRANCH  29  39
ENDBRANCH  26  27
ENDBRANCH   3  26
BRANCH   4  43
HETATM   43  O3  UNL     1      20.826  28.664  15.382  1.00  0.00    -0.390 OA
ATOM     44  H3  UNL     1      21.763  28.767  15.265  1.00  0.00     0.210 HD
ENDBRANCH   4  43
TORSDOF 19
ENDMDL
MODEL 2
REMARK VINA RESULT: -8.110047587      2.673      6.691
REMARK  19 active torsions:
REMARK  status: ('A' for Active; 'I' for Inactive)
REMARK    1  A    between atoms: C2_2  and  C3_3 
REMARK    2  A    between atoms: C3_3  and  C4_4 
REMARK    3  A    between atoms: C4_4  and  C5_5 
REMARK    4  A    between atoms: C5_5  and  C6_6 
REMARK    5  A    between atoms: C6_6  and  C7_7 
REMARK    6  A    between atoms: C7_7  and  C8_8 
REMARK    7  A    between atoms: C8_8  and  C9_9 
REMARK    8  A    between atoms: C9_9  and  C10_10 
REMARK    9  A    between atoms: C11_11  and  C12_12 
REMARK   10  A    between atoms: N2_16  and  C14_17 
REMARK   11  A    between atoms: C15_19  and  C16_20 
REMARK   12  A    between atoms: C16_20  and  C17_21 
REMARK       I    between atoms: C17_21  and  N3_23 
REMARK   13  A    between atoms: N3_23  and  C18_24 
REMARK   14  A    between atoms: N3_23  and  C26_33 
REMARK   15  A    between atoms: C18_24  and  C19_25 
REMARK   16  A    between atoms: C19_25  and  N4_26 
REMARK   17  A    between atoms: C26_33  and  C27_34 
REMARK   18  A    between atoms: C30_37  and  O3_38 
REMARK   19  A    between atoms: C31_40  and  O4_41 
ROOT
HETATM    1  C14 UNL     1      18.381  25.949  10.341  1.00  0.00     0.276 C 
HETATM    2  O1  UNL     1      19.483  26.190   9.570  1.00  0.00    -0.354 OA
HETATM    3  C15 UNL     1      20.579  25.608  10.157  1.00  0.00     0.164 C 
HETATM    4  C30 UNL     1      20.250  25.190  11.545  1.00  0.00     0.180 C 
HETATM    5  C31 UNL     1      18.748  25.085  11.508  1.00  0.00     0.199 C 
ENDROOT
BRANCH   1   6
HETATM    6  N2  UNL     1      17.866  27.252  10.757  1.00  0.00    -0.254 N 
HETATM    7  C13 UNL     1      16.939  27.929  10.042  1.00  0.00     0.205 A 
HETATM    8  N1  UNL     1      16.672  29.080  10.669  1.00  0.00    -0.329 N 
HETATM    9  C12 UNL     1      17.441  29.133  11.799  1.00  0.00     0.177 A 
ATOM     10  H1  UNL     1      16.011  29.793  10.359  1.00  0.00     0.168 HD
HETATM   11  N5  UNL     1      18.140  27.999  11.797  1.00  0.00    -0.273 N 
ATOM     12  H5  UNL     1      18.811  27.743  12.520  1.00  0.00     0.189 HD
BRANCH   9  13
HETATM   13  C11 UNL     1      17.436  30.223  12.747  1.00  0.00    -0.029 C 
HETATM   14  C10 UNL     1      17.419  31.147  13.520  1.00  0.00    -0.098 C 
BRANCH  14  15
HETATM   15  C9  UNL     1      17.383  32.286  14.440  1.00  0.00     0.094 C 
BRANCH  15  16
HETATM   16  C8  UNL     1      16.321  31.966  15.502  1.00  0.00     0.012 C 
BRANCH  16  17
HETATM   17  C7  UNL     1      15.657  33.290  15.849  1.00  0.00     0.001 C 
BRANCH  17  18
HETATM   18  C6  UNL     1      16.350  34.439  15.167  1.00  0.00     0.000 C 
BRANCH  18  19
HETATM   19  C5  UNL     1      16.402  35.634  16.056  1.00  0.00     0.000 C 
BRANCH  19  20
HETATM   20  C4  UNL     1      15.875  35.301  17.411  1.00  0.00     0.000 C 
BRANCH  20  21
HETATM   21  C3  UNL     1      16.826  35.748  18.529  1.00  0.00    -0.000 C 
BRANCH  21  22
HETATM   22  C2  UNL     1      17.995  34.761  18.444  1.00  0.00    -0.005 C 
HETATM   23  C1  UNL     1      19.259  35.448  18.912  1.00  0.00     0.005 C 
ENDBRANCH  21  22
ENDBRANCH  20  21
ENDBRANCH  19  20
ENDBRANCH  18  19
ENDBRANCH  17  18
ENDBRANCH  16  17
ENDBRANCH  15  16
ENDBRANCH  14  15
ENDBRANCH   9  13
ENDBRANCH   1   6
BRANCH   5  24
HETATM   24  O4  UNL     1      18.164  25.475  12.711  1.00  0.00    -0.388 OA
ATOM     25  H4  UNL     1      18.750  25.944  13.293  1.00  0.00     0.210 HD
ENDBRANCH   5  24
BRANCH   3  26
HETATM   26  C16 UNL     1      21.733  26.580  10.071  1.00  0.00     0.138 C 
BRANCH  26  27
HETATM   27  C17 UNL     1      21.855  27.528  11.150  1.00  0.00     0.230 C 
HETATM   28  O2  UNL     1      20.990  28.485  11.127  1.00  0.00    -0.273 OA
HETATM   29  N3  UNL     1      22.778  27.589  12.239  1.00  0.00    -0.302 N 
BRANCH  29  30
HETATM   30  C18 UNL     1      22.637  28.753  13.062  1.00  0.00     0.116 C 
BRANCH  30  31
HETATM   31  C19 UNL     1      21.563  28.926  14.022  1.00  0.00     0.103 C 
BRANCH  31  32
HETATM   32  N4  UNL     1      21.187  30.117  14.627  1.00  0.00    -0.389 N 
HETATM   33  C20 UNL     1      20.459  30.026  15.837  1.00  0.00     0.122 C 
HETATM   34  C21 UNL     1      19.908  31.281  16.406  1.00  0.00     0.024 C 
HETATM   35  C22 UNL     1      20.849  32.426  16.300  1.00  0.00    -0.015 C 
HETATM   36  C23 UNL     1      20.162  33.574  15.593  1.00  0.00     0.010 C 
HETATM   37  C24 UNL     1      22.160  32.074  15.636  1.00  0.00     0.024 C 
HETATM   38  C25 UNL     1      21.932  31.291  14.375  1.00  0.00     0.122 C 
ENDBRANCH  31  32
ENDBRANCH  30  31
ENDBRANCH  29  30
BRANCH  29  39
HETATM   39  C26 UNL     1      23.815  26.655  12.354  1.00  0.00     0.101 C 
BRANCH  39  40
HETATM   40  C27 UNL     1      25.092  26.635  11.671  1.00  0.00    -0.072 C 
HETATM   41  C28 UNL     1      25.204  26.372  10.223  1.00  0.00     0.044 C 
HETATM   42  C29 UNL     1      26.077  27.755  11.986  1.00  0.00     0.044 C 
ENDBRANCH  39  40
ENDBRANCH  29  39
ENDBRANCH  26  27
ENDBRANCH   3  26
BRANCH   4  43
HETATM   43  O3  UNL     1      20.823  23.957  11.887  1.00  0.00    -0.390 OA
ATOM     44  H3  UNL     1      20.188  23.344  12.238  1.00  0.00     0.210 HD
ENDBRANCH   4  43
TORSDOF 19
ENDMDL
MODEL 3
REMARK VINA RESULT: -8.022976824      3.602     10.734
REMARK  19 active torsions:
REMARK  status: ('A' for Active; 'I' for Inactive)
REMARK    1  A    between atoms: C2_2  and  C3_3 
REMARK    2  A    between atoms: C3_3  and  C4_4 
REMARK    3  A    between atoms: C4_4  and  C5_5 
REMARK    4  A    between atoms: C5_5  and  C6_6 
REMARK    5  A    between atoms: C6_6  and  C7_7 
REMARK    6  A    between atoms: C7_7  and  C8_8 
REMARK    7  A    between atoms: C8_8  and  C9_9 
REMARK    8  A    between atoms: C9_9  and  C10_10 
REMARK    9  A    between atoms: C11_11  and  C12_12 
REMARK   10  A    between atoms: N2_16  and  C14_17 
REMARK   11  A    between atoms: C15_19  and  C16_20 
REMARK   12  A    between atoms: C16_20  and  C17_21 
REMARK       I    between atoms: C17_21  and  N3_23 
REMARK   13  A    between atoms: N3_23  and  C18_24 
REMARK   14  A    between atoms: N3_23  and  C26_33 
REMARK   15  A    between atoms: C18_24  and  C19_25 
REMARK   16  A    between atoms: C19_25  and  N4_26 
REMARK   17  A    between atoms: C26_33  and  C27_34 
REMARK   18  A    between atoms: C30_37  and  O3_38 
REMARK   19  A    between atoms: C31_40  and  O4_41 
ROOT
HETATM    1  C14 UNL     1      16.315  34.779  17.327  1.00  0.00     0.276 C 
HETATM    2  O1  UNL     1      17.094  34.525  18.421  1.00  0.00    -0.354 OA
HETATM    3  C15 UNL     1      17.867  35.627  18.689  1.00  0.00     0.164 C 
HETATM    4  C30 UNL     1      17.813  36.575  17.545  1.00  0.00     0.180 C 
HETATM    5  C31 UNL     1      16.534  36.183  16.854  1.00  0.00     0.199 C 
ENDROOT
BRANCH   1   6
HETATM    6  N2  UNL     1      16.679  33.791  16.314  1.00  0.00    -0.254 N 
HETATM    7  C13 UNL     1      15.800  32.879  15.838  1.00  0.00     0.205 A 
HETATM    8  N1  UNL     1      16.422  32.117  14.932  1.00  0.00    -0.329 N 
HETATM    9  C12 UNL     1      17.714  32.553  14.830  1.00  0.00     0.177 A 
ATOM     10  H1  UNL     1      16.005  31.347  14.408  1.00  0.00     0.168 HD
HETATM   11  N5  UNL     1      17.808  33.566  15.690  1.00  0.00    -0.273 N 
ATOM     12  H5  UNL     1      18.660  34.104  15.844  1.00  0.00     0.189 HD
BRANCH   9  13
HETATM   13  C11 UNL     1      18.708  31.982  13.950  1.00  0.00    -0.029 C 
HETATM   14  C10 UNL     1      19.548  31.495  13.237  1.00  0.00    -0.098 C 
BRANCH  14  15
HETATM   15  C9  UNL     1      20.584  30.893  12.394  1.00  0.00     0.094 C 
BRANCH  15  16
HETATM   16  C8  UNL     1      21.525  30.121  13.330  1.00  0.00     0.012 C 
BRANCH  16  17
HETATM   17  C7  UNL     1      21.460  28.666  12.890  1.00  0.00     0.001 C 
BRANCH  17  18
HETATM   18  C6  UNL     1      21.337  28.558  11.393  1.00  0.00     0.000 C 
BRANCH  18  19
HETATM   19  C5  UNL     1      20.484  27.398  11.011  1.00  0.00     0.000 C 
BRANCH  19  20
HETATM   20  C4  UNL     1      19.180  27.448  11.733  1.00  0.00     0.000 C 
BRANCH  20  21
HETATM   21  C3  UNL     1      18.167  28.368  11.039  1.00  0.00    -0.000 C 
BRANCH  21  22
HETATM   22  C2  UNL     1      17.282  28.880  12.181  1.00  0.00    -0.005 C 
HETATM   23  C1  UNL     1      17.742  28.257  13.480  1.00  0.00     0.005 C 
ENDBRANCH  21  22
ENDBRANCH  20  21
ENDBRANCH  19  20
ENDBRANCH  18  19
ENDBRANCH  17  18
ENDBRANCH  16  17
ENDBRANCH  15  16
ENDBRANCH  14  15
ENDBRANCH   9  13
ENDBRANCH   1   6
BRANCH   5  24
HETATM   24  O4  UNL     1      16.623  36.311  15.471  1.00  0.00    -0.388 OA
ATOM     25  H4  UNL     1      16.178  37.074  15.121  1.00  0.00     0.210 HD
ENDBRANCH   5  24
BRANCH   3  26
HETATM   26  C16 UNL     1      19.264  35.155  19.023  1.00  0.00     0.138 C 
BRANCH  26  27
HETATM   27  C17 UNL     1      20.335  36.082  18.759  1.00  0.00     0.230 C 
HETATM   28  O2  UNL     1      20.455  37.029  19.627  1.00  0.00    -0.273 OA
HETATM   29  N3  UNL     1      21.285  36.133  17.693  1.00  0.00    -0.302 N 
BRANCH  29  30
HETATM   30  C18 UNL     1      22.144  37.277  17.727  1.00  0.00     0.116 C 
BRANCH  30  31
HETATM   31  C19 UNL     1      21.969  38.433  16.866  1.00  0.00     0.103 C 
BRANCH  31  32
HETATM   32  N4  UNL     1      20.928  39.349  16.924  1.00  0.00    -0.389 N 
HETATM   33  C20 UNL     1      20.760  40.060  18.136  1.00  0.00     0.122 C 
HETATM   34  C21 UNL     1      19.556  40.917  18.271  1.00  0.00     0.024 C 
HETATM   35  C22 UNL     1      19.239  41.668  17.029  1.00  0.00    -0.015 C 
HETATM   36  C23 UNL     1      17.810  41.379  16.621  1.00  0.00     0.010 C 
HETATM   37  C24 UNL     1      20.202  41.400  15.896  1.00  0.00     0.024 C 
HETATM   38  C25 UNL     1      20.442  39.927  15.730  1.00  0.00     0.122 C 
ENDBRANCH  31  32
ENDBRANCH  30  31
ENDBRANCH  29  30
BRANCH  29  39
HETATM   39  C26 UNL     1      21.233  35.208  16.641  1.00  0.00     0.101 C 
BRANCH  39  40
HETATM   40  C27 UNL     1      22.100  34.075  16.393  1.00  0.00    -0.072 C 
HETATM   41  C28 UNL     1      22.230  32.962  17.353  1.00  0.00     0.044 C 
HETATM   42  C29 UNL     1      22.061  33.449  15.004  1.00  0.00     0.044 C 
ENDBRANCH  39  40
ENDBRANCH  29  39
ENDBRANCH  26  27
ENDBRANCH   3  26
BRANCH   4  43
HETATM   43  O3  UNL     1      17.763  37.914  17.957  1.00  0.00    -0.390 OA
ATOM     44  H3  UNL     1      17.384  38.484  17.298  1.00  0.00     0.210 HD
ENDBRANCH   4  43
TORSDOF 19
ENDMDL
MODEL 4
REMARK VINA RESULT: -7.986318212      1.341      2.694
REMARK  19 active torsions:
REMARK  status: ('A' for Active; 'I' for Inactive)
REMARK    1  A    between atoms: C2_2  and  C3_3 
REMARK    2  A    between atoms: C3_3  and  C4_4 
REMARK    3  A    between atoms: C4_4  and  C5_5 
REMARK    4  A    between atoms: C5_5  and  C6_6 
REMARK    5  A    between atoms: C6_6  and  C7_7 
REMARK    6  A    between atoms: C7_7  and  C8_8 
REMARK    7  A    between atoms: C8_8  and  C9_9 
REMARK    8  A    between atoms: C9_9  and  C10_10 
REMARK    9  A    between atoms: C11_11  and  C12_12 
REMARK   10  A    between atoms: N2_16  and  C14_17 
REMARK   11  A    between atoms: C15_19  and  C16_20 
REMARK   12  A    between atoms: C16_20  and  C17_21 
REMARK       I    between atoms: C17_21  and  N3_23 
REMARK   13  A    between atoms: N3_23  and  C18_24 
REMARK   14  A    between atoms: N3_23  and  C26_33 
REMARK   15  A    between atoms: C18_24  and  C19_25 
REMARK   16  A    between atoms: C19_25  and  N4_26 
REMARK   17  A    between atoms: C26_33  and  C27_34 
REMARK   18  A    between atoms: C30_37  and  O3_38 
REMARK   19  A    between atoms: C31_40  and  O4_41 
ROOT
HETATM    1  C14 UNL     1      18.418  30.976  16.567  1.00  0.00     0.276 C 
HETATM    2  O1  UNL     1      17.848  30.497  15.422  1.00  0.00    -0.354 OA
HETATM    3  C15 UNL     1      18.764  29.725  14.751  1.00  0.00     0.164 C 
HETATM    4  C30 UNL     1      20.117  29.923  15.333  1.00  0.00     0.180 C 
HETATM    5  C31 UNL     1      19.808  30.437  16.714  1.00  0.00     0.199 C 
ENDROOT
BRANCH   1   6
HETATM    6  N2  UNL     1      18.397  32.434  16.470  1.00  0.00    -0.254 N 
HETATM    7  C13 UNL     1      18.245  33.081  15.292  1.00  0.00     0.205 A 
HETATM    8  N1  UNL     1      18.268  34.399  15.522  1.00  0.00    -0.329 N 
HETATM    9  C12 UNL     1      18.436  34.589  16.866  1.00  0.00     0.177 A 
ATOM     10  H1  UNL     1      18.176  35.132  14.818  1.00  0.00     0.168 HD
HETATM   11  N5  UNL     1      18.507  33.364  17.384  1.00  0.00    -0.273 N 
ATOM     12  H5  UNL     1      18.632  33.173  18.378  1.00  0.00     0.189 HD
BRANCH   9  13
HETATM   13  C11 UNL     1      18.510  35.880  17.511  1.00  0.00    -0.029 C 
HETATM   14  C10 UNL     1      18.585  36.965  18.028  1.00  0.00    -0.098 C 
BRANCH  14  15
HETATM   15  C9  UNL     1      18.693  38.295  18.634  1.00  0.00     0.094 C 
BRANCH  15  16
HETATM   16  C8  UNL     1      18.721  39.307  17.481  1.00  0.00     0.012 C 
BRANCH  16  17
HETATM   17  C7  UNL     1      20.139  39.285  16.931  1.00  0.00     0.001 C 
BRANCH  17  18
HETATM   18  C6  UNL     1      21.151  39.407  18.039  1.00  0.00     0.000 C 
BRANCH  18  19
HETATM   19  C5  UNL     1      22.212  38.369  17.909  1.00  0.00     0.000 C 
BRANCH  19  20
HETATM   20  C4  UNL     1      22.223  37.480  19.106  1.00  0.00     0.000 C 
BRANCH  20  21
HETATM   21  C3  UNL     1      22.130  35.996  18.727  1.00  0.00    -0.000 C 
BRANCH  21  22
HETATM   22  C2  UNL     1      22.276  35.989  17.202  1.00  0.00    -0.005 C 
HETATM   23  C1  UNL     1      22.235  34.560  16.707  1.00  0.00     0.005 C 
ENDBRANCH  21  22
ENDBRANCH  20  21
ENDBRANCH  19  20
ENDBRANCH  18  19
ENDBRANCH  17  18
ENDBRANCH  16  17
ENDBRANCH  15  16
ENDBRANCH  14  15
ENDBRANCH   9  13
ENDBRANCH   1   6
BRANCH   5  24
HETATM   24  O4  UNL     1      20.740  31.377  17.146  1.00  0.00    -0.388 OA
ATOM     25  H4  UNL     1      21.644  31.121  17.008  1.00  0.00     0.210 HD
ENDBRANCH   5  24
BRANCH   3  26
HETATM   26  C16 UNL     1      18.679  30.062  13.280  1.00  0.00     0.138 C 
BRANCH  26  27
HETATM   27  C17 UNL     1      19.489  29.267  12.391  1.00  0.00     0.230 C 
HETATM   28  O2  UNL     1      20.679  29.725  12.192  1.00  0.00    -0.273 OA
HETATM   29  N3  UNL     1      19.193  28.059  11.689  1.00  0.00    -0.302 N 
BRANCH  29  30
HETATM   30  C18 UNL     1      20.239  27.618  10.816  1.00  0.00     0.116 C 
BRANCH  30  31
HETATM   31  C19 UNL     1      21.103  26.490  11.112  1.00  0.00     0.103 C 
BRANCH  31  32
HETATM   32  N4  UNL     1      22.487  26.466  11.005  1.00  0.00    -0.389 N 
HETATM   33  C20 UNL     1      23.081  25.250  10.591  1.00  0.00     0.122 C 
HETATM   34  C21 UNL     1      24.562  25.158  10.632  1.00  0.00     0.024 C 
HETATM   35  C22 UNL     1      25.232  26.399  10.166  1.00  0.00    -0.015 C 
HETATM   36  C23 UNL     1      26.189  26.883  11.234  1.00  0.00     0.010 C 
HETATM   37  C24 UNL     1      24.269  27.490   9.754  1.00  0.00     0.024 C 
HETATM   38  C25 UNL     1      23.189  27.671  10.781  1.00  0.00     0.122 C 
ENDBRANCH  31  32
ENDBRANCH  30  31
ENDBRANCH  29  30
BRANCH  29  39
HETATM   39  C26 UNL     1      17.918  27.483  11.755  1.00  0.00     0.101 C 
BRANCH  39  40
HETATM   40  C27 UNL     1      17.456  26.245  11.166  1.00  0.00    -0.072 C 
HETATM   41  C28 UNL     1      17.485  26.009   9.709  1.00  0.00     0.044 C 
HETATM   42  C29 UNL     1      17.897  24.943  11.824  1.00  0.00     0.044 C 
ENDBRANCH  39  40
ENDBRANCH  29  39
ENDBRANCH  26  27
ENDBRANCH   3  26
BRANCH   4  43
HETATM   43  O3  UNL     1      20.853  28.733  15.402  1.00  0.00    -0.390 OA
ATOM     44  H3  UNL     1      20.918  28.395  16.288  1.00  0.00     0.210 HD
ENDBRANCH   4  43
TORSDOF 19
ENDMDL
MODEL 5
REMARK VINA RESULT: -7.907731575      1.102      1.449
REMARK  19 active torsions:
REMARK  status: ('A' for Active; 'I' for Inactive)
REMARK    1  A    between atoms: C2_2  and  C3_3 
REMARK    2  A    between atoms: C3_3  and  C4_4 
REMARK    3  A    between atoms: C4_4  and  C5_5 
REMARK    4  A    between atoms: C5_5  and  C6_6 
REMARK    5  A    between atoms: C6_6  and  C7_7 
REMARK    6  A    between atoms: C7_7  and  C8_8 
REMARK    7  A    between atoms: C8_8  and  C9_9 
REMARK    8  A    between atoms: C9_9  and  C10_10 
REMARK    9  A    between atoms: C11_11  and  C12_12 
REMARK   10  A    between atoms: N2_16  and  C14_17 
REMARK   11  A    between atoms: C15_19  and  C16_20 
REMARK   12  A    between atoms: C16_20  and  C17_21 
REMARK       I    between atoms: C17_21  and  N3_23 
REMARK   13  A    between atoms: N3_23  and  C18_24 
REMARK   14  A    between atoms: N3_23  and  C26_33 
REMARK   15  A    between atoms: C18_24  and  C19_25 
REMARK   16  A    between atoms: C19_25  and  N4_26 
REMARK   17  A    between atoms: C26_33  and  C27_34 
REMARK   18  A    between atoms: C30_37  and  O3_38 
REMARK   19  A    between atoms: C31_40  and  O4_41 
ROOT
HETATM    1  C14 UNL     1      18.503  31.077  16.584  1.00  0.00     0.276 C 
HETATM    2  O1  UNL     1      17.914  30.691  15.413  1.00  0.00    -0.354 OA
HETATM    3  C15 UNL     1      18.720  29.775  14.784  1.00  0.00     0.164 C 
HETATM    4  C30 UNL     1      20.060  29.753  15.427  1.00  0.00     0.180 C 
HETATM    5  C31 UNL     1      19.777  30.320  16.793  1.00  0.00     0.199 C 
ENDROOT
BRANCH   1   6
HETATM    6  N2  UNL     1      18.725  32.518  16.486  1.00  0.00    -0.254 N 
HETATM    7  C13 UNL     1      18.753  33.172  15.302  1.00  0.00     0.205 A 
HETATM    8  N1  UNL     1      18.976  34.469  15.534  1.00  0.00    -0.329 N 
HETATM    9  C12 UNL     1      19.090  34.642  16.887  1.00  0.00     0.177 A 
ATOM     10  H1  UNL     1      19.048  35.202  14.827  1.00  0.00     0.168 HD
HETATM   11  N5  UNL     1      18.929  33.427  17.407  1.00  0.00    -0.273 N 
ATOM     12  H5  UNL     1      18.961  33.227  18.406  1.00  0.00     0.189 HD
BRANCH   9  13
HETATM   13  C11 UNL     1      19.334  35.910  17.536  1.00  0.00    -0.029 C 
HETATM   14  C10 UNL     1      19.513  36.965  18.088  1.00  0.00    -0.098 C 
BRANCH  14  15
HETATM   15  C9  UNL     1      19.703  38.248  18.769  1.00  0.00     0.094 C 
BRANCH  15  16
HETATM   16  C8  UNL     1      18.621  39.198  18.236  1.00  0.00     0.012 C 
BRANCH  16  17
HETATM   17  C7  UNL     1      17.314  38.752  18.875  1.00  0.00     0.001 C 
BRANCH  17  18
HETATM   18  C6  UNL     1      16.214  38.660  17.852  1.00  0.00     0.000 C 
BRANCH  18  19
HETATM   19  C5  UNL     1      15.266  37.560  18.185  1.00  0.00     0.000 C 
BRANCH  19  20
HETATM   20  C4  UNL     1      15.703  36.284  17.551  1.00  0.00     0.000 C 
BRANCH  20  21
HETATM   21  C3  UNL     1      15.784  35.132  18.561  1.00  0.00    -0.000 C 
BRANCH  21  22
HETATM   22  C2  UNL     1      15.381  33.894  17.752  1.00  0.00    -0.005 C 
HETATM   23  C1  UNL     1      15.394  34.240  16.279  1.00  0.00     0.005 C 
ENDBRANCH  21  22
ENDBRANCH  20  21
ENDBRANCH  19  20
ENDBRANCH  18  19
ENDBRANCH  17  18
ENDBRANCH  16  17
ENDBRANCH  15  16
ENDBRANCH  14  15
ENDBRANCH   9  13
ENDBRANCH   1   6
BRANCH   5  24
HETATM   24  O4  UNL     1      20.830  31.097  17.268  1.00  0.00    -0.388 OA
ATOM     25  H4  UNL     1      21.448  30.624  17.812  1.00  0.00     0.210 HD
ENDBRANCH   5  24
BRANCH   3  26
HETATM   26  C16 UNL     1      18.758  30.112  13.310  1.00  0.00     0.138 C 
BRANCH  26  27
HETATM   27  C17 UNL     1      19.893  29.622  12.569  1.00  0.00     0.230 C 
HETATM   28  O2  UNL     1      20.800  30.506  12.323  1.00  0.00    -0.273 OA
HETATM   29  N3  UNL     1      20.180  28.320  12.054  1.00  0.00    -0.302 N 
BRANCH  29  30
HETATM   30  C18 UNL     1      21.381  28.248  11.278  1.00  0.00     0.116 C 
BRANCH  30  31
HETATM   31  C19 UNL     1      22.356  27.182  11.414  1.00  0.00     0.103 C 
BRANCH  31  32
HETATM   32  N4  UNL     1      22.661  26.223  10.459  1.00  0.00    -0.389 N 
HETATM   33  C20 UNL     1      21.578  25.645   9.756  1.00  0.00     0.122 C 
HETATM   34  C21 UNL     1      21.872  24.503   8.854  1.00  0.00     0.024 C 
HETATM   35  C22 UNL     1      23.124  24.688   8.077  1.00  0.00    -0.015 C 
HETATM   36  C23 UNL     1      24.035  23.500   8.306  1.00  0.00     0.010 C 
HETATM   37  C24 UNL     1      23.833  25.990   8.370  1.00  0.00     0.024 C 
HETATM   38  C25 UNL     1      23.935  26.227   9.850  1.00  0.00     0.122 C 
ENDBRANCH  31  32
ENDBRANCH  30  31
ENDBRANCH  29  30
BRANCH  29  39
HETATM   39  C26 UNL     1      19.255  27.276  12.186  1.00  0.00     0.101 C 
BRANCH  39  40
HETATM   40  C27 UNL     1      18.166  26.920  11.301  1.00  0.00    -0.072 C 
HETATM   41  C28 UNL     1      17.915  27.636  10.035  1.00  0.00     0.044 C 
HETATM   42  C29 UNL     1      17.949  25.439  11.012  1.00  0.00     0.044 C 
ENDBRANCH  39  40
ENDBRANCH  29  39
ENDBRANCH  26  27
ENDBRANCH   3  26
BRANCH   4  43
HETATM   43  O3  UNL     1      20.587  28.458  15.529  1.00  0.00    -0.390 OA
ATOM     44  H3  UNL     1      20.051  27.887  16.066  1.00  0.00     0.210 HD
ENDBRANCH   4  43
TORSDOF 19
ENDMDL
