MODEL 1
REMARK VINA RESULT: -8.910528031      0.000      0.000
REMARK  17 active torsions:
REMARK  status: ('A' for Active; 'I' for Inactive)
REMARK       I    between atoms: C1_2  and  N1_3 
REMARK       I    between atoms: C1_2  and  N3_20 
REMARK    1  A    between atoms: N1_3  and  C2_5 
REMARK    2  A    between atoms: C2_5  and  C3_6 
REMARK    3  A    between atoms: C2_5  and  C13_17 
REMARK    4  A    between atoms: C3_6  and  C4_7 
REMARK    5  A    between atoms: C4_7  and  C5_8 
REMARK    6  A    between atoms: C5_8  and  C6_9 
REMARK    7  A    between atoms: C6_9  and  C7_10 
REMARK    8  A    between atoms: C7_10  and  N2_11 
REMARK    9  A    between atoms: N3_20  and  C14_22 
REMARK   10  A    between atoms: C14_22  and  C15_23 
REMARK   11  A    between atoms: C14_22  and  C19_27 
REMARK   12  A    between atoms: C15_23  and  C16_24 
REMARK   13  A    between atoms: C19_27  and  O4_28 
REMARK   14  A    between atoms: C19_27  and  N4_30 
REMARK   15  A    between atoms: C23_34  and  C24_35 
REMARK       I    between atoms: C24_35  and  N5_37 
REMARK   16  A    between atoms: C25_39  and  C26_40 
REMARK   17  A    between atoms: C26_40  and  C27_41 
ROOT
HETATM    1  C14 UNL     1      -4.947  -2.263 -15.605  1.00  0.00     0.161 C 
ENDROOT
BRANCH   1   2
HETATM    2  N3  UNL     1      -5.622  -2.915 -16.747  1.00  0.00    -0.331 N 
HETATM    3  C1  UNL     1      -6.514  -4.002 -16.574  1.00  0.00     0.317 C 
HETATM    4  O1  UNL     1      -6.713  -4.400 -15.405  1.00  0.00    -0.247 OA
HETATM    5  N1  UNL     1      -7.177  -4.642 -17.643  1.00  0.00    -0.329 N 
ATOM      6  H1  UNL     1      -6.991  -4.295 -18.584  1.00  0.00     0.165 HD
ATOM      7  H3  UNL     1      -5.440  -2.571 -17.691  1.00  0.00     0.165 HD
BRANCH   5   8
HETATM    8  C2  UNL     1      -8.099  -5.750 -17.514  1.00  0.00     0.187 C 
BRANCH   8   9
HETATM    9  C3  UNL     1      -7.667  -6.850 -18.415  1.00  0.00     0.036 C 
BRANCH   9  10
HETATM   10  C4  UNL     1      -8.184  -8.208 -18.107  1.00  0.00     0.002 C 
BRANCH  10  11
HETATM   11  C5  UNL     1      -7.165  -9.211 -17.664  1.00  0.00     0.002 C 
BRANCH  11  12
HETATM   12  C6  UNL     1      -5.872  -9.105 -18.488  1.00  0.00     0.030 C 
BRANCH  12  13
HETATM   13  C7  UNL     1      -4.740  -9.147 -17.485  1.00  0.00     0.272 C 
BRANCH  13  14
HETATM   14  N2  UNL     1      -3.571  -8.486 -17.969  1.00  0.00     0.088 N 
HETATM   15  C8  UNL     1      -3.987  -7.699 -19.132  1.00  0.00     0.272 C 
HETATM   16  C9  UNL     1      -3.158  -6.422 -19.250  1.00  0.00     0.030 C 
HETATM   17  C10 UNL     1      -3.408  -5.507 -18.093  1.00  0.00     0.003 C 
HETATM   18  C11 UNL     1      -3.741  -6.357 -16.883  1.00  0.00     0.030 C 
HETATM   19  C12 UNL     1      -2.912  -7.632 -17.037  1.00  0.00     0.272 C 
ENDBRANCH  13  14
ENDBRANCH  12  13
ENDBRANCH  11  12
ENDBRANCH  10  11
ENDBRANCH   9  10
ENDBRANCH   8   9
BRANCH   8  20
HETATM   20  C13 UNL     1      -9.454  -5.240 -17.718  1.00  0.00     0.196 C 
HETATM   21  O2  UNL     1     -10.191  -5.439 -18.711  1.00  0.00    -0.646 OA
HETATM   22  O3  UNL     1     -10.030  -4.434 -16.716  1.00  0.00    -0.646 OA
ENDBRANCH   8  20
ENDBRANCH   5   8
ENDBRANCH   1   2
BRANCH   1  23
HETATM   23  C15 UNL     1      -3.466  -2.421 -15.862  1.00  0.00     0.038 C 
BRANCH  23  24
HETATM   24  C16 UNL     1      -2.683  -2.736 -14.618  1.00  0.00    -0.012 A 
HETATM   25  C17 UNL     1      -2.956  -4.098 -14.029  1.00  0.00     0.005 A 
HETATM   26  C18 UNL     1      -1.638  -3.834 -14.693  1.00  0.00     0.005 A 
ENDBRANCH  23  24
ENDBRANCH   1  23
BRANCH   1  27
HETATM   27  C19 UNL     1      -5.418  -0.885 -15.469  1.00  0.00     0.137 C 
BRANCH  27  28
HETATM   28  O4  UNL     1      -5.316  -0.129 -16.527  1.00  0.00    -0.348 OA
ATOM     29  H4  UNL     1      -5.675   0.748 -16.456  1.00  0.00     0.219 HD
ENDBRANCH  27  28
BRANCH  27  30
HETATM   30  N4  UNL     1      -5.972  -0.263 -14.343  1.00  0.00    -0.350 N 
HETATM   31  C20 UNL     1      -7.431  -0.267 -14.098  1.00  0.00     0.126 C 
HETATM   32  C21 UNL     1      -7.654   1.058 -13.393  1.00  0.00     0.022 C 
HETATM   33  C22 UNL     1      -6.443   1.140 -12.515  1.00  0.00     0.037 C 
HETATM   34  C23 UNL     1      -5.353   0.445 -13.272  1.00  0.00     0.178 C 
BRANCH  34  35
HETATM   35  C24 UNL     1      -4.571  -0.450 -12.358  1.00  0.00     0.244 C 
HETATM   36  O5  UNL     1      -4.987  -1.606 -12.168  1.00  0.00    -0.271 OA
HETATM   37  N5  UNL     1      -3.396   0.081 -11.764  1.00  0.00    -0.339 N 
HETATM   38  C25 UNL     1      -2.505   0.723 -12.478  1.00  0.00     0.070 C 
ATOM     39  H5  UNL     1      -3.243  -0.040 -10.763  1.00  0.00     0.167 HD
BRANCH  38  40
HETATM   40  C26 UNL     1      -1.286   1.277 -11.870  1.00  0.00     0.103 C 
BRANCH  40  41
HETATM   41  C27 UNL     1      -1.646   2.227 -10.786  1.00  0.00     0.029 A 
HETATM   42  C28 UNL     1      -1.450   1.903  -9.471  1.00  0.00     0.113 A 
HETATM   43  N6  UNL     1      -1.775   2.760  -8.464  1.00  0.00    -0.372 N 
HETATM   44  C29 UNL     1      -2.305   3.962  -8.751  1.00  0.00     0.104 A 
ATOM     45  H6  UNL     1      -1.617   2.491  -7.493  1.00  0.00     0.164 HD
HETATM   46  C30 UNL     1      -2.506   4.295 -10.079  1.00  0.00     0.105 A 
HETATM   47  N7  UNL     1      -2.174   3.425 -11.075  1.00  0.00    -0.366 N 
ATOM     48  H7  UNL     1      -2.330   3.688 -12.049  1.00  0.00     0.165 HD
ENDBRANCH  40  41
ENDBRANCH  38  40
ENDBRANCH  34  35
ENDBRANCH  27  30
ENDBRANCH   1  27
TORSDOF 17
ENDMDL
MODEL 2
REMARK VINA RESULT: -8.775335311      3.053      9.693
REMARK  17 active torsions:
REMARK  status: ('A' for Active; 'I' for Inactive)
REMARK       I    between atoms: C1_2  and  N1_3 
REMARK       I    between atoms: C1_2  and  N3_20 
REMARK    1  A    between atoms: N1_3  and  C2_5 
REMARK    2  A    between atoms: C2_5  and  C3_6 
REMARK    3  A    between atoms: C2_5  and  C13_17 
REMARK    4  A    between atoms: C3_6  and  C4_7 
REMARK    5  A    between atoms: C4_7  and  C5_8 
REMARK    6  A    between atoms: C5_8  and  C6_9 
REMARK    7  A    between atoms: C6_9  and  C7_10 
REMARK    8  A    between atoms: C7_10  and  N2_11 
REMARK    9  A    between atoms: N3_20  and  C14_22 
REMARK   10  A    between atoms: C14_22  and  C15_23 
REMARK   11  A    between atoms: C14_22  and  C19_27 
REMARK   12  A    between atoms: C15_23  and  C16_24 
REMARK   13  A    between atoms: C19_27  and  O4_28 
REMARK   14  A    between atoms: C19_27  and  N4_30 
REMARK   15  A    between atoms: C23_34  and  C24_35 
REMARK       I    between atoms: C24_35  and  N5_37 
REMARK   16  A    between atoms: C25_39  and  C26_40 
REMARK   17  A    between atoms: C26_40  and  C27_41 
ROOT
HETATM    1  C14 UNL     1      -7.188  -4.086 -15.865  1.00  0.00     0.161 C 
ENDROOT
BRANCH   1   2
HETATM    2  N3  UNL     1      -6.336  -4.237 -17.065  1.00  0.00    -0.331 N 
HETATM    3  C1  UNL     1      -5.240  -5.134 -17.102  1.00  0.00     0.317 C 
HETATM    4  O1  UNL     1      -5.012  -5.805 -16.070  1.00  0.00    -0.247 OA
HETATM    5  N1  UNL     1      -4.412  -5.304 -18.231  1.00  0.00    -0.329 N 
ATOM      6  H1  UNL     1      -4.622  -4.741 -19.055  1.00  0.00     0.165 HD
ATOM      7  H3  UNL     1      -6.543  -3.676 -17.891  1.00  0.00     0.165 HD
BRANCH   5   8
HETATM    8  C2  UNL     1      -3.287  -6.211 -18.318  1.00  0.00     0.187 C 
BRANCH   8   9
HETATM    9  C3  UNL     1      -2.057  -5.505 -17.875  1.00  0.00     0.036 C 
BRANCH   9  10
HETATM   10  C4  UNL     1      -1.631  -5.724 -16.469  1.00  0.00     0.002 C 
BRANCH  10  11
HETATM   11  C5  UNL     1      -1.190  -4.504 -15.722  1.00  0.00     0.002 C 
BRANCH  11  12
HETATM   12  C6  UNL     1      -2.257  -4.041 -14.717  1.00  0.00     0.030 C 
BRANCH  12  13
HETATM   13  C7  UNL     1      -2.915  -2.831 -15.342  1.00  0.00     0.272 C 
BRANCH  13  14
HETATM   14  N2  UNL     1      -3.996  -2.339 -14.550  1.00  0.00     0.088 N 
HETATM   15  C8  UNL     1      -3.733  -2.767 -13.174  1.00  0.00     0.272 C 
HETATM   16  C9  UNL     1      -4.264  -1.741 -12.174  1.00  0.00     0.030 C 
HETATM   17  C10 UNL     1      -3.528  -0.443 -12.290  1.00  0.00     0.003 C 
HETATM   18  C11 UNL     1      -3.088  -0.278 -13.730  1.00  0.00     0.030 C 
HETATM   19  C12 UNL     1      -4.187  -0.926 -14.573  1.00  0.00     0.272 C 
ENDBRANCH  13  14
ENDBRANCH  12  13
ENDBRANCH  11  12
ENDBRANCH  10  11
ENDBRANCH   9  10
ENDBRANCH   8   9
BRANCH   8  20
HETATM   20  C13 UNL     1      -3.261  -6.776 -19.666  1.00  0.00     0.196 C 
HETATM   21  O2  UNL     1      -2.264  -6.883 -20.417  1.00  0.00    -0.646 OA
HETATM   22  O3  UNL     1      -4.463  -7.263 -20.218  1.00  0.00    -0.646 OA
ENDBRANCH   8  20
ENDBRANCH   5   8
ENDBRANCH   1   2
BRANCH   1  23
HETATM   23  C15 UNL     1      -7.799  -2.708 -15.970  1.00  0.00     0.038 C 
BRANCH  23  24
HETATM   24  C16 UNL     1      -8.336  -2.203 -14.660  1.00  0.00    -0.012 A 
HETATM   25  C17 UNL     1      -7.436  -2.444 -13.474  1.00  0.00     0.005 A 
HETATM   26  C18 UNL     1      -7.612  -1.048 -13.992  1.00  0.00     0.005 A 
ENDBRANCH  23  24
ENDBRANCH   1  23
BRANCH   1  27
HETATM   27  C19 UNL     1      -8.140  -5.194 -15.790  1.00  0.00     0.137 C 
BRANCH  27  28
HETATM   28  O4  UNL     1      -8.239  -5.798 -14.638  1.00  0.00    -0.348 OA
ATOM     29  H4  UNL     1      -7.949  -6.702 -14.610  1.00  0.00     0.219 HD
ENDBRANCH  27  28
BRANCH  27  30
HETATM   30  N4  UNL     1      -8.970  -5.697 -16.800  1.00  0.00    -0.350 N 
HETATM   31  C20 UNL     1     -10.131  -4.928 -17.300  1.00  0.00     0.126 C 
HETATM   32  C21 UNL     1     -11.119  -6.019 -17.669  1.00  0.00     0.022 C 
HETATM   33  C22 UNL     1     -10.214  -7.056 -18.260  1.00  0.00     0.037 C 
HETATM   34  C23 UNL     1      -8.918  -6.924 -17.522  1.00  0.00     0.178 C 
BRANCH  34  35
HETATM   35  C24 UNL     1      -7.763  -6.990 -18.476  1.00  0.00     0.244 C 
HETATM   36  O5  UNL     1      -7.440  -5.953 -19.081  1.00  0.00    -0.271 OA
HETATM   37  N5  UNL     1      -7.107  -8.238 -18.631  1.00  0.00    -0.339 N 
HETATM   38  C25 UNL     1      -6.747  -8.949 -17.591  1.00  0.00     0.070 C 
ATOM     39  H5  UNL     1      -6.912  -8.588 -19.568  1.00  0.00     0.167 HD
BRANCH  38  40
HETATM   40  C26 UNL     1      -6.066 -10.244 -17.742  1.00  0.00     0.103 C 
BRANCH  40  41
HETATM   41  C27 UNL     1      -6.964 -11.343 -17.300  1.00  0.00     0.029 A 
HETATM   42  C28 UNL     1      -8.247 -11.085 -16.898  1.00  0.00     0.113 A 
HETATM   43  N6  UNL     1      -9.083 -12.079 -16.488  1.00  0.00    -0.372 N 
HETATM   44  C29 UNL     1      -8.654 -13.354 -16.472  1.00  0.00     0.104 A 
ATOM     45  H6  UNL     1     -10.034 -11.857 -16.194  1.00  0.00     0.164 HD
HETATM   46  C30 UNL     1      -7.358 -13.619 -16.877  1.00  0.00     0.105 A 
HETATM   47  N7  UNL     1      -6.533 -12.612 -17.285  1.00  0.00    -0.366 N 
ATOM     48  H7  UNL     1      -5.581 -12.827 -17.580  1.00  0.00     0.165 HD
ENDBRANCH  40  41
ENDBRANCH  38  40
ENDBRANCH  34  35
ENDBRANCH  27  30
ENDBRANCH   1  27
TORSDOF 17
ENDMDL
MODEL 3
REMARK VINA RESULT: -8.676104958      3.013      9.159
REMARK  17 active torsions:
REMARK  status: ('A' for Active; 'I' for Inactive)
REMARK       I    between atoms: C1_2  and  N1_3 
REMARK       I    between atoms: C1_2  and  N3_20 
REMARK    1  A    between atoms: N1_3  and  C2_5 
REMARK    2  A    between atoms: C2_5  and  C3_6 
REMARK    3  A    between atoms: C2_5  and  C13_17 
REMARK    4  A    between atoms: C3_6  and  C4_7 
REMARK    5  A    between atoms: C4_7  and  C5_8 
REMARK    6  A    between atoms: C5_8  and  C6_9 
REMARK    7  A    between atoms: C6_9  and  C7_10 
REMARK    8  A    between atoms: C7_10  and  N2_11 
REMARK    9  A    between atoms: N3_20  and  C14_22 
REMARK   10  A    between atoms: C14_22  and  C15_23 
REMARK   11  A    between atoms: C14_22  and  C19_27 
REMARK   12  A    between atoms: C15_23  and  C16_24 
REMARK   13  A    between atoms: C19_27  and  O4_28 
REMARK   14  A    between atoms: C19_27  and  N4_30 
REMARK   15  A    between atoms: C23_34  and  C24_35 
REMARK       I    between atoms: C24_35  and  N5_37 
REMARK   16  A    between atoms: C25_39  and  C26_40 
REMARK   17  A    between atoms: C26_40  and  C27_41 
ROOT
HETATM    1  C14 UNL     1      -7.585  -4.789 -15.309  1.00  0.00     0.161 C 
ENDROOT
BRANCH   1   2
HETATM    2  N3  UNL     1      -6.784  -4.644 -16.544  1.00  0.00    -0.331 N 
HETATM    3  C1  UNL     1      -5.667  -5.471 -16.818  1.00  0.00     0.317 C 
HETATM    4  O1  UNL     1      -5.375  -6.341 -15.968  1.00  0.00    -0.247 OA
HETATM    5  N1  UNL     1      -4.886  -5.361 -17.988  1.00  0.00    -0.329 N 
ATOM      6  H1  UNL     1      -5.149  -4.640 -18.660  1.00  0.00     0.165 HD
ATOM      7  H3  UNL     1      -7.044  -3.924 -17.219  1.00  0.00     0.165 HD
BRANCH   5   8
HETATM    8  C2  UNL     1      -3.743  -6.186 -18.314  1.00  0.00     0.187 C 
BRANCH   8   9
HETATM    9  C3  UNL     1      -2.510  -5.359 -18.243  1.00  0.00     0.036 C 
BRANCH   9  10
HETATM   10  C4  UNL     1      -2.464  -4.318 -17.183  1.00  0.00     0.002 C 
BRANCH  10  11
HETATM   11  C5  UNL     1      -1.823  -4.726 -15.893  1.00  0.00     0.002 C 
BRANCH  11  12
HETATM   12  C6  UNL     1      -2.562  -4.132 -14.683  1.00  0.00     0.030 C 
BRANCH  12  13
HETATM   13  C7  UNL     1      -2.634  -2.643 -14.935  1.00  0.00     0.272 C 
BRANCH  13  14
HETATM   14  N2  UNL     1      -3.782  -2.051 -14.327  1.00  0.00     0.088 N 
HETATM   15  C8  UNL     1      -3.838  -2.560 -12.955  1.00  0.00     0.272 C 
HETATM   16  C9  UNL     1      -4.429  -1.516 -12.010  1.00  0.00     0.030 C 
HETATM   17  C10 UNL     1      -3.542  -0.316 -11.909  1.00  0.00     0.003 C 
HETATM   18  C11 UNL     1      -2.819  -0.151 -13.230  1.00  0.00     0.030 C 
HETATM   19  C12 UNL     1      -3.803  -0.626 -14.299  1.00  0.00     0.272 C 
ENDBRANCH  13  14
ENDBRANCH  12  13
ENDBRANCH  11  12
ENDBRANCH  10  11
ENDBRANCH   9  10
ENDBRANCH   8   9
BRANCH   8  20
HETATM   20  C13 UNL     1      -4.007  -6.847 -19.590  1.00  0.00     0.196 C 
HETATM   21  O2  UNL     1      -3.589  -6.497 -20.719  1.00  0.00    -0.646 OA
HETATM   22  O3  UNL     1      -4.814  -8.003 -19.599  1.00  0.00    -0.646 OA
ENDBRANCH   8  20
ENDBRANCH   5   8
ENDBRANCH   1   2
BRANCH   1  23
HETATM   23  C15 UNL     1      -8.162  -3.419 -15.034  1.00  0.00     0.038 C 
BRANCH  23  24
HETATM   24  C16 UNL     1      -7.222  -2.528 -14.270  1.00  0.00    -0.012 A 
HETATM   25  C17 UNL     1      -7.350  -1.058 -14.586  1.00  0.00     0.005 A 
HETATM   26  C18 UNL     1      -7.818  -1.569 -13.256  1.00  0.00     0.005 A 
ENDBRANCH  23  24
ENDBRANCH   1  23
BRANCH   1  27
HETATM   27  C19 UNL     1      -8.564  -5.863 -15.475  1.00  0.00     0.137 C 
BRANCH  27  28
HETATM   28  O4  UNL     1      -8.736  -6.654 -14.453  1.00  0.00    -0.348 OA
ATOM     29  H4  UNL     1      -8.922  -7.565 -14.651  1.00  0.00     0.219 HD
ENDBRANCH  27  28
BRANCH  27  30
HETATM   30  N4  UNL     1      -9.350  -6.157 -16.596  1.00  0.00    -0.350 N 
HETATM   31  C20 UNL     1     -10.355  -5.198 -17.107  1.00  0.00     0.126 C 
HETATM   32  C21 UNL     1     -11.431  -6.111 -17.667  1.00  0.00     0.022 C 
HETATM   33  C22 UNL     1     -10.609  -7.200 -18.286  1.00  0.00     0.037 C 
HETATM   34  C23 UNL     1      -9.382  -7.309 -17.434  1.00  0.00     0.178 C 
BRANCH  34  35
HETATM   35  C24 UNL     1      -8.159  -7.438 -18.292  1.00  0.00     0.244 C 
HETATM   36  O5  UNL     1      -7.761  -6.433 -18.905  1.00  0.00    -0.271 OA
HETATM   37  N5  UNL     1      -7.528  -8.708 -18.351  1.00  0.00    -0.339 N 
HETATM   38  C25 UNL     1      -7.269  -9.389 -17.263  1.00  0.00     0.070 C 
ATOM     39  H5  UNL     1      -7.271  -9.097 -19.258  1.00  0.00     0.167 HD
BRANCH  38  40
HETATM   40  C26 UNL     1      -6.616 -10.705 -17.315  1.00  0.00     0.103 C 
BRANCH  40  41
HETATM   41  C27 UNL     1      -5.140 -10.540 -17.282  1.00  0.00     0.029 A 
HETATM   42  C28 UNL     1      -4.313 -11.480 -17.835  1.00  0.00     0.113 A 
HETATM   43  N6  UNL     1      -2.958 -11.345 -17.813  1.00  0.00    -0.372 N 
HETATM   44  C29 UNL     1      -2.400 -10.266 -17.235  1.00  0.00     0.104 A 
ATOM     45  H6  UNL     1      -2.367 -12.062 -18.234  1.00  0.00     0.164 HD
HETATM   46  C30 UNL     1      -3.231  -9.314 -16.674  1.00  0.00     0.105 A 
HETATM   47  N7  UNL     1      -4.586  -9.463 -16.705  1.00  0.00    -0.366 N 
ATOM     48  H7  UNL     1      -5.184  -8.750 -16.286  1.00  0.00     0.165 HD
ENDBRANCH  40  41
ENDBRANCH  38  40
ENDBRANCH  34  35
ENDBRANCH  27  30
ENDBRANCH   1  27
TORSDOF 17
ENDMDL
MODEL 4
REMARK VINA RESULT: -8.544374166      2.325      6.241
REMARK  17 active torsions:
REMARK  status: ('A' for Active; 'I' for Inactive)
REMARK       I    between atoms: C1_2  and  N1_3 
REMARK       I    between atoms: C1_2  and  N3_20 
REMARK    1  A    between atoms: N1_3  and  C2_5 
REMARK    2  A    between atoms: C2_5  and  C3_6 
REMARK    3  A    between atoms: C2_5  and  C13_17 
REMARK    4  A    between atoms: C3_6  and  C4_7 
REMARK    5  A    between atoms: C4_7  and  C5_8 
REMARK    6  A    between atoms: C5_8  and  C6_9 
REMARK    7  A    between atoms: C6_9  and  C7_10 
REMARK    8  A    between atoms: C7_10  and  N2_11 
REMARK    9  A    between atoms: N3_20  and  C14_22 
REMARK   10  A    between atoms: C14_22  and  C15_23 
REMARK   11  A    between atoms: C14_22  and  C19_27 
REMARK   12  A    between atoms: C15_23  and  C16_24 
REMARK   13  A    between atoms: C19_27  and  O4_28 
REMARK   14  A    between atoms: C19_27  and  N4_30 
REMARK   15  A    between atoms: C23_34  and  C24_35 
REMARK       I    between atoms: C24_35  and  N5_37 
REMARK   16  A    between atoms: C25_39  and  C26_40 
REMARK   17  A    between atoms: C26_40  and  C27_41 
ROOT
HETATM    1  C14 UNL     1      -7.183  -0.881 -13.867  1.00  0.00     0.161 C 
ENDROOT
BRANCH   1   2
HETATM    2  N3  UNL     1      -6.987  -2.264 -14.352  1.00  0.00    -0.331 N 
HETATM    3  C1  UNL     1      -7.655  -2.762 -15.498  1.00  0.00     0.317 C 
HETATM    4  O1  UNL     1      -8.430  -1.982 -16.094  1.00  0.00    -0.247 OA
HETATM    5  N1  UNL     1      -7.486  -4.074 -15.988  1.00  0.00    -0.329 N 
ATOM      6  H1  UNL     1      -6.849  -4.686 -15.478  1.00  0.00     0.165 HD
ATOM      7  H3  UNL     1      -6.350  -2.879 -13.845  1.00  0.00     0.165 HD
BRANCH   5   8
HETATM    8  C2  UNL     1      -8.141  -4.624 -17.156  1.00  0.00     0.187 C 
BRANCH   8   9
HETATM    9  C3  UNL     1      -9.512  -5.059 -16.784  1.00  0.00     0.036 C 
BRANCH   9  10
HETATM   10  C4  UNL     1     -10.355  -5.616 -17.874  1.00  0.00     0.002 C 
BRANCH  10  11
HETATM   11  C5  UNL     1     -10.803  -7.034 -17.694  1.00  0.00     0.002 C 
BRANCH  11  12
HETATM   12  C6  UNL     1      -9.955  -8.005 -18.532  1.00  0.00     0.030 C 
BRANCH  12  13
HETATM   13  C7  UNL     1      -9.144  -8.806 -17.539  1.00  0.00     0.272 C 
BRANCH  13  14
HETATM   14  N2  UNL     1      -8.425  -9.868 -18.166  1.00  0.00     0.088 N 
HETATM   15  C8  UNL     1      -7.135  -9.962 -17.479  1.00  0.00     0.272 C 
HETATM   16  C9  UNL     1      -6.639 -11.406 -17.447  1.00  0.00     0.030 C 
HETATM   17  C10 UNL     1      -7.544 -12.270 -16.626  1.00  0.00     0.003 C 
HETATM   18  C11 UNL     1      -8.949 -11.713 -16.730  1.00  0.00     0.030 C 
HETATM   19  C12 UNL     1      -9.062 -11.144 -18.144  1.00  0.00     0.272 C 
ENDBRANCH  13  14
ENDBRANCH  12  13
ENDBRANCH  11  12
ENDBRANCH  10  11
ENDBRANCH   9  10
ENDBRANCH   8   9
BRANCH   8  20
HETATM   20  C13 UNL     1      -7.268  -5.649 -17.727  1.00  0.00     0.196 C 
HETATM   21  O2  UNL     1      -6.604  -6.506 -17.099  1.00  0.00    -0.646 OA
HETATM   22  O3  UNL     1      -7.130  -5.714 -19.128  1.00  0.00    -0.646 OA
ENDBRANCH   8  20
ENDBRANCH   5   8
ENDBRANCH   1   2
BRANCH   1  23
HETATM   23  C15 UNL     1      -7.555  -1.009 -12.408  1.00  0.00     0.038 C 
BRANCH  23  24
HETATM   24  C16 UNL     1      -8.228   0.220 -11.863  1.00  0.00    -0.012 A 
HETATM   25  C17 UNL     1      -9.173  -0.035 -10.715  1.00  0.00     0.005 A 
HETATM   26  C18 UNL     1      -7.871   0.662 -10.455  1.00  0.00     0.005 A 
ENDBRANCH  23  24
ENDBRANCH   1  23
BRANCH   1  27
HETATM   27  C19 UNL     1      -5.989  -0.083 -14.145  1.00  0.00     0.137 C 
BRANCH  27  28
HETATM   28  O4  UNL     1      -6.018   0.650 -15.224  1.00  0.00    -0.348 OA
ATOM     29  H4  UNL     1      -5.611   0.279 -15.998  1.00  0.00     0.219 HD
ENDBRANCH  27  28
BRANCH  27  30
HETATM   30  N4  UNL     1      -4.807   0.002 -13.399  1.00  0.00    -0.350 N 
HETATM   31  C20 UNL     1      -4.652   0.985 -12.305  1.00  0.00     0.126 C 
HETATM   32  C21 UNL     1      -3.170   1.309 -12.356  1.00  0.00     0.022 C 
HETATM   33  C22 UNL     1      -2.579  -0.035 -12.649  1.00  0.00     0.037 C 
HETATM   34  C23 UNL     1      -3.597  -0.747 -13.485  1.00  0.00     0.178 C 
BRANCH  34  35
HETATM   35  C24 UNL     1      -3.755  -2.164 -13.023  1.00  0.00     0.244 C 
HETATM   36  O5  UNL     1      -4.643  -2.416 -12.189  1.00  0.00    -0.271 OA
HETATM   37  N5  UNL     1      -2.877  -3.137 -13.569  1.00  0.00    -0.339 N 
HETATM   38  C25 UNL     1      -2.661  -3.208 -14.858  1.00  0.00     0.070 C 
ATOM     39  H5  UNL     1      -2.407  -3.792 -12.945  1.00  0.00     0.167 HD
BRANCH  38  40
HETATM   40  C26 UNL     1      -1.753  -4.212 -15.433  1.00  0.00     0.103 C 
BRANCH  40  41
HETATM   41  C27 UNL     1      -2.434  -4.940 -16.535  1.00  0.00     0.029 A 
HETATM   42  C28 UNL     1      -3.362  -4.316 -17.323  1.00  0.00     0.113 A 
HETATM   43  N6  UNL     1      -3.997  -4.968 -18.336  1.00  0.00    -0.372 N 
HETATM   44  C29 UNL     1      -3.716  -6.260 -18.583  1.00  0.00     0.104 A 
ATOM     45  H6  UNL     1      -4.685  -4.477 -18.907  1.00  0.00     0.164 HD
HETATM   46  C30 UNL     1      -2.778  -6.896 -17.790  1.00  0.00     0.105 A 
HETATM   47  N7  UNL     1      -2.151  -6.228 -16.779  1.00  0.00    -0.366 N 
ATOM     48  H7  UNL     1      -1.462  -6.713 -16.203  1.00  0.00     0.165 HD
ENDBRANCH  40  41
ENDBRANCH  38  40
ENDBRANCH  34  35
ENDBRANCH  27  30
ENDBRANCH   1  27
TORSDOF 17
ENDMDL
MODEL 5
REMARK VINA RESULT: -8.515587337      2.136      4.560
REMARK  17 active torsions:
REMARK  status: ('A' for Active; 'I' for Inactive)
REMARK       I    between atoms: C1_2  and  N1_3 
REMARK       I    between atoms: C1_2  and  N3_20 
REMARK    1  A    between atoms: N1_3  and  C2_5 
REMARK    2  A    between atoms: C2_5  and  C3_6 
REMARK    3  A    between atoms: C2_5  and  C13_17 
REMARK    4  A    between atoms: C3_6  and  C4_7 
REMARK    5  A    between atoms: C4_7  and  C5_8 
REMARK    6  A    between atoms: C5_8  and  C6_9 
REMARK    7  A    between atoms: C6_9  and  C7_10 
REMARK    8  A    between atoms: C7_10  and  N2_11 
REMARK    9  A    between atoms: N3_20  and  C14_22 
REMARK   10  A    between atoms: C14_22  and  C15_23 
REMARK   11  A    between atoms: C14_22  and  C19_27 
REMARK   12  A    between atoms: C15_23  and  C16_24 
REMARK   13  A    between atoms: C19_27  and  O4_28 
REMARK   14  A    between atoms: C19_27  and  N4_30 
REMARK   15  A    between atoms: C23_34  and  C24_35 
REMARK       I    between atoms: C24_35  and  N5_37 
REMARK   16  A    between atoms: C25_39  and  C26_40 
REMARK   17  A    between atoms: C26_40  and  C27_41 
ROOT
HETATM    1  C14 UNL     1      -6.848  -1.371 -14.967  1.00  0.00     0.161 C 
ENDROOT
BRANCH   1   2
HETATM    2  N3  UNL     1      -5.837  -2.366 -14.549  1.00  0.00    -0.331 N 
HETATM    3  C1  UNL     1      -4.869  -2.878 -15.446  1.00  0.00     0.317 C 
HETATM    4  O1  UNL     1      -4.898  -2.456 -16.624  1.00  0.00    -0.247 OA
HETATM    5  N1  UNL     1      -3.888  -3.823 -15.078  1.00  0.00    -0.329 N 
ATOM      6  H1  UNL     1      -3.893  -4.149 -14.111  1.00  0.00     0.165 HD
ATOM      7  H3  UNL     1      -5.838  -2.694 -13.583  1.00  0.00     0.165 HD
BRANCH   5   8
HETATM    8  C2  UNL     1      -2.877  -4.370 -15.957  1.00  0.00     0.187 C 
BRANCH   8   9
HETATM    9  C3  UNL     1      -3.328  -5.696 -16.452  1.00  0.00     0.036 C 
BRANCH   9  10
HETATM   10  C4  UNL     1      -3.269  -5.916 -17.920  1.00  0.00     0.002 C 
BRANCH  10  11
HETATM   11  C5  UNL     1      -4.570  -6.248 -18.584  1.00  0.00     0.002 C 
BRANCH  11  12
HETATM   12  C6  UNL     1      -5.763  -5.986 -17.651  1.00  0.00     0.030 C 
BRANCH  12  13
HETATM   13  C7  UNL     1      -6.999  -6.275 -18.474  1.00  0.00     0.272 C 
BRANCH  13  14
HETATM   14  N2  UNL     1      -8.109  -6.653 -17.659  1.00  0.00     0.088 N 
HETATM   15  C8  UNL     1      -9.315  -6.385 -18.446  1.00  0.00     0.272 C 
HETATM   16  C9  UNL     1     -10.415  -7.392 -18.115  1.00  0.00     0.030 C 
HETATM   17  C10 UNL     1     -10.022  -8.776 -18.527  1.00  0.00     0.003 C 
HETATM   18  C11 UNL     1      -8.516  -8.891 -18.414  1.00  0.00     0.030 C 
HETATM   19  C12 UNL     1      -8.124  -8.012 -17.226  1.00  0.00     0.272 C 
ENDBRANCH  13  14
ENDBRANCH  12  13
ENDBRANCH  11  12
ENDBRANCH  10  11
ENDBRANCH   9  10
ENDBRANCH   8   9
BRANCH   8  20
HETATM   20  C13 UNL     1      -1.597  -4.342 -15.251  1.00  0.00     0.196 C 
HETATM   21  O2  UNL     1      -1.309  -3.655 -14.243  1.00  0.00    -0.646 OA
HETATM   22  O3  UNL     1      -0.548  -5.158 -15.720  1.00  0.00    -0.646 OA
ENDBRANCH   8  20
ENDBRANCH   5   8
ENDBRANCH   1   2
BRANCH   1  23
HETATM   23  C15 UNL     1      -8.186  -2.053 -14.799  1.00  0.00     0.038 C 
BRANCH  23  24
HETATM   24  C16 UNL     1      -8.437  -3.117 -15.830  1.00  0.00    -0.012 A 
HETATM   25  C17 UNL     1      -9.066  -4.380 -15.294  1.00  0.00     0.005 A 
HETATM   26  C18 UNL     1      -9.878  -3.464 -16.160  1.00  0.00     0.005 A 
ENDBRANCH  23  24
ENDBRANCH   1  23
BRANCH   1  27
HETATM   27  C19 UNL     1      -6.672  -0.133 -14.207  1.00  0.00     0.137 C 
BRANCH  27  28
HETATM   28  O4  UNL     1      -6.452   0.948 -14.902  1.00  0.00    -0.348 OA
ATOM     29  H4  UNL     1      -7.072   1.659 -14.785  1.00  0.00     0.219 HD
ENDBRANCH  27  28
BRANCH  27  30
HETATM   30  N4  UNL     1      -6.711   0.047 -12.819  1.00  0.00    -0.350 N 
HETATM   31  C20 UNL     1      -7.932  -0.241 -12.036  1.00  0.00     0.126 C 
HETATM   32  C21 UNL     1      -7.855   0.775 -10.911  1.00  0.00     0.022 C 
HETATM   33  C22 UNL     1      -6.388   0.773 -10.606  1.00  0.00     0.037 C 
HETATM   34  C23 UNL     1      -5.708   0.495 -11.911  1.00  0.00     0.178 C 
BRANCH  34  35
HETATM   35  C24 UNL     1      -4.605  -0.503 -11.723  1.00  0.00     0.244 C 
HETATM   36  O5  UNL     1      -4.859  -1.704 -11.916  1.00  0.00    -0.271 OA
HETATM   37  N5  UNL     1      -3.331  -0.011 -11.334  1.00  0.00    -0.339 N 
HETATM   38  C25 UNL     1      -2.784   1.010 -11.943  1.00  0.00     0.070 C 
ATOM     39  H5  UNL     1      -2.834  -0.462 -10.567  1.00  0.00     0.167 HD
BRANCH  38  40
HETATM   40  C26 UNL     1      -1.465   1.527 -11.547  1.00  0.00     0.103 C 
BRANCH  40  41
HETATM   41  C27 UNL     1      -1.619   2.531 -10.463  1.00  0.00     0.029 A 
HETATM   42  C28 UNL     1      -1.683   3.869 -10.746  1.00  0.00     0.113 A 
HETATM   43  N6  UNL     1      -1.823   4.803  -9.765  1.00  0.00    -0.372 N 
HETATM   44  C29 UNL     1      -1.902   4.420  -8.479  1.00  0.00     0.104 A 
ATOM     45  H6  UNL     1      -1.868   5.793 -10.006  1.00  0.00     0.164 HD
HETATM   46  C30 UNL     1      -1.838   3.069  -8.187  1.00  0.00     0.105 A 
HETATM   47  N7  UNL     1      -1.698   2.145  -9.181  1.00  0.00    -0.366 N 
ATOM     48  H7  UNL     1      -1.652   1.154  -8.948  1.00  0.00     0.165 HD
ENDBRANCH  40  41
ENDBRANCH  38  40
ENDBRANCH  34  35
ENDBRANCH  27  30
ENDBRANCH   1  27
TORSDOF 17
ENDMDL
