MODEL 1
REMARK VINA RESULT: -8.581550468      0.000      0.000
REMARK  14 active torsions:
REMARK  status: ('A' for Active; 'I' for Inactive)
REMARK    1  A    between atoms: O1_2  and  C2_3 
REMARK    2  A    between atoms: C2_3  and  C3_5 
REMARK    3  A    between atoms: C3_5  and  C4_6 
REMARK    4  A    between atoms: C3_5  and  N1_10 
REMARK    5  A    between atoms: C4_6  and  C5_7 
REMARK    6  A    between atoms: C5_7  and  S1_8 
REMARK       I    between atoms: N1_10  and  C7_12 
REMARK    7  A    between atoms: C7_12  and  C8_14 
REMARK    8  A    between atoms: C10_16  and  C11_17 
REMARK       I    between atoms: N2_21  and  C14_22 
REMARK    9  A    between atoms: C14_22  and  C15_24 
REMARK   10  A    between atoms: C15_24  and  N3_25 
REMARK   11  A    between atoms: C15_24  and  C24_39 
REMARK       I    between atoms: N3_25  and  C16_27 
REMARK   12  A    between atoms: C16_27  and  C17_29 
REMARK   13  A    between atoms: C17_29  and  C18_30 
REMARK   14  A    between atoms: C18_30  and  C19_31 
ROOT
HETATM    1  C8  UNL     1      18.738  30.739  16.079  1.00  0.00     0.193 C 
HETATM    2  C9  UNL     1      17.485  31.461  16.282  1.00  0.00     0.053 C 
HETATM    3  C10 UNL     1      16.708  31.686  15.040  1.00  0.00     0.075 C 
HETATM    4  S2  UNL     1      17.950  31.285  13.743  1.00  0.00    -0.044 SA
HETATM    5  N2  UNL     1      18.889  30.215  14.759  1.00  0.00    -0.276 N 
HETATM    6  C14 UNL     1      19.639  29.107  14.352  1.00  0.00     0.253 C 
HETATM    7  O4  UNL     1      20.327  28.425  15.190  1.00  0.00    -0.270 OA
ENDROOT
BRANCH   6   8
HETATM    8  C15 UNL     1      19.738  28.597  12.946  1.00  0.00     0.181 C 
BRANCH   8   9
HETATM    9  N3  UNL     1      21.029  27.901  12.812  1.00  0.00    -0.347 N 
HETATM   10  C16 UNL     1      22.074  28.429  12.023  1.00  0.00     0.218 C 
HETATM   11  O5  UNL     1      21.847  29.538  11.431  1.00  0.00    -0.274 OA
ATOM     12  H3  UNL     1      21.171  27.018  13.301  1.00  0.00     0.163 HD
BRANCH  10  13
HETATM   13  C17 UNL     1      23.379  27.716  11.891  1.00  0.00     0.103 C 
BRANCH  13  14
HETATM   14  C18 UNL     1      23.565  27.417  10.440  1.00  0.00     0.014 C 
BRANCH  14  15
HETATM   15  C19 UNL     1      23.868  25.976  10.127  1.00  0.00    -0.011 C 
HETATM   16  C20 UNL     1      22.806  25.114  10.720  1.00  0.00     0.032 C 
HETATM   17  C21 UNL     1      22.076  24.299   9.645  1.00  0.00     0.232 C 
HETATM   18  N4  UNL     1      23.073  23.578   8.913  1.00  0.00    -0.075 N 
HETATM   19  C22 UNL     1      23.949  24.418   8.165  1.00  0.00     0.232 C 
ATOM     20  H42 UNL     1      23.603  22.965   9.533  1.00  0.00     0.277 HD
ATOM     21  H41 UNL     1      22.642  22.877   8.310  1.00  0.00     0.277 HD
HETATM   22  C23 UNL     1      23.973  25.851   8.626  1.00  0.00     0.032 C 
ENDBRANCH  14  15
ENDBRANCH  13  14
ENDBRANCH  10  13
ENDBRANCH   8   9
BRANCH   8  23
HETATM   23  C24 UNL     1      18.678  27.602  12.596  1.00  0.00     0.018 C 
HETATM   24  C25 UNL     1      17.315  28.130  12.346  1.00  0.00     0.007 C 
HETATM   25  C26 UNL     1      17.103  28.649  10.939  1.00  0.00     0.000 C 
HETATM   26  C27 UNL     1      17.379  27.520   9.978  1.00  0.00     0.000 C 
HETATM   27  C28 UNL     1      18.844  27.175  10.130  1.00  0.00     0.000 C 
HETATM   28  C29 UNL     1      19.157  26.664  11.515  1.00  0.00     0.007 C 
ENDBRANCH   8  23
ENDBRANCH   6   8
BRANCH   1  29
HETATM   29  C7  UNL     1      19.926  31.589  16.465  1.00  0.00     0.242 C 
HETATM   30  N1  UNL     1      19.747  32.982  16.491  1.00  0.00    -0.345 N 
ATOM     31  H1  UNL     1      18.829  33.354  16.249  1.00  0.00     0.163 HD
HETATM   32  O3  UNL     1      21.016  31.071  16.746  1.00  0.00    -0.271 OA
BRANCH  30  33
HETATM   33  C3  UNL     1      20.794  33.919  16.844  1.00  0.00     0.185 C 
BRANCH  33  34
HETATM   34  C2  UNL     1      20.130  35.090  17.477  1.00  0.00     0.281 C 
HETATM   35  O2  UNL     1      20.574  36.259  17.379  1.00  0.00    -0.263 OA
BRANCH  34  36
HETATM   36  O1  UNL     1      18.978  34.883  18.201  1.00  0.00    -0.325 OA
HETATM   37  C1  UNL     1      17.974  35.887  18.188  1.00  0.00     0.213 C 
ENDBRANCH  34  36
ENDBRANCH  33  34
BRANCH  33  38
HETATM   38  C4  UNL     1      21.541  34.431  15.631  1.00  0.00     0.045 C 
BRANCH  38  39
HETATM   39  C5  UNL     1      23.016  34.190  15.717  1.00  0.00     0.076 C 
BRANCH  39  40
HETATM   40  S1  UNL     1      23.461  32.819  14.615  1.00  0.00    -0.173 SA
HETATM   41  C6  UNL     1      22.004  32.319  13.679  1.00  0.00     0.089 C 
ENDBRANCH  39  40
ENDBRANCH  38  39
ENDBRANCH  33  38
ENDBRANCH  30  33
ENDBRANCH   1  29
BRANCH   3  42
HETATM   42  C11 UNL     1      16.166  33.067  14.850  1.00  0.00    -0.007 C 
HETATM   43  C12 UNL     1      17.320  33.957  14.456  1.00  0.00     0.011 C 
HETATM   44  C13 UNL     1      15.722  33.551  16.238  1.00  0.00     0.011 C 
ENDBRANCH   3  42
TORSDOF 14
ENDMDL
MODEL 2
REMARK VINA RESULT: -8.431898810      1.029      1.406
REMARK  14 active torsions:
REMARK  status: ('A' for Active; 'I' for Inactive)
REMARK    1  A    between atoms: O1_2  and  C2_3 
REMARK    2  A    between atoms: C2_3  and  C3_5 
REMARK    3  A    between atoms: C3_5  and  C4_6 
REMARK    4  A    between atoms: C3_5  and  N1_10 
REMARK    5  A    between atoms: C4_6  and  C5_7 
REMARK    6  A    between atoms: C5_7  and  S1_8 
REMARK       I    between atoms: N1_10  and  C7_12 
REMARK    7  A    between atoms: C7_12  and  C8_14 
REMARK    8  A    between atoms: C10_16  and  C11_17 
REMARK       I    between atoms: N2_21  and  C14_22 
REMARK    9  A    between atoms: C14_22  and  C15_24 
REMARK   10  A    between atoms: C15_24  and  N3_25 
REMARK   11  A    between atoms: C15_24  and  C24_39 
REMARK       I    between atoms: N3_25  and  C16_27 
REMARK   12  A    between atoms: C16_27  and  C17_29 
REMARK   13  A    between atoms: C17_29  and  C18_30 
REMARK   14  A    between atoms: C18_30  and  C19_31 
ROOT
HETATM    1  C8  UNL     1      18.369  31.083  16.167  1.00  0.00     0.193 C 
HETATM    2  C9  UNL     1      17.170  31.812  16.570  1.00  0.00     0.053 C 
HETATM    3  C10 UNL     1      16.267  32.159  15.446  1.00  0.00     0.075 C 
HETATM    4  S2  UNL     1      17.343  31.843  13.989  1.00  0.00    -0.044 SA
HETATM    5  N2  UNL     1      18.355  30.669  14.800  1.00  0.00    -0.276 N 
HETATM    6  C14 UNL     1      19.020  29.584  14.221  1.00  0.00     0.253 C 
HETATM    7  O4  UNL     1      19.775  28.818  14.917  1.00  0.00    -0.270 OA
ENDROOT
BRANCH   6   8
HETATM    8  C15 UNL     1      18.946  29.192  12.776  1.00  0.00     0.181 C 
BRANCH   8   9
HETATM    9  N3  UNL     1      20.160  28.424  12.457  1.00  0.00    -0.347 N 
HETATM   10  C16 UNL     1      21.302  29.043  11.904  1.00  0.00     0.218 C 
HETATM   11  O5  UNL     1      21.232  30.301  11.694  1.00  0.00    -0.274 OA
ATOM     12  H3  UNL     1      20.177  27.421  12.640  1.00  0.00     0.163 HD
BRANCH  10  13
HETATM   13  C17 UNL     1      22.529  28.256  11.583  1.00  0.00     0.103 C 
BRANCH  13  14
HETATM   14  C18 UNL     1      22.159  26.813  11.694  1.00  0.00     0.014 C 
BRANCH  14  15
HETATM   15  C19 UNL     1      23.246  25.850  11.296  1.00  0.00    -0.011 C 
HETATM   16  C20 UNL     1      22.891  25.230   9.988  1.00  0.00     0.032 C 
HETATM   17  C21 UNL     1      23.949  25.527   8.918  1.00  0.00     0.232 C 
HETATM   18  N4  UNL     1      25.211  25.101   9.444  1.00  0.00    -0.075 N 
HETATM   19  C22 UNL     1      25.645  25.861  10.569  1.00  0.00     0.232 C 
ATOM     20  H42 UNL     1      25.192  24.105   9.666  1.00  0.00     0.277 HD
ATOM     21  H41 UNL     1      25.924  25.097   8.714  1.00  0.00     0.277 HD
HETATM   22  C23 UNL     1      24.543  26.620  11.262  1.00  0.00     0.032 C 
ENDBRANCH  14  15
ENDBRANCH  13  14
ENDBRANCH  10  13
ENDBRANCH   8   9
BRANCH   8  23
HETATM   23  C24 UNL     1      17.783  28.308  12.457  1.00  0.00     0.018 C 
HETATM   24  C25 UNL     1      16.844  28.780  11.411  1.00  0.00     0.007 C 
HETATM   25  C26 UNL     1      17.291  28.475   9.997  1.00  0.00     0.000 C 
HETATM   26  C27 UNL     1      17.459  26.982   9.871  1.00  0.00     0.000 C 
HETATM   27  C28 UNL     1      18.583  26.596  10.807  1.00  0.00     0.000 C 
HETATM   28  C29 UNL     1      18.234  26.883  12.247  1.00  0.00     0.007 C 
ENDBRANCH   8  23
ENDBRANCH   6   8
BRANCH   1  29
HETATM   29  C7  UNL     1      19.618  31.870  16.484  1.00  0.00     0.242 C 
HETATM   30  N1  UNL     1      19.483  33.255  16.675  1.00  0.00    -0.345 N 
ATOM     31  H1  UNL     1      18.552  33.664  16.591  1.00  0.00     0.163 HD
HETATM   32  O3  UNL     1      20.721  31.310  16.569  1.00  0.00    -0.271 OA
BRANCH  30  33
HETATM   33  C3  UNL     1      20.592  34.134  16.986  1.00  0.00     0.185 C 
BRANCH  33  34
HETATM   34  C2  UNL     1      20.033  35.275  17.761  1.00  0.00     0.281 C 
HETATM   35  O2  UNL     1      18.853  35.679  17.623  1.00  0.00    -0.263 OA
BRANCH  34  36
HETATM   36  O1  UNL     1      20.845  35.918  18.668  1.00  0.00    -0.325 OA
HETATM   37  C1  UNL     1      21.234  35.226  19.845  1.00  0.00     0.213 C 
ENDBRANCH  34  36
ENDBRANCH  33  34
BRANCH  33  38
HETATM   38  C4  UNL     1      21.234  34.712  15.743  1.00  0.00     0.045 C 
BRANCH  38  39
HETATM   39  C5  UNL     1      22.722  34.826  15.863  1.00  0.00     0.076 C 
BRANCH  39  40
HETATM   40  S1  UNL     1      23.493  33.350  15.140  1.00  0.00    -0.173 SA
HETATM   41  C6  UNL     1      22.359  32.620  13.944  1.00  0.00     0.089 C 
ENDBRANCH  39  40
ENDBRANCH  38  39
ENDBRANCH  33  38
ENDBRANCH  30  33
ENDBRANCH   1  29
BRANCH   3  42
HETATM   42  C11 UNL     1      15.751  33.563  15.433  1.00  0.00    -0.007 C 
HETATM   43  C12 UNL     1      16.759  34.410  14.695  1.00  0.00     0.011 C 
HETATM   44  C13 UNL     1      15.786  34.050  16.889  1.00  0.00     0.011 C 
ENDBRANCH   3  42
TORSDOF 14
ENDMDL
MODEL 3
REMARK VINA RESULT: -8.336590715      2.026      3.134
REMARK  14 active torsions:
REMARK  status: ('A' for Active; 'I' for Inactive)
REMARK    1  A    between atoms: O1_2  and  C2_3 
REMARK    2  A    between atoms: C2_3  and  C3_5 
REMARK    3  A    between atoms: C3_5  and  C4_6 
REMARK    4  A    between atoms: C3_5  and  N1_10 
REMARK    5  A    between atoms: C4_6  and  C5_7 
REMARK    6  A    between atoms: C5_7  and  S1_8 
REMARK       I    between atoms: N1_10  and  C7_12 
REMARK    7  A    between atoms: C7_12  and  C8_14 
REMARK    8  A    between atoms: C10_16  and  C11_17 
REMARK       I    between atoms: N2_21  and  C14_22 
REMARK    9  A    between atoms: C14_22  and  C15_24 
REMARK   10  A    between atoms: C15_24  and  N3_25 
REMARK   11  A    between atoms: C15_24  and  C24_39 
REMARK       I    between atoms: N3_25  and  C16_27 
REMARK   12  A    between atoms: C16_27  and  C17_29 
REMARK   13  A    between atoms: C17_29  and  C18_30 
REMARK   14  A    between atoms: C18_30  and  C19_31 
ROOT
HETATM    1  C8  UNL     1      18.607  32.821  16.667  1.00  0.00     0.193 C 
HETATM    2  C9  UNL     1      17.306  33.294  17.130  1.00  0.00     0.053 C 
HETATM    3  C10 UNL     1      16.213  33.123  16.143  1.00  0.00     0.075 C 
HETATM    4  S2  UNL     1      17.152  32.756  14.605  1.00  0.00    -0.044 SA
HETATM    5  N2  UNL     1      18.549  32.106  15.432  1.00  0.00    -0.276 N 
HETATM    6  C14 UNL     1      19.424  31.121  14.964  1.00  0.00     0.253 C 
HETATM    7  O4  UNL     1      20.446  30.760  15.647  1.00  0.00    -0.270 OA
ENDROOT
BRANCH   6   8
HETATM    8  C15 UNL     1      19.294  30.393  13.660  1.00  0.00     0.181 C 
BRANCH   8   9
HETATM    9  N3  UNL     1      20.363  29.383  13.602  1.00  0.00    -0.347 N 
HETATM   10  C16 UNL     1      21.386  29.446  12.631  1.00  0.00     0.218 C 
HETATM   11  O5  UNL     1      21.340  30.420  11.806  1.00  0.00    -0.274 OA
ATOM     12  H3  UNL     1      20.365  28.621  14.279  1.00  0.00     0.163 HD
BRANCH  10  13
HETATM   13  C17 UNL     1      22.465  28.416  12.578  1.00  0.00     0.103 C 
BRANCH  13  14
HETATM   14  C18 UNL     1      21.927  27.263  11.797  1.00  0.00     0.014 C 
BRANCH  14  15
HETATM   15  C19 UNL     1      22.860  26.718  10.749  1.00  0.00    -0.011 C 
HETATM   16  C20 UNL     1      24.227  27.264  10.984  1.00  0.00     0.032 C 
HETATM   17  C21 UNL     1      25.245  26.145  11.241  1.00  0.00     0.232 C 
HETATM   18  N4  UNL     1      25.160  25.237  10.137  1.00  0.00    -0.075 N 
HETATM   19  C22 UNL     1      23.912  24.550  10.060  1.00  0.00     0.232 C 
ATOM     20  H42 UNL     1      25.363  25.715   9.259  1.00  0.00     0.277 HD
ATOM     21  H41 UNL     1      25.936  24.575  10.153  1.00  0.00     0.277 HD
HETATM   22  C23 UNL     1      22.795  25.212  10.823  1.00  0.00     0.032 C 
ENDBRANCH  14  15
ENDBRANCH  13  14
ENDBRANCH  10  13
ENDBRANCH   8   9
BRANCH   8  23
HETATM   23  C24 UNL     1      18.000  29.657  13.515  1.00  0.00     0.018 C 
HETATM   24  C25 UNL     1      17.285  29.799  12.225  1.00  0.00     0.007 C 
HETATM   25  C26 UNL     1      17.781  28.869  11.139  1.00  0.00     0.000 C 
HETATM   26  C27 UNL     1      17.631  27.452  11.632  1.00  0.00     0.000 C 
HETATM   27  C28 UNL     1      18.554  27.312  12.822  1.00  0.00     0.000 C 
HETATM   28  C29 UNL     1      18.148  28.221  13.955  1.00  0.00     0.007 C 
ENDBRANCH   8  23
ENDBRANCH   6   8
BRANCH   1  29
HETATM   29  C7  UNL     1      19.605  33.953  16.594  1.00  0.00     0.242 C 
HETATM   30  N1  UNL     1      20.894  33.653  16.127  1.00  0.00    -0.345 N 
ATOM     31  H1  UNL     1      21.098  32.690  15.861  1.00  0.00     0.163 HD
HETATM   32  O3  UNL     1      19.291  35.103  16.936  1.00  0.00    -0.271 OA
BRANCH  30  33
HETATM   33  C3  UNL     1      21.951  34.636  16.002  1.00  0.00     0.185 C 
BRANCH  33  34
HETATM   34  C2  UNL     1      23.061  33.983  15.254  1.00  0.00     0.281 C 
HETATM   35  O2  UNL     1      24.268  34.273  15.437  1.00  0.00    -0.263 OA
BRANCH  34  36
HETATM   36  O1  UNL     1      22.750  33.020  14.321  1.00  0.00    -0.325 OA
HETATM   37  C1  UNL     1      23.401  31.760  14.398  1.00  0.00     0.213 C 
ENDBRANCH  34  36
ENDBRANCH  33  34
BRANCH  33  38
HETATM   38  C4  UNL     1      22.507  35.058  17.345  1.00  0.00     0.045 C 
BRANCH  38  39
HETATM   39  C5  UNL     1      22.464  36.540  17.547  1.00  0.00     0.076 C 
BRANCH  39  40
HETATM   40  S1  UNL     1      22.009  36.894  19.268  1.00  0.00    -0.173 SA
HETATM   41  C6  UNL     1      21.095  35.491  19.935  1.00  0.00     0.089 C 
ENDBRANCH  39  40
ENDBRANCH  38  39
ENDBRANCH  33  38
ENDBRANCH  30  33
ENDBRANCH   1  29
BRANCH   3  42
HETATM   42  C11 UNL     1      15.316  34.304  15.951  1.00  0.00    -0.007 C 
HETATM   43  C12 UNL     1      16.161  35.433  15.410  1.00  0.00     0.011 C 
HETATM   44  C13 UNL     1      14.880  34.748  17.355  1.00  0.00     0.011 C 
ENDBRANCH   3  42
TORSDOF 14
ENDMDL
MODEL 4
REMARK VINA RESULT: -8.134474119      1.347      1.788
REMARK  14 active torsions:
REMARK  status: ('A' for Active; 'I' for Inactive)
REMARK    1  A    between atoms: O1_2  and  C2_3 
REMARK    2  A    between atoms: C2_3  and  C3_5 
REMARK    3  A    between atoms: C3_5  and  C4_6 
REMARK    4  A    between atoms: C3_5  and  N1_10 
REMARK    5  A    between atoms: C4_6  and  C5_7 
REMARK    6  A    between atoms: C5_7  and  S1_8 
REMARK       I    between atoms: N1_10  and  C7_12 
REMARK    7  A    between atoms: C7_12  and  C8_14 
REMARK    8  A    between atoms: C10_16  and  C11_17 
REMARK       I    between atoms: N2_21  and  C14_22 
REMARK    9  A    between atoms: C14_22  and  C15_24 
REMARK   10  A    between atoms: C15_24  and  N3_25 
REMARK   11  A    between atoms: C15_24  and  C24_39 
REMARK       I    between atoms: N3_25  and  C16_27 
REMARK   12  A    between atoms: C16_27  and  C17_29 
REMARK   13  A    between atoms: C17_29  and  C18_30 
REMARK   14  A    between atoms: C18_30  and  C19_31 
ROOT
HETATM    1  C8  UNL     1      18.617  31.616  16.304  1.00  0.00     0.193 C 
HETATM    2  C9  UNL     1      17.625  32.576  16.779  1.00  0.00     0.053 C 
HETATM    3  C10 UNL     1      16.788  33.163  15.706  1.00  0.00     0.075 C 
HETATM    4  S2  UNL     1      17.720  32.679  14.196  1.00  0.00    -0.044 SA
HETATM    5  N2  UNL     1      18.468  31.276  14.924  1.00  0.00    -0.276 N 
HETATM    6  C14 UNL     1      18.855  30.096  14.281  1.00  0.00     0.253 C 
HETATM    7  O4  UNL     1      19.440  29.152  14.919  1.00  0.00    -0.270 OA
ENDROOT
BRANCH   6   8
HETATM    8  C15 UNL     1      18.650  29.794  12.827  1.00  0.00     0.181 C 
BRANCH   8   9
HETATM    9  N3  UNL     1      19.884  29.170  12.321  1.00  0.00    -0.347 N 
HETATM   10  C16 UNL     1      20.948  29.946  11.812  1.00  0.00     0.218 C 
HETATM   11  O5  UNL     1      20.789  31.213  11.811  1.00  0.00    -0.274 OA
ATOM     12  H3  UNL     1      19.972  28.154  12.339  1.00  0.00     0.163 HD
BRANCH  10  13
HETATM   13  C17 UNL     1      22.195  29.305  11.299  1.00  0.00     0.103 C 
BRANCH  13  14
HETATM   14  C18 UNL     1      22.094  27.849  11.613  1.00  0.00     0.014 C 
BRANCH  14  15
HETATM   15  C19 UNL     1      22.883  26.949  10.699  1.00  0.00    -0.011 C 
HETATM   16  C20 UNL     1      24.338  27.189  10.917  1.00  0.00     0.032 C 
HETATM   17  C21 UNL     1      25.056  25.915  11.379  1.00  0.00     0.232 C 
HETATM   18  N4  UNL     1      24.769  24.896  10.414  1.00  0.00    -0.075 N 
HETATM   19  C22 UNL     1      23.395  24.517  10.378  1.00  0.00     0.232 C 
ATOM     20  H42 UNL     1      25.091  25.175   9.487  1.00  0.00     0.277 HD
ATOM     21  H41 UNL     1      25.365  24.081  10.561  1.00  0.00     0.277 HD
HETATM   22  C23 UNL     1      22.460  25.529  10.985  1.00  0.00     0.032 C 
ENDBRANCH  14  15
ENDBRANCH  13  14
ENDBRANCH  10  13
ENDBRANCH   8   9
BRANCH   8  23
HETATM   23  C24 UNL     1      17.542  28.822  12.570  1.00  0.00     0.018 C 
HETATM   24  C25 UNL     1      16.701  29.060  11.373  1.00  0.00     0.007 C 
HETATM   25  C26 UNL     1      17.291  28.521  10.087  1.00  0.00     0.000 C 
HETATM   26  C27 UNL     1      17.501  27.037  10.255  1.00  0.00     0.000 C 
HETATM   27  C28 UNL     1      18.535  26.871  11.347  1.00  0.00     0.000 C 
HETATM   28  C29 UNL     1      18.041  27.402  12.670  1.00  0.00     0.007 C 
ENDBRANCH   8  23
ENDBRANCH   6   8
BRANCH   1  29
HETATM   29  C7  UNL     1      20.020  32.091  16.598  1.00  0.00     0.242 C 
HETATM   30  N1  UNL     1      20.207  33.465  16.819  1.00  0.00    -0.345 N 
ATOM     31  H1  UNL     1      19.393  34.077  16.771  1.00  0.00     0.163 HD
HETATM   32  O3  UNL     1      20.968  31.294  16.639  1.00  0.00    -0.271 OA
BRANCH  30  33
HETATM   33  C3  UNL     1      21.495  34.062  17.113  1.00  0.00     0.185 C 
BRANCH  33  34
HETATM   34  C2  UNL     1      21.329  34.848  18.366  1.00  0.00     0.281 C 
HETATM   35  O2  UNL     1      22.287  35.123  19.128  1.00  0.00    -0.263 OA
BRANCH  34  36
HETATM   36  O1  UNL     1      20.071  35.292  18.706  1.00  0.00    -0.325 OA
HETATM   37  C1  UNL     1      19.766  36.669  18.543  1.00  0.00     0.213 C 
ENDBRANCH  34  36
ENDBRANCH  33  34
BRANCH  33  38
HETATM   38  C4  UNL     1      21.940  35.029  16.037  1.00  0.00     0.045 C 
BRANCH  38  39
HETATM   39  C5  UNL     1      22.268  34.344  14.746  1.00  0.00     0.076 C 
BRANCH  39  40
HETATM   40  S1  UNL     1      23.636  33.184  15.017  1.00  0.00    -0.173 SA
HETATM   41  C6  UNL     1      23.190  31.578  14.333  1.00  0.00     0.089 C 
ENDBRANCH  39  40
ENDBRANCH  38  39
ENDBRANCH  33  38
ENDBRANCH  30  33
ENDBRANCH   1  29
BRANCH   3  42
HETATM   42  C11 UNL     1      16.598  34.646  15.763  1.00  0.00    -0.007 C 
HETATM   43  C12 UNL     1      15.339  34.913  16.552  1.00  0.00     0.011 C 
HETATM   44  C13 UNL     1      16.293  35.098  14.327  1.00  0.00     0.011 C 
ENDBRANCH   3  42
TORSDOF 14
ENDMDL
MODEL 5
REMARK VINA RESULT: -8.123800012      2.471      3.429
REMARK  14 active torsions:
REMARK  status: ('A' for Active; 'I' for Inactive)
REMARK    1  A    between atoms: O1_2  and  C2_3 
REMARK    2  A    between atoms: C2_3  and  C3_5 
REMARK    3  A    between atoms: C3_5  and  C4_6 
REMARK    4  A    between atoms: C3_5  and  N1_10 
REMARK    5  A    between atoms: C4_6  and  C5_7 
REMARK    6  A    between atoms: C5_7  and  S1_8 
REMARK       I    between atoms: N1_10  and  C7_12 
REMARK    7  A    between atoms: C7_12  and  C8_14 
REMARK    8  A    between atoms: C10_16  and  C11_17 
REMARK       I    between atoms: N2_21  and  C14_22 
REMARK    9  A    between atoms: C14_22  and  C15_24 
REMARK   10  A    between atoms: C15_24  and  N3_25 
REMARK   11  A    between atoms: C15_24  and  C24_39 
REMARK       I    between atoms: N3_25  and  C16_27 
REMARK   12  A    between atoms: C16_27  and  C17_29 
REMARK   13  A    between atoms: C17_29  and  C18_30 
REMARK   14  A    between atoms: C18_30  and  C19_31 
ROOT
HETATM    1  C8  UNL     1      18.891  33.194  16.911  1.00  0.00     0.193 C 
HETATM    2  C9  UNL     1      17.655  33.859  17.316  1.00  0.00     0.053 C 
HETATM    3  C10 UNL     1      16.608  33.880  16.267  1.00  0.00     0.075 C 
HETATM    4  S2  UNL     1      17.565  33.397  14.772  1.00  0.00    -0.044 SA
HETATM    5  N2  UNL     1      18.793  32.520  15.656  1.00  0.00    -0.276 N 
HETATM    6  C14 UNL     1      19.529  31.418  15.210  1.00  0.00     0.253 C 
HETATM    7  O4  UNL     1      20.441  30.888  15.938  1.00  0.00    -0.270 OA
ENDROOT
BRANCH   6   8
HETATM    8  C15 UNL     1      19.361  30.743  13.882  1.00  0.00     0.181 C 
BRANCH   8   9
HETATM    9  N3  UNL     1      20.381  29.686  13.785  1.00  0.00    -0.347 N 
HETATM   10  C16 UNL     1      21.359  29.694  12.766  1.00  0.00     0.218 C 
HETATM   11  O5  UNL     1      21.316  30.662  11.934  1.00  0.00    -0.274 OA
ATOM     12  H3  UNL     1      20.382  28.930  14.470  1.00  0.00     0.163 HD
BRANCH  10  13
HETATM   13  C17 UNL     1      22.388  28.617  12.674  1.00  0.00     0.103 C 
BRANCH  13  14
HETATM   14  C18 UNL     1      21.793  27.517  11.858  1.00  0.00     0.014 C 
BRANCH  14  15
HETATM   15  C19 UNL     1      22.739  26.873  10.880  1.00  0.00    -0.011 C 
HETATM   16  C20 UNL     1      24.129  27.316  11.183  1.00  0.00     0.032 C 
HETATM   17  C21 UNL     1      25.037  26.128  11.525  1.00  0.00     0.232 C 
HETATM   18  N4  UNL     1      24.943  25.199  10.439  1.00  0.00    -0.075 N 
HETATM   19  C22 UNL     1      23.652  24.611  10.304  1.00  0.00     0.232 C 
ATOM     20  H42 UNL     1      25.234  25.636   9.564  1.00  0.00     0.277 HD
ATOM     21  H41 UNL     1      25.662  24.480  10.515  1.00  0.00     0.277 HD
HETATM   22  C23 UNL     1      22.550  25.379  10.984  1.00  0.00     0.032 C 
ENDBRANCH  14  15
ENDBRANCH  13  14
ENDBRANCH  10  13
ENDBRANCH   8   9
BRANCH   8  23
HETATM   23  C24 UNL     1      18.034  30.074  13.716  1.00  0.00     0.018 C 
HETATM   24  C25 UNL     1      17.408  30.143  12.375  1.00  0.00     0.007 C 
HETATM   25  C26 UNL     1      17.907  29.091  11.406  1.00  0.00     0.000 C 
HETATM   26  C27 UNL     1      17.637  27.735  12.008  1.00  0.00     0.000 C 
HETATM   27  C28 UNL     1      18.476  27.648  13.263  1.00  0.00     0.000 C 
HETATM   28  C29 UNL     1      18.062  28.677  14.286  1.00  0.00     0.007 C 
ENDBRANCH   8  23
ENDBRANCH   6   8
BRANCH   1  29
HETATM   29  C7  UNL     1      20.056  34.156  16.923  1.00  0.00     0.242 C 
HETATM   30  N1  UNL     1      20.423  34.716  18.157  1.00  0.00    -0.345 N 
ATOM     31  H1  UNL     1      19.890  34.451  18.984  1.00  0.00     0.163 HD
HETATM   32  O3  UNL     1      20.660  34.437  15.877  1.00  0.00    -0.271 OA
BRANCH  30  33
HETATM   33  C3  UNL     1      21.519  35.650  18.319  1.00  0.00     0.185 C 
BRANCH  33  34
HETATM   34  C2  UNL     1      21.846  35.683  19.770  1.00  0.00     0.281 C 
HETATM   35  O2  UNL     1      21.177  35.066  20.633  1.00  0.00    -0.263 OA
BRANCH  34  36
HETATM   36  O1  UNL     1      22.930  36.424  20.186  1.00  0.00    -0.325 OA
HETATM   37  C1  UNL     1      23.882  35.816  21.046  1.00  0.00     0.213 C 
ENDBRANCH  34  36
ENDBRANCH  33  34
BRANCH  33  38
HETATM   38  C4  UNL     1      21.140  37.059  17.915  1.00  0.00     0.045 C 
BRANCH  38  39
HETATM   39  C5  UNL     1      19.809  37.477  18.461  1.00  0.00     0.076 C 
BRANCH  39  40
HETATM   40  S1  UNL     1      19.594  39.260  18.204  1.00  0.00    -0.173 SA
HETATM   41  C6  UNL     1      18.913  39.540  16.559  1.00  0.00     0.089 C 
ENDBRANCH  39  40
ENDBRANCH  38  39
ENDBRANCH  33  38
ENDBRANCH  30  33
ENDBRANCH   1  29
BRANCH   3  42
HETATM   42  C11 UNL     1      15.919  35.190  16.058  1.00  0.00    -0.007 C 
HETATM   43  C12 UNL     1      16.851  36.275  16.542  1.00  0.00     0.011 C 
HETATM   44  C13 UNL     1      14.724  35.209  17.023  1.00  0.00     0.011 C 
ENDBRANCH   3  42
TORSDOF 14
ENDMDL
