MODEL 1
REMARK VINA RESULT: -7.097027420      0.000      0.000
REMARK  6 active torsions:
REMARK  status: ('A' for Active; 'I' for Inactive)
REMARK    1  A    between atoms: C2_2  and  N1_3 
REMARK    2  A    between atoms: N1_3  and  C3_5 
REMARK    3  A    between atoms: C3_5  and  C5_7 
REMARK       I    between atoms: C5_7  and  N2_9 
REMARK    4  A    between atoms: N3_12  and  C8_13 
REMARK    5  A    between atoms: C8_13  and  N4_15 
REMARK    6  A    between atoms: N4_15  and  C9_17 
ROOT
HETATM    1  C5  UNL     1      16.427  10.092  24.119  1.00  0.00     0.242 C 
HETATM    2  O1  UNL     1      16.388   9.827  25.362  1.00  0.00    -0.271 OA
HETATM    3  N2  UNL     1      17.525  10.825  23.655  1.00  0.00    -0.347 N 
HETATM    4  C6  UNL     1      18.525  11.264  24.613  1.00  0.00     0.145 C 
HETATM    5  C7  UNL     1      19.909  10.818  24.211  1.00  0.00     0.145 C 
HETATM    6  N3  UNL     1      20.062  10.885  22.766  1.00  0.00    -0.355 N 
HETATM    7  C16 UNL     1      19.072  11.506  21.936  1.00  0.00     0.145 C 
HETATM    8  C17 UNL     1      17.661  11.111  22.251  1.00  0.00     0.145 C 
ENDROOT
BRANCH   6   9
HETATM    9  C8  UNL     1      21.223  10.320  22.194  1.00  0.00     0.170 C 
HETATM   10  S1  UNL     1      22.605  10.416  23.102  1.00  0.00    -0.041 SA
BRANCH   9  11
HETATM   11  N4  UNL     1      21.183   9.687  20.932  1.00  0.00    -0.362 N 
ATOM     12  H4  UNL     1      20.668   8.808  20.875  1.00  0.00     0.162 HD
BRANCH  11  13
HETATM   13  C9  UNL     1      21.797  10.160  19.711  1.00  0.00     0.083 C 
HETATM   14  C10 UNL     1      21.854  11.660  19.724  1.00  0.00     0.025 C 
HETATM   15  C11 UNL     1      22.955  12.251  18.900  1.00  0.00     0.002 C 
HETATM   16  C12 UNL     1      24.324  11.972  19.410  1.00  0.00     0.000 C 
HETATM   17  C13 UNL     1      24.929  10.859  18.614  1.00  0.00     0.000 C 
HETATM   18  C14 UNL     1      23.876   9.824  18.333  1.00  0.00     0.002 C 
HETATM   19  C15 UNL     1      23.135   9.514  19.576  1.00  0.00     0.025 C 
ENDBRANCH  11  13
ENDBRANCH   9  11
ENDBRANCH   6   9
BRANCH   1  20
HETATM   20  C3  UNL     1      15.305   9.594  23.306  1.00  0.00     0.169 C 
HETATM   21  C4  UNL     1      13.995  10.114  23.836  1.00  0.00     0.042 C 
BRANCH  20  22
HETATM   22  N1  UNL     1      15.307   8.192  23.104  1.00  0.00    -0.390 N 
ATOM     23  H1  UNL     1      15.342   7.579  23.918  1.00  0.00     0.159 HD
BRANCH  22  24
HETATM   24  C2  UNL     1      15.263   7.622  21.837  1.00  0.00     0.052 C 
HETATM   25  C1  UNL     1      15.512   8.547  20.655  1.00  0.00     0.054 C 
ENDBRANCH  22  24
ENDBRANCH  20  22
ENDBRANCH   1  20
TORSDOF 6
ENDMDL
MODEL 2
REMARK VINA RESULT: -7.062019565      2.461      2.915
REMARK  6 active torsions:
REMARK  status: ('A' for Active; 'I' for Inactive)
REMARK    1  A    between atoms: C2_2  and  N1_3 
REMARK    2  A    between atoms: N1_3  and  C3_5 
REMARK    3  A    between atoms: C3_5  and  C5_7 
REMARK       I    between atoms: C5_7  and  N2_9 
REMARK    4  A    between atoms: N3_12  and  C8_13 
REMARK    5  A    between atoms: C8_13  and  N4_15 
REMARK    6  A    between atoms: N4_15  and  C9_17 
ROOT
HETATM    1  C5  UNL     1      18.459  11.238  22.925  1.00  0.00     0.242 C 
HETATM    2  O1  UNL     1      18.119  10.193  23.564  1.00  0.00    -0.271 OA
HETATM    3  N2  UNL     1      19.473  12.027  23.480  1.00  0.00    -0.347 N 
HETATM    4  C6  UNL     1      20.044  11.631  24.756  1.00  0.00     0.145 C 
HETATM    5  C7  UNL     1      21.546  11.508  24.675  1.00  0.00     0.145 C 
HETATM    6  N3  UNL     1      22.092  12.542  23.809  1.00  0.00    -0.355 N 
HETATM    7  C16 UNL     1      21.278  13.618  23.322  1.00  0.00     0.145 C 
HETATM    8  C17 UNL     1      19.946  13.192  22.781  1.00  0.00     0.145 C 
ENDROOT
BRANCH   6   9
HETATM    9  C8  UNL     1      23.457  12.463  23.458  1.00  0.00     0.170 C 
HETATM   10  S1  UNL     1      24.490  13.427  24.323  1.00  0.00    -0.041 SA
BRANCH   9  11
HETATM   11  N4  UNL     1      23.902  11.585  22.445  1.00  0.00    -0.362 N 
ATOM     12  H4  UNL     1      24.800  11.126  22.598  1.00  0.00     0.162 HD
BRANCH  11  13
HETATM   13  C9  UNL     1      23.213  11.272  21.214  1.00  0.00     0.083 C 
HETATM   14  C10 UNL     1      23.246  12.463  20.300  1.00  0.00     0.025 C 
HETATM   15  C11 UNL     1      23.153  12.136  18.843  1.00  0.00     0.002 C 
HETATM   16  C12 UNL     1      24.330  11.407  18.300  1.00  0.00     0.000 C 
HETATM   17  C13 UNL     1      24.000   9.951  18.191  1.00  0.00     0.000 C 
HETATM   18  C14 UNL     1      23.195   9.536  19.391  1.00  0.00     0.002 C 
HETATM   19  C15 UNL     1      23.834  10.051  20.623  1.00  0.00     0.025 C 
ENDBRANCH  11  13
ENDBRANCH   9  11
ENDBRANCH   6   9
BRANCH   1  20
HETATM   20  C3  UNL     1      17.744  11.499  21.665  1.00  0.00     0.169 C 
HETATM   21  C4  UNL     1      16.386  12.089  21.938  1.00  0.00     0.042 C 
BRANCH  20  22
HETATM   22  N1  UNL     1      17.703  10.395  20.777  1.00  0.00    -0.390 N 
ATOM     23  H1  UNL     1      16.836   9.865  20.692  1.00  0.00     0.159 HD
BRANCH  22  24
HETATM   24  C2  UNL     1      18.802  10.009  20.018  1.00  0.00     0.052 C 
HETATM   25  C1  UNL     1      19.602  11.116  19.348  1.00  0.00     0.054 C 
ENDBRANCH  22  24
ENDBRANCH  20  22
ENDBRANCH   1  20
TORSDOF 6
ENDMDL
MODEL 3
REMARK VINA RESULT: -7.061018803      4.255      8.076
REMARK  6 active torsions:
REMARK  status: ('A' for Active; 'I' for Inactive)
REMARK    1  A    between atoms: C2_2  and  N1_3 
REMARK    2  A    between atoms: N1_3  and  C3_5 
REMARK    3  A    between atoms: C3_5  and  C5_7 
REMARK       I    between atoms: C5_7  and  N2_9 
REMARK    4  A    between atoms: N3_12  and  C8_13 
REMARK    5  A    between atoms: C8_13  and  N4_15 
REMARK    6  A    between atoms: N4_15  and  C9_17 
ROOT
HETATM    1  C5  UNL     1      24.889  15.294  19.409  1.00  0.00     0.242 C 
HETATM    2  O1  UNL     1      24.636  16.459  18.966  1.00  0.00    -0.271 OA
HETATM    3  N2  UNL     1      24.667  15.065  20.772  1.00  0.00    -0.347 N 
HETATM    4  C6  UNL     1      24.202  16.167  21.597  1.00  0.00     0.145 C 
HETATM    5  C7  UNL     1      22.943  15.805  22.344  1.00  0.00     0.145 C 
HETATM    6  N3  UNL     1      22.989  14.415  22.770  1.00  0.00    -0.355 N 
HETATM    7  C16 UNL     1      24.187  13.636  22.653  1.00  0.00     0.145 C 
HETATM    8  C17 UNL     1      24.878  13.755  21.327  1.00  0.00     0.145 C 
ENDROOT
BRANCH   6   9
HETATM    9  C8  UNL     1      21.815  13.846  23.310  1.00  0.00     0.170 C 
HETATM   10  S1  UNL     1      21.164  14.623  24.620  1.00  0.00    -0.041 SA
BRANCH   9  11
HETATM   11  N4  UNL     1      21.228  12.697  22.736  1.00  0.00    -0.362 N 
ATOM     12  H4  UNL     1      21.426  11.805  23.190  1.00  0.00     0.162 HD
BRANCH  11  13
HETATM   13  C9  UNL     1      20.375  12.657  21.569  1.00  0.00     0.083 C 
HETATM   14  C10 UNL     1      21.144  12.113  20.400  1.00  0.00     0.025 C 
HETATM   15  C11 UNL     1      20.304  11.448  19.355  1.00  0.00     0.002 C 
HETATM   16  C12 UNL     1      19.654  10.187  19.800  1.00  0.00     0.000 C 
HETATM   17  C13 UNL     1      18.222  10.464  20.137  1.00  0.00     0.000 C 
HETATM   18  C14 UNL     1      18.128  11.788  20.841  1.00  0.00     0.002 C 
HETATM   19  C15 UNL     1      19.156  11.864  21.903  1.00  0.00     0.025 C 
ENDBRANCH  11  13
ENDBRANCH   9  11
ENDBRANCH   6   9
BRANCH   1  20
HETATM   20  C3  UNL     1      25.387  14.313  18.430  1.00  0.00     0.169 C 
HETATM   21  C4  UNL     1      26.498  14.906  17.605  1.00  0.00     0.042 C 
BRANCH  20  22
HETATM   22  N1  UNL     1      24.376  13.703  17.648  1.00  0.00    -0.390 N 
ATOM     23  H1  UNL     1      24.004  14.210  16.845  1.00  0.00     0.159 HD
BRANCH  22  24
HETATM   24  C2  UNL     1      23.873  12.439  17.935  1.00  0.00     0.052 C 
HETATM   25  C1  UNL     1      24.886  11.349  18.254  1.00  0.00     0.054 C 
ENDBRANCH  22  24
ENDBRANCH  20  22
ENDBRANCH   1  20
TORSDOF 6
ENDMDL
MODEL 4
REMARK VINA RESULT: -6.879656854      1.868      2.624
REMARK  6 active torsions:
REMARK  status: ('A' for Active; 'I' for Inactive)
REMARK    1  A    between atoms: C2_2  and  N1_3 
REMARK    2  A    between atoms: N1_3  and  C3_5 
REMARK    3  A    between atoms: C3_5  and  C5_7 
REMARK       I    between atoms: C5_7  and  N2_9 
REMARK    4  A    between atoms: N3_12  and  C8_13 
REMARK    5  A    between atoms: C8_13  and  N4_15 
REMARK    6  A    between atoms: N4_15  and  C9_17 
ROOT
HETATM    1  C5  UNL     1      16.538  10.166  21.559  1.00  0.00     0.242 C 
HETATM    2  O1  UNL     1      15.872  11.139  22.035  1.00  0.00    -0.271 OA
HETATM    3  N2  UNL     1      17.745  10.469  20.918  1.00  0.00    -0.347 N 
HETATM    4  C6  UNL     1      18.142  11.862  20.803  1.00  0.00     0.145 C 
HETATM    5  C7  UNL     1      19.525  12.090  21.361  1.00  0.00     0.145 C 
HETATM    6  N3  UNL     1      20.386  10.957  21.059  1.00  0.00    -0.355 N 
HETATM    7  C16 UNL     1      19.967   9.917  20.165  1.00  0.00     0.145 C 
HETATM    8  C17 UNL     1      18.576   9.412  20.407  1.00  0.00     0.145 C 
ENDROOT
BRANCH   6   9
HETATM    9  C8  UNL     1      21.657  10.905  21.670  1.00  0.00     0.170 C 
HETATM   10  S1  UNL     1      22.078  12.218  22.589  1.00  0.00    -0.041 SA
BRANCH   9  11
HETATM   11  N4  UNL     1      22.496   9.780  21.521  1.00  0.00    -0.362 N 
ATOM     12  H4  UNL     1      22.272   8.962  22.088  1.00  0.00     0.162 HD
BRANCH  11  13
HETATM   13  C9  UNL     1      23.641   9.669  20.644  1.00  0.00     0.083 C 
HETATM   14  C10 UNL     1      23.176   9.462  19.231  1.00  0.00     0.025 C 
HETATM   15  C11 UNL     1      24.132   9.936  18.182  1.00  0.00     0.002 C 
HETATM   16  C12 UNL     1      24.318  11.411  18.141  1.00  0.00     0.000 C 
HETATM   17  C13 UNL     1      25.597  11.765  18.833  1.00  0.00     0.000 C 
HETATM   18  C14 UNL     1      25.754  10.901  20.052  1.00  0.00     0.002 C 
HETATM   19  C15 UNL     1      24.489  10.884  20.820  1.00  0.00     0.025 C 
ENDBRANCH  11  13
ENDBRANCH   9  11
ENDBRANCH   6   9
BRANCH   1  20
HETATM   20  C3  UNL     1      15.961   8.824  21.739  1.00  0.00     0.169 C 
HETATM   21  C4  UNL     1      15.318   8.348  20.464  1.00  0.00     0.042 C 
BRANCH  20  22
HETATM   22  N1  UNL     1      15.116   8.699  22.869  1.00  0.00    -0.390 N 
ATOM     23  H1  UNL     1      14.107   8.772  22.739  1.00  0.00     0.159 HD
BRANCH  22  24
HETATM   24  C2  UNL     1      15.612   8.479  24.150  1.00  0.00     0.052 C 
HETATM   25  C1  UNL     1      15.203   9.471  25.228  1.00  0.00     0.054 C 
ENDBRANCH  22  24
ENDBRANCH  20  22
ENDBRANCH   1  20
TORSDOF 6
ENDMDL
MODEL 5
REMARK VINA RESULT: -6.846075263      4.091      6.189
REMARK  6 active torsions:
REMARK  status: ('A' for Active; 'I' for Inactive)
REMARK    1  A    between atoms: C2_2  and  N1_3 
REMARK    2  A    between atoms: N1_3  and  C3_5 
REMARK    3  A    between atoms: C3_5  and  C5_7 
REMARK       I    between atoms: C5_7  and  N2_9 
REMARK    4  A    between atoms: N3_12  and  C8_13 
REMARK    5  A    between atoms: C8_13  and  N4_15 
REMARK    6  A    between atoms: N4_15  and  C9_17 
ROOT
HETATM    1  C5  UNL     1      22.394  13.737  27.157  1.00  0.00     0.242 C 
HETATM    2  O1  UNL     1      23.525  13.733  27.738  1.00  0.00    -0.271 OA
HETATM    3  N2  UNL     1      22.322  14.350  25.901  1.00  0.00    -0.347 N 
HETATM    4  C6  UNL     1      23.518  14.971  25.359  1.00  0.00     0.145 C 
HETATM    5  C7  UNL     1      23.840  14.443  23.983  1.00  0.00     0.145 C 
HETATM    6  N3  UNL     1      22.617  14.210  23.232  1.00  0.00    -0.355 N 
HETATM    7  C16 UNL     1      21.343  14.653  23.719  1.00  0.00     0.145 C 
HETATM    8  C17 UNL     1      21.087  14.340  25.163  1.00  0.00     0.145 C 
ENDROOT
BRANCH   6   9
HETATM    9  C8  UNL     1      22.713  13.531  21.998  1.00  0.00     0.170 C 
HETATM   10  S1  UNL     1      23.858  14.096  20.942  1.00  0.00    -0.041 SA
BRANCH   9  11
HETATM   11  N4  UNL     1      21.893  12.418  21.708  1.00  0.00    -0.362 N 
ATOM     12  H4  UNL     1      22.194  11.517  22.080  1.00  0.00     0.162 HD
BRANCH  11  13
HETATM   13  C9  UNL     1      20.669  12.428  20.939  1.00  0.00     0.083 C 
HETATM   14  C10 UNL     1      20.865  11.650  19.669  1.00  0.00     0.025 C 
HETATM   15  C11 UNL     1      19.615  11.055  19.101  1.00  0.00     0.002 C 
HETATM   16  C12 UNL     1      19.013   9.978  19.932  1.00  0.00     0.000 C 
HETATM   17  C13 UNL     1      17.863  10.539  20.707  1.00  0.00     0.000 C 
HETATM   18  C14 UNL     1      18.218  11.917  21.191  1.00  0.00     0.002 C 
HETATM   19  C15 UNL     1      19.568  11.902  21.796  1.00  0.00     0.025 C 
ENDBRANCH  11  13
ENDBRANCH   9  11
ENDBRANCH   6   9
BRANCH   1  20
HETATM   20  C3  UNL     1      21.284  13.089  27.876  1.00  0.00     0.169 C 
HETATM   21  C4  UNL     1      21.115  13.694  29.244  1.00  0.00     0.042 C 
BRANCH  20  22
HETATM   22  N1  UNL     1      21.348  11.674  27.896  1.00  0.00    -0.390 N 
ATOM     23  H1  UNL     1      22.107  11.224  28.407  1.00  0.00     0.159 HD
BRANCH  22  24
HETATM   24  C2  UNL     1      20.413  10.877  27.246  1.00  0.00     0.052 C 
HETATM   25  C1  UNL     1      19.172  11.571  26.705  1.00  0.00     0.054 C 
ENDBRANCH  22  24
ENDBRANCH  20  22
ENDBRANCH   1  20
TORSDOF 6
ENDMDL
