MODEL 1
REMARK VINA RESULT: -8.708231448      0.000      0.000
REMARK  7 active torsions:
REMARK  status: ('A' for Active; 'I' for Inactive)
REMARK    1  A    between atoms: C2_2  and  O1_5 
REMARK    2  A    between atoms: O1_5  and  C5_6 
REMARK       I    between atoms: C5_6  and  N1_8 
REMARK    3  A    between atoms: N1_8  and  C6_10 
REMARK    4  A    between atoms: N2_14  and  C9_15 
REMARK    5  A    between atoms: C9_15  and  C10_16 
REMARK    6  A    between atoms: C10_16  and  C11_17 
REMARK    7  A    between atoms: C12_18  and  C13_19 
ROOT
HETATM    1  C6  UNL     1      39.500  66.739  40.006  1.00  0.00     0.113 C 
HETATM    2  C7  UNL     1      38.541  65.603  40.343  1.00  0.00     0.129 C 
HETATM    3  C8  UNL     1      37.266  65.962  39.687  1.00  0.00     0.221 C 
HETATM    4  O3  UNL     1      36.235  65.244  39.722  1.00  0.00    -0.273 OA
HETATM    5  N2  UNL     1      37.473  67.222  39.051  1.00  0.00    -0.350 N 
HETATM    6  C18 UNL     1      38.577  67.908  39.745  1.00  0.00     0.151 C 
ENDROOT
BRANCH   5   7
HETATM    7  C9  UNL     1      36.701  67.688  37.922  1.00  0.00     0.130 C 
BRANCH   7   8
HETATM    8  C10 UNL     1      36.982  66.865  36.679  1.00  0.00     0.062 C 
BRANCH   8   9
HETATM    9  C11 UNL     1      38.375  66.944  36.227  1.00  0.00    -0.003 A 
HETATM   10  C12 UNL     1      39.276  65.904  36.312  1.00  0.00     0.018 A 
HETATM   11  C14 UNL     1      40.605  66.028  35.889  1.00  0.00     0.058 A 
HETATM   12  C15 UNL     1      41.021  67.225  35.372  1.00  0.00     0.158 A 
HETATM   13  F3  UNL     1      42.304  67.360  34.959  1.00  0.00    -0.203 F 
HETATM   14  C16 UNL     1      40.149  68.293  35.267  1.00  0.00     0.193 A 
HETATM   15  F4  UNL     1      40.617  69.449  34.748  1.00  0.00    -0.200 F 
HETATM   16  C17 UNL     1      38.862  68.141  35.688  1.00  0.00     0.165 A 
HETATM   17  F5  UNL     1      38.010  69.183  35.588  1.00  0.00    -0.202 F 
BRANCH  10  18
HETATM   18  C13 UNL     1      38.879  64.596  36.833  1.00  0.00     0.387 C 
HETATM   19  F1  UNL     1      39.969  63.744  36.997  1.00  0.00    -0.209 F 
HETATM   20  F2  UNL     1      38.089  63.987  35.853  1.00  0.00    -0.209 F 
ENDBRANCH  10  18
ENDBRANCH   8   9
ENDBRANCH   7   8
ENDBRANCH   5   7
BRANCH   1  21
HETATM   21  N1  UNL     1      40.384  66.926  41.103  1.00  0.00    -0.330 N 
HETATM   22  C5  UNL     1      41.528  67.768  41.090  1.00  0.00     0.361 C 
HETATM   23  O2  UNL     1      41.767  68.387  40.022  1.00  0.00    -0.238 OA
ATOM     24  H1  UNL     1      40.181  66.419  41.964  1.00  0.00     0.165 HD
BRANCH  22  25
HETATM   25  O1  UNL     1      42.371  67.939  42.154  1.00  0.00    -0.294 OA
BRANCH  25  26
HETATM   26  C2  UNL     1      43.351  67.008  42.565  1.00  0.00     0.061 C 
HETATM   27  C1  UNL     1      44.570  67.797  43.011  1.00  0.00     0.046 C 
HETATM   28  C3  UNL     1      42.888  66.098  43.656  1.00  0.00     0.046 C 
HETATM   29  C4  UNL     1      43.808  66.134  41.391  1.00  0.00     0.046 C 
ENDBRANCH  25  26
ENDBRANCH  22  25
ENDBRANCH   1  21
TORSDOF 7
ENDMDL
MODEL 2
REMARK VINA RESULT: -8.647970453      2.040      3.141
REMARK  7 active torsions:
REMARK  status: ('A' for Active; 'I' for Inactive)
REMARK    1  A    between atoms: C2_2  and  O1_5 
REMARK    2  A    between atoms: O1_5  and  C5_6 
REMARK       I    between atoms: C5_6  and  N1_8 
REMARK    3  A    between atoms: N1_8  and  C6_10 
REMARK    4  A    between atoms: N2_14  and  C9_15 
REMARK    5  A    between atoms: C9_15  and  C10_16 
REMARK    6  A    between atoms: C10_16  and  C11_17 
REMARK    7  A    between atoms: C12_18  and  C13_19 
ROOT
HETATM    1  C6  UNL     1      40.848  65.961  39.926  1.00  0.00     0.113 C 
HETATM    2  C7  UNL     1      41.138  64.495  40.226  1.00  0.00     0.129 C 
HETATM    3  C8  UNL     1      40.006  63.747  39.641  1.00  0.00     0.221 C 
HETATM    4  O3  UNL     1      39.908  62.494  39.669  1.00  0.00    -0.273 OA
HETATM    5  N2  UNL     1      39.122  64.714  39.078  1.00  0.00    -0.350 N 
HETATM    6  C18 UNL     1      39.344  65.995  39.773  1.00  0.00     0.151 C 
ENDROOT
BRANCH   5   7
HETATM    7  C9  UNL     1      38.192  64.427  38.010  1.00  0.00     0.130 C 
BRANCH   7   8
HETATM    8  C10 UNL     1      38.904  64.281  36.678  1.00  0.00     0.062 C 
BRANCH   8   9
HETATM    9  C11 UNL     1      38.618  65.369  35.737  1.00  0.00    -0.003 A 
HETATM   10  C12 UNL     1      39.412  66.484  35.578  1.00  0.00     0.018 A 
HETATM   11  C14 UNL     1      39.089  67.511  34.683  1.00  0.00     0.058 A 
HETATM   12  C15 UNL     1      37.945  67.401  33.941  1.00  0.00     0.158 A 
HETATM   13  F3  UNL     1      37.620  68.388  33.071  1.00  0.00    -0.203 F 
HETATM   14  C16 UNL     1      37.121  66.298  34.069  1.00  0.00     0.193 A 
HETATM   15  F4  UNL     1      36.005  66.246  33.309  1.00  0.00    -0.200 F 
HETATM   16  C17 UNL     1      37.461  65.315  34.948  1.00  0.00     0.165 A 
HETATM   17  F5  UNL     1      36.658  64.238  35.075  1.00  0.00    -0.202 F 
BRANCH  10  18
HETATM   18  C13 UNL     1      40.659  66.641  36.328  1.00  0.00     0.387 C 
HETATM   19  F1  UNL     1      40.643  67.776  37.137  1.00  0.00    -0.209 F 
HETATM   20  F2  UNL     1      41.672  66.877  35.394  1.00  0.00    -0.209 F 
ENDBRANCH  10  18
ENDBRANCH   8   9
ENDBRANCH   7   8
ENDBRANCH   5   7
BRANCH   1  21
HETATM   21  N1  UNL     1      41.343  66.750  41.000  1.00  0.00    -0.330 N 
HETATM   22  C5  UNL     1      41.827  68.080  40.876  1.00  0.00     0.361 C 
HETATM   23  O2  UNL     1      41.811  68.586  39.724  1.00  0.00    -0.238 OA
ATOM     24  H1  UNL     1      41.351  66.330  41.929  1.00  0.00     0.165 HD
BRANCH  22  25
HETATM   25  O1  UNL     1      42.300  68.828  41.918  1.00  0.00    -0.294 OA
BRANCH  25  26
HETATM   26  C2  UNL     1      43.555  68.642  42.540  1.00  0.00     0.061 C 
HETATM   27  C1  UNL     1      44.158  70.016  42.771  1.00  0.00     0.046 C 
HETATM   28  C3  UNL     1      43.477  67.882  43.824  1.00  0.00     0.046 C 
HETATM   29  C4  UNL     1      44.524  67.896  41.615  1.00  0.00     0.046 C 
ENDBRANCH  25  26
ENDBRANCH  22  25
ENDBRANCH   1  21
TORSDOF 7
ENDMDL
MODEL 3
REMARK VINA RESULT: -8.516554946      1.851      2.559
REMARK  7 active torsions:
REMARK  status: ('A' for Active; 'I' for Inactive)
REMARK    1  A    between atoms: C2_2  and  O1_5 
REMARK    2  A    between atoms: O1_5  and  C5_6 
REMARK       I    between atoms: C5_6  and  N1_8 
REMARK    3  A    between atoms: N1_8  and  C6_10 
REMARK    4  A    between atoms: N2_14  and  C9_15 
REMARK    5  A    between atoms: C9_15  and  C10_16 
REMARK    6  A    between atoms: C10_16  and  C11_17 
REMARK    7  A    between atoms: C12_18  and  C13_19 
ROOT
HETATM    1  C6  UNL     1      40.489  66.058  39.926  1.00  0.00     0.113 C 
HETATM    2  C7  UNL     1      40.677  64.567  40.180  1.00  0.00     0.129 C 
HETATM    3  C8  UNL     1      39.467  63.923  39.627  1.00  0.00     0.221 C 
HETATM    4  O3  UNL     1      39.273  62.681  39.631  1.00  0.00    -0.273 OA
HETATM    5  N2  UNL     1      38.638  64.969  39.125  1.00  0.00    -0.350 N 
HETATM    6  C18 UNL     1      38.986  66.211  39.838  1.00  0.00     0.151 C 
ENDROOT
BRANCH   5   7
HETATM    7  C9  UNL     1      37.646  64.781  38.091  1.00  0.00     0.130 C 
BRANCH   7   8
HETATM    8  C10 UNL     1      38.279  64.323  36.791  1.00  0.00     0.062 C 
BRANCH   8   9
HETATM    9  C11 UNL     1      38.676  65.427  35.911  1.00  0.00    -0.003 A 
HETATM   10  C12 UNL     1      37.894  65.923  34.890  1.00  0.00     0.018 A 
HETATM   11  C14 UNL     1      38.322  66.964  34.058  1.00  0.00     0.058 A 
HETATM   12  C15 UNL     1      39.560  67.507  34.267  1.00  0.00     0.158 A 
HETATM   13  F3  UNL     1      39.987  68.515  33.469  1.00  0.00    -0.203 F 
HETATM   14  C16 UNL     1      40.376  67.040  35.281  1.00  0.00     0.193 A 
HETATM   15  F4  UNL     1      41.588  67.616  35.439  1.00  0.00    -0.200 F 
HETATM   16  C17 UNL     1      39.932  66.025  36.074  1.00  0.00     0.165 A 
HETATM   17  F5  UNL     1      40.728  65.567  37.063  1.00  0.00    -0.202 F 
BRANCH  10  18
HETATM   18  C13 UNL     1      36.552  65.397  34.638  1.00  0.00     0.387 C 
HETATM   19  F1  UNL     1      36.584  64.222  33.889  1.00  0.00    -0.209 F 
HETATM   20  F2  UNL     1      35.894  66.325  33.826  1.00  0.00    -0.209 F 
ENDBRANCH  10  18
ENDBRANCH   8   9
ENDBRANCH   7   8
ENDBRANCH   5   7
BRANCH   1  21
HETATM   21  N1  UNL     1      41.087  66.779  40.995  1.00  0.00    -0.330 N 
HETATM   22  C5  UNL     1      41.637  68.084  40.888  1.00  0.00     0.361 C 
HETATM   23  O2  UNL     1      41.584  68.633  39.757  1.00  0.00    -0.238 OA
ATOM     24  H1  UNL     1      41.124  66.325  41.908  1.00  0.00     0.165 HD
BRANCH  22  25
HETATM   25  O1  UNL     1      42.210  68.767  41.926  1.00  0.00    -0.294 OA
BRANCH  25  26
HETATM   26  C2  UNL     1      43.510  68.532  42.426  1.00  0.00     0.061 C 
HETATM   27  C1  UNL     1      44.158  69.885  42.664  1.00  0.00     0.046 C 
HETATM   28  C3  UNL     1      43.529  67.715  43.676  1.00  0.00     0.046 C 
HETATM   29  C4  UNL     1      44.379  67.814  41.387  1.00  0.00     0.046 C 
ENDBRANCH  25  26
ENDBRANCH  22  25
ENDBRANCH   1  21
TORSDOF 7
ENDMDL
MODEL 4
REMARK VINA RESULT: -8.488994401      1.783      3.061
REMARK  7 active torsions:
REMARK  status: ('A' for Active; 'I' for Inactive)
REMARK    1  A    between atoms: C2_2  and  O1_5 
REMARK    2  A    between atoms: O1_5  and  C5_6 
REMARK       I    between atoms: C5_6  and  N1_8 
REMARK    3  A    between atoms: N1_8  and  C6_10 
REMARK    4  A    between atoms: N2_14  and  C9_15 
REMARK    5  A    between atoms: C9_15  and  C10_16 
REMARK    6  A    between atoms: C10_16  and  C11_17 
REMARK    7  A    between atoms: C12_18  and  C13_19 
ROOT
HETATM    1  C6  UNL     1      39.395  66.986  40.948  1.00  0.00     0.113 C 
HETATM    2  C7  UNL     1      38.268  67.798  40.322  1.00  0.00     0.129 C 
HETATM    3  C8  UNL     1      37.870  67.045  39.114  1.00  0.00     0.221 C 
HETATM    4  O3  UNL     1      36.941  67.398  38.345  1.00  0.00    -0.273 OA
HETATM    5  N2  UNL     1      38.726  65.906  39.041  1.00  0.00    -0.350 N 
HETATM    6  C18 UNL     1      39.964  66.217  39.776  1.00  0.00     0.151 C 
ENDROOT
BRANCH   5   7
HETATM    7  C9  UNL     1      38.380  64.685  38.349  1.00  0.00     0.130 C 
BRANCH   7   8
HETATM    8  C10 UNL     1      39.223  64.497  37.102  1.00  0.00     0.062 C 
BRANCH   8   9
HETATM    9  C11 UNL     1      38.885  65.427  36.019  1.00  0.00    -0.003 A 
HETATM   10  C12 UNL     1      39.639  66.532  35.684  1.00  0.00     0.018 A 
HETATM   11  C14 UNL     1      39.268  67.407  34.657  1.00  0.00     0.058 A 
HETATM   12  C15 UNL     1      38.116  67.155  33.962  1.00  0.00     0.158 A 
HETATM   13  F3  UNL     1      37.744  67.994  32.966  1.00  0.00    -0.203 F 
HETATM   14  C16 UNL     1      37.332  66.057  34.265  1.00  0.00     0.193 A 
HETATM   15  F4  UNL     1      36.207  65.860  33.543  1.00  0.00    -0.200 F 
HETATM   16  C17 UNL     1      37.719  65.223  35.270  1.00  0.00     0.165 A 
HETATM   17  F5  UNL     1      36.955  64.152  35.567  1.00  0.00    -0.202 F 
BRANCH  10  18
HETATM   18  C13 UNL     1      40.891  66.835  36.378  1.00  0.00     0.387 C 
HETATM   19  F1  UNL     1      40.791  67.984  37.161  1.00  0.00    -0.209 F 
HETATM   20  F2  UNL     1      41.837  67.147  35.398  1.00  0.00    -0.209 F 
ENDBRANCH  10  18
ENDBRANCH   8   9
ENDBRANCH   7   8
ENDBRANCH   5   7
BRANCH   1  21
HETATM   21  N1  UNL     1      40.314  67.881  41.560  1.00  0.00    -0.330 N 
HETATM   22  C5  UNL     1      41.340  67.501  42.466  1.00  0.00     0.361 C 
HETATM   23  O2  UNL     1      41.431  66.276  42.739  1.00  0.00    -0.238 OA
ATOM     24  H1  UNL     1      40.231  68.872  41.331  1.00  0.00     0.165 HD
BRANCH  22  25
HETATM   25  O1  UNL     1      42.218  68.374  43.047  1.00  0.00    -0.294 OA
BRANCH  25  26
HETATM   26  C2  UNL     1      43.524  68.637  42.578  1.00  0.00     0.061 C 
HETATM   27  C1  UNL     1      43.849  70.081  42.918  1.00  0.00     0.046 C 
HETATM   28  C3  UNL     1      44.557  67.719  43.148  1.00  0.00     0.046 C 
HETATM   29  C4  UNL     1      43.594  68.527  41.051  1.00  0.00     0.046 C 
ENDBRANCH  25  26
ENDBRANCH  22  25
ENDBRANCH   1  21
TORSDOF 7
ENDMDL
MODEL 5
REMARK VINA RESULT: -8.451768290      2.663      4.211
REMARK  7 active torsions:
REMARK  status: ('A' for Active; 'I' for Inactive)
REMARK    1  A    between atoms: C2_2  and  O1_5 
REMARK    2  A    between atoms: O1_5  and  C5_6 
REMARK       I    between atoms: C5_6  and  N1_8 
REMARK    3  A    between atoms: N1_8  and  C6_10 
REMARK    4  A    between atoms: N2_14  and  C9_15 
REMARK    5  A    between atoms: C9_15  and  C10_16 
REMARK    6  A    between atoms: C10_16  and  C11_17 
REMARK    7  A    between atoms: C12_18  and  C13_19 
ROOT
HETATM    1  C6  UNL     1      40.408  67.527  38.788  1.00  0.00     0.113 C 
HETATM    2  C7  UNL     1      40.137  68.309  37.508  1.00  0.00     0.129 C 
HETATM    3  C8  UNL     1      40.031  67.288  36.444  1.00  0.00     0.221 C 
HETATM    4  O3  UNL     1      39.785  67.556  35.241  1.00  0.00    -0.273 OA
HETATM    5  N2  UNL     1      40.256  66.024  37.065  1.00  0.00    -0.350 N 
HETATM    6  C18 UNL     1      41.045  66.250  38.289  1.00  0.00     0.151 C 
ENDROOT
BRANCH   5   7
HETATM    7  C9  UNL     1      39.768  64.771  36.536  1.00  0.00     0.130 C 
BRANCH   7   8
HETATM    8  C10 UNL     1      38.363  64.473  37.025  1.00  0.00     0.062 C 
BRANCH   8   9
HETATM    9  C11 UNL     1      38.140  64.837  38.428  1.00  0.00    -0.003 A 
HETATM   10  C12 UNL     1      38.600  64.102  39.500  1.00  0.00     0.018 A 
HETATM   11  C14 UNL     1      38.345  64.473  40.826  1.00  0.00     0.058 A 
HETATM   12  C15 UNL     1      37.615  65.606  41.063  1.00  0.00     0.158 A 
HETATM   13  F3  UNL     1      37.361  65.977  42.341  1.00  0.00    -0.203 F 
HETATM   14  C16 UNL     1      37.136  66.372  40.016  1.00  0.00     0.193 A 
HETATM   15  F4  UNL     1      36.422  67.480  40.313  1.00  0.00    -0.200 F 
HETATM   16  C17 UNL     1      37.400  65.985  38.737  1.00  0.00     0.165 A 
HETATM   17  F5  UNL     1      36.933  66.731  37.714  1.00  0.00    -0.202 F 
BRANCH  10  18
HETATM   18  C13 UNL     1      39.406  62.897  39.304  1.00  0.00     0.387 C 
HETATM   19  F1  UNL     1      39.221  61.971  40.330  1.00  0.00    -0.209 F 
HETATM   20  F2  UNL     1      40.747  63.280  39.402  1.00  0.00    -0.209 F 
ENDBRANCH  10  18
ENDBRANCH   8   9
ENDBRANCH   7   8
ENDBRANCH   5   7
BRANCH   1  21
HETATM   21  N1  UNL     1      41.247  68.309  39.627  1.00  0.00    -0.330 N 
HETATM   22  C5  UNL     1      41.401  68.121  41.027  1.00  0.00     0.361 C 
HETATM   23  O2  UNL     1      40.739  67.188  41.551  1.00  0.00    -0.238 OA
ATOM     24  H1  UNL     1      41.780  69.062  39.192  1.00  0.00     0.165 HD
BRANCH  22  25
HETATM   25  O1  UNL     1      42.213  68.881  41.823  1.00  0.00    -0.294 OA
BRANCH  25  26
HETATM   26  C2  UNL     1      43.524  68.526  42.212  1.00  0.00     0.061 C 
HETATM   27  C1  UNL     1      44.273  69.811  42.517  1.00  0.00     0.046 C 
HETATM   28  C3  UNL     1      43.567  67.602  43.385  1.00  0.00     0.046 C 
HETATM   29  C4  UNL     1      44.277  67.851  41.059  1.00  0.00     0.046 C 
ENDBRANCH  25  26
ENDBRANCH  22  25
ENDBRANCH   1  21
TORSDOF 7
ENDMDL
