MODEL 1
REMARK VINA RESULT: -6.601817247      0.000      0.000
REMARK  4 active torsions:
REMARK  status: ('A' for Active; 'I' for Inactive)
REMARK       I    between atoms: C2_4  and  N2_5 
REMARK       I    between atoms: C2_4  and  N7_21 
REMARK    1  A    between atoms: C3_7  and  N3_9 
REMARK    2  A    between atoms: N7_21  and  C7_23 
REMARK    3  A    between atoms: C7_23  and  C8_24 
REMARK    4  A    between atoms: C8_24  and  C9_25 
ROOT
HETATM    1  C1  UNL     1      -1.985 -18.427  12.455  1.00  0.00     0.165 C 
HETATM    2  N1  UNL     1      -2.283 -17.166  11.844  1.00  0.00    -0.231 N 
ATOM      3  H1  UNL     1      -2.225 -17.114  10.827  1.00  0.00     0.177 HD
HETATM    4  C2  UNL     1      -2.618 -16.098  12.470  1.00  0.00     0.676 C 
HETATM    5  N2  UNL     1      -2.710 -16.125  13.877  1.00  0.00    -0.150 N 
ATOM      6  H2  UNL     1      -1.912 -16.423  14.436  1.00  0.00     0.188 HD
HETATM    7  C3  UNL     1      -3.804 -15.772  14.451  1.00  0.00     0.297 C 
HETATM    8  F1  UNL     1      -4.841 -15.384  13.672  1.00  0.00    -0.163 F 
HETATM    9  N7  UNL     1      -2.884 -14.918  11.743  1.00  0.00    -0.226 N 
ATOM     10  H7  UNL     1      -3.260 -14.108  12.233  1.00  0.00     0.177 HD
ENDROOT
BRANCH   7  11
HETATM   11  N3  UNL     1      -3.952 -15.774  15.870  1.00  0.00    -0.235 N 
HETATM   12  C4  UNL     1      -5.170 -16.188  16.546  1.00  0.00     0.191 C 
HETATM   13  C5  UNL     1      -5.591 -15.006  17.434  1.00  0.00     0.191 C 
HETATM   14 BR1  UNL     1      -7.328 -15.270  18.196  1.00  0.00    -0.066 Br
HETATM   15  N4  UNL     1      -4.555 -14.862  18.436  1.00  0.00    -0.210 N 
HETATM   16  C6  UNL     1      -3.199 -14.893  18.017  1.00  0.00     0.687 C 
ATOM     17  H4  UNL     1      -4.794 -14.741  19.419  1.00  0.00     0.179 HD
HETATM   18  N5  UNL     1      -2.226 -14.504  18.803  1.00  0.00    -0.234 N 
HETATM   19  N6  UNL     1      -2.906 -15.362  16.698  1.00  0.00    -0.127 N 
ATOM     20  H52 UNL     1      -2.434 -14.169  19.744  1.00  0.00     0.174 HD
ATOM     21  H51 UNL     1      -1.251 -14.526  18.502  1.00  0.00     0.174 HD
ATOM     22  H6  UNL     1      -1.942 -15.395  16.366  1.00  0.00     0.206 HD
ENDBRANCH   7  11
BRANCH   9  23
HETATM   23  C7  UNL     1      -2.636 -14.827  10.317  1.00  0.00     0.139 C 
BRANCH  23  24
HETATM   24  C8  UNL     1      -1.359 -14.082  10.000  1.00  0.00     0.031 C 
BRANCH  24  25
HETATM   25  C9  UNL     1      -0.415 -15.107   9.381  1.00  0.00     0.086 C 
HETATM   26 BR2  UNL     1       0.935 -15.654  10.666  1.00  0.00    -0.096 Br
ENDBRANCH  24  25
ENDBRANCH  23  24
ENDBRANCH   9  23
TORSDOF 4
ENDMDL
MODEL 2
REMARK VINA RESULT: -6.553198537      1.538      1.595
REMARK  4 active torsions:
REMARK  status: ('A' for Active; 'I' for Inactive)
REMARK       I    between atoms: C2_4  and  N2_5 
REMARK       I    between atoms: C2_4  and  N7_21 
REMARK    1  A    between atoms: C3_7  and  N3_9 
REMARK    2  A    between atoms: N7_21  and  C7_23 
REMARK    3  A    between atoms: C7_23  and  C8_24 
REMARK    4  A    between atoms: C8_24  and  C9_25 
ROOT
HETATM    1  C1  UNL     1      -2.005 -18.412  12.455  1.00  0.00     0.165 C 
HETATM    2  N1  UNL     1      -2.328 -17.158  11.842  1.00  0.00    -0.231 N 
ATOM      3  H1  UNL     1      -2.279 -17.109  10.824  1.00  0.00     0.177 HD
HETATM    4  C2  UNL     1      -2.672 -16.093  12.467  1.00  0.00     0.676 C 
HETATM    5  N2  UNL     1      -2.751 -16.116  13.875  1.00  0.00    -0.150 N 
ATOM      6  H2  UNL     1      -1.942 -16.400  14.428  1.00  0.00     0.188 HD
HETATM    7  C3  UNL     1      -3.844 -15.777  14.459  1.00  0.00     0.297 C 
HETATM    8  F1  UNL     1      -4.894 -15.407  13.687  1.00  0.00    -0.163 F 
HETATM    9  N7  UNL     1      -2.962 -14.920  11.738  1.00  0.00    -0.226 N 
ATOM     10  H7  UNL     1      -3.346 -14.113  12.229  1.00  0.00     0.177 HD
ENDROOT
BRANCH   7  11
HETATM   11  N3  UNL     1      -3.978 -15.775  15.879  1.00  0.00    -0.235 N 
HETATM   12  C4  UNL     1      -5.190 -16.187  16.567  1.00  0.00     0.191 C 
HETATM   13  C5  UNL     1      -5.602 -15.002  17.456  1.00  0.00     0.191 C 
HETATM   14 BR1  UNL     1      -7.332 -15.263  18.235  1.00  0.00    -0.066 Br
HETATM   15  N4  UNL     1      -4.556 -14.857  18.448  1.00  0.00    -0.210 N 
HETATM   16  C6  UNL     1      -3.204 -14.890  18.016  1.00  0.00     0.687 C 
ATOM     17  H4  UNL     1      -4.785 -14.734  19.434  1.00  0.00     0.179 HD
HETATM   18  N5  UNL     1      -2.223 -14.500  18.792  1.00  0.00    -0.234 N 
HETATM   19  N6  UNL     1      -2.924 -15.362  16.696  1.00  0.00    -0.127 N 
ATOM     20  H52 UNL     1      -2.422 -14.163  19.734  1.00  0.00     0.174 HD
ATOM     21  H51 UNL     1      -1.251 -14.524  18.482  1.00  0.00     0.174 HD
ATOM     22  H6  UNL     1      -1.964 -15.397  16.354  1.00  0.00     0.206 HD
ENDBRANCH   7  11
BRANCH   9  23
HETATM   23  C7  UNL     1      -2.729 -14.831  10.310  1.00  0.00     0.139 C 
BRANCH  23  24
HETATM   24  C8  UNL     1      -1.887 -13.632   9.937  1.00  0.00     0.031 C 
BRANCH  24  25
HETATM   25  C9  UNL     1      -2.348 -13.209   8.546  1.00  0.00     0.086 C 
HETATM   26 BR2  UNL     1      -3.516 -11.661   8.655  1.00  0.00    -0.096 Br
ENDBRANCH  24  25
ENDBRANCH  23  24
ENDBRANCH   9  23
TORSDOF 4
ENDMDL
MODEL 3
REMARK VINA RESULT: -6.010631022      3.409      8.023
REMARK  4 active torsions:
REMARK  status: ('A' for Active; 'I' for Inactive)
REMARK       I    between atoms: C2_4  and  N2_5 
REMARK       I    between atoms: C2_4  and  N7_21 
REMARK    1  A    between atoms: C3_7  and  N3_9 
REMARK    2  A    between atoms: N7_21  and  C7_23 
REMARK    3  A    between atoms: C7_23  and  C8_24 
REMARK    4  A    between atoms: C8_24  and  C9_25 
ROOT
HETATM    1  C1  UNL     1      -2.389 -14.147  10.268  1.00  0.00     0.165 C 
HETATM    2  N1  UNL     1      -2.755 -14.872  11.448  1.00  0.00    -0.231 N 
ATOM      3  H1  UNL     1      -3.734 -14.841  11.731  1.00  0.00     0.177 HD
HETATM    4  C2  UNL     1      -1.952 -15.557  12.177  1.00  0.00     0.676 C 
HETATM    5  N2  UNL     1      -0.589 -15.627  11.822  1.00  0.00    -0.150 N 
ATOM      6  H2  UNL     1      -0.047 -14.771  11.705  1.00  0.00     0.188 HD
HETATM    7  C3  UNL     1      -0.033 -16.771  11.646  1.00  0.00     0.297 C 
HETATM    8  F1  UNL     1      -0.789 -17.883  11.810  1.00  0.00    -0.163 F 
HETATM    9  N7  UNL     1      -2.444 -16.225  13.319  1.00  0.00    -0.226 N 
ATOM     10  H7  UNL     1      -1.829 -16.859  13.826  1.00  0.00     0.177 HD
ENDROOT
BRANCH   7  11
HETATM   11  N3  UNL     1       1.343 -16.901  11.292  1.00  0.00    -0.235 N 
HETATM   12  C4  UNL     1       2.107 -15.844  10.653  1.00  0.00     0.191 C 
HETATM   13  C5  UNL     1       2.677 -16.449   9.359  1.00  0.00     0.191 C 
HETATM   14 BR1  UNL     1       3.490 -15.117   8.248  1.00  0.00    -0.066 Br
HETATM   15  N4  UNL     1       3.606 -17.481   9.769  1.00  0.00    -0.210 N 
HETATM   16  C6  UNL     1       3.200 -18.397  10.776  1.00  0.00     0.687 C 
ATOM     17  H4  UNL     1       4.531 -17.549   9.345  1.00  0.00     0.179 HD
HETATM   18  N5  UNL     1       3.860 -19.505  11.006  1.00  0.00    -0.234 N 
HETATM   19  N6  UNL     1       2.038 -18.086  11.547  1.00  0.00    -0.127 N 
ATOM     20  H52 UNL     1       4.690 -19.727  10.455  1.00  0.00     0.174 HD
ATOM     21  H51 UNL     1       3.569 -20.163  11.729  1.00  0.00     0.174 HD
ATOM     22  H6  UNL     1       1.719 -18.723  12.277  1.00  0.00     0.206 HD
ENDBRANCH   7  11
BRANCH   9  23
HETATM   23  C7  UNL     1      -3.802 -16.032  13.789  1.00  0.00     0.139 C 
BRANCH  23  24
HETATM   24  C8  UNL     1      -3.870 -15.830  15.287  1.00  0.00     0.031 C 
BRANCH  24  25
HETATM   25  C9  UNL     1      -5.348 -15.669  15.623  1.00  0.00     0.086 C 
HETATM   26 BR2  UNL     1      -5.584 -15.351  17.525  1.00  0.00    -0.096 Br
ENDBRANCH  24  25
ENDBRANCH  23  24
ENDBRANCH   9  23
TORSDOF 4
ENDMDL
MODEL 4
REMARK VINA RESULT: -5.891009059      4.156      8.269
REMARK  4 active torsions:
REMARK  status: ('A' for Active; 'I' for Inactive)
REMARK       I    between atoms: C2_4  and  N2_5 
REMARK       I    between atoms: C2_4  and  N7_21 
REMARK    1  A    between atoms: C3_7  and  N3_9 
REMARK    2  A    between atoms: N7_21  and  C7_23 
REMARK    3  A    between atoms: C7_23  and  C8_24 
REMARK    4  A    between atoms: C8_24  and  C9_25 
ROOT
HETATM    1  C1  UNL     1       0.498 -16.510  11.603  1.00  0.00     0.165 C 
HETATM    2  N1  UNL     1      -0.802 -16.412  12.195  1.00  0.00    -0.231 N 
ATOM      3  H1  UNL     1      -0.921 -15.747  12.958  1.00  0.00     0.177 HD
HETATM    4  C2  UNL     1      -1.830 -17.095  11.845  1.00  0.00     0.676 C 
HETATM    5  N2  UNL     1      -1.712 -18.029  10.794  1.00  0.00    -0.150 N 
ATOM      6  H2  UNL     1      -1.009 -18.766  10.843  1.00  0.00     0.188 HD
HETATM    7  C3  UNL     1      -2.491 -17.947   9.776  1.00  0.00     0.297 C 
HETATM    8  F1  UNL     1      -3.409 -16.952   9.751  1.00  0.00    -0.163 F 
HETATM    9  N7  UNL     1      -3.057 -16.902  12.515  1.00  0.00    -0.226 N 
ATOM     10  H7  UNL     1      -3.895 -17.360  12.158  1.00  0.00     0.177 HD
ENDROOT
BRANCH   7  11
HETATM   11  N3  UNL     1      -2.420 -18.867   8.689  1.00  0.00    -0.235 N 
HETATM   12  C4  UNL     1      -3.408 -18.925   7.625  1.00  0.00     0.191 C 
HETATM   13  C5  UNL     1      -3.928 -20.371   7.601  1.00  0.00     0.191 C 
HETATM   14 BR1  UNL     1      -5.436 -20.567   6.437  1.00  0.00    -0.066 Br
HETATM   15  N4  UNL     1      -2.806 -21.199   7.209  1.00  0.00    -0.210 N 
HETATM   16  C6  UNL     1      -1.552 -20.983   7.840  1.00  0.00     0.687 C 
ATOM     17  H4  UNL     1      -2.913 -21.921   6.497  1.00  0.00     0.179 HD
HETATM   18  N5  UNL     1      -0.575 -21.850   7.745  1.00  0.00    -0.234 N 
HETATM   19  N6  UNL     1      -1.370 -19.783   8.595  1.00  0.00    -0.127 N 
ATOM     20  H52 UNL     1      -0.704 -22.707   7.206  1.00  0.00     0.174 HD
ATOM     21  H51 UNL     1       0.326 -21.695   8.198  1.00  0.00     0.174 HD
ATOM     22  H6  UNL     1      -0.482 -19.599   9.062  1.00  0.00     0.206 HD
ENDBRANCH   7  11
BRANCH   9  23
HETATM   23  C7  UNL     1      -3.158 -16.071  13.699  1.00  0.00     0.139 C 
BRANCH  23  24
HETATM   24  C8  UNL     1      -4.571 -15.994  14.231  1.00  0.00     0.031 C 
BRANCH  24  25
HETATM   25  C9  UNL     1      -4.445 -15.834  15.742  1.00  0.00     0.086 C 
HETATM   26 BR2  UNL     1      -6.075 -15.085  16.487  1.00  0.00    -0.096 Br
ENDBRANCH  24  25
ENDBRANCH  23  24
ENDBRANCH   9  23
TORSDOF 4
ENDMDL
MODEL 5
REMARK VINA RESULT: -5.832418692      3.431      8.069
REMARK  4 active torsions:
REMARK  status: ('A' for Active; 'I' for Inactive)
REMARK       I    between atoms: C2_4  and  N2_5 
REMARK       I    between atoms: C2_4  and  N7_21 
REMARK    1  A    between atoms: C3_7  and  N3_9 
REMARK    2  A    between atoms: N7_21  and  C7_23 
REMARK    3  A    between atoms: C7_23  and  C8_24 
REMARK    4  A    between atoms: C8_24  and  C9_25 
ROOT
HETATM    1  C1  UNL     1      -2.429 -17.536   9.257  1.00  0.00     0.165 C 
HETATM    2  N1  UNL     1      -2.799 -17.043  10.549  1.00  0.00    -0.231 N 
ATOM      3  H1  UNL     1      -2.949 -17.730  11.287  1.00  0.00     0.177 HD
HETATM    4  C2  UNL     1      -2.958 -15.807  10.854  1.00  0.00     0.676 C 
HETATM    5  N2  UNL     1      -2.762 -14.822   9.864  1.00  0.00    -0.150 N 
ATOM      6  H2  UNL     1      -3.286 -14.865   8.990  1.00  0.00     0.188 HD
HETATM    7  C3  UNL     1      -1.922 -13.872  10.066  1.00  0.00     0.297 C 
HETATM    8  F1  UNL     1      -1.247 -13.853  11.240  1.00  0.00    -0.163 F 
HETATM    9  N7  UNL     1      -3.328 -15.456  12.170  1.00  0.00    -0.226 N 
ATOM     10  H7  UNL     1      -3.340 -14.472  12.436  1.00  0.00     0.177 HD
ENDROOT
BRANCH   7  11
HETATM   11  N3  UNL     1      -1.688 -12.846   9.103  1.00  0.00    -0.235 N 
HETATM   12  C4  UNL     1      -1.318 -13.116   7.723  1.00  0.00     0.191 C 
HETATM   13  C5  UNL     1      -0.002 -12.361   7.477  1.00  0.00     0.191 C 
HETATM   14 BR1  UNL     1       0.778 -12.820   5.789  1.00  0.00    -0.066 Br
HETATM   15  N4  UNL     1      -0.317 -10.951   7.585  1.00  0.00    -0.210 N 
HETATM   16  C6  UNL     1      -1.105 -10.515   8.682  1.00  0.00     0.687 C 
ATOM     17  H4  UNL     1       0.020 -10.286   6.889  1.00  0.00     0.179 HD
HETATM   18  N5  UNL     1      -1.204  -9.248   8.999  1.00  0.00    -0.234 N 
HETATM   19  N6  UNL     1      -1.801 -11.499   9.451  1.00  0.00    -0.127 N 
ATOM     20  H52 UNL     1      -0.708  -8.545   8.450  1.00  0.00     0.174 HD
ATOM     21  H51 UNL     1      -1.771  -8.934   9.787  1.00  0.00     0.174 HD
ATOM     22  H6  UNL     1      -2.375 -11.219  10.246  1.00  0.00     0.206 HD
ENDBRANCH   7  11
BRANCH   9  23
HETATM   23  C7  UNL     1      -3.693 -16.456  13.154  1.00  0.00     0.139 C 
BRANCH  23  24
HETATM   24  C8  UNL     1      -4.862 -16.024  14.010  1.00  0.00     0.031 C 
BRANCH  24  25
HETATM   25  C9  UNL     1      -4.303 -15.819  15.414  1.00  0.00     0.086 C 
HETATM   26 BR2  UNL     1      -5.689 -15.172  16.612  1.00  0.00    -0.096 Br
ENDBRANCH  24  25
ENDBRANCH  23  24
ENDBRANCH   9  23
TORSDOF 4
ENDMDL
