MODEL 1
REMARK VINA RESULT: -6.569899841      0.000      0.000
REMARK  10 active torsions:
REMARK  status: ('A' for Active; 'I' for Inactive)
REMARK    1  A    between atoms: C3_4  and  C4_5 
REMARK    2  A    between atoms: C4_5  and  O1_6 
REMARK    3  A    between atoms: O1_6  and  C5_7 
REMARK    4  A    between atoms: C5_7  and  C6_8 
REMARK    5  A    between atoms: C6_8  and  N2_9 
REMARK    6  A    between atoms: N2_9  and  C7_11 
REMARK    7  A    between atoms: C7_11  and  N3_13 
REMARK    8  A    between atoms: N3_13  and  C8_15 
REMARK    9  A    between atoms: C8_15  and  C9_16 
REMARK   10  A    between atoms: C9_16  and  O2_17 
ROOT
HETATM    1  C5  UNL     1      -1.696  37.555 102.719  1.00  0.00     0.187 C 
ENDROOT
BRANCH   1   2
HETATM    2  O1  UNL     1      -2.742  37.325 101.891  1.00  0.00    -0.389 OA
BRANCH   2   3
HETATM    3  C4  UNL     1      -2.772  36.078 101.332  1.00  0.00     0.173 C 
BRANCH   3   4
HETATM    4  C3  UNL     1      -2.804  36.167  99.790  1.00  0.00     0.038 C 
HETATM    5  C2  UNL     1      -1.682  35.368  99.221  1.00  0.00     0.278 C 
HETATM    6  N1  UNL     1      -2.105  34.564  98.109  1.00  0.00     0.085 N 
HETATM    7  C1  UNL     1      -1.041  34.095  97.262  1.00  0.00     0.309 C 
HETATM    8  C14 UNL     1      -3.062  35.258  97.268  1.00  0.00     0.280 C 
HETATM    9  C11 UNL     1      -4.371  35.338  97.973  1.00  0.00    -0.021 C 
HETATM   10  C10 UNL     1      -4.164  35.635  99.414  1.00  0.00     0.019 C 
HETATM   11  C12 UNL     1      -5.247  36.421  97.372  1.00  0.00     0.016 C 
HETATM   12  C13 UNL     1      -5.155  34.045  97.839  1.00  0.00     0.016 C 
ENDBRANCH   3   4
ENDBRANCH   2   3
ENDBRANCH   1   2
BRANCH   1  13
HETATM   13  C6  UNL     1      -0.838  36.357 103.066  1.00  0.00     0.148 C 
BRANCH  13  14
HETATM   14  N2  UNL     1       0.511  36.771 103.293  1.00  0.00    -0.365 N 
ATOM     15  H2  UNL     1       0.573  37.777 103.451  1.00  0.00     0.161 HD
BRANCH  14  16
HETATM   16  C7  UNL     1       1.740  36.175 103.355  1.00  0.00     0.167 C 
HETATM   17  S1  UNL     1       2.929  37.064 102.466  1.00  0.00    -0.041 SA
BRANCH  16  18
HETATM   18  N3  UNL     1       2.196  35.037 103.977  1.00  0.00    -0.365 N 
ATOM     19  H3  UNL     1       2.540  35.185 104.926  1.00  0.00     0.161 HD
BRANCH  18  20
HETATM   20  C8  UNL     1       2.272  33.692 103.529  1.00  0.00     0.148 C 
BRANCH  20  21
HETATM   21  C9  UNL     1       0.825  33.168 103.459  1.00  0.00     0.183 C 
BRANCH  21  22
HETATM   22  O2  UNL     1       0.175  33.373 104.651  1.00  0.00    -0.399 OA
ATOM     23  H2  UNL     1       0.437  32.724 105.293  1.00  0.00     0.209 HD
ENDBRANCH  21  22
ENDBRANCH  20  21
ENDBRANCH  18  20
ENDBRANCH  16  18
ENDBRANCH  14  16
ENDBRANCH  13  14
ENDBRANCH   1  13
TORSDOF 10
ENDMDL
MODEL 2
REMARK VINA RESULT: -6.564155708      2.503      3.236
REMARK  10 active torsions:
REMARK  status: ('A' for Active; 'I' for Inactive)
REMARK    1  A    between atoms: C3_4  and  C4_5 
REMARK    2  A    between atoms: C4_5  and  O1_6 
REMARK    3  A    between atoms: O1_6  and  C5_7 
REMARK    4  A    between atoms: C5_7  and  C6_8 
REMARK    5  A    between atoms: C6_8  and  N2_9 
REMARK    6  A    between atoms: N2_9  and  C7_11 
REMARK    7  A    between atoms: C7_11  and  N3_13 
REMARK    8  A    between atoms: N3_13  and  C8_15 
REMARK    9  A    between atoms: C8_15  and  C9_16 
REMARK   10  A    between atoms: C9_16  and  O2_17 
ROOT
HETATM    1  C5  UNL     1      -2.019  37.719 102.225  1.00  0.00     0.187 C 
ENDROOT
BRANCH   1   2
HETATM    2  O1  UNL     1      -2.952  36.889 101.703  1.00  0.00    -0.389 OA
BRANCH   2   3
HETATM    3  C4  UNL     1      -2.631  36.353 100.488  1.00  0.00     0.173 C 
BRANCH   3   4
HETATM    4  C3  UNL     1      -3.688  35.316 100.047  1.00  0.00     0.038 C 
HETATM    5  C2  UNL     1      -4.963  35.560 100.780  1.00  0.00     0.278 C 
HETATM    6  N1  UNL     1      -6.104  35.495  99.911  1.00  0.00     0.085 N 
HETATM    7  C1  UNL     1      -7.363  35.308 100.579  1.00  0.00     0.309 C 
HETATM    8  C14 UNL     1      -5.973  34.442  98.919  1.00  0.00     0.280 C 
HETATM    9  C11 UNL     1      -4.963  34.846  97.903  1.00  0.00    -0.021 C 
HETATM   10  C10 UNL     1      -3.810  35.517  98.557  1.00  0.00     0.019 C 
HETATM   11  C12 UNL     1      -4.455  33.641  97.133  1.00  0.00     0.016 C 
HETATM   12  C13 UNL     1      -5.560  35.781  96.867  1.00  0.00     0.016 C 
ENDBRANCH   3   4
ENDBRANCH   2   3
ENDBRANCH   1   2
BRANCH   1  13
HETATM   13  C6  UNL     1      -1.123  37.134 103.296  1.00  0.00     0.148 C 
BRANCH  13  14
HETATM   14  N2  UNL     1      -1.820  36.113 104.013  1.00  0.00    -0.365 N 
ATOM     15  H2  UNL     1      -2.505  36.508 104.657  1.00  0.00     0.161 HD
BRANCH  14  16
HETATM   16  C7  UNL     1      -1.812  34.747 104.064  1.00  0.00     0.167 C 
HETATM   17  S1  UNL     1      -3.415  34.097 104.098  1.00  0.00    -0.041 SA
BRANCH  16  18
HETATM   18  N3  UNL     1      -0.798  33.819 104.089  1.00  0.00    -0.365 N 
ATOM     19  H3  UNL     1      -0.701  33.326 104.976  1.00  0.00     0.161 HD
BRANCH  18  20
HETATM   20  C8  UNL     1       0.138  33.426 103.095  1.00  0.00     0.148 C 
BRANCH  20  21
HETATM   21  C9  UNL     1       1.522  33.420 103.772  1.00  0.00     0.183 C 
BRANCH  21  22
HETATM   22  O2  UNL     1       1.884  34.689 104.153  1.00  0.00    -0.399 OA
ATOM     23  H2  UNL     1       2.581  34.661 104.798  1.00  0.00     0.209 HD
ENDBRANCH  21  22
ENDBRANCH  20  21
ENDBRANCH  18  20
ENDBRANCH  16  18
ENDBRANCH  14  16
ENDBRANCH  13  14
ENDBRANCH   1  13
TORSDOF 10
ENDMDL
MODEL 3
REMARK VINA RESULT: -6.563143002      2.479      3.369
REMARK  10 active torsions:
REMARK  status: ('A' for Active; 'I' for Inactive)
REMARK    1  A    between atoms: C3_4  and  C4_5 
REMARK    2  A    between atoms: C4_5  and  O1_6 
REMARK    3  A    between atoms: O1_6  and  C5_7 
REMARK    4  A    between atoms: C5_7  and  C6_8 
REMARK    5  A    between atoms: C6_8  and  N2_9 
REMARK    6  A    between atoms: N2_9  and  C7_11 
REMARK    7  A    between atoms: C7_11  and  N3_13 
REMARK    8  A    between atoms: N3_13  and  C8_15 
REMARK    9  A    between atoms: C8_15  and  C9_16 
REMARK   10  A    between atoms: C9_16  and  O2_17 
ROOT
HETATM    1  C5  UNL     1      -1.962  37.297 102.649  1.00  0.00     0.187 C 
ENDROOT
BRANCH   1   2
HETATM    2  O1  UNL     1      -2.991  36.760 101.951  1.00  0.00    -0.389 OA
BRANCH   2   3
HETATM    3  C4  UNL     1      -2.684  36.373 100.677  1.00  0.00     0.173 C 
BRANCH   3   4
HETATM    4  C3  UNL     1      -3.712  35.349 100.149  1.00  0.00     0.038 C 
HETATM    5  C2  UNL     1      -5.009  35.533 100.861  1.00  0.00     0.278 C 
HETATM    6  N1  UNL     1      -6.126  35.502  99.959  1.00  0.00     0.085 N 
HETATM    7  C1  UNL     1      -7.400  35.259 100.581  1.00  0.00     0.309 C 
HETATM    8  C14 UNL     1      -5.953  34.510  98.912  1.00  0.00     0.280 C 
HETATM    9  C11 UNL     1      -4.924  34.987  97.948  1.00  0.00    -0.021 C 
HETATM   10  C10 UNL     1      -3.799  35.634  98.671  1.00  0.00     0.019 C 
HETATM   11  C12 UNL     1      -4.377  33.836  97.124  1.00  0.00     0.016 C 
HETATM   12  C13 UNL     1      -5.507  35.972  96.952  1.00  0.00     0.016 C 
ENDBRANCH   3   4
ENDBRANCH   2   3
ENDBRANCH   1   2
BRANCH   1  13
HETATM   13  C6  UNL     1      -0.571  36.883 102.221  1.00  0.00     0.148 C 
BRANCH  13  14
HETATM   14  N2  UNL     1      -0.099  35.821 103.052  1.00  0.00    -0.365 N 
ATOM     15  H2  UNL     1       0.664  36.127 103.655  1.00  0.00     0.161 HD
BRANCH  14  16
HETATM   16  C7  UNL     1      -0.401  34.503 103.253  1.00  0.00     0.167 C 
HETATM   17  S1  UNL     1       0.918  33.470 102.820  1.00  0.00    -0.041 SA
BRANCH  16  18
HETATM   18  N3  UNL     1      -1.522  33.861 103.725  1.00  0.00    -0.365 N 
ATOM     19  H3  UNL     1      -1.684  32.941 103.315  1.00  0.00     0.161 HD
BRANCH  18  20
HETATM   20  C8  UNL     1      -2.493  34.256 104.682  1.00  0.00     0.148 C 
BRANCH  20  21
HETATM   21  C9  UNL     1      -3.872  34.002 104.041  1.00  0.00     0.183 C 
BRANCH  21  22
HETATM   22  O2  UNL     1      -4.595  33.101 104.783  1.00  0.00    -0.399 OA
ATOM     23  H2  UNL     1      -4.180  32.247 104.772  1.00  0.00     0.209 HD
ENDBRANCH  21  22
ENDBRANCH  20  21
ENDBRANCH  18  20
ENDBRANCH  16  18
ENDBRANCH  14  16
ENDBRANCH  13  14
ENDBRANCH   1  13
TORSDOF 10
ENDMDL
MODEL 4
REMARK VINA RESULT: -6.531123774      1.737      2.758
REMARK  10 active torsions:
REMARK  status: ('A' for Active; 'I' for Inactive)
REMARK    1  A    between atoms: C3_4  and  C4_5 
REMARK    2  A    between atoms: C4_5  and  O1_6 
REMARK    3  A    between atoms: O1_6  and  C5_7 
REMARK    4  A    between atoms: C5_7  and  C6_8 
REMARK    5  A    between atoms: C6_8  and  N2_9 
REMARK    6  A    between atoms: N2_9  and  C7_11 
REMARK    7  A    between atoms: C7_11  and  N3_13 
REMARK    8  A    between atoms: N3_13  and  C8_15 
REMARK    9  A    between atoms: C8_15  and  C9_16 
REMARK   10  A    between atoms: C9_16  and  O2_17 
ROOT
HETATM    1  C5  UNL     1      -2.326  35.174 103.524  1.00  0.00     0.187 C 
ENDROOT
BRANCH   1   2
HETATM    2  O1  UNL     1      -2.835  35.963 102.548  1.00  0.00    -0.389 OA
BRANCH   2   3
HETATM    3  C4  UNL     1      -3.773  35.365 101.754  1.00  0.00     0.173 C 
BRANCH   3   4
HETATM    4  C3  UNL     1      -3.648  35.850 100.293  1.00  0.00     0.038 C 
HETATM    5  C2  UNL     1      -2.318  35.453  99.748  1.00  0.00     0.278 C 
HETATM    6  N1  UNL     1      -2.421  34.906  98.425  1.00  0.00     0.085 N 
HETATM    7  C1  UNL     1      -1.190  34.885  97.681  1.00  0.00     0.309 C 
HETATM    8  C14 UNL     1      -3.406  35.607  97.621  1.00  0.00     0.280 C 
HETATM    9  C11 UNL     1      -4.771  35.252  98.096  1.00  0.00    -0.021 C 
HETATM   10  C10 UNL     1      -4.803  35.192  99.580  1.00  0.00     0.019 C 
HETATM   11  C12 UNL     1      -5.793  36.272  97.627  1.00  0.00     0.016 C 
HETATM   12  C13 UNL     1      -5.227  33.918  97.535  1.00  0.00     0.016 C 
ENDBRANCH   3   4
ENDBRANCH   2   3
ENDBRANCH   1   2
BRANCH   1  13
HETATM   13  C6  UNL     1      -1.076  34.396 103.174  1.00  0.00     0.148 C 
BRANCH  13  14
HETATM   14  N2  UNL     1       0.075  35.229 103.316  1.00  0.00    -0.365 N 
ATOM     15  H2  UNL     1       0.680  34.908 104.073  1.00  0.00     0.161 HD
BRANCH  14  16
HETATM   16  C7  UNL     1       0.582  36.343 102.707  1.00  0.00     0.167 C 
HETATM   17  S1  UNL     1       2.207  36.665 103.207  1.00  0.00    -0.041 SA
BRANCH  16  18
HETATM   18  N3  UNL     1       0.058  37.230 101.795  1.00  0.00    -0.365 N 
ATOM     19  H3  UNL     1      -0.348  36.792 100.969  1.00  0.00     0.161 HD
BRANCH  18  20
HETATM   20  C8  UNL     1      -0.016  38.648 101.804  1.00  0.00     0.148 C 
BRANCH  20  21
HETATM   21  C9  UNL     1      -1.496  39.013 101.576  1.00  0.00     0.183 C 
BRANCH  21  22
HETATM   22  O2  UNL     1      -2.267  38.604 102.637  1.00  0.00    -0.399 OA
ATOM     23  H2  UNL     1      -1.733  38.173 103.294  1.00  0.00     0.209 HD
ENDBRANCH  21  22
ENDBRANCH  20  21
ENDBRANCH  18  20
ENDBRANCH  16  18
ENDBRANCH  14  16
ENDBRANCH  13  14
ENDBRANCH   1  13
TORSDOF 10
ENDMDL
MODEL 5
REMARK VINA RESULT: -6.471164127      1.678      2.605
REMARK  10 active torsions:
REMARK  status: ('A' for Active; 'I' for Inactive)
REMARK    1  A    between atoms: C3_4  and  C4_5 
REMARK    2  A    between atoms: C4_5  and  O1_6 
REMARK    3  A    between atoms: O1_6  and  C5_7 
REMARK    4  A    between atoms: C5_7  and  C6_8 
REMARK    5  A    between atoms: C6_8  and  N2_9 
REMARK    6  A    between atoms: N2_9  and  C7_11 
REMARK    7  A    between atoms: C7_11  and  N3_13 
REMARK    8  A    between atoms: N3_13  and  C8_15 
REMARK    9  A    between atoms: C8_15  and  C9_16 
REMARK   10  A    between atoms: C9_16  and  O2_17 
ROOT
HETATM    1  C5  UNL     1      -1.843  38.095 102.063  1.00  0.00     0.187 C 
ENDROOT
BRANCH   1   2
HETATM    2  O1  UNL     1      -2.662  37.309 101.325  1.00  0.00    -0.389 OA
BRANCH   2   3
HETATM    3  C4  UNL     1      -2.955  36.097 101.883  1.00  0.00     0.173 C 
BRANCH   3   4
HETATM    4  C3  UNL     1      -3.807  35.239 100.922  1.00  0.00     0.038 C 
HETATM    5  C2  UNL     1      -5.246  35.354 101.292  1.00  0.00     0.278 C 
HETATM    6  N1  UNL     1      -6.084  35.545 100.142  1.00  0.00     0.085 N 
HETATM    7  C1  UNL     1      -7.477  35.256 100.353  1.00  0.00     0.309 C 
HETATM    8  C14 UNL     1      -5.640  34.755  99.008  1.00  0.00     0.280 C 
HETATM    9  C11 UNL     1      -4.392  35.347  98.453  1.00  0.00    -0.021 C 
HETATM   10  C10 UNL     1      -3.499  35.795  99.553  1.00  0.00     0.019 C 
HETATM   11  C12 UNL     1      -3.646  34.341  97.597  1.00  0.00     0.016 C 
HETATM   12  C13 UNL     1      -4.691  36.527  97.546  1.00  0.00     0.016 C 
ENDBRANCH   3   4
ENDBRANCH   2   3
ENDBRANCH   1   2
BRANCH   1  13
HETATM   13  C6  UNL     1      -1.395  37.534 103.395  1.00  0.00     0.148 C 
BRANCH  13  14
HETATM   14  N2  UNL     1       0.016  37.310 103.382  1.00  0.00    -0.365 N 
ATOM     15  H2  UNL     1       0.508  37.986 103.966  1.00  0.00     0.161 HD
BRANCH  14  16
HETATM   16  C7  UNL     1       0.881  36.430 102.795  1.00  0.00     0.167 C 
HETATM   17  S1  UNL     1       2.525  36.769 103.214  1.00  0.00    -0.041 SA
BRANCH  16  18
HETATM   18  N3  UNL     1       0.695  35.353 101.960  1.00  0.00    -0.365 N 
ATOM     19  H3  UNL     1       0.577  35.599 100.977  1.00  0.00     0.161 HD
BRANCH  18  20
HETATM   20  C8  UNL     1       0.639  33.960 102.226  1.00  0.00     0.148 C 
BRANCH  20  21
HETATM   21  C9  UNL     1      -0.344  33.775 103.398  1.00  0.00     0.183 C 
BRANCH  21  22
HETATM   22  O2  UNL     1       0.327  33.441 104.549  1.00  0.00    -0.399 OA
ATOM     23  H2  UNL     1       1.192  33.834 104.560  1.00  0.00     0.209 HD
ENDBRANCH  21  22
ENDBRANCH  20  21
ENDBRANCH  18  20
ENDBRANCH  16  18
ENDBRANCH  14  16
ENDBRANCH  13  14
ENDBRANCH   1  13
TORSDOF 10
ENDMDL
