MODEL 1
REMARK VINA RESULT: -7.247706907      0.000      0.000
REMARK  7 active torsions:
REMARK  status: ('A' for Active; 'I' for Inactive)
REMARK       I    between atoms: N1_3  and  C3_5 
REMARK    1  A    between atoms: C3_5  and  C4_7 
REMARK    2  A    between atoms: C4_7  and  O2_8 
REMARK    3  A    between atoms: O2_8  and  C5_9 
REMARK    4  A    between atoms: C8_12  and  C9_13 
REMARK    5  A    between atoms: C9_13  and  N2_14 
REMARK    6  A    between atoms: N2_14  and  C10_16 
REMARK    7  A    between atoms: C10_16  and  C11_17 
ROOT
HETATM    1  C1  UNL     1       2.769  39.898 100.989  1.00  0.00     0.037 C 
HETATM    2  C2  UNL     1       1.731  39.326 101.196  1.00  0.00     0.002 C 
HETATM    3  N1  UNL     1       0.487  38.648 101.418  1.00  0.00    -0.281 N 
ATOM      4  H1  UNL     1       0.468  37.638 101.552  1.00  0.00     0.179 HD
HETATM    5  C3  UNL     1      -0.707  39.392 101.448  1.00  0.00     0.274 C 
HETATM    6  O1  UNL     1      -0.586  40.667 101.272  1.00  0.00    -0.266 OA
ENDROOT
BRANCH   5   7
HETATM    7  C4  UNL     1      -2.032  38.874 101.656  1.00  0.00     0.210 C 
BRANCH   7   8
HETATM    8  O2  UNL     1      -2.319  37.584 101.795  1.00  0.00    -0.352 OA
BRANCH   8   9
HETATM    9  C5  UNL     1      -2.623  36.769 100.773  1.00  0.00     0.130 C 
HETATM   10  C6  UNL     1      -1.448  35.924 100.384  1.00  0.00     0.033 C 
HETATM   11  C7  UNL     1      -0.769  35.490 101.711  1.00  0.00     0.015 C 
HETATM   12  C8  UNL     1      -1.725  34.556 102.357  1.00  0.00     0.058 C 
HETATM   13  C15 UNL     1      -3.015  35.349 102.707  1.00  0.00     0.181 C 
HETATM   14  F1  UNL     1      -3.835  34.495 103.377  1.00  0.00    -0.249 F 
HETATM   15  C16 UNL     1      -3.644  35.731 101.391  1.00  0.00     0.070 C 
BRANCH  12  16
HETATM   16  C9  UNL     1      -1.308  33.730 103.496  1.00  0.00     0.063 C 
BRANCH  16  17
HETATM   17  N2  UNL     1       0.003  33.756 103.911  1.00  0.00    -0.400 N 
ATOM     18  H2  UNL     1       0.208  34.315 104.738  1.00  0.00     0.158 HD
BRANCH  17  19
HETATM   19  C10 UNL     1       1.084  33.098 103.320  1.00  0.00     0.151 C 
BRANCH  19  20
HETATM   20  C11 UNL     1       2.276  34.093 103.392  1.00  0.00     0.203 C 
HETATM   21  C12 UNL     1       2.568  34.516 101.988  1.00  0.00     0.036 C 
HETATM   22  C13 UNL     1       2.927  35.961 102.054  1.00  0.00     0.029 C 
HETATM   23  C14 UNL     1       2.582  36.381 103.439  1.00  0.00     0.233 C 
HETATM   24  N3  UNL     1       1.919  35.283 104.119  1.00  0.00    -0.069 N 
ATOM     25  H32 UNL     1       0.912  35.414 104.218  1.00  0.00     0.277 HD
ATOM     26  H31 UNL     1       2.135  35.233 105.115  1.00  0.00     0.277 HD
ENDBRANCH  19  20
ENDBRANCH  17  19
ENDBRANCH  16  17
ENDBRANCH  12  16
ENDBRANCH   8   9
ENDBRANCH   7   8
ENDBRANCH   5   7
TORSDOF 7
ENDMDL
MODEL 2
REMARK VINA RESULT: -7.232358100      3.556      5.460
REMARK  7 active torsions:
REMARK  status: ('A' for Active; 'I' for Inactive)
REMARK       I    between atoms: N1_3  and  C3_5 
REMARK    1  A    between atoms: C3_5  and  C4_7 
REMARK    2  A    between atoms: C4_7  and  O2_8 
REMARK    3  A    between atoms: O2_8  and  C5_9 
REMARK    4  A    between atoms: C8_12  and  C9_13 
REMARK    5  A    between atoms: C9_13  and  N2_14 
REMARK    6  A    between atoms: N2_14  and  C10_16 
REMARK    7  A    between atoms: C10_16  and  C11_17 
ROOT
HETATM    1  C1  UNL     1      -4.039  33.335 104.442  1.00  0.00     0.037 C 
HETATM    2  C2  UNL     1      -3.265  34.252 104.537  1.00  0.00     0.002 C 
HETATM    3  N1  UNL     1      -2.364  35.360 104.652  1.00  0.00    -0.281 N 
ATOM      4  H1  UNL     1      -1.791  35.474 105.489  1.00  0.00     0.179 HD
HETATM    5  C3  UNL     1      -2.276  36.289 103.599  1.00  0.00     0.274 C 
HETATM    6  O1  UNL     1      -3.035  36.063 102.577  1.00  0.00    -0.266 OA
ENDROOT
BRANCH   5   7
HETATM    7  C4  UNL     1      -1.431  37.451 103.553  1.00  0.00     0.210 C 
BRANCH   7   8
HETATM    8  O2  UNL     1      -0.138  37.426 103.242  1.00  0.00    -0.352 OA
BRANCH   8   9
HETATM    9  C5  UNL     1       0.411  38.154 102.258  1.00  0.00     0.130 C 
HETATM   10  C6  UNL     1       1.871  38.384 102.503  1.00  0.00     0.033 C 
HETATM   11  C7  UNL     1       2.433  37.047 103.055  1.00  0.00     0.015 C 
HETATM   12  C8  UNL     1       2.374  36.093 101.919  1.00  0.00     0.058 C 
HETATM   13  C15 UNL     1       0.880  35.877 101.548  1.00  0.00     0.181 C 
HETATM   14  F1  UNL     1       0.849  34.933 100.568  1.00  0.00    -0.249 F 
HETATM   15  C16 UNL     1       0.387  37.193 101.002  1.00  0.00     0.070 C 
BRANCH  12  16
HETATM   16  C9  UNL     1       3.075  34.806 101.985  1.00  0.00     0.063 C 
BRANCH  16  17
HETATM   17  N2  UNL     1       4.104  34.547 101.110  1.00  0.00    -0.400 N 
ATOM     18  H2  UNL     1       4.014  34.939 100.173  1.00  0.00     0.158 HD
BRANCH  17  19
HETATM   19  C10 UNL     1       5.258  33.805 101.366  1.00  0.00     0.151 C 
BRANCH  19  20
HETATM   20  C11 UNL     1       6.229  34.113 100.192  1.00  0.00     0.203 C 
HETATM   21  C12 UNL     1       7.570  34.374 100.799  1.00  0.00     0.036 C 
HETATM   22  C13 UNL     1       8.571  33.769  99.875  1.00  0.00     0.029 C 
HETATM   23  C14 UNL     1       7.772  32.966  98.913  1.00  0.00     0.233 C 
HETATM   24  N3  UNL     1       6.380  32.973  99.325  1.00  0.00    -0.069 N 
ATOM     25  H32 UNL     1       6.077  32.096  99.750  1.00  0.00     0.277 HD
ATOM     26  H31 UNL     1       5.724  32.965  98.544  1.00  0.00     0.277 HD
ENDBRANCH  19  20
ENDBRANCH  17  19
ENDBRANCH  16  17
ENDBRANCH  12  16
ENDBRANCH   8   9
ENDBRANCH   7   8
ENDBRANCH   5   7
TORSDOF 7
ENDMDL
MODEL 3
REMARK VINA RESULT: -6.984882730      3.614      4.607
REMARK  7 active torsions:
REMARK  status: ('A' for Active; 'I' for Inactive)
REMARK       I    between atoms: N1_3  and  C3_5 
REMARK    1  A    between atoms: C3_5  and  C4_7 
REMARK    2  A    between atoms: C4_7  and  O2_8 
REMARK    3  A    between atoms: O2_8  and  C5_9 
REMARK    4  A    between atoms: C8_12  and  C9_13 
REMARK    5  A    between atoms: C9_13  and  N2_14 
REMARK    6  A    between atoms: N2_14  and  C10_16 
REMARK    7  A    between atoms: C10_16  and  C11_17 
ROOT
HETATM    1  C1  UNL     1       0.289  40.764 101.418  1.00  0.00     0.037 C 
HETATM    2  C2  UNL     1       0.197  39.638 101.834  1.00  0.00     0.002 C 
HETATM    3  N1  UNL     1       0.075  38.291 102.308  1.00  0.00    -0.281 N 
ATOM      4  H1  UNL     1       0.900  37.697 102.389  1.00  0.00     0.179 HD
HETATM    5  C3  UNL     1      -1.195  37.797 102.659  1.00  0.00     0.274 C 
HETATM    6  O1  UNL     1      -2.182  38.622 102.527  1.00  0.00    -0.266 OA
ENDROOT
BRANCH   5   7
HETATM    7  C4  UNL     1      -1.494  36.477 103.147  1.00  0.00     0.210 C 
BRANCH   7   8
HETATM    8  O2  UNL     1      -0.611  35.486 103.216  1.00  0.00    -0.352 OA
BRANCH   8   9
HETATM    9  C5  UNL     1      -0.710  34.345 102.518  1.00  0.00     0.130 C 
HETATM   10  C6  UNL     1      -0.201  34.517 101.119  1.00  0.00     0.033 C 
HETATM   11  C7  UNL     1       1.071  35.400 101.227  1.00  0.00     0.015 C 
HETATM   12  C8  UNL     1       2.083  34.553 101.907  1.00  0.00     0.058 C 
HETATM   13  C15 UNL     1       1.574  34.254 103.345  1.00  0.00     0.181 C 
HETATM   14  F1  UNL     1       2.558  33.556 103.975  1.00  0.00    -0.249 F 
HETATM   15  C16 UNL     1       0.353  33.384 103.188  1.00  0.00     0.070 C 
BRANCH  12  16
HETATM   16  C9  UNL     1       3.494  34.953 101.937  1.00  0.00     0.063 C 
BRANCH  16  17
HETATM   17  N2  UNL     1       4.356  34.478 100.975  1.00  0.00    -0.400 N 
ATOM     18  H2  UNL     1       4.115  34.684 100.006  1.00  0.00     0.158 HD
BRANCH  17  19
HETATM   19  C10 UNL     1       5.524  33.743 101.184  1.00  0.00     0.151 C 
BRANCH  19  20
HETATM   20  C11 UNL     1       6.372  33.921  99.894  1.00  0.00     0.203 C 
HETATM   21  C12 UNL     1       7.778  34.175 100.336  1.00  0.00     0.036 C 
HETATM   22  C13 UNL     1       8.655  33.462  99.364  1.00  0.00     0.029 C 
HETATM   23  C14 UNL     1       7.733  32.619  98.558  1.00  0.00     0.233 C 
HETATM   24  N3  UNL     1       6.394  32.713  99.112  1.00  0.00    -0.069 N 
ATOM     25  H32 UNL     1       6.111  31.884  99.635  1.00  0.00     0.277 HD
ATOM     26  H31 UNL     1       5.658  32.670  98.406  1.00  0.00     0.277 HD
ENDBRANCH  19  20
ENDBRANCH  17  19
ENDBRANCH  16  17
ENDBRANCH  12  16
ENDBRANCH   8   9
ENDBRANCH   7   8
ENDBRANCH   5   7
TORSDOF 7
ENDMDL
MODEL 4
REMARK VINA RESULT: -6.955321638      3.389      5.982
REMARK  7 active torsions:
REMARK  status: ('A' for Active; 'I' for Inactive)
REMARK       I    between atoms: N1_3  and  C3_5 
REMARK    1  A    between atoms: C3_5  and  C4_7 
REMARK    2  A    between atoms: C4_7  and  O2_8 
REMARK    3  A    between atoms: O2_8  and  C5_9 
REMARK    4  A    between atoms: C8_12  and  C9_13 
REMARK    5  A    between atoms: C9_13  and  N2_14 
REMARK    6  A    between atoms: N2_14  and  C10_16 
REMARK    7  A    between atoms: C10_16  and  C11_17 
ROOT
HETATM    1  C1  UNL     1       2.214  40.637 100.773  1.00  0.00     0.037 C 
HETATM    2  C2  UNL     1       2.163  39.480 101.102  1.00  0.00     0.002 C 
HETATM    3  N1  UNL     1       2.078  38.103 101.492  1.00  0.00    -0.281 N 
ATOM      4  H1  UNL     1       2.392  37.368 100.859  1.00  0.00     0.179 HD
HETATM    5  C3  UNL     1       1.555  37.777 102.758  1.00  0.00     0.274 C 
HETATM    6  O1  UNL     1       1.187  38.774 103.494  1.00  0.00    -0.266 OA
ENDROOT
BRANCH   5   7
HETATM    7  C4  UNL     1       1.399  36.456 103.303  1.00  0.00     0.210 C 
BRANCH   7   8
HETATM    8  O2  UNL     1       0.270  35.755 103.257  1.00  0.00    -0.352 OA
BRANCH   8   9
HETATM    9  C5  UNL     1       0.176  34.518 102.747  1.00  0.00     0.130 C 
HETATM   10  C6  UNL     1      -1.071  33.830 103.215  1.00  0.00     0.033 C 
HETATM   11  C7  UNL     1      -2.192  34.903 103.188  1.00  0.00     0.015 C 
HETATM   12  C8  UNL     1      -2.424  35.196 101.751  1.00  0.00     0.058 C 
HETATM   13  C15 UNL     1      -1.129  35.831 101.172  1.00  0.00     0.181 C 
HETATM   14  F1  UNL     1      -1.399  36.173  99.882  1.00  0.00    -0.249 F 
HETATM   15  C16 UNL     1      -0.079  34.749 101.203  1.00  0.00     0.070 C 
BRANCH  12  16
HETATM   16  C9  UNL     1      -3.603  35.960 101.325  1.00  0.00     0.063 C 
BRANCH  16  17
HETATM   17  N2  UNL     1      -4.510  35.385 100.465  1.00  0.00    -0.400 N 
ATOM     18  H2  UNL     1      -5.275  34.864 100.892  1.00  0.00     0.158 HD
BRANCH  17  19
HETATM   19  C10 UNL     1      -4.496  35.439  99.070  1.00  0.00     0.151 C 
BRANCH  19  20
HETATM   20  C11 UNL     1      -5.971  35.672  98.640  1.00  0.00     0.203 C 
HETATM   21  C12 UNL     1      -6.426  34.416  97.968  1.00  0.00     0.036 C 
HETATM   22  C13 UNL     1      -7.845  34.215  98.378  1.00  0.00     0.029 C 
HETATM   23  C14 UNL     1      -8.077  35.205  99.463  1.00  0.00     0.233 C 
HETATM   24  N3  UNL     1      -6.825  35.864  99.784  1.00  0.00    -0.069 N 
ATOM     25  H32 UNL     1      -6.409  35.545 100.660  1.00  0.00     0.277 HD
ATOM     26  H31 UNL     1      -6.936  36.843 100.050  1.00  0.00     0.277 HD
ENDBRANCH  19  20
ENDBRANCH  17  19
ENDBRANCH  16  17
ENDBRANCH  12  16
ENDBRANCH   8   9
ENDBRANCH   7   8
ENDBRANCH   5   7
TORSDOF 7
ENDMDL
MODEL 5
REMARK VINA RESULT: -6.943575159      2.736      4.665
REMARK  7 active torsions:
REMARK  status: ('A' for Active; 'I' for Inactive)
REMARK       I    between atoms: N1_3  and  C3_5 
REMARK    1  A    between atoms: C3_5  and  C4_7 
REMARK    2  A    between atoms: C4_7  and  O2_8 
REMARK    3  A    between atoms: O2_8  and  C5_9 
REMARK    4  A    between atoms: C8_12  and  C9_13 
REMARK    5  A    between atoms: C9_13  and  N2_14 
REMARK    6  A    between atoms: N2_14  and  C10_16 
REMARK    7  A    between atoms: C10_16  and  C11_17 
ROOT
HETATM    1  C1  UNL     1      -8.257  34.320  98.792  1.00  0.00     0.037 C 
HETATM    2  C2  UNL     1      -7.088  34.602  98.851  1.00  0.00     0.002 C 
HETATM    3  N1  UNL     1      -5.693  34.918  98.937  1.00  0.00    -0.281 N 
ATOM      4  H1  UNL     1      -5.073  34.729  98.150  1.00  0.00     0.179 HD
HETATM    5  C3  UNL     1      -5.189  35.492 100.119  1.00  0.00     0.274 C 
HETATM    6  O1  UNL     1      -6.049  35.699 101.061  1.00  0.00    -0.266 OA
ENDROOT
BRANCH   5   7
HETATM    7  C4  UNL     1      -3.824  35.867 100.372  1.00  0.00     0.210 C 
BRANCH   7   8
HETATM    8  O2  UNL     1      -3.374  36.316 101.539  1.00  0.00    -0.352 OA
BRANCH   8   9
HETATM    9  C5  UNL     1      -2.310  37.123 101.672  1.00  0.00     0.130 C 
HETATM   10  C6  UNL     1      -1.907  37.258 103.109  1.00  0.00     0.033 C 
HETATM   11  C7  UNL     1      -2.050  35.844 103.734  1.00  0.00     0.015 C 
HETATM   12  C8  UNL     1      -0.982  35.026 103.105  1.00  0.00     0.058 C 
HETATM   13  C15 UNL     1      -1.287  34.919 101.585  1.00  0.00     0.181 C 
HETATM   14  F1  UNL     1      -0.348  34.091 101.051  1.00  0.00    -0.249 F 
HETATM   15  C16 UNL     1      -1.119  36.308 101.024  1.00  0.00     0.070 C 
BRANCH  12  16
HETATM   16  C9  UNL     1      -0.632  33.709 103.650  1.00  0.00     0.063 C 
BRANCH  16  17
HETATM   17  N2  UNL     1       0.636  33.490 104.137  1.00  0.00    -0.400 N 
ATOM     18  H2  UNL     1       0.778  33.667 105.131  1.00  0.00     0.158 HD
BRANCH  17  19
HETATM   19  C10 UNL     1       1.748  33.053 103.417  1.00  0.00     0.151 C 
BRANCH  19  20
HETATM   20  C11 UNL     1       2.688  34.285 103.299  1.00  0.00     0.203 C 
HETATM   21  C12 UNL     1       2.428  34.896 101.959  1.00  0.00     0.036 C 
HETATM   22  C13 UNL     1       2.507  36.372 102.152  1.00  0.00     0.029 C 
HETATM   23  C14 UNL     1       2.551  36.567 103.625  1.00  0.00     0.233 C 
HETATM   24  N3  UNL     1       2.363  35.286 104.282  1.00  0.00    -0.069 N 
ATOM     25  H32 UNL     1       1.436  35.169 104.690  1.00  0.00     0.277 HD
ATOM     26  H31 UNL     1       2.892  35.192 105.149  1.00  0.00     0.277 HD
ENDBRANCH  19  20
ENDBRANCH  17  19
ENDBRANCH  16  17
ENDBRANCH  12  16
ENDBRANCH   8   9
ENDBRANCH   7   8
ENDBRANCH   5   7
TORSDOF 7
ENDMDL
