MODEL 1
REMARK VINA RESULT: -6.154853986      0.000      0.000
REMARK  2 active torsions:
REMARK  status: ('A' for Active; 'I' for Inactive)
REMARK       I    between atoms: C1_2  and  N3_11 
REMARK    1  A    between atoms: N2_3  and  C2_5 
REMARK    2  A    between atoms: N3_11  and  C7_13 
ROOT
HETATM    1  N1  UNL     1      22.701  15.903   9.179  1.00  0.00    -0.064 NA
HETATM    2  C1  UNL     1      23.705  15.441  10.074  1.00  0.00     0.189 C 
HETATM    3  N2  UNL     1      24.595  14.641   9.597  1.00  0.00    -0.360 N 
ATOM      4  H2  UNL     1      24.565  14.362   8.617  1.00  0.00     0.162 HD
HETATM    5  N3  UNL     1      23.733  15.838  11.428  1.00  0.00    -0.331 N 
ATOM      6  H3  UNL     1      24.458  16.471  11.766  1.00  0.00     0.168 HD
ENDROOT
BRANCH   3   7
HETATM    7  C2  UNL     1      25.625  14.150  10.456  1.00  0.00     0.086 C 
HETATM    8  C3  UNL     1      26.817  15.089  10.358  1.00  0.00     0.028 C 
HETATM    9  C4  UNL     1      27.921  14.267  10.974  1.00  0.00     0.039 C 
HETATM   10  C5  UNL     1      27.576  12.848  10.657  1.00  0.00     0.172 C 
HETATM   11  F1  UNL     1      28.507  12.238   9.839  1.00  0.00    -0.249 F 
HETATM   12  C6  UNL     1      26.235  12.848   9.976  1.00  0.00     0.062 C 
ENDBRANCH   3   7
BRANCH   5  13
HETATM   13  C7  UNL     1      22.738  15.344  12.318  1.00  0.00     0.034 A 
HETATM   14  C8  UNL     1      21.462  15.878  12.361  1.00  0.00     0.032 A 
HETATM   15  C9  UNL     1      20.488  15.401  13.227  1.00  0.00     0.044 A 
HETATM   16  C10 UNL     1      20.807  14.359  14.073  1.00  0.00     0.116 A 
HETATM   17  F2  UNL     1      19.862  13.887  14.920  1.00  0.00    -0.206 F 
HETATM   18  C11 UNL     1      22.064  13.797  14.065  1.00  0.00     0.044 A 
HETATM   19  C12 UNL     1      22.994  14.302  13.190  1.00  0.00     0.032 A 
ENDBRANCH   5  13
TORSDOF 2
ENDMDL
MODEL 2
REMARK VINA RESULT: -6.149327891      0.038      1.152
REMARK  2 active torsions:
REMARK  status: ('A' for Active; 'I' for Inactive)
REMARK       I    between atoms: C1_2  and  N3_11 
REMARK    1  A    between atoms: N2_3  and  C2_5 
REMARK    2  A    between atoms: N3_11  and  C7_13 
ROOT
HETATM    1  N1  UNL     1      22.707  15.892   9.207  1.00  0.00    -0.064 NA
HETATM    2  C1  UNL     1      23.717  15.441  10.102  1.00  0.00     0.189 C 
HETATM    3  N2  UNL     1      24.617  14.652   9.624  1.00  0.00    -0.360 N 
ATOM      4  H2  UNL     1      24.589  14.373   8.644  1.00  0.00     0.162 HD
HETATM    5  N3  UNL     1      23.740  15.837  11.456  1.00  0.00    -0.331 N 
ATOM      6  H3  UNL     1      24.458  16.479  11.794  1.00  0.00     0.168 HD
ENDROOT
BRANCH   3   7
HETATM    7  C2  UNL     1      25.653  14.172  10.483  1.00  0.00     0.086 C 
HETATM    8  C3  UNL     1      26.838  15.119  10.376  1.00  0.00     0.028 C 
HETATM    9  C4  UNL     1      27.949  14.307  10.993  1.00  0.00     0.039 C 
HETATM   10  C5  UNL     1      27.612  12.884  10.685  1.00  0.00     0.172 C 
HETATM   11  F1  UNL     1      28.544  12.275   9.868  1.00  0.00    -0.249 F 
HETATM   12  C6  UNL     1      26.269  12.871  10.009  1.00  0.00     0.062 C 
ENDBRANCH   3   7
BRANCH   5  13
HETATM   13  C7  UNL     1      22.752  15.331  12.346  1.00  0.00     0.034 A 
HETATM   14  C8  UNL     1      23.013  14.288  13.217  1.00  0.00     0.032 A 
HETATM   15  C9  UNL     1      22.053  13.791  14.087  1.00  0.00     0.044 A 
HETATM   16  C10 UNL     1      20.796  14.358  14.080  1.00  0.00     0.116 A 
HETATM   17  F2  UNL     1      19.854  13.879  14.926  1.00  0.00    -0.206 F 
HETATM   18  C11 UNL     1      20.490  15.398  13.231  1.00  0.00     0.044 A 
HETATM   19  C12 UNL     1      21.473  15.856  12.389  1.00  0.00     0.032 A 
ENDBRANCH   5  13
TORSDOF 2
ENDMDL
MODEL 3
REMARK VINA RESULT: -6.145228174      3.340      6.309
REMARK  2 active torsions:
REMARK  status: ('A' for Active; 'I' for Inactive)
REMARK       I    between atoms: C1_2  and  N3_11 
REMARK    1  A    between atoms: N2_3  and  C2_5 
REMARK    2  A    between atoms: N3_11  and  C7_13 
ROOT
HETATM    1  N1  UNL     1      24.940  12.807  13.681  1.00  0.00    -0.064 NA
HETATM    2  C1  UNL     1      25.322  13.683  12.627  1.00  0.00     0.189 C 
HETATM    3  N2  UNL     1      24.411  14.007  11.774  1.00  0.00    -0.360 N 
ATOM      4  H2  UNL     1      23.464  13.640  11.867  1.00  0.00     0.162 HD
HETATM    5  N3  UNL     1      26.637  14.182  12.513  1.00  0.00    -0.331 N 
ATOM      6  H3  UNL     1      26.834  15.165  12.702  1.00  0.00     0.168 HD
ENDROOT
BRANCH   3   7
HETATM    7  C2  UNL     1      24.744  14.885  10.697  1.00  0.00     0.086 C 
HETATM    8  C3  UNL     1      23.568  15.821  10.465  1.00  0.00     0.028 C 
HETATM    9  C4  UNL     1      23.882  16.393   9.105  1.00  0.00     0.039 C 
HETATM   10  C5  UNL     1      24.619  15.310   8.386  1.00  0.00     0.172 C 
HETATM   11  F1  UNL     1      23.941  14.842   7.277  1.00  0.00    -0.249 F 
HETATM   12  C6  UNL     1      24.832  14.182   9.357  1.00  0.00     0.062 C 
ENDBRANCH   3   7
BRANCH   5  13
HETATM   13  C7  UNL     1      27.685  13.298  12.133  1.00  0.00     0.034 A 
HETATM   14  C8  UNL     1      28.630  12.848  13.038  1.00  0.00     0.032 A 
HETATM   15  C9  UNL     1      29.655  11.986  12.673  1.00  0.00     0.044 A 
HETATM   16  C10 UNL     1      29.730  11.566  11.361  1.00  0.00     0.116 A 
HETATM   17  F2  UNL     1      30.727  10.725  10.996  1.00  0.00    -0.206 F 
HETATM   18  C11 UNL     1      28.812  11.988  10.426  1.00  0.00     0.044 A 
HETATM   19  C12 UNL     1      27.816  12.840  10.835  1.00  0.00     0.032 A 
ENDBRANCH   5  13
TORSDOF 2
ENDMDL
MODEL 4
REMARK VINA RESULT: -6.124636163      3.343      6.253
REMARK  2 active torsions:
REMARK  status: ('A' for Active; 'I' for Inactive)
REMARK       I    between atoms: C1_2  and  N3_11 
REMARK    1  A    between atoms: N2_3  and  C2_5 
REMARK    2  A    between atoms: N3_11  and  C7_13 
ROOT
HETATM    1  N1  UNL     1      24.970  12.891  13.692  1.00  0.00    -0.064 NA
HETATM    2  C1  UNL     1      25.347  13.747  12.620  1.00  0.00     0.189 C 
HETATM    3  N2  UNL     1      24.429  14.069  11.775  1.00  0.00    -0.360 N 
ATOM      4  H2  UNL     1      23.479  13.715  11.886  1.00  0.00     0.162 HD
HETATM    5  N3  UNL     1      26.666  14.229  12.481  1.00  0.00    -0.331 N 
ATOM      6  H3  UNL     1      26.877  15.212  12.652  1.00  0.00     0.168 HD
ENDROOT
BRANCH   3   7
HETATM    7  C2  UNL     1      24.756  14.927  10.680  1.00  0.00     0.086 C 
HETATM    8  C3  UNL     1      23.592  15.878  10.455  1.00  0.00     0.028 C 
HETATM    9  C4  UNL     1      23.891  16.426   9.082  1.00  0.00     0.039 C 
HETATM   10  C5  UNL     1      24.599  15.323   8.366  1.00  0.00     0.172 C 
HETATM   11  F1  UNL     1      23.895  14.850   7.275  1.00  0.00    -0.249 F 
HETATM   12  C6  UNL     1      24.811  14.204   9.349  1.00  0.00     0.062 C 
ENDBRANCH   3   7
BRANCH   5  13
HETATM   13  C7  UNL     1      27.699  13.328  12.100  1.00  0.00     0.034 A 
HETATM   14  C8  UNL     1      27.781  12.805  10.821  1.00  0.00     0.032 A 
HETATM   15  C9  UNL     1      28.787  11.926  10.443  1.00  0.00     0.044 A 
HETATM   16  C10 UNL     1      29.734  11.563  11.378  1.00  0.00     0.116 A 
HETATM   17  F2  UNL     1      30.718  10.705  11.017  1.00  0.00    -0.206 F 
HETATM   18  C11 UNL     1      29.691  12.057  12.662  1.00  0.00     0.044 A 
HETATM   19  C12 UNL     1      28.678  12.925  12.988  1.00  0.00     0.032 A 
ENDBRANCH   5  13
TORSDOF 2
ENDMDL
MODEL 5
REMARK VINA RESULT: -6.020343796      1.040      5.954
REMARK  2 active torsions:
REMARK  status: ('A' for Active; 'I' for Inactive)
REMARK       I    between atoms: C1_2  and  N3_11 
REMARK    1  A    between atoms: N2_3  and  C2_5 
REMARK    2  A    between atoms: N3_11  and  C7_13 
ROOT
HETATM    1  N1  UNL     1      24.951  17.628  10.583  1.00  0.00    -0.064 NA
HETATM    2  C1  UNL     1      24.168  16.487  10.913  1.00  0.00     0.189 C 
HETATM    3  N2  UNL     1      23.336  16.607  11.890  1.00  0.00    -0.360 N 
ATOM      4  H2  UNL     1      23.257  17.490  12.394  1.00  0.00     0.162 HD
HETATM    5  N3  UNL     1      24.290  15.272  10.205  1.00  0.00    -0.331 N 
ATOM      6  H3  UNL     1      23.543  14.959   9.586  1.00  0.00     0.168 HD
ENDROOT
BRANCH   3   7
HETATM    7  C2  UNL     1      22.527  15.489  12.260  1.00  0.00     0.086 C 
HETATM    8  C3  UNL     1      21.243  16.015  12.881  1.00  0.00     0.028 C 
HETATM    9  C4  UNL     1      20.692  14.786  13.559  1.00  0.00     0.039 C 
HETATM   10  C5  UNL     1      21.891  13.987  13.956  1.00  0.00     0.172 C 
HETATM   11  F1  UNL     1      22.017  13.850  15.325  1.00  0.00    -0.249 F 
HETATM   12  C6  UNL     1      23.104  14.686  13.408  1.00  0.00     0.062 C 
ENDBRANCH   3   7
BRANCH   5  13
HETATM   13  C7  UNL     1      25.467  14.489  10.366  1.00  0.00     0.034 A 
HETATM   14  C8  UNL     1      25.596  13.234   9.797  1.00  0.00     0.032 A 
HETATM   15  C9  UNL     1      26.742  12.465   9.950  1.00  0.00     0.044 A 
HETATM   16  C10 UNL     1      27.784  12.973  10.697  1.00  0.00     0.116 A 
HETATM   17  F2  UNL     1      28.905  12.229  10.851  1.00  0.00    -0.206 F 
HETATM   18  C11 UNL     1      27.700  14.217  11.282  1.00  0.00     0.044 A 
HETATM   19  C12 UNL     1      26.547  14.940  11.101  1.00  0.00     0.032 A 
ENDBRANCH   5  13
TORSDOF 2
ENDMDL
