MODEL 1
REMARK VINA RESULT: -5.792768165      0.000      0.000
REMARK  2 active torsions:
REMARK  status: ('A' for Active; 'I' for Inactive)
REMARK       I    between atoms: C1_2  and  N2_4 
REMARK    1  A    between atoms: N2_4  and  C2_6 
REMARK    2  A    between atoms: C2_6  and  C3_7 
ROOT
HETATM    1  C3  UNL     1      23.868  15.575  10.837  1.00  0.00     0.001 C 
HETATM    2  C4  UNL     1      23.118  15.194   9.613  1.00  0.00     0.014 C 
HETATM    3  C5  UNL     1      23.538  16.465   8.906  1.00  0.00     0.006 C 
HETATM    4  C6  UNL     1      24.578  16.633  10.018  1.00  0.00    -0.002 C 
HETATM    5  C7  UNL     1      25.965  16.271   9.627  1.00  0.00     0.010 C 
HETATM    6  C8  UNL     1      26.560  15.179  10.472  1.00  0.00    -0.010 C 
HETATM    7  C9  UNL     1      26.046  15.395  11.890  1.00  0.00     0.031 C 
HETATM    8  C10 UNL     1      24.816  14.591  11.436  1.00  0.00     0.047 C 
HETATM    9 CL1  UNL     1      24.185  13.593  12.717  1.00  0.00    -0.118 Cl
HETATM   10  C11 UNL     1      25.731  13.916  10.443  1.00  0.00     0.031 C 
ENDROOT
BRANCH   1  11
HETATM   11  C2  UNL     1      23.076  16.252  11.927  1.00  0.00     0.135 C 
BRANCH  11  12
HETATM   12  N2  UNL     1      21.723  15.853  12.033  1.00  0.00    -0.344 N 
HETATM   13  C1  UNL     1      21.147  15.592  13.291  1.00  0.00     0.328 C 
HETATM   14  N1  UNL     1      19.794  15.190  13.446  1.00  0.00    -0.040 NA
HETATM   15  O1  UNL     1      21.837  15.714  14.330  1.00  0.00    -0.251 OA
ATOM     16  H2  UNL     1      21.159  15.753  11.188  1.00  0.00     0.163 HD
ENDBRANCH  11  12
ENDBRANCH   1  11
TORSDOF 2
ENDMDL
MODEL 2
REMARK VINA RESULT: -5.744825893      1.638      2.623
REMARK  2 active torsions:
REMARK  status: ('A' for Active; 'I' for Inactive)
REMARK       I    between atoms: C1_2  and  N2_4 
REMARK    1  A    between atoms: N2_4  and  C2_6 
REMARK    2  A    between atoms: C2_6  and  C3_7 
ROOT
HETATM    1  C3  UNL     1      24.347  16.012  11.727  1.00  0.00     0.001 C 
HETATM    2  C4  UNL     1      25.280  15.267  12.611  1.00  0.00     0.014 C 
HETATM    3  C5  UNL     1      24.586  13.954  12.310  1.00  0.00     0.006 C 
HETATM    4  C6  UNL     1      23.906  14.685  11.147  1.00  0.00    -0.002 C 
HETATM    5  C7  UNL     1      24.479  14.384   9.809  1.00  0.00     0.010 C 
HETATM    6  C8  UNL     1      24.991  15.602   9.090  1.00  0.00    -0.010 C 
HETATM    7  C9  UNL     1      24.042  16.744   9.434  1.00  0.00     0.031 C 
HETATM    8  C10 UNL     1      24.911  16.925  10.691  1.00  0.00     0.047 C 
HETATM    9 CL1  UNL     1      25.062  18.602  11.138  1.00  0.00    -0.118 Cl
HETATM   10  C11 UNL     1      26.045  16.336   9.886  1.00  0.00     0.031 C 
ENDROOT
BRANCH   1  11
HETATM   11  C2  UNL     1      23.166  16.668  12.398  1.00  0.00     0.135 C 
BRANCH  11  12
HETATM   12  N2  UNL     1      21.954  15.940  12.342  1.00  0.00    -0.344 N 
HETATM   13  C1  UNL     1      21.288  15.562  13.524  1.00  0.00     0.328 C 
HETATM   14  N1  UNL     1      20.070  14.832  13.517  1.00  0.00    -0.040 NA
HETATM   15  O1  UNL     1      21.770  15.872  14.639  1.00  0.00    -0.251 OA
ATOM     16  H2  UNL     1      21.559  15.686  11.436  1.00  0.00     0.163 HD
ENDBRANCH  11  12
ENDBRANCH   1  11
TORSDOF 2
ENDMDL
MODEL 3
REMARK VINA RESULT: -5.514922429      1.906      2.851
REMARK  2 active torsions:
REMARK  status: ('A' for Active; 'I' for Inactive)
REMARK       I    between atoms: C1_2  and  N2_4 
REMARK    1  A    between atoms: N2_4  and  C2_6 
REMARK    2  A    between atoms: C2_6  and  C3_7 
ROOT
HETATM    1  C3  UNL     1      24.640  15.218  11.364  1.00  0.00     0.001 C 
HETATM    2  C4  UNL     1      25.691  14.659  12.252  1.00  0.00     0.014 C 
HETATM    3  C5  UNL     1      25.412  13.250  11.771  1.00  0.00     0.006 C 
HETATM    4  C6  UNL     1      24.624  13.895  10.627  1.00  0.00    -0.002 C 
HETATM    5  C7  UNL     1      25.335  13.916   9.322  1.00  0.00     0.010 C 
HETATM    6  C8  UNL     1      25.526  15.301   8.767  1.00  0.00    -0.010 C 
HETATM    7  C9  UNL     1      24.277  16.094   9.131  1.00  0.00     0.031 C 
HETATM    8  C10 UNL     1      24.986  16.361  10.470  1.00  0.00     0.047 C 
HETATM    9 CL1  UNL     1      24.635  17.954  11.083  1.00  0.00    -0.118 Cl
HETATM   10  C11 UNL     1      26.284  16.199   9.717  1.00  0.00     0.031 C 
ENDROOT
BRANCH   1  11
HETATM   11  C2  UNL     1      23.286  15.446  11.987  1.00  0.00     0.135 C 
BRANCH  11  12
HETATM   12  N2  UNL     1      23.297  15.771  13.363  1.00  0.00    -0.344 N 
HETATM   13  C1  UNL     1      22.311  16.615  13.910  1.00  0.00     0.328 C 
HETATM   14  N1  UNL     1      22.281  16.969  15.285  1.00  0.00    -0.040 NA
HETATM   15  O1  UNL     1      21.413  17.085  13.173  1.00  0.00    -0.251 OA
ATOM     16  H2  UNL     1      24.026  15.390  13.966  1.00  0.00     0.163 HD
ENDBRANCH  11  12
ENDBRANCH   1  11
TORSDOF 2
ENDMDL
MODEL 4
REMARK VINA RESULT: -5.319701441      3.678      4.859
REMARK  2 active torsions:
REMARK  status: ('A' for Active; 'I' for Inactive)
REMARK       I    between atoms: C1_2  and  N2_4 
REMARK    1  A    between atoms: N2_4  and  C2_6 
REMARK    2  A    between atoms: C2_6  and  C3_7 
ROOT
HETATM    1  C3  UNL     1      24.706  14.616  11.101  1.00  0.00     0.001 C 
HETATM    2  C4  UNL     1      23.445  14.659  11.885  1.00  0.00     0.014 C 
HETATM    3  C5  UNL     1      24.189  15.064  13.141  1.00  0.00     0.006 C 
HETATM    4  C6  UNL     1      25.381  15.368  12.228  1.00  0.00    -0.002 C 
HETATM    5  C7  UNL     1      25.596  16.812  11.954  1.00  0.00     0.010 C 
HETATM    6  C8  UNL     1      25.543  17.158  10.491  1.00  0.00    -0.010 C 
HETATM    7  C9  UNL     1      26.174  15.989   9.743  1.00  0.00     0.031 C 
HETATM    8  C10 UNL     1      24.774  15.353   9.806  1.00  0.00     0.047 C 
HETATM    9 CL1  UNL     1      24.416  14.431   8.372  1.00  0.00    -0.118 Cl
HETATM   10  C11 UNL     1      24.231  16.761   9.856  1.00  0.00     0.031 C 
ENDROOT
BRANCH   1  11
HETATM   11  C2  UNL     1      25.360  13.265  10.955  1.00  0.00     0.135 C 
BRANCH  11  12
HETATM   12  N2  UNL     1      26.663  13.159  11.496  1.00  0.00    -0.344 N 
HETATM   13  C1  UNL     1      27.691  12.523  10.774  1.00  0.00     0.328 C 
HETATM   14  N1  UNL     1      29.013  12.393  11.276  1.00  0.00    -0.040 NA
HETATM   15  O1  UNL     1      27.453  12.044   9.640  1.00  0.00    -0.251 OA
ATOM     16  H2  UNL     1      26.859  13.547  12.418  1.00  0.00     0.163 HD
ENDBRANCH  11  12
ENDBRANCH   1  11
TORSDOF 2
ENDMDL
MODEL 5
REMARK VINA RESULT: -5.272447229      3.783      5.041
REMARK  2 active torsions:
REMARK  status: ('A' for Active; 'I' for Inactive)
REMARK       I    between atoms: C1_2  and  N2_4 
REMARK    1  A    between atoms: N2_4  and  C2_6 
REMARK    2  A    between atoms: C2_6  and  C3_7 
ROOT
HETATM    1  C3  UNL     1      25.459  14.648  10.920  1.00  0.00     0.001 C 
HETATM    2  C4  UNL     1      26.287  15.578  10.110  1.00  0.00     0.014 C 
HETATM    3  C5  UNL     1      25.494  15.264   8.858  1.00  0.00     0.006 C 
HETATM    4  C6  UNL     1      24.456  14.624   9.785  1.00  0.00    -0.002 C 
HETATM    5  C7  UNL     1      23.246  15.453  10.024  1.00  0.00     0.010 C 
HETATM    6  C8  UNL     1      23.018  15.775  11.475  1.00  0.00    -0.010 C 
HETATM    7  C9  UNL     1      23.444  14.545  12.267  1.00  0.00     0.031 C 
HETATM    8  C10 UNL     1      24.861  15.141  12.195  1.00  0.00     0.047 C 
HETATM    9 CL1  UNL     1      25.771  14.827  13.647  1.00  0.00    -0.118 Cl
HETATM   10  C11 UNL     1      24.194  16.492  12.095  1.00  0.00     0.031 C 
ENDROOT
BRANCH   1  11
HETATM   11  C2  UNL     1      26.008  13.257  11.116  1.00  0.00     0.135 C 
BRANCH  11  12
HETATM   12  N2  UNL     1      27.404  13.179  11.325  1.00  0.00    -0.344 N 
HETATM   13  C1  UNL     1      28.186  12.248  10.615  1.00  0.00     0.328 C 
HETATM   14  N1  UNL     1      29.591  12.133  10.791  1.00  0.00    -0.040 NA
HETATM   15  O1  UNL     1      27.642  11.478   9.788  1.00  0.00    -0.251 OA
ATOM     16  H2  UNL     1      27.850  13.803  11.998  1.00  0.00     0.163 HD
ENDBRANCH  11  12
ENDBRANCH   1  11
TORSDOF 2
ENDMDL
