MODEL 1
REMARK VINA RESULT: -4.587659750      0.000      0.000
REMARK  0 active torsions:
REMARK  status: ('A' for Active; 'I' for Inactive)
ROOT
HETATM    1  C1  UNL     1      23.987  12.298  11.943  1.00  0.00     0.015 C 
HETATM    2  C2  UNL     1      24.350  13.686  11.486  1.00  0.00    -0.047 C 
HETATM    3  C3  UNL     1      25.628  14.195  12.059  1.00  0.00     0.015 C 
HETATM    4  C4  UNL     1      23.184  14.621  11.769  1.00  0.00     0.013 C 
HETATM    5  C5  UNL     1      22.204  14.205  10.695  1.00  0.00    -0.009 A 
HETATM    6  C6  UNL     1      22.199  15.040   9.479  1.00  0.00     0.010 A 
HETATM    7  C7  UNL     1      22.993  13.814   9.490  1.00  0.00    -0.009 A 
HETATM    8  C8  UNL     1      24.399  13.741   9.964  1.00  0.00     0.013 C 
ENDROOT
TORSDOF 0
ENDMDL
MODEL 2
REMARK VINA RESULT: -4.580004542      0.911      2.004
REMARK  0 active torsions:
REMARK  status: ('A' for Active; 'I' for Inactive)
ROOT
HETATM    1  C1  UNL     1      25.138  14.500  11.306  1.00  0.00     0.015 C 
HETATM    2  C2  UNL     1      24.173  13.406  10.933  1.00  0.00    -0.047 C 
HETATM    3  C3  UNL     1      24.738  12.033  11.065  1.00  0.00     0.015 C 
HETATM    4  C4  UNL     1      23.640  13.672   9.533  1.00  0.00     0.013 C 
HETATM    5  C5  UNL     1      22.692  14.822   9.792  1.00  0.00    -0.009 A 
HETATM    6  C6  UNL     1      21.272  14.456   9.948  1.00  0.00     0.010 A 
HETATM    7  C7  UNL     1      22.093  14.620  11.144  1.00  0.00    -0.009 A 
HETATM    8  C8  UNL     1      22.895  13.528  11.755  1.00  0.00     0.013 C 
ENDROOT
TORSDOF 0
ENDMDL
MODEL 3
REMARK VINA RESULT: -4.518148652      1.192      2.436
REMARK  0 active torsions:
REMARK  status: ('A' for Active; 'I' for Inactive)
ROOT
HETATM    1  C1  UNL     1      23.513  15.057  13.000  1.00  0.00     0.015 C 
HETATM    2  C2  UNL     1      22.811  13.905  12.330  1.00  0.00    -0.047 C 
HETATM    3  C3  UNL     1      21.968  13.093  13.254  1.00  0.00     0.015 C 
HETATM    4  C4  UNL     1      23.840  13.056  11.599  1.00  0.00     0.013 C 
HETATM    5  C5  UNL     1      24.158  13.936  10.411  1.00  0.00    -0.009 A 
HETATM    6  C6  UNL     1      23.436  13.614   9.166  1.00  0.00     0.010 A 
HETATM    7  C7  UNL     1      22.908  14.661  10.037  1.00  0.00    -0.009 A 
HETATM    8  C8  UNL     1      21.972  14.410  11.162  1.00  0.00     0.013 C 
ENDROOT
TORSDOF 0
ENDMDL
MODEL 4
REMARK VINA RESULT: -4.488413473      1.197      2.650
REMARK  0 active torsions:
REMARK  status: ('A' for Active; 'I' for Inactive)
ROOT
HETATM    1  C1  UNL     1      25.196  14.695  11.317  1.00  0.00     0.015 C 
HETATM    2  C2  UNL     1      24.101  13.763  10.869  1.00  0.00    -0.047 C 
HETATM    3  C3  UNL     1      24.273  13.256   9.478  1.00  0.00     0.015 C 
HETATM    4  C4  UNL     1      22.757  14.448  11.066  1.00  0.00     0.013 C 
HETATM    5  C5  UNL     1      22.606  14.376  12.569  1.00  0.00    -0.009 A 
HETATM    6  C6  UNL     1      21.784  13.261  13.075  1.00  0.00     0.010 A 
HETATM    7  C7  UNL     1      23.235  13.101  13.026  1.00  0.00    -0.009 A 
HETATM    8  C8  UNL     1      23.974  12.596  11.841  1.00  0.00     0.013 C 
ENDROOT
TORSDOF 0
ENDMDL
MODEL 5
REMARK VINA RESULT: -4.329325036      1.148      2.174
REMARK  0 active torsions:
REMARK  status: ('A' for Active; 'I' for Inactive)
ROOT
HETATM    1  C1  UNL     1      24.490  14.509  12.978  1.00  0.00     0.015 C 
HETATM    2  C2  UNL     1      23.650  13.406  12.390  1.00  0.00    -0.047 C 
HETATM    3  C3  UNL     1      23.905  12.067  12.993  1.00  0.00     0.015 C 
HETATM    4  C4  UNL     1      23.833  13.398  10.880  1.00  0.00     0.013 C 
HETATM    5  C5  UNL     1      23.035  14.618  10.479  1.00  0.00    -0.009 A 
HETATM    6  C6  UNL     1      21.658  14.358  10.022  1.00  0.00     0.010 A 
HETATM    7  C7  UNL     1      21.879  14.731  11.416  1.00  0.00    -0.009 A 
HETATM    8  C8  UNL     1      22.171  13.757  12.499  1.00  0.00     0.013 C 
ENDROOT
TORSDOF 0
ENDMDL
