MODEL 1
REMARK VINA RESULT: -4.551981767      0.000      0.000
REMARK  1 active torsions:
REMARK  status: ('A' for Active; 'I' for Inactive)
REMARK    1  A    between atoms: C7_7  and  N1_8 
ROOT
HETATM    1  C1  UNL     1      22.856  12.718  12.867  1.00  0.00     0.012 C 
HETATM    2  C2  UNL     1      23.424  13.911  12.081  1.00  0.00     0.012 C 
HETATM    3  C3  UNL     1      22.320  14.774  11.588  1.00  0.00     0.006 C 
HETATM    4  C4  UNL     1      21.744  14.264  10.288  1.00  0.00     0.000 C 
HETATM    5  C5  UNL     1      22.874  14.336   9.289  1.00  0.00     0.002 C 
HETATM    6  C6  UNL     1      24.051  13.508   9.661  1.00  0.00     0.033 C 
HETATM    7  C7  UNL     1      24.419  13.479  11.088  1.00  0.00     0.187 C 
ENDROOT
BRANCH   7   8
HETATM    8  N1  UNL     1      25.679  14.230  11.253  1.00  0.00    -0.075 N 
ATOM      9  H13 UNL     1      25.896  14.790  10.429  1.00  0.00     0.274 HD
ATOM     10  H12 UNL     1      25.583  14.985  11.932  1.00  0.00     0.274 HD
ATOM     11  H11 UNL     1      26.444  13.599  11.494  1.00  0.00     0.274 HD
ENDBRANCH   7   8
TORSDOF 1
ENDMDL
MODEL 2
REMARK VINA RESULT: -4.485124301      1.373      2.585
REMARK  1 active torsions:
REMARK  status: ('A' for Active; 'I' for Inactive)
REMARK    1  A    between atoms: C7_7  and  N1_8 
ROOT
HETATM    1  C1  UNL     1      21.761  14.649  10.448  1.00  0.00     0.012 C 
HETATM    2  C2  UNL     1      22.852  13.672  10.913  1.00  0.00     0.012 C 
HETATM    3  C3  UNL     1      22.789  13.492  12.386  1.00  0.00     0.006 C 
HETATM    4  C4  UNL     1      23.533  14.584  13.118  1.00  0.00     0.000 C 
HETATM    5  C5  UNL     1      24.976  14.445  12.694  1.00  0.00     0.002 C 
HETATM    6  C6  UNL     1      25.183  14.608  11.231  1.00  0.00     0.033 C 
HETATM    7  C7  UNL     1      24.165  14.018  10.345  1.00  0.00     0.187 C 
ENDROOT
BRANCH   7   8
HETATM    8  N1  UNL     1      24.763  12.851   9.669  1.00  0.00    -0.075 N 
ATOM      9  H13 UNL     1      24.058  12.162   9.408  1.00  0.00     0.274 HD
ATOM     10  H12 UNL     1      25.101  13.086   8.736  1.00  0.00     0.274 HD
ATOM     11  H11 UNL     1      25.498  12.439  10.245  1.00  0.00     0.274 HD
ENDBRANCH   7   8
TORSDOF 1
ENDMDL
MODEL 3
REMARK VINA RESULT: -4.467435562      1.408      2.540
REMARK  1 active torsions:
REMARK  status: ('A' for Active; 'I' for Inactive)
REMARK    1  A    between atoms: C7_7  and  N1_8 
ROOT
HETATM    1  C1  UNL     1      25.429  14.677  11.297  1.00  0.00     0.012 C 
HETATM    2  C2  UNL     1      24.262  13.683  11.178  1.00  0.00     0.012 C 
HETATM    3  C3  UNL     1      23.830  13.565   9.762  1.00  0.00     0.006 C 
HETATM    4  C4  UNL     1      22.864  14.660   9.375  1.00  0.00     0.000 C 
HETATM    5  C5  UNL     1      21.650  14.457  10.251  1.00  0.00     0.002 C 
HETATM    6  C6  UNL     1      21.944  14.554  11.705  1.00  0.00     0.033 C 
HETATM    7  C7  UNL     1      23.211  13.963  12.168  1.00  0.00     0.187 C 
ENDROOT
BRANCH   7   8
HETATM    8  N1  UNL     1      22.895  12.751  12.948  1.00  0.00    -0.075 N 
ATOM      9  H13 UNL     1      22.215  12.941  13.684  1.00  0.00     0.274 HD
ATOM     10  H12 UNL     1      22.349  12.082  12.404  1.00  0.00     0.274 HD
ATOM     11  H11 UNL     1      23.747  12.330  13.320  1.00  0.00     0.274 HD
ENDBRANCH   7   8
TORSDOF 1
ENDMDL
MODEL 4
REMARK VINA RESULT: -4.370535173      0.932      1.182
REMARK  1 active torsions:
REMARK  status: ('A' for Active; 'I' for Inactive)
REMARK    1  A    between atoms: C7_7  and  N1_8 
ROOT
HETATM    1  C1  UNL     1      23.704  12.215  12.331  1.00  0.00     0.012 C 
HETATM    2  C2  UNL     1      24.007  13.516  11.570  1.00  0.00     0.012 C 
HETATM    3  C3  UNL     1      23.123  14.609  12.049  1.00  0.00     0.006 C 
HETATM    4  C4  UNL     1      21.778  14.587  11.362  1.00  0.00     0.000 C 
HETATM    5  C5  UNL     1      22.066  14.828   9.899  1.00  0.00     0.002 C 
HETATM    6  C6  UNL     1      22.944  13.796   9.289  1.00  0.00     0.033 C 
HETATM    7  C7  UNL     1      24.055  13.294  10.117  1.00  0.00     0.187 C 
ENDROOT
BRANCH   7   8
HETATM    8  N1  UNL     1      25.318  13.807   9.553  1.00  0.00    -0.075 N 
ATOM      9  H13 UNL     1      26.112  13.219   9.807  1.00  0.00     0.274 HD
ATOM     10  H12 UNL     1      25.356  13.689   8.541  1.00  0.00     0.274 HD
ATOM     11  H11 UNL     1      25.465  14.779   9.827  1.00  0.00     0.274 HD
ENDBRANCH   7   8
TORSDOF 1
ENDMDL
MODEL 5
REMARK VINA RESULT: -4.093959972      1.832      3.306
REMARK  1 active torsions:
REMARK  status: ('A' for Active; 'I' for Inactive)
REMARK    1  A    between atoms: C7_7  and  N1_8 
ROOT
HETATM    1  C1  UNL     1      21.711  14.423  10.082  1.00  0.00     0.012 C 
HETATM    2  C2  UNL     1      22.619  14.634  11.305  1.00  0.00     0.012 C 
HETATM    3  C3  UNL     1      23.967  14.068  11.048  1.00  0.00     0.006 C 
HETATM    4  C4  UNL     1      24.020  12.586  11.336  1.00  0.00     0.000 C 
HETATM    5  C5  UNL     1      23.730  12.450  12.812  1.00  0.00     0.002 C 
HETATM    6  C6  UNL     1      22.399  12.979  13.208  1.00  0.00     0.033 C 
HETATM    7  C7  UNL     1      21.954  14.220  12.550  1.00  0.00     0.187 C 
ENDROOT
BRANCH   7   8
HETATM    8  N1  UNL     1      21.989  15.308  13.546  1.00  0.00    -0.075 N 
ATOM      9  H13 UNL     1      22.932  15.465  13.901  1.00  0.00     0.274 HD
ATOM     10  H12 UNL     1      21.834  16.220  13.116  1.00  0.00     0.274 HD
ATOM     11  H11 UNL     1      21.326  15.127  14.300  1.00  0.00     0.274 HD
ENDBRANCH   7   8
TORSDOF 1
ENDMDL
