MODEL 1
REMARK VINA RESULT: -4.668931096      0.000      0.000
REMARK  3 active torsions:
REMARK  status: ('A' for Active; 'I' for Inactive)
REMARK    1  A    between atoms: C2_2  and  C3_3 
REMARK    2  A    between atoms: C8_9  and  C9_10 
REMARK    3  A    between atoms: C9_10  and  N1_11 
ROOT
HETATM    1  C3  UNL     1     -65.260  35.775 -45.071  1.00  0.00    -0.006 C 
HETATM    2  C4  UNL     1     -64.577  35.462 -43.737  1.00  0.00     0.031 C 
HETATM    3  C5  UNL     1     -63.416  36.391 -43.488  1.00  0.00     0.169 C 
HETATM    4  O1  UNL     1     -63.586  37.617 -44.147  1.00  0.00    -0.380 OA
HETATM    5  C6  UNL     1     -64.904  37.996 -44.151  1.00  0.00     0.065 C 
HETATM    6  C7  UNL     1     -65.464  38.223 -42.784  1.00  0.00     0.044 C 
HETATM    7  C8  UNL     1     -65.125  39.695 -42.940  1.00  0.00     0.017 C 
HETATM    8  C10 UNL     1     -65.106  39.476 -44.430  1.00  0.00     0.044 C 
HETATM    9  C11 UNL     1     -65.767  37.168 -45.085  1.00  0.00     0.020 C 
HETATM   10  C12 UNL     1     -65.581  37.741 -46.474  1.00  0.00     0.013 C 
ENDROOT
BRANCH   7  11
HETATM   11  C9  UNL     1     -66.216  40.632 -42.460  1.00  0.00     0.234 C 
BRANCH  11  12
HETATM   12  N1  UNL     1     -65.751  41.431 -41.342  1.00  0.00    -0.079 N 
ATOM     13  H13 UNL     1     -66.109  41.082 -40.452  1.00  0.00     0.274 HD
ATOM     14  H12 UNL     1     -64.754  41.296 -41.170  1.00  0.00     0.274 HD
ATOM     15  H11 UNL     1     -65.981  42.415 -41.482  1.00  0.00     0.274 HD
ENDBRANCH  11  12
ENDBRANCH   7  11
BRANCH   1  16
HETATM   16  C2  UNL     1     -66.260  34.714 -45.379  1.00  0.00     0.000 C 
HETATM   17  C1  UNL     1     -65.792  33.321 -45.328  1.00  0.00     0.005 C 
ENDBRANCH   1  16
TORSDOF 3
ENDMDL
MODEL 2
REMARK VINA RESULT: -4.389368979      2.839      4.899
REMARK  3 active torsions:
REMARK  status: ('A' for Active; 'I' for Inactive)
REMARK    1  A    between atoms: C2_2  and  C3_3 
REMARK    2  A    between atoms: C8_9  and  C9_10 
REMARK    3  A    between atoms: C9_10  and  N1_11 
ROOT
HETATM    1  C3  UNL     1     -64.391  39.852 -43.202  1.00  0.00    -0.006 C 
HETATM    2  C4  UNL     1     -63.003  39.215 -43.100  1.00  0.00     0.031 C 
HETATM    3  C5  UNL     1     -63.003  38.059 -42.131  1.00  0.00     0.169 C 
HETATM    4  O1  UNL     1     -64.274  37.474 -42.027  1.00  0.00    -0.380 OA
HETATM    5  C6  UNL     1     -64.920  37.481 -43.236  1.00  0.00     0.065 C 
HETATM    6  C7  UNL     1     -64.223  36.682 -44.290  1.00  0.00     0.044 C 
HETATM    7  C8  UNL     1     -65.106  35.505 -43.918  1.00  0.00     0.017 C 
HETATM    8  C10 UNL     1     -66.071  36.491 -43.312  1.00  0.00     0.044 C 
HETATM    9  C11 UNL     1     -65.390  38.859 -43.662  1.00  0.00     0.020 C 
HETATM   10  C12 UNL     1     -66.699  39.114 -42.943  1.00  0.00     0.013 C 
ENDROOT
BRANCH   7  11
HETATM   11  C9  UNL     1     -65.655  34.745 -45.110  1.00  0.00     0.234 C 
BRANCH  11  12
HETATM   12  N1  UNL     1     -65.343  33.332 -45.005  1.00  0.00    -0.079 N 
ATOM     13  H13 UNL     1     -64.404  33.178 -44.637  1.00  0.00     0.274 HD
ATOM     14  H12 UNL     1     -65.875  32.882 -44.260  1.00  0.00     0.274 HD
ATOM     15  H11 UNL     1     -65.479  32.866 -45.902  1.00  0.00     0.274 HD
ENDBRANCH  11  12
ENDBRANCH   7  11
BRANCH   1  16
HETATM   16  C2  UNL     1     -64.304  41.108 -43.999  1.00  0.00     0.000 C 
HETATM   17  C1  UNL     1     -63.765  40.997 -45.363  1.00  0.00     0.005 C 
ENDBRANCH   1  16
TORSDOF 3
ENDMDL
MODEL 3
REMARK VINA RESULT: -4.350751110      3.017      4.757
REMARK  3 active torsions:
REMARK  status: ('A' for Active; 'I' for Inactive)
REMARK    1  A    between atoms: C2_2  and  C3_3 
REMARK    2  A    between atoms: C8_9  and  C9_10 
REMARK    3  A    between atoms: C9_10  and  N1_11 
ROOT
HETATM    1  C3  UNL     1     -64.030  38.208 -42.777  1.00  0.00    -0.006 C 
HETATM    2  C4  UNL     1     -63.069  37.061 -43.096  1.00  0.00     0.031 C 
HETATM    3  C5  UNL     1     -63.757  35.978 -43.889  1.00  0.00     0.169 C 
HETATM    4  O1  UNL     1     -64.831  36.487 -44.633  1.00  0.00    -0.380 OA
HETATM    5  C6  UNL     1     -64.552  37.744 -45.104  1.00  0.00     0.065 C 
HETATM    6  C7  UNL     1     -63.390  37.786 -46.044  1.00  0.00     0.044 C 
HETATM    7  C8  UNL     1     -64.375  37.662 -47.194  1.00  0.00     0.017 C 
HETATM    8  C10 UNL     1     -65.444  38.168 -46.260  1.00  0.00     0.044 C 
HETATM    9  C11 UNL     1     -64.560  38.809 -44.024  1.00  0.00     0.020 C 
HETATM   10  C12 UNL     1     -66.008  39.196 -43.802  1.00  0.00     0.013 C 
ENDROOT
BRANCH   7  11
HETATM   11  C9  UNL     1     -64.077  38.583 -48.360  1.00  0.00     0.234 C 
BRANCH  11  12
HETATM   12  N1  UNL     1     -63.742  37.817 -49.546  1.00  0.00    -0.079 N 
ATOM     13  H13 UNL     1     -62.988  38.253 -50.077  1.00  0.00     0.274 HD
ATOM     14  H12 UNL     1     -63.278  36.940 -49.311  1.00  0.00     0.274 HD
ATOM     15  H11 UNL     1     -64.570  37.664 -50.122  1.00  0.00     0.274 HD
ENDBRANCH  11  12
ENDBRANCH   7  11
BRANCH   1  16
HETATM   16  C2  UNL     1     -63.380  39.151 -41.823  1.00  0.00     0.000 C 
HETATM   17  C1  UNL     1     -63.003  40.473 -42.345  1.00  0.00     0.005 C 
ENDBRANCH   1  16
TORSDOF 3
ENDMDL
MODEL 4
REMARK VINA RESULT: -4.336543090      3.013      4.739
REMARK  3 active torsions:
REMARK  status: ('A' for Active; 'I' for Inactive)
REMARK    1  A    between atoms: C2_2  and  C3_3 
REMARK    2  A    between atoms: C8_9  and  C9_10 
REMARK    3  A    between atoms: C9_10  and  N1_11 
ROOT
HETATM    1  C3  UNL     1     -64.692  37.605 -49.215  1.00  0.00    -0.006 C 
HETATM    2  C4  UNL     1     -64.173  38.987 -48.811  1.00  0.00     0.031 C 
HETATM    3  C5  UNL     1     -65.032  39.599 -47.733  1.00  0.00     0.169 C 
HETATM    4  O1  UNL     1     -65.671  38.615 -46.963  1.00  0.00    -0.380 OA
HETATM    5  C6  UNL     1     -64.863  37.521 -46.792  1.00  0.00     0.065 C 
HETATM    6  C7  UNL     1     -63.602  37.820 -46.048  1.00  0.00     0.044 C 
HETATM    7  C8  UNL     1     -64.308  37.396 -44.772  1.00  0.00     0.017 C 
HETATM    8  C10 UNL     1     -65.284  36.635 -45.631  1.00  0.00     0.044 C 
HETATM    9  C11 UNL     1     -64.701  36.688 -48.050  1.00  0.00     0.020 C 
HETATM   10  C12 UNL     1     -65.921  35.794 -48.142  1.00  0.00     0.013 C 
ENDROOT
BRANCH   7  11
HETATM   11  C9  UNL     1     -63.464  36.525 -43.863  1.00  0.00     0.234 C 
BRANCH  11  12
HETATM   12  N1  UNL     1     -63.528  37.000 -42.494  1.00  0.00    -0.079 N 
ATOM     13  H13 UNL     1     -64.457  36.872 -42.092  1.00  0.00     0.274 HD
ATOM     14  H12 UNL     1     -63.002  36.398 -41.859  1.00  0.00     0.274 HD
ATOM     15  H11 UNL     1     -63.222  37.971 -42.435  1.00  0.00     0.274 HD
ENDBRANCH  11  12
ENDBRANCH   7  11
BRANCH   1  16
HETATM   16  C2  UNL     1     -63.951  37.126 -50.416  1.00  0.00     0.000 C 
HETATM   17  C1  UNL     1     -63.767  38.088 -51.513  1.00  0.00     0.005 C 
ENDBRANCH   1  16
TORSDOF 3
ENDMDL
MODEL 5
REMARK VINA RESULT: -4.328089345      1.839      2.790
REMARK  3 active torsions:
REMARK  status: ('A' for Active; 'I' for Inactive)
REMARK    1  A    between atoms: C2_2  and  C3_3 
REMARK    2  A    between atoms: C8_9  and  C9_10 
REMARK    3  A    between atoms: C9_10  and  N1_11 
ROOT
HETATM    1  C3  UNL     1     -66.422  35.102 -45.358  1.00  0.00    -0.006 C 
HETATM    2  C4  UNL     1     -67.874  35.585 -45.357  1.00  0.00     0.031 C 
HETATM    3  C5  UNL     1     -68.404  35.717 -43.951  1.00  0.00     0.169 C 
HETATM    4  O1  UNL     1     -67.372  35.961 -43.033  1.00  0.00    -0.380 OA
HETATM    5  C6  UNL     1     -66.402  36.760 -43.581  1.00  0.00     0.065 C 
HETATM    6  C7  UNL     1     -66.893  38.118 -43.965  1.00  0.00     0.044 C 
HETATM    7  C8  UNL     1     -66.425  38.620 -42.610  1.00  0.00     0.017 C 
HETATM    8  C10 UNL     1     -65.510  37.425 -42.546  1.00  0.00     0.044 C 
HETATM    9  C11 UNL     1     -65.554  36.051 -44.621  1.00  0.00     0.020 C 
HETATM   10  C12 UNL     1     -64.503  35.266 -43.864  1.00  0.00     0.013 C 
ENDROOT
BRANCH   7  11
HETATM   11  C9  UNL     1     -65.707  39.954 -42.663  1.00  0.00     0.234 C 
BRANCH  11  12
HETATM   12  N1  UNL     1     -66.185  40.835 -41.614  1.00  0.00    -0.079 N 
ATOM     13  H13 UNL     1     -67.092  41.242 -41.846  1.00  0.00     0.274 HD
ATOM     14  H12 UNL     1     -66.459  40.316 -40.780  1.00  0.00     0.274 HD
ATOM     15  H11 UNL     1     -65.492  41.553 -41.403  1.00  0.00     0.274 HD
ENDBRANCH  11  12
ENDBRANCH   7  11
BRANCH   1  16
HETATM   16  C2  UNL     1     -66.003  34.784 -46.753  1.00  0.00     0.000 C 
HETATM   17  C1  UNL     1     -66.361  35.758 -47.794  1.00  0.00     0.005 C 
ENDBRANCH   1  16
TORSDOF 3
ENDMDL
