MODEL 1
REMARK VINA RESULT: -8.439017203      0.000      0.000
REMARK  9 active torsions:
REMARK  status: ('A' for Active; 'I' for Inactive)
REMARK    1  A    between atoms: C2_2  and  C3_3 
REMARK    2  A    between atoms: C3_3  and  C4_4 
REMARK    3  A    between atoms: C5_5  and  C6_6 
REMARK    4  A    between atoms: C7_7  and  O1_8 
REMARK    5  A    between atoms: C8_10  and  C9_11 
REMARK    6  A    between atoms: N1_12  and  C10_14 
REMARK    7  A    between atoms: C10_14  and  C11_15 
REMARK    8  A    between atoms: C16_22  and  O4_23 
REMARK    9  A    between atoms: C22_30  and  O5_31 
ROOT
HETATM    1  C6  UNL     1       2.286   3.979  34.766  1.00  0.00     0.033 A 
HETATM    2  C7  UNL     1       3.022   4.729  35.751  1.00  0.00     0.093 A 
HETATM    3  C8  UNL     1       3.156   4.311  37.003  1.00  0.00     0.048 A 
HETATM    4  C14 UNL     1       2.531   3.091  37.383  1.00  0.00     0.107 A 
HETATM    5  O2  UNL     1       2.690   2.767  38.680  1.00  0.00    -0.271 OA
HETATM    6  C15 UNL     1       2.161   1.708  39.141  1.00  0.00     0.322 A 
HETATM    7  O3  UNL     1       2.281   1.360  40.349  1.00  0.00    -0.257 OA
HETATM    8  C16 UNL     1       1.434   0.929  38.258  1.00  0.00     0.153 A 
HETATM    9  C17 UNL     1       1.206   1.176  36.882  1.00  0.00     0.021 A 
HETATM   10  C18 UNL     1       0.429   0.208  36.181  1.00  0.00    -0.073 C 
HETATM   11  C19 UNL     1       0.443  -0.342  34.835  1.00  0.00     0.044 C 
HETATM   12  C20 UNL     1      -1.010   0.055  36.771  1.00  0.00     0.044 C 
HETATM   13  C21 UNL     1       1.813   2.343  36.483  1.00  0.00     0.046 A 
HETATM   14  C22 UNL     1       1.694   2.795  35.166  1.00  0.00     0.092 A 
ENDROOT
BRANCH   3  15
HETATM   15  C9  UNL     1       4.199   4.811  37.943  1.00  0.00     0.104 C 
HETATM   16  N1  UNL     1       4.579   5.905  38.320  1.00  0.00    -0.378 N 
ATOM     17  H1  UNL     1       5.328   5.702  38.981  1.00  0.00     0.164 HD
BRANCH  16  18
HETATM   18  C10 UNL     1       4.501   7.272  38.297  1.00  0.00     0.064 C 
BRANCH  18  19
HETATM   19  C11 UNL     1       5.754   8.013  37.838  1.00  0.00     0.016 C 
HETATM   20  C12 UNL     1       6.670   8.038  39.077  1.00  0.00     0.015 C 
HETATM   21  C13 UNL     1       6.458   7.188  36.791  1.00  0.00     0.015 C 
ENDBRANCH  18  19
ENDBRANCH  16  18
ENDBRANCH   3  15
BRANCH   2  22
HETATM   22  O1  UNL     1       3.541   5.917  35.274  1.00  0.00    -0.359 OA
ATOM     23  H1  UNL     1       3.656   6.581  35.943  1.00  0.00     0.217 HD
ENDBRANCH   2  22
BRANCH   1  24
HETATM   24  C5  UNL     1       2.197   4.586  33.497  1.00  0.00     0.025 C 
HETATM   25  C4  UNL     1       1.321   5.103  32.647  1.00  0.00     0.051 C 
BRANCH  25  26
HETATM   26  C3  UNL     1       1.977   5.603  31.392  1.00  0.00    -0.156 C 
BRANCH  26  27
HETATM   27  C2  UNL     1       2.464   5.941  30.409  1.00  0.00     0.080 C 
HETATM   28  C1  UNL     1       1.318   6.096  29.238  1.00  0.00     0.017 C 
ENDBRANCH  26  27
ENDBRANCH  25  26
ENDBRANCH   1  24
BRANCH  14  29
HETATM   29  O5  UNL     1       0.977   2.063  34.288  1.00  0.00    -0.359 OA
ATOM     30  H5  UNL     1       0.350   1.421  34.599  1.00  0.00     0.217 HD
ENDBRANCH  14  29
BRANCH   8  31
HETATM   31  O4  UNL     1       0.858  -0.246  38.804  1.00  0.00    -0.355 OA
ATOM     32  H4  UNL     1       0.668  -0.939  38.183  1.00  0.00     0.218 HD
ENDBRANCH   8  31
TORSDOF 9
ENDMDL
MODEL 2
REMARK VINA RESULT: -7.566494693      2.503      6.059
REMARK  9 active torsions:
REMARK  status: ('A' for Active; 'I' for Inactive)
REMARK    1  A    between atoms: C2_2  and  C3_3 
REMARK    2  A    between atoms: C3_3  and  C4_4 
REMARK    3  A    between atoms: C5_5  and  C6_6 
REMARK    4  A    between atoms: C7_7  and  O1_8 
REMARK    5  A    between atoms: C8_10  and  C9_11 
REMARK    6  A    between atoms: N1_12  and  C10_14 
REMARK    7  A    between atoms: C10_14  and  C11_15 
REMARK    8  A    between atoms: C16_22  and  O4_23 
REMARK    9  A    between atoms: C22_30  and  O5_31 
ROOT
HETATM    1  C6  UNL     1       1.574   3.483  34.618  1.00  0.00     0.033 A 
HETATM    2  C7  UNL     1       1.015   2.199  34.287  1.00  0.00     0.093 A 
HETATM    3  C8  UNL     1       0.867   1.238  35.189  1.00  0.00     0.048 A 
HETATM    4  C14 UNL     1       1.298   1.485  36.522  1.00  0.00     0.107 A 
HETATM    5  O2  UNL     1       1.142   0.441  37.357  1.00  0.00    -0.271 OA
HETATM    6  C15 UNL     1       1.508   0.536  38.570  1.00  0.00     0.322 A 
HETATM    7  O3  UNL     1       1.383  -0.413  39.393  1.00  0.00    -0.257 OA
HETATM    8  C16 UNL     1       2.059   1.741  38.971  1.00  0.00     0.153 A 
HETATM    9  C17 UNL     1       2.266   2.896  38.178  1.00  0.00     0.021 A 
HETATM   10  C18 UNL     1       2.842   4.024  38.834  1.00  0.00    -0.073 C 
HETATM   11  C19 UNL     1       2.680   5.465  38.732  1.00  0.00     0.044 C 
HETATM   12  C20 UNL     1       4.259   3.717  39.415  1.00  0.00     0.044 C 
HETATM   13  C21 UNL     1       1.844   2.691  36.887  1.00  0.00     0.046 A 
HETATM   14  C22 UNL     1       1.979   3.694  35.923  1.00  0.00     0.092 A 
ENDROOT
BRANCH   3  15
HETATM   15  C9  UNL     1      -0.039   0.066  35.020  1.00  0.00     0.104 C 
HETATM   16  N1  UNL     1      -1.107  -0.284  35.492  1.00  0.00    -0.378 N 
ATOM     17  H1  UNL     1      -1.307  -1.174  35.037  1.00  0.00     0.164 HD
BRANCH  16  18
HETATM   18  C10 UNL     1      -2.171  -0.077  36.328  1.00  0.00     0.064 C 
BRANCH  18  19
HETATM   19  C11 UNL     1      -3.556  -0.177  35.697  1.00  0.00     0.016 C 
HETATM   20  C12 UNL     1      -3.511  -1.468  34.856  1.00  0.00     0.015 C 
HETATM   21  C13 UNL     1      -4.577  -0.399  36.784  1.00  0.00     0.015 C 
ENDBRANCH  18  19
ENDBRANCH  16  18
ENDBRANCH   3  15
BRANCH   2  22
HETATM   22  O1  UNL     1       0.679   2.064  32.953  1.00  0.00    -0.359 OA
ATOM     23  H1  UNL     1       1.000   2.771  32.404  1.00  0.00     0.217 HD
ENDBRANCH   2  22
BRANCH   1  24
HETATM   24  C5  UNL     1       1.708   4.375  33.534  1.00  0.00     0.025 C 
HETATM   25  C4  UNL     1       2.444   5.389  33.102  1.00  0.00     0.051 C 
BRANCH  25  26
HETATM   26  C3  UNL     1       1.989   5.890  31.762  1.00  0.00    -0.156 C 
BRANCH  26  27
HETATM   27  C2  UNL     1       1.619   6.227  30.728  1.00  0.00     0.080 C 
HETATM   28  C1  UNL     1       2.754   5.885  29.587  1.00  0.00     0.017 C 
ENDBRANCH  26  27
ENDBRANCH  25  26
ENDBRANCH   1  24
BRANCH  14  29
HETATM   29  O5  UNL     1       2.527   4.873  36.284  1.00  0.00    -0.359 OA
ATOM     30  H5  UNL     1       2.805   5.018  37.180  1.00  0.00     0.217 HD
ENDBRANCH  14  29
BRANCH   8  31
HETATM   31  O4  UNL     1       2.455   1.815  40.330  1.00  0.00    -0.355 OA
ATOM     32  H4  UNL     1       2.719   2.674  40.637  1.00  0.00     0.218 HD
ENDBRANCH   8  31
TORSDOF 9
ENDMDL
MODEL 3
REMARK VINA RESULT: -7.521313003      1.977      6.588
REMARK  9 active torsions:
REMARK  status: ('A' for Active; 'I' for Inactive)
REMARK    1  A    between atoms: C2_2  and  C3_3 
REMARK    2  A    between atoms: C3_3  and  C4_4 
REMARK    3  A    between atoms: C5_5  and  C6_6 
REMARK    4  A    between atoms: C7_7  and  O1_8 
REMARK    5  A    between atoms: C8_10  and  C9_11 
REMARK    6  A    between atoms: N1_12  and  C10_14 
REMARK    7  A    between atoms: C10_14  and  C11_15 
REMARK    8  A    between atoms: C16_22  and  O4_23 
REMARK    9  A    between atoms: C22_30  and  O5_31 
ROOT
HETATM    1  C6  UNL     1       3.674   5.116  37.030  1.00  0.00     0.033 A 
HETATM    2  C7  UNL     1       3.405   4.041  37.949  1.00  0.00     0.093 A 
HETATM    3  C8  UNL     1       2.636   3.010  37.625  1.00  0.00     0.048 A 
HETATM    4  C14 UNL     1       2.044   2.983  36.332  1.00  0.00     0.107 A 
HETATM    5  O2  UNL     1       1.252   1.919  36.106  1.00  0.00    -0.271 OA
HETATM    6  C15 UNL     1       0.653   1.794  34.993  1.00  0.00     0.322 A 
HETATM    7  O3  UNL     1      -0.099   0.814  34.732  1.00  0.00    -0.257 OA
HETATM    8  C16 UNL     1       0.859   2.788  34.051  1.00  0.00     0.153 A 
HETATM    9  C17 UNL     1       1.667   3.943  34.185  1.00  0.00     0.021 A 
HETATM   10  C18 UNL     1       1.725   4.814  33.058  1.00  0.00    -0.073 C 
HETATM   11  C19 UNL     1       2.752   5.647  32.454  1.00  0.00     0.044 C 
HETATM   12  C20 UNL     1       0.324   5.388  32.673  1.00  0.00     0.044 C 
HETATM   13  C21 UNL     1       2.265   3.987  35.421  1.00  0.00     0.046 A 
HETATM   14  C22 UNL     1       3.088   5.058  35.779  1.00  0.00     0.092 A 
ENDROOT
BRANCH   3  15
HETATM   15  C9  UNL     1       2.634   1.709  38.353  1.00  0.00     0.104 C 
HETATM   16  N1  UNL     1       1.815   0.832  38.564  1.00  0.00    -0.378 N 
ATOM     17  H1  UNL     1       2.320   0.139  39.118  1.00  0.00     0.164 HD
BRANCH  16  18
HETATM   18  C10 UNL     1       0.555   0.312  38.430  1.00  0.00     0.064 C 
BRANCH  18  19
HETATM   19  C11 UNL     1       0.453  -1.042  37.733  1.00  0.00     0.016 C 
HETATM   20  C12 UNL     1       0.477  -2.074  38.877  1.00  0.00     0.015 C 
HETATM   21  C13 UNL     1      -0.896  -1.154  37.071  1.00  0.00     0.015 C 
ENDBRANCH  18  19
ENDBRANCH  16  18
ENDBRANCH   3  15
BRANCH   2  22
HETATM   22  O1  UNL     1       3.996   4.205  39.187  1.00  0.00    -0.359 OA
ATOM     23  H1  UNL     1       3.925   3.442  39.750  1.00  0.00     0.217 HD
ENDBRANCH   2  22
BRANCH   1  24
HETATM   24  C5  UNL     1       4.469   6.160  37.547  1.00  0.00     0.025 C 
HETATM   25  C4  UNL     1       5.612   6.800  37.343  1.00  0.00     0.051 C 
BRANCH  25  26
HETATM   26  C3  UNL     1       5.842   7.886  38.354  1.00  0.00    -0.156 C 
BRANCH  26  27
HETATM   27  C2  UNL     1       5.970   8.707  39.146  1.00  0.00     0.080 C 
HETATM   28  C1  UNL     1       7.485   8.638  39.785  1.00  0.00     0.017 C 
ENDBRANCH  26  27
ENDBRANCH  25  26
ENDBRANCH   1  24
BRANCH  14  29
HETATM   29  O5  UNL     1       3.293   6.049  34.886  1.00  0.00    -0.359 OA
ATOM     30  H5  UNL     1       4.100   6.086  34.388  1.00  0.00     0.217 HD
ENDBRANCH  14  29
BRANCH   8  31
HETATM   31  O4  UNL     1       0.178   2.619  32.819  1.00  0.00    -0.355 OA
ATOM     32  H4  UNL     1       0.580   3.033  32.065  1.00  0.00     0.218 HD
ENDBRANCH   8  31
TORSDOF 9
ENDMDL
MODEL 4
REMARK VINA RESULT: -7.293147154      1.543      1.955
REMARK  9 active torsions:
REMARK  status: ('A' for Active; 'I' for Inactive)
REMARK    1  A    between atoms: C2_2  and  C3_3 
REMARK    2  A    between atoms: C3_3  and  C4_4 
REMARK    3  A    between atoms: C5_5  and  C6_6 
REMARK    4  A    between atoms: C7_7  and  O1_8 
REMARK    5  A    between atoms: C8_10  and  C9_11 
REMARK    6  A    between atoms: N1_12  and  C10_14 
REMARK    7  A    between atoms: C10_14  and  C11_15 
REMARK    8  A    between atoms: C16_22  and  O4_23 
REMARK    9  A    between atoms: C22_30  and  O5_31 
ROOT
HETATM    1  C6  UNL     1       1.177   4.049  33.725  1.00  0.00     0.033 A 
HETATM    2  C7  UNL     1       2.124   5.051  34.140  1.00  0.00     0.093 A 
HETATM    3  C8  UNL     1       2.828   4.939  35.259  1.00  0.00     0.048 A 
HETATM    4  C14 UNL     1       2.619   3.798  36.082  1.00  0.00     0.107 A 
HETATM    5  O2  UNL     1       3.350   3.789  37.213  1.00  0.00    -0.271 OA
HETATM    6  C15 UNL     1       3.235   2.830  38.038  1.00  0.00     0.322 A 
HETATM    7  O3  UNL     1       3.897   2.774  39.111  1.00  0.00    -0.257 OA
HETATM    8  C16 UNL     1       2.342   1.822  37.714  1.00  0.00     0.153 A 
HETATM    9  C17 UNL     1       1.530   1.734  36.557  1.00  0.00     0.021 A 
HETATM   10  C18 UNL     1       0.698   0.581  36.449  1.00  0.00    -0.073 C 
HETATM   11  C19 UNL     1       0.243  -0.258  35.354  1.00  0.00     0.044 C 
HETATM   12  C20 UNL     1      -0.323   0.469  37.626  1.00  0.00     0.044 C 
HETATM   13  C21 UNL     1       1.723   2.818  35.735  1.00  0.00     0.046 A 
HETATM   14  C22 UNL     1       1.001   2.950  34.546  1.00  0.00     0.092 A 
ENDROOT
BRANCH   3  15
HETATM   15  C9  UNL     1       4.072   5.709  35.543  1.00  0.00     0.104 C 
HETATM   16  N1  UNL     1       4.541   6.280  36.512  1.00  0.00    -0.378 N 
ATOM     17  H1  UNL     1       5.432   6.652  36.184  1.00  0.00     0.164 HD
BRANCH  16  18
HETATM   18  C10 UNL     1       4.467   6.670  37.823  1.00  0.00     0.064 C 
BRANCH  18  19
HETATM   19  C11 UNL     1       5.738   7.262  38.425  1.00  0.00     0.016 C 
HETATM   20  C12 UNL     1       6.616   7.621  37.210  1.00  0.00     0.015 C 
HETATM   21  C13 UNL     1       5.398   8.557  39.117  1.00  0.00     0.015 C 
ENDBRANCH  18  19
ENDBRANCH  16  18
ENDBRANCH   3  15
BRANCH   2  22
HETATM   22  O1  UNL     1       2.203   6.132  33.283  1.00  0.00    -0.359 OA
ATOM     23  H1  UNL     1       1.521   6.780  33.419  1.00  0.00     0.217 HD
ENDBRANCH   2  22
BRANCH   1  24
HETATM   24  C5  UNL     1       0.476   4.343  32.538  1.00  0.00     0.025 C 
HETATM   25  C4  UNL     1      -0.382   3.817  31.676  1.00  0.00     0.051 C 
BRANCH  25  26
HETATM   26  C3  UNL     1      -0.723   4.767  30.564  1.00  0.00    -0.156 C 
BRANCH  26  27
HETATM   27  C2  UNL     1      -0.938   5.517  29.722  1.00  0.00     0.080 C 
HETATM   28  C1  UNL     1      -2.036   6.632  30.232  1.00  0.00     0.017 C 
ENDBRANCH  26  27
ENDBRANCH  25  26
ENDBRANCH   1  24
BRANCH  14  29
HETATM   29  O5  UNL     1       0.112   1.989  34.214  1.00  0.00    -0.359 OA
ATOM     30  H5  UNL     1       0.414   1.131  33.941  1.00  0.00     0.217 HD
ENDBRANCH  14  29
BRANCH   8  31
HETATM   31  O4  UNL     1       2.239   0.766  38.654  1.00  0.00    -0.355 OA
ATOM     32  H4  UNL     1       3.030   0.261  38.795  1.00  0.00     0.218 HD
ENDBRANCH   8  31
TORSDOF 9
ENDMDL
MODEL 5
REMARK VINA RESULT: -7.209819986      2.424      6.198
REMARK  9 active torsions:
REMARK  status: ('A' for Active; 'I' for Inactive)
REMARK    1  A    between atoms: C2_2  and  C3_3 
REMARK    2  A    between atoms: C3_3  and  C4_4 
REMARK    3  A    between atoms: C5_5  and  C6_6 
REMARK    4  A    between atoms: C7_7  and  O1_8 
REMARK    5  A    between atoms: C8_10  and  C9_11 
REMARK    6  A    between atoms: N1_12  and  C10_14 
REMARK    7  A    between atoms: C10_14  and  C11_15 
REMARK    8  A    between atoms: C16_22  and  O4_23 
REMARK    9  A    between atoms: C22_30  and  O5_31 
ROOT
HETATM    1  C6  UNL     1       1.479   3.588  34.675  1.00  0.00     0.033 A 
HETATM    2  C7  UNL     1       0.813   2.332  34.450  1.00  0.00     0.093 A 
HETATM    3  C8  UNL     1       0.670   1.426  35.408  1.00  0.00     0.048 A 
HETATM    4  C14 UNL     1       1.215   1.703  36.692  1.00  0.00     0.107 A 
HETATM    5  O2  UNL     1       1.054   0.712  37.589  1.00  0.00    -0.271 OA
HETATM    6  C15 UNL     1       1.515   0.836  38.766  1.00  0.00     0.322 A 
HETATM    7  O3  UNL     1       1.390  -0.064  39.643  1.00  0.00    -0.257 OA
HETATM    8  C16 UNL     1       2.172   2.017  39.065  1.00  0.00     0.153 A 
HETATM    9  C17 UNL     1       2.396   3.118  38.202  1.00  0.00     0.021 A 
HETATM   10  C18 UNL     1       3.092   4.231  38.756  1.00  0.00    -0.073 C 
HETATM   11  C19 UNL     1       3.019   5.674  38.593  1.00  0.00     0.044 C 
HETATM   12  C20 UNL     1       4.526   3.854  39.250  1.00  0.00     0.044 C 
HETATM   13  C21 UNL     1       1.865   2.883  36.956  1.00  0.00     0.046 A 
HETATM   14  C22 UNL     1       1.994   3.829  35.935  1.00  0.00     0.092 A 
ENDROOT
BRANCH   3  15
HETATM   15  C9  UNL     1      -0.322   0.313  35.365  1.00  0.00     0.104 C 
HETATM   16  N1  UNL     1      -0.301  -0.859  35.032  1.00  0.00    -0.378 N 
ATOM     17  H1  UNL     1      -1.250  -1.189  35.202  1.00  0.00     0.164 HD
BRANCH  16  18
HETATM   18  C10 UNL     1       0.363  -1.953  34.545  1.00  0.00     0.064 C 
BRANCH  18  19
HETATM   19  C11 UNL     1      -0.504  -3.131  34.110  1.00  0.00     0.016 C 
HETATM   20  C12 UNL     1       0.351  -3.884  33.073  1.00  0.00     0.015 C 
HETATM   21  C13 UNL     1      -0.692  -4.062  35.281  1.00  0.00     0.015 C 
ENDBRANCH  18  19
ENDBRANCH  16  18
ENDBRANCH   3  15
BRANCH   2  22
HETATM   22  O1  UNL     1       0.370   2.160  33.153  1.00  0.00    -0.359 OA
ATOM     23  H1  UNL     1       0.520   1.287  32.809  1.00  0.00     0.217 HD
ENDBRANCH   2  22
BRANCH   1  24
HETATM   24  C5  UNL     1       1.590   4.418  33.540  1.00  0.00     0.025 C 
HETATM   25  C4  UNL     1       2.381   5.323  32.984  1.00  0.00     0.051 C 
BRANCH  25  26
HETATM   26  C3  UNL     1       1.839   5.824  31.676  1.00  0.00    -0.156 C 
BRANCH  26  27
HETATM   27  C2  UNL     1       1.458   6.176  30.652  1.00  0.00     0.080 C 
HETATM   28  C1  UNL     1       2.618   5.937  29.509  1.00  0.00     0.017 C 
ENDBRANCH  26  27
ENDBRANCH  25  26
ENDBRANCH   1  24
BRANCH  14  29
HETATM   29  O5  UNL     1       2.644   4.983  36.195  1.00  0.00    -0.359 OA
ATOM     30  H5  UNL     1       2.249   5.817  35.970  1.00  0.00     0.217 HD
ENDBRANCH  14  29
BRANCH   8  31
HETATM   31  O4  UNL     1       2.674   2.125  40.387  1.00  0.00    -0.355 OA
ATOM     32  H4  UNL     1       2.273   2.796  40.926  1.00  0.00     0.218 HD
ENDBRANCH   8  31
TORSDOF 9
ENDMDL
