MODEL 1
REMARK VINA RESULT: -7.931532858      0.000      0.000
REMARK  12 active torsions:
REMARK  status: ('A' for Active; 'I' for Inactive)
REMARK    1  A    between atoms: C2_2  and  C3_4 
REMARK       I    between atoms: C3_4  and  N1_6 
REMARK    2  A    between atoms: N1_6  and  C4_8 
REMARK    3  A    between atoms: C4_8  and  C5_9 
REMARK    4  A    between atoms: C5_9  and  C6_10 
REMARK    5  A    between atoms: C6_10  and  C7_11 
REMARK    6  A    between atoms: C7_11  and  C8_12 
REMARK    7  A    between atoms: C8_12  and  N2_13 
REMARK       I    between atoms: N2_13  and  C9_15 
REMARK    8  A    between atoms: C9_15  and  C10_17 
REMARK    9  A    between atoms: C10_17  and  C11_18 
REMARK   10  A    between atoms: C11_18  and  C12_19 
REMARK   11  A    between atoms: C12_19  and  C13_20 
REMARK   12  A    between atoms: C13_20  and  C14_21 
ROOT
HETATM    1  N2  UNL     1      21.895  19.085  28.567  1.00  0.00    -0.361 N 
ATOM      2  H2  UNL     1      21.193  19.817  28.466  1.00  0.00     0.162 HD
HETATM    3  C9  UNL     1      23.198  19.391  28.146  1.00  0.00     0.217 C 
HETATM    4  O2  UNL     1      24.109  18.547  28.240  1.00  0.00    -0.274 OA
ENDROOT
BRANCH   1   5
HETATM    5  C8  UNL     1      21.460  17.842  29.123  1.00  0.00     0.122 C 
BRANCH   5   6
HETATM    6  C7  UNL     1      19.963  17.723  29.279  1.00  0.00     0.020 C 
BRANCH   6   7
HETATM    7  C6  UNL     1      19.490  16.402  28.694  1.00  0.00     0.003 C 
BRANCH   7   8
HETATM    8  C5  UNL     1      18.780  16.501  27.416  1.00  0.00     0.020 C 
BRANCH   8   9
HETATM    9  C4  UNL     1      18.648  17.746  26.658  1.00  0.00     0.123 C 
BRANCH   9  10
HETATM   10  N1  UNL     1      17.394  18.396  26.509  1.00  0.00    -0.356 N 
HETATM   11  C3  UNL     1      16.559  19.073  27.402  1.00  0.00     0.258 C 
HETATM   12  O1  UNL     1      16.868  19.217  28.605  1.00  0.00    -0.267 OA
ATOM     13  H1  UNL     1      17.028  18.361  25.558  1.00  0.00     0.162 HD
BRANCH  11  14
HETATM   14  C2  UNL     1      15.286  19.655  27.008  1.00  0.00     0.069 C 
HETATM   15  C1  UNL     1      15.206  20.602  26.117  1.00  0.00     0.037 C 
HETATM   16 BR1  UNL     1      13.682  19.018  27.814  1.00  0.00    -0.046 Br
ENDBRANCH  11  14
ENDBRANCH   9  10
ENDBRANCH   8   9
ENDBRANCH   7   8
ENDBRANCH   6   7
ENDBRANCH   5   6
ENDBRANCH   1   5
BRANCH   3  17
HETATM   17  C10 UNL     1      23.541  20.718  27.577  1.00  0.00     0.103 C 
BRANCH  17  18
HETATM   18  C11 UNL     1      24.707  21.333  28.289  1.00  0.00     0.009 C 
BRANCH  18  19
HETATM   19  C12 UNL     1      25.080  22.685  27.723  1.00  0.00     0.002 C 
BRANCH  19  20
HETATM   20  C13 UNL     1      25.152  23.756  28.787  1.00  0.00     0.033 C 
BRANCH  20  21
HETATM   21  C14 UNL     1      24.697  25.052  28.145  1.00  0.00     0.186 C 
HETATM   22  C15 UNL     1      23.229  24.951  27.789  1.00  0.00     0.034 C 
HETATM   23  C16 UNL     1      22.644  26.300  28.209  1.00  0.00     0.029 C 
HETATM   24  C17 UNL     1      23.889  27.120  28.449  1.00  0.00     0.233 C 
HETATM   25  N3  UNL     1      24.765  26.151  29.115  1.00  0.00    -0.071 N 
ATOM     26  H32 UNL     1      24.521  25.915  30.076  1.00  0.00     0.277 HD
ATOM     27  H31 UNL     1      25.700  26.482  29.350  1.00  0.00     0.277 HD
ENDBRANCH  20  21
ENDBRANCH  19  20
ENDBRANCH  18  19
ENDBRANCH  17  18
ENDBRANCH   3  17
TORSDOF 12
ENDMDL
MODEL 2
REMARK VINA RESULT: -7.916004975      2.912      4.121
REMARK  12 active torsions:
REMARK  status: ('A' for Active; 'I' for Inactive)
REMARK    1  A    between atoms: C2_2  and  C3_4 
REMARK       I    between atoms: C3_4  and  N1_6 
REMARK    2  A    between atoms: N1_6  and  C4_8 
REMARK    3  A    between atoms: C4_8  and  C5_9 
REMARK    4  A    between atoms: C5_9  and  C6_10 
REMARK    5  A    between atoms: C6_10  and  C7_11 
REMARK    6  A    between atoms: C7_11  and  C8_12 
REMARK    7  A    between atoms: C8_12  and  N2_13 
REMARK       I    between atoms: N2_13  and  C9_15 
REMARK    8  A    between atoms: C9_15  and  C10_17 
REMARK    9  A    between atoms: C10_17  and  C11_18 
REMARK   10  A    between atoms: C11_18  and  C12_19 
REMARK   11  A    between atoms: C12_19  and  C13_20 
REMARK   12  A    between atoms: C13_20  and  C14_21 
ROOT
HETATM    1  N2  UNL     1      22.173  18.768  29.678  1.00  0.00    -0.361 N 
ATOM      2  H2  UNL     1      21.777  19.663  29.966  1.00  0.00     0.162 HD
HETATM    3  C9  UNL     1      23.406  18.804  29.009  1.00  0.00     0.217 C 
HETATM    4  O2  UNL     1      23.951  17.751  28.630  1.00  0.00    -0.274 OA
ENDROOT
BRANCH   1   5
HETATM    5  C8  UNL     1      21.419  17.595  29.993  1.00  0.00     0.122 C 
BRANCH   5   6
HETATM    6  C7  UNL     1      20.071  17.525  29.317  1.00  0.00     0.020 C 
BRANCH   6   7
HETATM    7  C6  UNL     1      20.252  17.207  27.841  1.00  0.00     0.003 C 
BRANCH   7   8
HETATM    8  C5  UNL     1      19.013  17.103  27.067  1.00  0.00     0.020 C 
BRANCH   8   9
HETATM    9  C4  UNL     1      18.477  18.191  26.247  1.00  0.00     0.123 C 
BRANCH   9  10
HETATM   10  N1  UNL     1      17.135  18.633  26.387  1.00  0.00    -0.356 N 
HETATM   11  C3  UNL     1      16.399  19.119  27.471  1.00  0.00     0.258 C 
HETATM   12  O1  UNL     1      16.912  19.251  28.603  1.00  0.00    -0.267 OA
ATOM     13  H1  UNL     1      16.598  18.587  25.520  1.00  0.00     0.162 HD
BRANCH  11  14
HETATM   14  C2  UNL     1      15.000  19.504  27.369  1.00  0.00     0.069 C 
HETATM   15  C1  UNL     1      14.042  18.752  27.831  1.00  0.00     0.037 C 
HETATM   16 BR1  UNL     1      14.547  21.155  26.535  1.00  0.00    -0.046 Br
ENDBRANCH  11  14
ENDBRANCH   9  10
ENDBRANCH   8   9
ENDBRANCH   7   8
ENDBRANCH   6   7
ENDBRANCH   5   6
ENDBRANCH   1   5
BRANCH   3  17
HETATM   17  C10 UNL     1      24.104  20.083  28.731  1.00  0.00     0.103 C 
BRANCH  17  18
HETATM   18  C11 UNL     1      23.929  20.502  27.304  1.00  0.00     0.009 C 
BRANCH  18  19
HETATM   19  C12 UNL     1      22.719  21.387  27.107  1.00  0.00     0.002 C 
BRANCH  19  20
HETATM   20  C13 UNL     1      21.521  20.622  26.593  1.00  0.00     0.033 C 
BRANCH  20  21
HETATM   21  C14 UNL     1      21.761  20.354  25.120  1.00  0.00     0.186 C 
HETATM   22  C15 UNL     1      21.931  18.866  24.898  1.00  0.00     0.034 C 
HETATM   23  C16 UNL     1      21.122  18.577  23.634  1.00  0.00     0.029 C 
HETATM   24  C17 UNL     1      20.860  19.968  23.106  1.00  0.00     0.233 C 
HETATM   25  N3  UNL     1      20.572  20.709  24.337  1.00  0.00    -0.071 N 
ATOM     26  H32 UNL     1      19.673  20.514  24.777  1.00  0.00     0.277 HD
ATOM     27  H31 UNL     1      20.392  21.706  24.227  1.00  0.00     0.277 HD
ENDBRANCH  20  21
ENDBRANCH  19  20
ENDBRANCH  18  19
ENDBRANCH  17  18
ENDBRANCH   3  17
TORSDOF 12
ENDMDL
MODEL 3
REMARK VINA RESULT: -7.914982418      1.377      1.675
REMARK  12 active torsions:
REMARK  status: ('A' for Active; 'I' for Inactive)
REMARK    1  A    between atoms: C2_2  and  C3_4 
REMARK       I    between atoms: C3_4  and  N1_6 
REMARK    2  A    between atoms: N1_6  and  C4_8 
REMARK    3  A    between atoms: C4_8  and  C5_9 
REMARK    4  A    between atoms: C5_9  and  C6_10 
REMARK    5  A    between atoms: C6_10  and  C7_11 
REMARK    6  A    between atoms: C7_11  and  C8_12 
REMARK    7  A    between atoms: C8_12  and  N2_13 
REMARK       I    between atoms: N2_13  and  C9_15 
REMARK    8  A    between atoms: C9_15  and  C10_17 
REMARK    9  A    between atoms: C10_17  and  C11_18 
REMARK   10  A    between atoms: C11_18  and  C12_19 
REMARK   11  A    between atoms: C12_19  and  C13_20 
REMARK   12  A    between atoms: C13_20  and  C14_21 
ROOT
HETATM    1  N2  UNL     1      23.413  19.361  29.893  1.00  0.00    -0.361 N 
ATOM      2  H2  UNL     1      23.309  20.175  30.498  1.00  0.00     0.162 HD
HETATM    3  C9  UNL     1      23.960  19.583  28.619  1.00  0.00     0.217 C 
HETATM    4  O2  UNL     1      24.119  18.637  27.826  1.00  0.00    -0.274 OA
ENDROOT
BRANCH   1   5
HETATM    5  C8  UNL     1      22.989  18.103  30.420  1.00  0.00     0.122 C 
BRANCH   5   6
HETATM    6  C7  UNL     1      21.493  17.967  30.574  1.00  0.00     0.020 C 
BRANCH   6   7
HETATM    7  C6  UNL     1      20.854  17.751  29.211  1.00  0.00     0.003 C 
BRANCH   7   8
HETATM    8  C5  UNL     1      19.770  16.766  29.177  1.00  0.00     0.020 C 
BRANCH   8   9
HETATM    9  C4  UNL     1      18.840  16.624  28.056  1.00  0.00     0.123 C 
BRANCH   9  10
HETATM   10  N1  UNL     1      18.519  17.722  27.214  1.00  0.00    -0.356 N 
HETATM   11  C3  UNL     1      17.716  18.853  27.386  1.00  0.00     0.258 C 
HETATM   12  O1  UNL     1      17.109  19.066  28.458  1.00  0.00    -0.267 OA
ATOM     13  H1  UNL     1      18.965  17.676  26.297  1.00  0.00     0.162 HD
BRANCH  11  14
HETATM   14  C2  UNL     1      17.527  19.854  26.349  1.00  0.00     0.069 C 
HETATM   15  C1  UNL     1      18.533  20.451  25.774  1.00  0.00     0.037 C 
HETATM   16 BR1  UNL     1      15.760  20.312  25.807  1.00  0.00    -0.046 Br
ENDBRANCH  11  14
ENDBRANCH   9  10
ENDBRANCH   8   9
ENDBRANCH   7   8
ENDBRANCH   6   7
ENDBRANCH   5   6
ENDBRANCH   1   5
BRANCH   3  17
HETATM   17  C10 UNL     1      24.366  20.938  28.171  1.00  0.00     0.103 C 
BRANCH  17  18
HETATM   18  C11 UNL     1      23.335  21.547  27.270  1.00  0.00     0.009 C 
BRANCH  18  19
HETATM   19  C12 UNL     1      23.603  23.009  26.995  1.00  0.00     0.002 C 
BRANCH  19  20
HETATM   20  C13 UNL     1      24.527  23.630  28.017  1.00  0.00     0.033 C 
BRANCH  20  21
HETATM   21  C14 UNL     1      24.311  25.130  27.961  1.00  0.00     0.186 C 
HETATM   22  C15 UNL     1      22.899  25.420  27.497  1.00  0.00     0.034 C 
HETATM   23  C16 UNL     1      22.425  26.549  28.411  1.00  0.00     0.029 C 
HETATM   24  C17 UNL     1      23.715  26.988  29.062  1.00  0.00     0.233 C 
HETATM   25  N3  UNL     1      24.380  25.705  29.309  1.00  0.00    -0.071 N 
ATOM     26  H32 UNL     1      23.988  25.136  30.058  1.00  0.00     0.277 HD
ATOM     27  H31 UNL     1      25.309  25.756  29.726  1.00  0.00     0.277 HD
ENDBRANCH  20  21
ENDBRANCH  19  20
ENDBRANCH  18  19
ENDBRANCH  17  18
ENDBRANCH   3  17
TORSDOF 12
ENDMDL
MODEL 4
REMARK VINA RESULT: -7.683707839      1.236      1.563
REMARK  12 active torsions:
REMARK  status: ('A' for Active; 'I' for Inactive)
REMARK    1  A    between atoms: C2_2  and  C3_4 
REMARK       I    between atoms: C3_4  and  N1_6 
REMARK    2  A    between atoms: N1_6  and  C4_8 
REMARK    3  A    between atoms: C4_8  and  C5_9 
REMARK    4  A    between atoms: C5_9  and  C6_10 
REMARK    5  A    between atoms: C6_10  and  C7_11 
REMARK    6  A    between atoms: C7_11  and  C8_12 
REMARK    7  A    between atoms: C8_12  and  N2_13 
REMARK       I    between atoms: N2_13  and  C9_15 
REMARK    8  A    between atoms: C9_15  and  C10_17 
REMARK    9  A    between atoms: C10_17  and  C11_18 
REMARK   10  A    between atoms: C11_18  and  C12_19 
REMARK   11  A    between atoms: C12_19  and  C13_20 
REMARK   12  A    between atoms: C13_20  and  C14_21 
ROOT
HETATM    1  N2  UNL     1      22.163  18.930  29.224  1.00  0.00    -0.361 N 
ATOM      2  H2  UNL     1      21.699  19.832  29.327  1.00  0.00     0.162 HD
HETATM    3  C9  UNL     1      23.436  18.933  28.634  1.00  0.00     0.217 C 
HETATM    4  O2  UNL     1      24.064  17.870  28.478  1.00  0.00    -0.274 OA
ENDROOT
BRANCH   1   5
HETATM    5  C8  UNL     1      21.455  17.780  29.694  1.00  0.00     0.122 C 
BRANCH   5   6
HETATM    6  C7  UNL     1      19.982  17.780  29.360  1.00  0.00     0.020 C 
BRANCH   6   7
HETATM    7  C6  UNL     1      19.582  16.422  28.805  1.00  0.00     0.003 C 
BRANCH   7   8
HETATM    8  C5  UNL     1      18.888  16.453  27.515  1.00  0.00     0.020 C 
BRANCH   8   9
HETATM    9  C4  UNL     1      18.784  17.651  26.680  1.00  0.00     0.123 C 
BRANCH   9  10
HETATM   10  N1  UNL     1      17.542  18.310  26.479  1.00  0.00    -0.356 N 
HETATM   11  C3  UNL     1      16.686  19.011  27.333  1.00  0.00     0.258 C 
HETATM   12  O1  UNL     1      16.956  19.173  28.542  1.00  0.00    -0.267 OA
ATOM     13  H1  UNL     1      17.207  18.262  25.517  1.00  0.00     0.162 HD
BRANCH  11  14
HETATM   14  C2  UNL     1      15.432  19.598  26.887  1.00  0.00     0.069 C 
HETATM   15  C1  UNL     1      15.373  20.413  25.873  1.00  0.00     0.037 C 
HETATM   16 BR1  UNL     1      13.822  19.166  27.809  1.00  0.00    -0.046 Br
ENDBRANCH  11  14
ENDBRANCH   9  10
ENDBRANCH   8   9
ENDBRANCH   7   8
ENDBRANCH   6   7
ENDBRANCH   5   6
ENDBRANCH   1   5
BRANCH   3  17
HETATM   17  C10 UNL     1      24.079  20.190  28.178  1.00  0.00     0.103 C 
BRANCH  17  18
HETATM   18  C11 UNL     1      23.121  21.047  27.410  1.00  0.00     0.009 C 
BRANCH  18  19
HETATM   19  C12 UNL     1      23.816  22.168  26.669  1.00  0.00     0.002 C 
BRANCH  19  20
HETATM   20  C13 UNL     1      22.886  23.317  26.357  1.00  0.00     0.033 C 
BRANCH  20  21
HETATM   21  C14 UNL     1      23.652  24.597  26.630  1.00  0.00     0.186 C 
HETATM   22  C15 UNL     1      24.068  24.638  28.085  1.00  0.00     0.034 C 
HETATM   23  C16 UNL     1      25.509  25.144  28.053  1.00  0.00     0.029 C 
HETATM   24  C17 UNL     1      25.637  25.638  26.632  1.00  0.00     0.233 C 
HETATM   25  N3  UNL     1      24.917  24.600  25.886  1.00  0.00    -0.071 N 
ATOM     26  H32 UNL     1      25.390  23.701  25.804  1.00  0.00     0.277 HD
ATOM     27  H31 UNL     1      24.844  24.743  24.879  1.00  0.00     0.277 HD
ENDBRANCH  20  21
ENDBRANCH  19  20
ENDBRANCH  18  19
ENDBRANCH  17  18
ENDBRANCH   3  17
TORSDOF 12
ENDMDL
MODEL 5
REMARK VINA RESULT: -7.621412666      2.630      2.990
REMARK  12 active torsions:
REMARK  status: ('A' for Active; 'I' for Inactive)
REMARK    1  A    between atoms: C2_2  and  C3_4 
REMARK       I    between atoms: C3_4  and  N1_6 
REMARK    2  A    between atoms: N1_6  and  C4_8 
REMARK    3  A    between atoms: C4_8  and  C5_9 
REMARK    4  A    between atoms: C5_9  and  C6_10 
REMARK    5  A    between atoms: C6_10  and  C7_11 
REMARK    6  A    between atoms: C7_11  and  C8_12 
REMARK    7  A    between atoms: C8_12  and  N2_13 
REMARK       I    between atoms: N2_13  and  C9_15 
REMARK    8  A    between atoms: C9_15  and  C10_17 
REMARK    9  A    between atoms: C10_17  and  C11_18 
REMARK   10  A    between atoms: C11_18  and  C12_19 
REMARK   11  A    between atoms: C12_19  and  C13_20 
REMARK   12  A    between atoms: C13_20  and  C14_21 
ROOT
HETATM    1  N2  UNL     1      21.906  19.128  28.613  1.00  0.00    -0.361 N 
ATOM      2  H2  UNL     1      21.219  19.879  28.553  1.00  0.00     0.162 HD
HETATM    3  C9  UNL     1      23.195  19.405  28.131  1.00  0.00     0.217 C 
HETATM    4  O2  UNL     1      24.086  18.537  28.173  1.00  0.00    -0.274 OA
ENDROOT
BRANCH   1   5
HETATM    5  C8  UNL     1      21.466  17.891  29.178  1.00  0.00     0.122 C 
BRANCH   5   6
HETATM    6  C7  UNL     1      19.966  17.761  29.293  1.00  0.00     0.020 C 
BRANCH   6   7
HETATM    7  C6  UNL     1      19.540  16.359  28.885  1.00  0.00     0.003 C 
BRANCH   7   8
HETATM    8  C5  UNL     1      19.172  16.202  27.476  1.00  0.00     0.020 C 
BRANCH   8   9
HETATM    9  C4  UNL     1      18.743  17.312  26.622  1.00  0.00     0.123 C 
BRANCH   9  10
HETATM   10  N1  UNL     1      19.635  17.933  25.708  1.00  0.00    -0.356 N 
HETATM   11  C3  UNL     1      20.197  19.211  25.644  1.00  0.00     0.258 C 
HETATM   12  O1  UNL     1      19.956  20.075  26.514  1.00  0.00    -0.267 OA
ATOM     13  H1  UNL     1      19.924  17.323  24.943  1.00  0.00     0.162 HD
BRANCH  11  14
HETATM   14  C2  UNL     1      21.094  19.627  24.578  1.00  0.00     0.069 C 
HETATM   15  C1  UNL     1      21.268  20.882  24.272  1.00  0.00     0.037 C 
HETATM   16 BR1  UNL     1      22.048  18.305  23.594  1.00  0.00    -0.046 Br
ENDBRANCH  11  14
ENDBRANCH   9  10
ENDBRANCH   8   9
ENDBRANCH   7   8
ENDBRANCH   6   7
ENDBRANCH   5   6
ENDBRANCH   1   5
BRANCH   3  17
HETATM   17  C10 UNL     1      23.544  20.729  27.559  1.00  0.00     0.103 C 
BRANCH  17  18
HETATM   18  C11 UNL     1      24.715  21.338  28.268  1.00  0.00     0.009 C 
BRANCH  18  19
HETATM   19  C12 UNL     1      25.087  22.692  27.706  1.00  0.00     0.002 C 
BRANCH  19  20
HETATM   20  C13 UNL     1      25.206  23.750  28.779  1.00  0.00     0.033 C 
BRANCH  20  21
HETATM   21  C14 UNL     1      24.740  25.057  28.169  1.00  0.00     0.186 C 
HETATM   22  C15 UNL     1      23.318  24.905  27.672  1.00  0.00     0.034 C 
HETATM   23  C16 UNL     1      22.625  26.196  28.108  1.00  0.00     0.029 C 
HETATM   24  C17 UNL     1      23.796  27.061  28.507  1.00  0.00     0.233 C 
HETATM   25  N3  UNL     1      24.660  26.100  29.198  1.00  0.00    -0.071 N 
ATOM     26  H32 UNL     1      24.344  25.796  30.118  1.00  0.00     0.277 HD
ATOM     27  H31 UNL     1      25.551  26.462  29.537  1.00  0.00     0.277 HD
ENDBRANCH  20  21
ENDBRANCH  19  20
ENDBRANCH  18  19
ENDBRANCH  17  18
ENDBRANCH   3  17
TORSDOF 12
ENDMDL
