MODEL 1
REMARK VINA RESULT: -6.055912639      0.000      0.000
REMARK  6 active torsions:
REMARK  status: ('A' for Active; 'I' for Inactive)
REMARK    1  A    between atoms: N1_4  and  C4_5 
REMARK    2  A    between atoms: C4_5  and  C5_6 
REMARK    3  A    between atoms: C5_6  and  N2_8 
REMARK    4  A    between atoms: C5_6  and  C7_12 
REMARK    5  A    between atoms: C7_12  and  C8_13 
REMARK    6  A    between atoms: C8_13  and  N3_14 
ROOT
HETATM    1  C5  UNL     1      -1.798  34.978 103.713  1.00  0.00     0.138 C 
HETATM    2  C6  UNL     1      -3.221  34.496 103.481  1.00  0.00     0.048 C 
ENDROOT
BRANCH   1   3
HETATM    3  C4  UNL     1      -1.816  36.442 104.089  1.00  0.00     0.166 C 
BRANCH   3   4
HETATM    4  N1  UNL     1      -0.768  37.198 103.494  1.00  0.00    -0.361 N 
HETATM    5  C3  UNL     1       0.521  36.834 103.637  1.00  0.00     0.115 A 
HETATM    6  C2  UNL     1       1.561  37.544 103.073  1.00  0.00     0.022 A 
HETATM    7  C1  UNL     1       2.977  37.141 103.233  1.00  0.00     0.070 C 
HETATM    8  N4  UNL     1       1.277  38.637 102.357  1.00  0.00    -0.362 N 
HETATM    9  C10 UNL     1      -0.004  39.034 102.190  1.00  0.00     0.107 A 
HETATM   10  C11 UNL     1       2.336  39.398 101.757  1.00  0.00     0.155 C 
HETATM   11  C9  UNL     1      -1.022  38.302 102.767  1.00  0.00     0.107 A 
ENDBRANCH   3   4
ENDBRANCH   1   3
BRANCH   1  12
HETATM   12  N2  UNL     1      -1.215  34.146 104.708  1.00  0.00    -0.069 N 
ATOM     13  H23 UNL     1      -0.313  33.786 104.396  1.00  0.00     0.275 HD
ATOM     14  H22 UNL     1      -0.907  34.701 105.507  1.00  0.00     0.275 HD
ATOM     15  H21 UNL     1      -1.824  33.385 105.008  1.00  0.00     0.275 HD
ENDBRANCH   1  12
BRANCH   1  16
HETATM   16  C7  UNL     1      -1.053  34.743 102.409  1.00  0.00     0.067 C 
BRANCH  16  17
HETATM   17  C8  UNL     1       0.069  33.778 102.716  1.00  0.00     0.232 C 
BRANCH  17  18
HETATM   18  N3  UNL     1       1.063  33.719 101.693  1.00  0.00    -0.079 N 
ATOM     19  H33 UNL     1       1.337  34.656 101.399  1.00  0.00     0.274 HD
ATOM     20  H32 UNL     1       1.953  33.393 102.071  1.00  0.00     0.274 HD
ATOM     21  H31 UNL     1       0.785  33.156 100.889  1.00  0.00     0.274 HD
ENDBRANCH  17  18
ENDBRANCH  16  17
ENDBRANCH   1  16
TORSDOF 6
ENDMDL
MODEL 2
REMARK VINA RESULT: -6.032044335      1.184      1.370
REMARK  6 active torsions:
REMARK  status: ('A' for Active; 'I' for Inactive)
REMARK    1  A    between atoms: N1_4  and  C4_5 
REMARK    2  A    between atoms: C4_5  and  C5_6 
REMARK    3  A    between atoms: C5_6  and  N2_8 
REMARK    4  A    between atoms: C5_6  and  C7_12 
REMARK    5  A    between atoms: C7_12  and  C8_13 
REMARK    6  A    between atoms: C8_13  and  N3_14 
ROOT
HETATM    1  C5  UNL     1      -1.858  34.892 103.624  1.00  0.00     0.138 C 
HETATM    2  C6  UNL     1      -3.288  34.379 103.688  1.00  0.00     0.048 C 
ENDROOT
BRANCH   1   3
HETATM    3  C4  UNL     1      -1.816  36.330 104.088  1.00  0.00     0.166 C 
BRANCH   3   4
HETATM    4  N1  UNL     1      -0.765  37.090 103.503  1.00  0.00    -0.361 N 
HETATM    5  C3  UNL     1       0.520  36.703 103.618  1.00  0.00     0.115 A 
HETATM    6  C2  UNL     1       1.563  37.417 103.062  1.00  0.00     0.022 A 
HETATM    7  C1  UNL     1       2.975  36.990 103.190  1.00  0.00     0.070 C 
HETATM    8  N4  UNL     1       1.284  38.535 102.384  1.00  0.00    -0.362 N 
HETATM    9  C10 UNL     1       0.007  38.955 102.246  1.00  0.00     0.107 A 
HETATM   10  C11 UNL     1       2.346  39.300 101.793  1.00  0.00     0.155 C 
HETATM   11  C9  UNL     1      -1.013  38.219 102.814  1.00  0.00     0.107 A 
ENDBRANCH   3   4
ENDBRANCH   1   3
BRANCH   1  12
HETATM   12  N2  UNL     1      -1.049  34.022 104.406  1.00  0.00    -0.069 N 
ATOM     13  H23 UNL     1      -0.188  33.789 103.914  1.00  0.00     0.275 HD
ATOM     14  H22 UNL     1      -0.657  34.517 105.208  1.00  0.00     0.275 HD
ATOM     15  H21 UNL     1      -1.536  33.176 104.704  1.00  0.00     0.275 HD
ENDBRANCH   1  12
BRANCH   1  16
HETATM   16  C7  UNL     1      -1.424  34.759 102.174  1.00  0.00     0.067 C 
BRANCH  16  17
HETATM   17  C8  UNL     1      -2.636  35.071 101.326  1.00  0.00     0.232 C 
BRANCH  17  18
HETATM   18  N3  UNL     1      -2.360  35.085  99.924  1.00  0.00    -0.079 N 
ATOM     19  H33 UNL     1      -1.388  34.835  99.745  1.00  0.00     0.274 HD
ATOM     20  H32 UNL     1      -2.824  34.306  99.457  1.00  0.00     0.274 HD
ATOM     21  H31 UNL     1      -2.594  35.969  99.473  1.00  0.00     0.274 HD
ENDBRANCH  17  18
ENDBRANCH  16  17
ENDBRANCH   1  16
TORSDOF 6
ENDMDL
MODEL 3
REMARK VINA RESULT: -5.993540694      1.818      3.428
REMARK  6 active torsions:
REMARK  status: ('A' for Active; 'I' for Inactive)
REMARK    1  A    between atoms: N1_4  and  C4_5 
REMARK    2  A    between atoms: C4_5  and  C5_6 
REMARK    3  A    between atoms: C5_6  and  N2_8 
REMARK    4  A    between atoms: C5_6  and  C7_12 
REMARK    5  A    between atoms: C7_12  and  C8_13 
REMARK    6  A    between atoms: C8_13  and  N3_14 
ROOT
HETATM    1  C5  UNL     1       2.495  34.460 102.895  1.00  0.00     0.138 C 
HETATM    2  C6  UNL     1       3.847  34.003 102.368  1.00  0.00     0.048 C 
ENDROOT
BRANCH   1   3
HETATM    3  C4  UNL     1       2.681  35.672 103.779  1.00  0.00     0.166 C 
BRANCH   3   4
HETATM    4  N1  UNL     1       1.949  36.813 103.345  1.00  0.00    -0.361 N 
HETATM    5  C3  UNL     1       2.530  37.768 102.594  1.00  0.00     0.115 A 
HETATM    6  C2  UNL     1       1.849  38.886 102.157  1.00  0.00     0.022 A 
HETATM    7  C1  UNL     1       2.491  39.934 101.331  1.00  0.00     0.070 C 
HETATM    8  N4  UNL     1       0.563  39.025 102.494  1.00  0.00    -0.362 N 
HETATM    9  C10 UNL     1      -0.055  38.088 103.246  1.00  0.00     0.107 A 
HETATM   10  C11 UNL     1      -0.174  40.177 102.055  1.00  0.00     0.155 C 
HETATM   11  C9  UNL     1       0.654  36.981 103.668  1.00  0.00     0.107 A 
ENDBRANCH   3   4
ENDBRANCH   1   3
BRANCH   1  12
HETATM   12  N2  UNL     1       1.651  34.700 101.776  1.00  0.00    -0.069 N 
ATOM     13  H23 UNL     1       1.170  33.846 101.495  1.00  0.00     0.275 HD
ATOM     14  H22 UNL     1       0.847  35.267 102.045  1.00  0.00     0.275 HD
ATOM     15  H21 UNL     1       2.139  35.118 100.983  1.00  0.00     0.275 HD
ENDBRANCH   1  12
BRANCH   1  16
HETATM   16  C7  UNL     1       1.924  33.284 103.669  1.00  0.00     0.067 C 
BRANCH  16  17
HETATM   17  C8  UNL     1       0.422  33.343 103.506  1.00  0.00     0.232 C 
BRANCH  17  18
HETATM   18  N3  UNL     1      -0.269  33.664 104.714  1.00  0.00    -0.079 N 
ATOM     19  H33 UNL     1      -0.018  34.600 105.036  1.00  0.00     0.274 HD
ATOM     20  H32 UNL     1      -1.263  33.808 104.535  1.00  0.00     0.274 HD
ATOM     21  H31 UNL     1      -0.130  32.979 105.456  1.00  0.00     0.274 HD
ENDBRANCH  17  18
ENDBRANCH  16  17
ENDBRANCH   1  16
TORSDOF 6
ENDMDL
MODEL 4
REMARK VINA RESULT: -5.990646312      3.179      5.386
REMARK  6 active torsions:
REMARK  status: ('A' for Active; 'I' for Inactive)
REMARK    1  A    between atoms: N1_4  and  C4_5 
REMARK    2  A    between atoms: C4_5  and  C5_6 
REMARK    3  A    between atoms: C5_6  and  N2_8 
REMARK    4  A    between atoms: C5_6  and  C7_12 
REMARK    5  A    between atoms: C7_12  and  C8_13 
REMARK    6  A    between atoms: C8_13  and  N3_14 
ROOT
HETATM    1  C5  UNL     1       0.507  34.697 102.254  1.00  0.00     0.138 C 
HETATM    2  C6  UNL     1       1.506  35.267 103.249  1.00  0.00     0.048 C 
ENDROOT
BRANCH   1   3
HETATM    3  C4  UNL     1       0.100  35.773 101.273  1.00  0.00     0.166 C 
BRANCH   3   4
HETATM    4  N1  UNL     1      -0.611  35.278 100.144  1.00  0.00    -0.361 N 
HETATM    5  C3  UNL     1      -1.956  35.324 100.095  1.00  0.00     0.115 A 
HETATM    6  C2  UNL     1      -2.676  34.853  99.015  1.00  0.00     0.022 A 
HETATM    7  C1  UNL     1      -4.155  34.905  98.963  1.00  0.00     0.070 C 
HETATM    8  N4  UNL     1      -2.011  34.330  97.980  1.00  0.00    -0.362 N 
HETATM    9  C10 UNL     1      -0.661  34.267  97.992  1.00  0.00     0.107 A 
HETATM   10  C11 UNL     1      -2.730  33.832  96.842  1.00  0.00     0.155 C 
HETATM   11  C9  UNL     1       0.030  34.746  99.087  1.00  0.00     0.107 A 
ENDBRANCH   3   4
ENDBRANCH   1   3
BRANCH   1  12
HETATM   12  N2  UNL     1       1.108  33.566 101.635  1.00  0.00    -0.069 N 
ATOM     13  H23 UNL     1       0.402  32.974 101.199  1.00  0.00     0.275 HD
ATOM     14  H22 UNL     1       1.632  33.844 100.805  1.00  0.00     0.275 HD
ATOM     15  H21 UNL     1       1.695  33.022 102.268  1.00  0.00     0.275 HD
ENDBRANCH   1  12
BRANCH   1  16
HETATM   16  C7  UNL     1      -0.676  34.209 103.074  1.00  0.00     0.067 C 
BRANCH  16  17
HETATM   17  C8  UNL     1      -1.268  35.424 103.750  1.00  0.00     0.232 C 
BRANCH  17  18
HETATM   18  N3  UNL     1      -1.985  35.116 104.946  1.00  0.00    -0.079 N 
ATOM     19  H33 UNL     1      -2.249  35.969 105.440  1.00  0.00     0.274 HD
ATOM     20  H32 UNL     1      -2.912  34.752 104.729  1.00  0.00     0.274 HD
ATOM     21  H31 UNL     1      -1.484  34.481 105.568  1.00  0.00     0.274 HD
ENDBRANCH  17  18
ENDBRANCH  16  17
ENDBRANCH   1  16
TORSDOF 6
ENDMDL
MODEL 5
REMARK VINA RESULT: -5.978639826      1.770      3.592
REMARK  6 active torsions:
REMARK  status: ('A' for Active; 'I' for Inactive)
REMARK    1  A    between atoms: N1_4  and  C4_5 
REMARK    2  A    between atoms: C4_5  and  C5_6 
REMARK    3  A    between atoms: C5_6  and  N2_8 
REMARK    4  A    between atoms: C5_6  and  C7_12 
REMARK    5  A    between atoms: C7_12  and  C8_13 
REMARK    6  A    between atoms: C8_13  and  N3_14 
ROOT
HETATM    1  C5  UNL     1       2.578  34.525 102.891  1.00  0.00     0.138 C 
HETATM    2  C6  UNL     1       3.905  34.031 102.335  1.00  0.00     0.048 C 
ENDROOT
BRANCH   1   3
HETATM    3  C4  UNL     1       2.806  35.780 103.703  1.00  0.00     0.166 C 
BRANCH   3   4
HETATM    4  N1  UNL     1       2.009  36.882 103.288  1.00  0.00    -0.361 N 
HETATM    5  C3  UNL     1       0.680  36.900 103.502  1.00  0.00     0.115 A 
HETATM    6  C2  UNL     1      -0.122  37.954 103.112  1.00  0.00     0.022 A 
HETATM    7  C1  UNL     1      -1.584  37.970 103.349  1.00  0.00     0.070 C 
HETATM    8  N4  UNL     1       0.445  38.997 102.498  1.00  0.00    -0.362 N 
HETATM    9  C10 UNL     1       1.776  39.017 102.265  1.00  0.00     0.107 A 
HETATM   10  C11 UNL     1      -0.360  40.109 102.079  1.00  0.00     0.155 C 
HETATM   11  C9  UNL     1       2.551  37.947 102.667  1.00  0.00     0.107 A 
ENDBRANCH   3   4
ENDBRANCH   1   3
BRANCH   1  12
HETATM   12  N2  UNL     1       1.692  34.716 101.795  1.00  0.00    -0.069 N 
ATOM     13  H23 UNL     1       1.097  35.530 101.948  1.00  0.00     0.275 HD
ATOM     14  H22 UNL     1       2.201  35.032 100.969  1.00  0.00     0.275 HD
ATOM     15  H21 UNL     1       1.130  33.892 101.581  1.00  0.00     0.275 HD
ENDBRANCH   1  12
BRANCH   1  16
HETATM   16  C7  UNL     1       2.030  33.396 103.746  1.00  0.00     0.067 C 
BRANCH  16  17
HETATM   17  C8  UNL     1       0.537  33.356 103.511  1.00  0.00     0.232 C 
BRANCH  17  18
HETATM   18  N3  UNL     1      -0.231  33.641 104.680  1.00  0.00    -0.079 N 
ATOM     19  H33 UNL     1      -1.054  33.041 104.729  1.00  0.00     0.274 HD
ATOM     20  H32 UNL     1       0.257  33.327 105.519  1.00  0.00     0.274 HD
ATOM     21  H31 UNL     1      -0.495  34.623 104.763  1.00  0.00     0.274 HD
ENDBRANCH  17  18
ENDBRANCH  16  17
ENDBRANCH   1  16
TORSDOF 6
ENDMDL
