MODEL 1
REMARK VINA RESULT: -7.557508196      0.000      0.000
REMARK  5 active torsions:
REMARK  status: ('A' for Active; 'I' for Inactive)
REMARK    1  A    between atoms: N1_1  and  C1_5 
REMARK    2  A    between atoms: C1_5  and  C2_6 
REMARK    3  A    between atoms: C1_5  and  C6_15 
REMARK    4  A    between atoms: C2_6  and  C3_7 
REMARK    5  A    between atoms: C6_15  and  N4_16 
ROOT
HETATM    1  C1  UNL     1       1.360  34.882 103.694  1.00  0.00     0.207 C 
ENDROOT
BRANCH   1   2
HETATM    2  N1  UNL     1       2.578  34.575 104.400  1.00  0.00    -0.073 N 
ATOM      3  H13 UNL     1       2.471  34.744 105.400  1.00  0.00     0.274 HD
ATOM      4  H12 UNL     1       2.745  33.570 104.416  1.00  0.00     0.274 HD
ATOM      5  H11 UNL     1       3.389  35.072 104.032  1.00  0.00     0.274 HD
ENDBRANCH   1   2
BRANCH   1   6
HETATM    6  C2  UNL     1       0.461  33.689 103.524  1.00  0.00     0.093 C 
BRANCH   6   7
HETATM    7  C3  UNL     1      -0.977  34.029 103.675  1.00  0.00     0.031 A 
HETATM    8  C4  UNL     1      -1.833  34.359 102.644  1.00  0.00     0.118 A 
HETATM    9  N2  UNL     1      -3.039  34.603 103.142  1.00  0.00    -0.317 N 
HETATM   10  C5  UNL     1      -2.929  34.424 104.471  1.00  0.00     0.324 A 
ATOM     11  H2  UNL     1      -3.876  34.870 102.625  1.00  0.00     0.170 HD
HETATM   12  O1  UNL     1      -3.899  34.574 105.266  1.00  0.00    -0.247 OA
HETATM   13  N3  UNL     1      -1.675  34.073 104.811  1.00  0.00    -0.311 N 
ATOM     14  H3  UNL     1      -1.327  33.880 105.750  1.00  0.00     0.170 HD
ENDBRANCH   6   7
ENDBRANCH   1   6
BRANCH   1  15
HETATM   15  C6  UNL     1       1.586  35.542 102.366  1.00  0.00     0.160 C 
BRANCH  15  16
HETATM   16  N4  UNL     1       1.232  36.947 102.385  1.00  0.00    -0.364 N 
HETATM   17  C7  UNL     1       2.166  37.885 102.450  1.00  0.00     0.090 A 
HETATM   18  C8  UNL     1       1.786  39.208 102.467  1.00  0.00     0.017 A 
HETATM   19  C9  UNL     1       0.463  39.598 102.419  1.00  0.00     0.003 A 
HETATM   20  C10 UNL     1      -0.491  38.614 102.352  1.00  0.00     0.017 A 
HETATM   21  C11 UNL     1      -0.067  37.298 102.337  1.00  0.00     0.090 A 
ENDBRANCH  15  16
ENDBRANCH   1  15
TORSDOF 5
ENDMDL
MODEL 2
REMARK VINA RESULT: -7.506862246      0.044      1.167
REMARK  5 active torsions:
REMARK  status: ('A' for Active; 'I' for Inactive)
REMARK    1  A    between atoms: N1_1  and  C1_5 
REMARK    2  A    between atoms: C1_5  and  C2_6 
REMARK    3  A    between atoms: C1_5  and  C6_15 
REMARK    4  A    between atoms: C2_6  and  C3_7 
REMARK    5  A    between atoms: C6_15  and  N4_16 
ROOT
HETATM    1  C1  UNL     1       1.358  34.890 103.692  1.00  0.00     0.207 C 
ENDROOT
BRANCH   1   2
HETATM    2  N1  UNL     1       2.579  34.588 104.395  1.00  0.00    -0.073 N 
ATOM      3  H13 UNL     1       3.382  35.007 103.927  1.00  0.00     0.274 HD
ATOM      4  H12 UNL     1       2.621  35.091 105.281  1.00  0.00     0.274 HD
ATOM      5  H11 UNL     1       2.721  33.589 104.537  1.00  0.00     0.274 HD
ENDBRANCH   1   2
BRANCH   1   6
HETATM    6  C2  UNL     1       0.463  33.694 103.524  1.00  0.00     0.093 C 
BRANCH   6   7
HETATM    7  C3  UNL     1      -0.976  34.029 103.674  1.00  0.00     0.031 A 
HETATM    8  C4  UNL     1      -1.834  34.349 102.642  1.00  0.00     0.118 A 
HETATM    9  N2  UNL     1      -3.041  34.591 103.140  1.00  0.00    -0.317 N 
HETATM   10  C5  UNL     1      -2.928  34.422 104.470  1.00  0.00     0.324 A 
ATOM     11  H2  UNL     1      -3.880  34.852 102.622  1.00  0.00     0.170 HD
HETATM   12  O1  UNL     1      -3.899  34.574 105.265  1.00  0.00    -0.247 OA
HETATM   13  N3  UNL     1      -1.673  34.079 104.811  1.00  0.00    -0.311 N 
ATOM     14  H3  UNL     1      -1.323  33.894 105.751  1.00  0.00     0.170 HD
ENDBRANCH   6   7
ENDBRANCH   1   6
BRANCH   1  15
HETATM   15  C6  UNL     1       1.579  35.551 102.363  1.00  0.00     0.160 C 
BRANCH  15  16
HETATM   16  N4  UNL     1       1.180  36.944 102.371  1.00  0.00    -0.364 N 
HETATM   17  C7  UNL     1      -0.100  37.288 102.368  1.00  0.00     0.090 A 
HETATM   18  C8  UNL     1      -0.434  38.624 102.376  1.00  0.00     0.017 A 
HETATM   19  C9  UNL     1       0.517  39.624 102.386  1.00  0.00     0.003 A 
HETATM   20  C10 UNL     1       1.837  39.249 102.389  1.00  0.00     0.017 A 
HETATM   21  C11 UNL     1       2.130  37.898 102.381  1.00  0.00     0.090 A 
ENDBRANCH  15  16
ENDBRANCH   1  15
TORSDOF 5
ENDMDL
MODEL 3
REMARK VINA RESULT: -7.420182153      2.344      3.715
REMARK  5 active torsions:
REMARK  status: ('A' for Active; 'I' for Inactive)
REMARK    1  A    between atoms: N1_1  and  C1_5 
REMARK    2  A    between atoms: C1_5  and  C2_6 
REMARK    3  A    between atoms: C1_5  and  C6_15 
REMARK    4  A    between atoms: C2_6  and  C3_7 
REMARK    5  A    between atoms: C6_15  and  N4_16 
ROOT
HETATM    1  C1  UNL     1      -1.642  35.191 102.761  1.00  0.00     0.207 C 
ENDROOT
BRANCH   1   2
HETATM    2  N1  UNL     1      -2.801  34.940 101.944  1.00  0.00    -0.073 N 
ATOM      3  H13 UNL     1      -2.645  34.143 101.327  1.00  0.00     0.274 HD
ATOM      4  H12 UNL     1      -3.567  34.568 102.505  1.00  0.00     0.274 HD
ATOM      5  H11 UNL     1      -3.102  35.757 101.415  1.00  0.00     0.274 HD
ENDBRANCH   1   2
BRANCH   1   6
HETATM    6  C2  UNL     1      -1.230  34.001 103.584  1.00  0.00     0.093 C 
BRANCH   6   7
HETATM    7  C3  UNL     1       0.238  33.779 103.578  1.00  0.00     0.031 A 
HETATM    8  C4  UNL     1       1.051  33.846 102.465  1.00  0.00     0.118 A 
HETATM    9  N2  UNL     1       2.304  33.592 102.827  1.00  0.00    -0.317 N 
HETATM   10  C5  UNL     1       2.263  33.371 104.153  1.00  0.00     0.324 A 
ATOM     11  H2  UNL     1       3.126  33.570 102.225  1.00  0.00     0.170 HD
HETATM   12  O1  UNL     1       3.292  33.098 104.834  1.00  0.00    -0.247 OA
HETATM   13  N3  UNL     1       1.008  33.482 104.626  1.00  0.00    -0.311 N 
ATOM     14  H3  UNL     1       0.706  33.361 105.593  1.00  0.00     0.170 HD
ENDBRANCH   6   7
ENDBRANCH   1   6
BRANCH   1  15
HETATM   15  C6  UNL     1      -1.779  36.396 103.644  1.00  0.00     0.160 C 
BRANCH  15  16
HETATM   16  N4  UNL     1      -0.876  37.463 103.260  1.00  0.00    -0.364 N 
HETATM   17  C7  UNL     1      -1.307  38.503 102.561  1.00  0.00     0.090 A 
HETATM   18  C8  UNL     1      -0.415  39.493 102.216  1.00  0.00     0.017 A 
HETATM   19  C9  UNL     1       0.917  39.445 102.572  1.00  0.00     0.003 A 
HETATM   20  C10 UNL     1       1.346  38.361 103.295  1.00  0.00     0.017 A 
HETATM   21  C11 UNL     1       0.418  37.388 103.621  1.00  0.00     0.090 A 
ENDBRANCH  15  16
ENDBRANCH   1  15
TORSDOF 5
ENDMDL
MODEL 4
REMARK VINA RESULT: -7.363919695      1.557      3.502
REMARK  5 active torsions:
REMARK  status: ('A' for Active; 'I' for Inactive)
REMARK    1  A    between atoms: N1_1  and  C1_5 
REMARK    2  A    between atoms: C1_5  and  C2_6 
REMARK    3  A    between atoms: C1_5  and  C6_15 
REMARK    4  A    between atoms: C2_6  and  C3_7 
REMARK    5  A    between atoms: C6_15  and  N4_16 
ROOT
HETATM    1  C1  UNL     1      -0.940  37.764 102.513  1.00  0.00     0.207 C 
ENDROOT
BRANCH   1   2
HETATM    2  N1  UNL     1      -1.492  39.049 102.168  1.00  0.00    -0.073 N 
ATOM      3  H13 UNL     1      -1.646  39.120 101.162  1.00  0.00     0.274 HD
ATOM      4  H12 UNL     1      -2.456  39.129 102.490  1.00  0.00     0.274 HD
ATOM      5  H11 UNL     1      -0.930  39.829 102.506  1.00  0.00     0.274 HD
ENDBRANCH   1   2
BRANCH   1   6
HETATM    6  C2  UNL     1      -1.279  37.333 103.914  1.00  0.00     0.093 C 
BRANCH   6   7
HETATM    7  C3  UNL     1      -2.044  36.060 103.954  1.00  0.00     0.031 A 
HETATM    8  C4  UNL     1      -2.689  35.482 102.880  1.00  0.00     0.118 A 
HETATM    9  N2  UNL     1      -3.269  34.355 103.278  1.00  0.00    -0.317 N 
HETATM   10  C5  UNL     1      -2.983  34.240 104.587  1.00  0.00     0.324 A 
ATOM     11  H2  UNL     1      -3.817  33.711 102.709  1.00  0.00     0.170 HD
HETATM   12  O1  UNL     1      -3.382  33.271 105.293  1.00  0.00    -0.247 OA
HETATM   13  N3  UNL     1      -2.236  35.274 105.014  1.00  0.00    -0.311 N 
ATOM     14  H3  UNL     1      -1.887  35.427 105.961  1.00  0.00     0.170 HD
ENDBRANCH   6   7
ENDBRANCH   1   6
BRANCH   1  15
HETATM   15  C6  UNL     1       0.541  37.668 102.297  1.00  0.00     0.160 C 
BRANCH  15  16
HETATM   16  N4  UNL     1       1.009  36.296 102.312  1.00  0.00    -0.364 N 
HETATM   17  C7  UNL     1       0.574  35.417 101.421  1.00  0.00     0.090 A 
HETATM   18  C8  UNL     1       1.045  34.124 101.472  1.00  0.00     0.017 A 
HETATM   19  C9  UNL     1       1.957  33.706 102.419  1.00  0.00     0.003 A 
HETATM   20  C10 UNL     1       2.397  34.630 103.333  1.00  0.00     0.017 A 
HETATM   21  C11 UNL     1       1.900  35.918 103.248  1.00  0.00     0.090 A 
ENDBRANCH  15  16
ENDBRANCH   1  15
TORSDOF 5
ENDMDL
MODEL 5
REMARK VINA RESULT: -7.303545857      1.539      3.367
REMARK  5 active torsions:
REMARK  status: ('A' for Active; 'I' for Inactive)
REMARK    1  A    between atoms: N1_1  and  C1_5 
REMARK    2  A    between atoms: C1_5  and  C2_6 
REMARK    3  A    between atoms: C1_5  and  C6_15 
REMARK    4  A    between atoms: C2_6  and  C3_7 
REMARK    5  A    between atoms: C6_15  and  N4_16 
ROOT
HETATM    1  C1  UNL     1      -0.859  37.742 102.564  1.00  0.00     0.207 C 
ENDROOT
BRANCH   1   2
HETATM    2  N1  UNL     1      -1.413  39.008 102.158  1.00  0.00    -0.073 N 
ATOM      3  H13 UNL     1      -2.333  38.884 101.735  1.00  0.00     0.274 HD
ATOM      4  H12 UNL     1      -1.676  39.567 102.969  1.00  0.00     0.274 HD
ATOM      5  H11 UNL     1      -0.796  39.534 101.539  1.00  0.00     0.274 HD
ENDBRANCH   1   2
BRANCH   1   6
HETATM    6  C2  UNL     1      -1.267  37.338 103.954  1.00  0.00     0.093 C 
BRANCH   6   7
HETATM    7  C3  UNL     1      -2.033  36.066 103.980  1.00  0.00     0.031 A 
HETATM    8  C4  UNL     1      -2.672  35.495 102.898  1.00  0.00     0.118 A 
HETATM    9  N2  UNL     1      -3.255  34.366 103.284  1.00  0.00    -0.317 N 
HETATM   10  C5  UNL     1      -2.977  34.241 104.594  1.00  0.00     0.324 A 
ATOM     11  H2  UNL     1      -3.800  33.726 102.707  1.00  0.00     0.170 HD
HETATM   12  O1  UNL     1      -3.382  33.267 105.291  1.00  0.00    -0.247 OA
HETATM   13  N3  UNL     1      -2.232  35.272 105.034  1.00  0.00    -0.311 N 
ATOM     14  H3  UNL     1      -1.889  35.417 105.983  1.00  0.00     0.170 HD
ENDBRANCH   6   7
ENDBRANCH   1   6
BRANCH   1  15
HETATM   15  C6  UNL     1       0.633  37.669 102.432  1.00  0.00     0.160 C 
BRANCH  15  16
HETATM   16  N4  UNL     1       1.119  36.303 102.449  1.00  0.00    -0.364 N 
HETATM   17  C7  UNL     1       1.994  35.901 103.359  1.00  0.00     0.090 A 
HETATM   18  C8  UNL     1       2.429  34.595 103.339  1.00  0.00     0.017 A 
HETATM   19  C9  UNL     1       1.986  33.684 102.402  1.00  0.00     0.003 A 
HETATM   20  C10 UNL     1       1.080  34.117 101.468  1.00  0.00     0.017 A 
HETATM   21  C11 UNL     1       0.669  35.436 101.523  1.00  0.00     0.090 A 
ENDBRANCH  15  16
ENDBRANCH   1  15
TORSDOF 5
ENDMDL
