MODEL 1
REMARK VINA RESULT: -7.294408625      0.000      0.000
REMARK  6 active torsions:
REMARK  status: ('A' for Active; 'I' for Inactive)
REMARK    1  A    between atoms: C2_2  and  C4_4 
REMARK    2  A    between atoms: C4_4  and  C5_5 
REMARK    3  A    between atoms: C5_5  and  C6_6 
REMARK    4  A    between atoms: C6_6  and  C7_7 
REMARK    5  A    between atoms: C9_9  and  O1_10 
REMARK    6  A    between atoms: C12_15  and  O3_16 
ROOT
HETATM    1  C7  UNL     1      28.193   3.456  95.336  1.00  0.00     0.012 C 
HETATM    2  C8  UNL     1      28.280   2.060  95.906  1.00  0.00     0.020 C 
HETATM    3  C9  UNL     1      27.021   4.076  96.104  1.00  0.00     0.266 C 
HETATM    4  O2  UNL     1      25.875   3.489  95.591  1.00  0.00    -0.352 OA
HETATM    5  C10 UNL     1      25.606   4.215  94.407  1.00  0.00     0.166 C 
HETATM    6  C11 UNL     1      24.173   3.938  93.977  1.00  0.00     0.070 C 
HETATM    7  C12 UNL     1      23.659   4.990  93.040  1.00  0.00     0.158 C 
HETATM    8  C13 UNL     1      24.691   5.763  92.304  1.00  0.00     0.118 C 
HETATM    9  C14 UNL     1      24.037   7.085  91.869  1.00  0.00     0.052 C 
HETATM   10  C15 UNL     1      25.151   5.104  91.022  1.00  0.00     0.044 C 
HETATM   11  C16 UNL     1      25.276   3.635  91.227  1.00  0.00     0.015 C 
HETATM   12  C17 UNL     1      26.237   3.149  92.203  1.00  0.00     0.054 C 
HETATM   13  C18 UNL     1      27.522   2.825  91.488  1.00  0.00    -0.082 C 
HETATM   14  C19 UNL     1      27.549   1.702  90.760  1.00  0.00     0.015 C 
HETATM   15  C20 UNL     1      28.710   3.709  91.583  1.00  0.00     0.034 C 
HETATM   16  C21 UNL     1      29.011   4.128  93.030  1.00  0.00     0.013 C 
HETATM   17  C22 UNL     1      27.942   3.433  93.865  1.00  0.00     0.040 C 
HETATM   18  C23 UNL     1      26.634   4.017  93.370  1.00  0.00     0.134 C 
HETATM   19  O4  UNL     1      26.846   5.300  92.793  1.00  0.00    -0.225 OA
HETATM   20  O5  UNL     1      25.821   6.101  92.998  1.00  0.00    -0.226 OA
ENDROOT
BRANCH   1  21
HETATM   21  C6  UNL     1      29.474   4.162  95.651  1.00  0.00     0.015 C 
BRANCH  21  22
HETATM   22  C5  UNL     1      30.339   3.723  96.738  1.00  0.00     0.005 C 
BRANCH  22  23
HETATM   23  C4  UNL     1      30.303   4.382  98.071  1.00  0.00     0.033 C 
BRANCH  23  24
HETATM   24  C2  UNL     1      29.626   3.497  99.086  1.00  0.00    -0.093 C 
HETATM   25  C1  UNL     1      30.315   2.522  99.654  1.00  0.00     0.014 C 
HETATM   26  C3  UNL     1      28.197   3.760  99.410  1.00  0.00     0.042 C 
ENDBRANCH  23  24
ENDBRANCH  22  23
ENDBRANCH  21  22
ENDBRANCH   1  21
BRANCH   3  27
HETATM   27  O1  UNL     1      27.043   5.435  96.129  1.00  0.00    -0.370 OA
ATOM     28  H1  UNL     1      26.190   5.832  95.999  1.00  0.00     0.212 HD
ENDBRANCH   3  27
BRANCH   7  29
HETATM   29  O3  UNL     1      22.840   5.929  93.714  1.00  0.00    -0.392 OA
ATOM     30  H3  UNL     1      21.962   5.947  93.352  1.00  0.00     0.210 HD
ENDBRANCH   7  29
TORSDOF 6
ENDMDL
MODEL 2
REMARK VINA RESULT: -7.163792784      2.458      4.993
REMARK  6 active torsions:
REMARK  status: ('A' for Active; 'I' for Inactive)
REMARK    1  A    between atoms: C2_2  and  C4_4 
REMARK    2  A    between atoms: C4_4  and  C5_5 
REMARK    3  A    between atoms: C5_5  and  C6_6 
REMARK    4  A    between atoms: C6_6  and  C7_7 
REMARK    5  A    between atoms: C9_9  and  O1_10 
REMARK    6  A    between atoms: C12_15  and  O3_16 
ROOT
HETATM    1  C7  UNL     1      28.785   3.233  90.801  1.00  0.00     0.012 C 
HETATM    2  C8  UNL     1      29.732   4.221  90.161  1.00  0.00     0.020 C 
HETATM    3  C9  UNL     1      27.560   3.273  89.882  1.00  0.00     0.266 C 
HETATM    4  O2  UNL     1      26.929   4.480  90.140  1.00  0.00    -0.352 OA
HETATM    5  C10 UNL     1      26.163   4.236  91.305  1.00  0.00     0.166 C 
HETATM    6  C11 UNL     1      25.128   5.342  91.451  1.00  0.00     0.070 C 
HETATM    7  C12 UNL     1      24.001   4.934  92.352  1.00  0.00     0.158 C 
HETATM    8  C13 UNL     1      24.301   3.842  93.313  1.00  0.00     0.118 C 
HETATM    9  C14 UNL     1      22.957   3.214  93.716  1.00  0.00     0.052 C 
HETATM   10  C15 UNL     1      24.923   4.319  94.608  1.00  0.00     0.044 C 
HETATM   11  C16 UNL     1      25.904   5.402  94.326  1.00  0.00     0.015 C 
HETATM   12  C17 UNL     1      27.064   5.094  93.506  1.00  0.00     0.054 C 
HETATM   13  C18 UNL     1      28.212   4.742  94.415  1.00  0.00    -0.082 C 
HETATM   14  C19 UNL     1      28.814   5.751  95.055  1.00  0.00     0.015 C 
HETATM   15  C20 UNL     1      28.660   3.339  94.595  1.00  0.00     0.034 C 
HETATM   16  C21 UNL     1      28.809   2.597  93.257  1.00  0.00     0.013 C 
HETATM   17  C22 UNL     1      28.443   3.631  92.199  1.00  0.00     0.040 C 
HETATM   18  C23 UNL     1      26.997   3.980  92.492  1.00  0.00     0.134 C 
HETATM   19  O4  UNL     1      26.357   2.915  93.185  1.00  0.00    -0.225 OA
HETATM   20  O5  UNL     1      25.086   2.816  92.857  1.00  0.00    -0.226 OA
ENDROOT
BRANCH   1  21
HETATM   21  C6  UNL     1      29.435   1.887  90.770  1.00  0.00     0.015 C 
BRANCH  21  22
HETATM   22  C5  UNL     1      30.676   1.655  90.043  1.00  0.00     0.005 C 
BRANCH  22  23
HETATM   23  C4  UNL     1      31.900   1.170  90.736  1.00  0.00     0.033 C 
BRANCH  23  24
HETATM   24  C2  UNL     1      32.462   2.239  91.637  1.00  0.00    -0.093 C 
HETATM   25  C1  UNL     1      33.009   3.316  91.099  1.00  0.00     0.014 C 
HETATM   26  C3  UNL     1      32.377   2.037  93.110  1.00  0.00     0.042 C 
ENDBRANCH  23  24
ENDBRANCH  22  23
ENDBRANCH  21  22
ENDBRANCH   1  21
BRANCH   3  27
HETATM   27  O1  UNL     1      26.786   2.160  89.956  1.00  0.00    -0.370 OA
ATOM     28  H1  UNL     1      26.339   1.951  89.144  1.00  0.00     0.212 HD
ENDBRANCH   3  27
BRANCH   7  29
HETATM   29  O3  UNL     1      22.864   4.531  91.611  1.00  0.00    -0.392 OA
ATOM     30  H3  UNL     1      22.753   3.587  91.628  1.00  0.00     0.210 HD
ENDBRANCH   7  29
TORSDOF 6
ENDMDL
MODEL 3
REMARK VINA RESULT: -7.092848918      2.452      5.961
REMARK  6 active torsions:
REMARK  status: ('A' for Active; 'I' for Inactive)
REMARK    1  A    between atoms: C2_2  and  C4_4 
REMARK    2  A    between atoms: C4_4  and  C5_5 
REMARK    3  A    between atoms: C5_5  and  C6_6 
REMARK    4  A    between atoms: C6_6  and  C7_7 
REMARK    5  A    between atoms: C9_9  and  O1_10 
REMARK    6  A    between atoms: C12_15  and  O3_16 
ROOT
HETATM    1  C7  UNL     1      28.966   3.270  90.878  1.00  0.00     0.012 C 
HETATM    2  C8  UNL     1      29.929   4.273  90.287  1.00  0.00     0.020 C 
HETATM    3  C9  UNL     1      27.781   3.306  89.908  1.00  0.00     0.266 C 
HETATM    4  O2  UNL     1      27.126   4.503  90.151  1.00  0.00    -0.352 OA
HETATM    5  C10 UNL     1      26.314   4.239  91.279  1.00  0.00     0.166 C 
HETATM    6  C11 UNL     1      25.262   5.333  91.393  1.00  0.00     0.070 C 
HETATM    7  C12 UNL     1      24.103   4.903  92.241  1.00  0.00     0.158 C 
HETATM    8  C13 UNL     1      24.374   3.805  93.203  1.00  0.00     0.118 C 
HETATM    9  C14 UNL     1      23.021   3.160  93.543  1.00  0.00     0.052 C 
HETATM   10  C15 UNL     1      24.935   4.276  94.528  1.00  0.00     0.044 C 
HETATM   11  C16 UNL     1      25.916   5.373  94.298  1.00  0.00     0.015 C 
HETATM   12  C17 UNL     1      27.112   5.085  93.525  1.00  0.00     0.054 C 
HETATM   13  C18 UNL     1      28.225   4.736  94.478  1.00  0.00    -0.082 C 
HETATM   14  C19 UNL     1      28.789   5.745  95.153  1.00  0.00     0.015 C 
HETATM   15  C20 UNL     1      28.680   3.336  94.664  1.00  0.00     0.034 C 
HETATM   16  C21 UNL     1      28.893   2.609  93.326  1.00  0.00     0.013 C 
HETATM   17  C22 UNL     1      28.561   3.650  92.263  1.00  0.00     0.040 C 
HETATM   18  C23 UNL     1      27.100   3.980  92.498  1.00  0.00     0.134 C 
HETATM   19  O4  UNL     1      26.444   2.902  93.154  1.00  0.00    -0.225 OA
HETATM   20  O5  UNL     1      25.188   2.793  92.771  1.00  0.00    -0.226 OA
ENDROOT
BRANCH   1  21
HETATM   21  C6  UNL     1      29.632   1.930  90.861  1.00  0.00     0.015 C 
BRANCH  21  22
HETATM   22  C5  UNL     1      30.658   1.600  89.881  1.00  0.00     0.005 C 
BRANCH  22  23
HETATM   23  C4  UNL     1      30.321   0.891  88.617  1.00  0.00     0.033 C 
BRANCH  23  24
HETATM   24  C2  UNL     1      30.203   1.866  87.473  1.00  0.00    -0.093 C 
HETATM   25  C1  UNL     1      29.140   1.814  86.689  1.00  0.00     0.014 C 
HETATM   26  C3  UNL     1      31.297   2.856  87.274  1.00  0.00     0.042 C 
ENDBRANCH  23  24
ENDBRANCH  22  23
ENDBRANCH  21  22
ENDBRANCH   1  21
BRANCH   3  27
HETATM   27  O1  UNL     1      27.016   2.183  89.938  1.00  0.00    -0.370 OA
ATOM     28  H1  UNL     1      27.501   1.386  89.757  1.00  0.00     0.212 HD
ENDBRANCH   3  27
BRANCH   7  29
HETATM   29  O3  UNL     1      23.003   4.496  91.448  1.00  0.00    -0.392 OA
ATOM     30  H3  UNL     1      23.238   3.781  90.867  1.00  0.00     0.210 HD
ENDBRANCH   7  29
TORSDOF 6
ENDMDL
MODEL 4
REMARK VINA RESULT: -7.092437193      3.536      5.627
REMARK  6 active torsions:
REMARK  status: ('A' for Active; 'I' for Inactive)
REMARK    1  A    between atoms: C2_2  and  C4_4 
REMARK    2  A    between atoms: C4_4  and  C5_5 
REMARK    3  A    between atoms: C5_5  and  C6_6 
REMARK    4  A    between atoms: C6_6  and  C7_7 
REMARK    5  A    between atoms: C9_9  and  O1_10 
REMARK    6  A    between atoms: C12_15  and  O3_16 
ROOT
HETATM    1  C7  UNL     1      28.015   3.432  90.875  1.00  0.00     0.012 C 
HETATM    2  C8  UNL     1      28.245   3.941  89.471  1.00  0.00     0.020 C 
HETATM    3  C9  UNL     1      27.782   1.932  90.671  1.00  0.00     0.266 C 
HETATM    4  O2  UNL     1      26.516   1.815  90.118  1.00  0.00    -0.352 OA
HETATM    5  C10 UNL     1      25.638   1.896  91.223  1.00  0.00     0.166 C 
HETATM    6  C11 UNL     1      24.269   1.383  90.801  1.00  0.00     0.070 C 
HETATM    7  C12 UNL     1      23.431   0.996  91.982  1.00  0.00     0.158 C 
HETATM    8  C13 UNL     1      23.802   1.626  93.275  1.00  0.00     0.118 C 
HETATM    9  C14 UNL     1      23.242   0.728  94.390  1.00  0.00     0.052 C 
HETATM   10  C15 UNL     1      23.169   2.982  93.500  1.00  0.00     0.044 C 
HETATM   11  C16 UNL     1      23.168   3.754  92.227  1.00  0.00     0.015 C 
HETATM   12  C17 UNL     1      24.444   4.091  91.618  1.00  0.00     0.054 C 
HETATM   13  C18 UNL     1      24.841   5.470  92.071  1.00  0.00    -0.082 C 
HETATM   14  C19 UNL     1      24.196   6.504  91.516  1.00  0.00     0.015 C 
HETATM   15  C20 UNL     1      25.902   5.681  93.087  1.00  0.00     0.034 C 
HETATM   16  C21 UNL     1      27.159   4.846  92.800  1.00  0.00     0.013 C 
HETATM   17  C22 UNL     1      26.840   4.095  91.512  1.00  0.00     0.040 C 
HETATM   18  C23 UNL     1      25.652   3.222  91.866  1.00  0.00     0.134 C 
HETATM   19  O4  UNL     1      25.617   2.969  93.265  1.00  0.00    -0.225 OA
HETATM   20  O5  UNL     1      25.139   1.771  93.530  1.00  0.00    -0.226 OA
ENDROOT
BRANCH   1  21
HETATM   21  C6  UNL     1      29.263   3.678  91.663  1.00  0.00     0.015 C 
BRANCH  21  22
HETATM   22  C5  UNL     1      30.530   3.982  91.010  1.00  0.00     0.005 C 
BRANCH  22  23
HETATM   23  C4  UNL     1      31.630   2.981  90.951  1.00  0.00     0.033 C 
BRANCH  23  24
HETATM   24  C2  UNL     1      32.755   3.476  90.079  1.00  0.00    -0.093 C 
HETATM   25  C1  UNL     1      32.604   3.470  88.766  1.00  0.00     0.014 C 
HETATM   26  C3  UNL     1      34.000   3.955  90.739  1.00  0.00     0.042 C 
ENDBRANCH  23  24
ENDBRANCH  22  23
ENDBRANCH  21  22
ENDBRANCH   1  21
BRANCH   3  27
HETATM   27  O1  UNL     1      28.026   1.186  91.780  1.00  0.00    -0.370 OA
ATOM     28  H1  UNL     1      27.654   1.551  92.575  1.00  0.00     0.212 HD
ENDBRANCH   3  27
BRANCH   7  29
HETATM   29  O3  UNL     1      23.439  -0.405  92.188  1.00  0.00    -0.392 OA
ATOM     30  H3  UNL     1      22.688  -0.821  91.780  1.00  0.00     0.210 HD
ENDBRANCH   7  29
TORSDOF 6
ENDMDL
MODEL 5
REMARK VINA RESULT: -7.053125940      2.889      7.044
REMARK  6 active torsions:
REMARK  status: ('A' for Active; 'I' for Inactive)
REMARK    1  A    between atoms: C2_2  and  C4_4 
REMARK    2  A    between atoms: C4_4  and  C5_5 
REMARK    3  A    between atoms: C5_5  and  C6_6 
REMARK    4  A    between atoms: C6_6  and  C7_7 
REMARK    5  A    between atoms: C9_9  and  O1_10 
REMARK    6  A    between atoms: C12_15  and  O3_16 
ROOT
HETATM    1  C7  UNL     1      23.956   3.389  95.967  1.00  0.00     0.012 C 
HETATM    2  C8  UNL     1      23.380   2.213  95.214  1.00  0.00     0.020 C 
HETATM    3  C9  UNL     1      24.790   4.113  94.905  1.00  0.00     0.266 C 
HETATM    4  O2  UNL     1      25.915   3.327  94.705  1.00  0.00    -0.352 OA
HETATM    5  C10 UNL     1      26.786   3.679  95.763  1.00  0.00     0.166 C 
HETATM    6  C11 UNL     1      28.188   3.193  95.426  1.00  0.00     0.070 C 
HETATM    7  C12 UNL     1      29.232   3.908  96.230  1.00  0.00     0.158 C 
HETATM    8  C13 UNL     1      28.767   4.520  97.501  1.00  0.00     0.118 C 
HETATM    9  C14 UNL     1      29.776   5.621  97.865  1.00  0.00     0.052 C 
HETATM   10  C15 UNL     1      28.773   3.568  98.677  1.00  0.00     0.044 C 
HETATM   11  C16 UNL     1      28.304   2.225  98.241  1.00  0.00     0.015 C 
HETATM   12  C17 UNL     1      26.950   2.095  97.727  1.00  0.00     0.054 C 
HETATM   13  C18 UNL     1      26.048   1.679  98.858  1.00  0.00    -0.082 C 
HETATM   14  C19 UNL     1      26.120   0.403  99.259  1.00  0.00     0.015 C 
HETATM   15  C20 UNL     1      25.116   2.636  99.504  1.00  0.00     0.034 C 
HETATM   16  C21 UNL     1      24.320   3.457  98.477  1.00  0.00     0.013 C 
HETATM   17  C22 UNL     1      24.791   2.945  97.122  1.00  0.00     0.040 C 
HETATM   18  C23 UNL     1      26.270   3.277  97.083  1.00  0.00     0.134 C 
HETATM   19  O4  UNL     1      26.561   4.363  97.954  1.00  0.00    -0.225 OA
HETATM   20  O5  UNL     1      27.534   5.115  97.484  1.00  0.00    -0.226 OA
ENDROOT
BRANCH   1  21
HETATM   21  C6  UNL     1      22.816   4.243  96.427  1.00  0.00     0.015 C 
BRANCH  21  22
HETATM   22  C5  UNL     1      21.797   4.718  95.500  1.00  0.00     0.005 C 
BRANCH  22  23
HETATM   23  C4  UNL     1      20.756   5.691  95.927  1.00  0.00     0.033 C 
BRANCH  23  24
HETATM   24  C2  UNL     1      19.428   5.003  96.118  1.00  0.00    -0.093 C 
HETATM   25  C1  UNL     1      18.924   4.901  97.335  1.00  0.00     0.014 C 
HETATM   26  C3  UNL     1      18.734   4.464  94.916  1.00  0.00     0.042 C 
ENDBRANCH  23  24
ENDBRANCH  22  23
ENDBRANCH  21  22
ENDBRANCH   1  21
BRANCH   3  27
HETATM   27  O1  UNL     1      25.013   5.423  95.186  1.00  0.00    -0.370 OA
ATOM     28  H1  UNL     1      24.570   6.021  94.594  1.00  0.00     0.212 HD
ENDBRANCH   3  27
BRANCH   7  29
HETATM   29  O3  UNL     1      29.852   4.936  95.478  1.00  0.00    -0.392 OA
ATOM     30  H3  UNL     1      30.402   4.580  94.790  1.00  0.00     0.210 HD
ENDBRANCH   7  29
TORSDOF 6
ENDMDL
