MODEL 1
REMARK VINA RESULT: -4.670779052      0.000      0.000
REMARK  2 active torsions:
REMARK  status: ('A' for Active; 'I' for Inactive)
REMARK    1  A    between atoms: C2_2  and  N1_3 
REMARK    2  A    between atoms: N1_3  and  C3_6 
ROOT
HETATM    1  C3  UNL     1      16.526   2.914  13.549  1.00  0.00     0.280 C 
HETATM    2  C4  UNL     1      15.532   3.132  14.685  1.00  0.00     0.054 C 
HETATM    3  C5  UNL     1      15.044   4.547  14.433  1.00  0.00     0.006 C 
HETATM    4  C6  UNL     1      16.185   5.486  14.608  1.00  0.00     0.024 C 
HETATM    5  C7  UNL     1      17.541   4.978  14.323  1.00  0.00     0.074 C 
HETATM    6  C8  UNL     1      18.250   5.824  13.267  1.00  0.00     0.032 C 
HETATM    7  N2  UNL     1      17.696   3.629  13.925  1.00  0.00    -0.392 N 
ATOM      8  H2  UNL     1      18.615   3.185  13.910  1.00  0.00     0.155 HD
ENDROOT
BRANCH   1   9
HETATM    9  N1  UNL     1      16.849   1.522  13.361  1.00  0.00    -0.055 N 
ATOM     10  H12 UNL     1      16.330   0.902  13.984  1.00  0.00     0.279 HD
ATOM     11  H11 UNL     1      17.784   1.280  13.688  1.00  0.00     0.279 HD
BRANCH   9  12
HETATM   12  C2  UNL     1      16.639   1.224  11.950  1.00  0.00     0.230 C 
HETATM   13  C1  UNL     1      16.981  -0.194  11.598  1.00  0.00     0.034 C 
ENDBRANCH   9  12
ENDBRANCH   1   9
TORSDOF 2
ENDMDL
MODEL 2
REMARK VINA RESULT: -4.569624563      1.732      2.240
REMARK  2 active torsions:
REMARK  status: ('A' for Active; 'I' for Inactive)
REMARK    1  A    between atoms: C2_2  and  N1_3 
REMARK    2  A    between atoms: N1_3  and  C3_6 
ROOT
HETATM    1  C3  UNL     1      16.584   2.934  14.159  1.00  0.00     0.280 C 
HETATM    2  C4  UNL     1      15.423   3.746  14.724  1.00  0.00     0.054 C 
HETATM    3  C5  UNL     1      15.476   5.020  13.901  1.00  0.00     0.006 C 
HETATM    4  C6  UNL     1      16.748   5.731  14.201  1.00  0.00     0.024 C 
HETATM    5  C7  UNL     1      17.910   4.917  14.605  1.00  0.00     0.074 C 
HETATM    6  C8  UNL     1      19.110   5.152  13.689  1.00  0.00     0.032 C 
HETATM    7  N2  UNL     1      17.758   3.514  14.713  1.00  0.00    -0.392 N 
ATOM      8  H2  UNL     1      18.465   2.940  15.172  1.00  0.00     0.155 HD
ENDROOT
BRANCH   1   9
HETATM    9  N1  UNL     1      16.512   1.543  14.527  1.00  0.00    -0.055 N 
ATOM     10  H12 UNL     1      17.202   0.965  14.046  1.00  0.00     0.279 HD
ATOM     11  H11 UNL     1      15.680   1.076  14.169  1.00  0.00     0.279 HD
BRANCH   9  12
HETATM   12  C2  UNL     1      16.625   1.482  15.979  1.00  0.00     0.230 C 
HETATM   13  C1  UNL     1      15.508   0.706  16.616  1.00  0.00     0.034 C 
ENDBRANCH   9  12
ENDBRANCH   1   9
TORSDOF 2
ENDMDL
MODEL 3
REMARK VINA RESULT: -4.490111521      1.948      3.614
REMARK  2 active torsions:
REMARK  status: ('A' for Active; 'I' for Inactive)
REMARK    1  A    between atoms: C2_2  and  N1_3 
REMARK    2  A    between atoms: N1_3  and  C3_6 
ROOT
HETATM    1  C3  UNL     1      16.309   2.201  14.642  1.00  0.00     0.280 C 
HETATM    2  C4  UNL     1      17.116   3.488  14.781  1.00  0.00     0.054 C 
HETATM    3  C5  UNL     1      16.602   4.330  13.628  1.00  0.00     0.006 C 
HETATM    4  C6  UNL     1      16.975   3.668  12.348  1.00  0.00     0.024 C 
HETATM    5  C7  UNL     1      17.110   2.199  12.351  1.00  0.00     0.074 C 
HETATM    6  C8  UNL     1      16.197   1.547  11.313  1.00  0.00     0.032 C 
HETATM    7  N2  UNL     1      16.906   1.495  13.561  1.00  0.00    -0.392 N 
ATOM      8  H2  UNL     1      17.177   0.516  13.655  1.00  0.00     0.155 HD
ENDROOT
BRANCH   1   9
HETATM    9  N1  UNL     1      16.355   1.391  15.832  1.00  0.00    -0.055 N 
ATOM     10  H12 UNL     1      17.120   1.642  16.459  1.00  0.00     0.279 HD
ATOM     11  H11 UNL     1      16.645   0.430  15.653  1.00  0.00     0.279 HD
BRANCH   9  12
HETATM   12  C2  UNL     1      15.043   1.486  16.461  1.00  0.00     0.230 C 
HETATM   13  C1  UNL     1      14.890   0.557  17.630  1.00  0.00     0.034 C 
ENDBRANCH   9  12
ENDBRANCH   1   9
TORSDOF 2
ENDMDL
MODEL 4
REMARK VINA RESULT: -4.437359842      1.901      3.357
REMARK  2 active torsions:
REMARK  status: ('A' for Active; 'I' for Inactive)
REMARK    1  A    between atoms: C2_2  and  N1_3 
REMARK    2  A    between atoms: N1_3  and  C3_6 
ROOT
HETATM    1  C3  UNL     1      17.974   4.303  14.520  1.00  0.00     0.280 C 
HETATM    2  C4  UNL     1      17.082   5.243  13.717  1.00  0.00     0.054 C 
HETATM    3  C5  UNL     1      15.833   5.332  14.575  1.00  0.00     0.006 C 
HETATM    4  C6  UNL     1      15.191   3.991  14.626  1.00  0.00     0.024 C 
HETATM    5  C7  UNL     1      16.062   2.808  14.491  1.00  0.00     0.074 C 
HETATM    6  C8  UNL     1      15.919   1.864  15.683  1.00  0.00     0.032 C 
HETATM    7  N2  UNL     1      17.450   3.000  14.296  1.00  0.00    -0.392 N 
ATOM      8  H2  UNL     1      18.053   2.230  14.004  1.00  0.00     0.155 HD
ENDROOT
BRANCH   1   9
HETATM    9  N1  UNL     1      19.349   4.351  14.093  1.00  0.00    -0.055 N 
ATOM     10  H12 UNL     1      19.833   3.460  14.199  1.00  0.00     0.279 HD
ATOM     11  H11 UNL     1      19.944   4.896  14.717  1.00  0.00     0.279 HD
BRANCH   9  12
HETATM   12  C2  UNL     1      19.351   4.846  12.722  1.00  0.00     0.230 C 
HETATM   13  C1  UNL     1      19.929   3.860  11.749  1.00  0.00     0.034 C 
ENDBRANCH   9  12
ENDBRANCH   1   9
TORSDOF 2
ENDMDL
MODEL 5
REMARK VINA RESULT: -4.398160895      1.930      4.393
REMARK  2 active torsions:
REMARK  status: ('A' for Active; 'I' for Inactive)
REMARK    1  A    between atoms: C2_2  and  N1_3 
REMARK    2  A    between atoms: N1_3  and  C3_6 
ROOT
HETATM    1  C3  UNL     1      17.497   5.023  14.557  1.00  0.00     0.280 C 
HETATM    2  C4  UNL     1      16.335   5.531  13.710  1.00  0.00     0.054 C 
HETATM    3  C5  UNL     1      15.123   5.084  14.506  1.00  0.00     0.006 C 
HETATM    4  C6  UNL     1      15.085   3.596  14.525  1.00  0.00     0.024 C 
HETATM    5  C7  UNL     1      16.370   2.877  14.434  1.00  0.00     0.074 C 
HETATM    6  C8  UNL     1      16.574   1.934  15.618  1.00  0.00     0.032 C 
HETATM    7  N2  UNL     1      17.565   3.624  14.307  1.00  0.00    -0.392 N 
ATOM      8  H2  UNL     1      18.443   3.176  14.046  1.00  0.00     0.155 HD
ENDROOT
BRANCH   1   9
HETATM    9  N1  UNL     1      18.750   5.639  14.199  1.00  0.00    -0.055 N 
ATOM     10  H12 UNL     1      19.217   5.174  13.420  1.00  0.00     0.279 HD
ATOM     11  H11 UNL     1      19.481   5.494  14.894  1.00  0.00     0.279 HD
BRANCH   9  12
HETATM   12  C2  UNL     1      18.472   7.047  13.942  1.00  0.00     0.230 C 
HETATM   13  C1  UNL     1      19.145   7.960  14.925  1.00  0.00     0.034 C 
ENDBRANCH   9  12
ENDBRANCH   1   9
TORSDOF 2
ENDMDL
