MODEL 1
REMARK VINA RESULT: -6.256083954      0.000      0.000
REMARK  3 active torsions:
REMARK  status: ('A' for Active; 'I' for Inactive)
REMARK    1  A    between atoms: C3_6  and  C4_7 
REMARK    2  A    between atoms: C4_7  and  C5_8 
REMARK    3  A    between atoms: C5_8  and  C6_9 
ROOT
HETATM    1  N1  UNL     1      12.927 -19.070 -46.945  1.00  0.00    -0.064 NA
HETATM    2  C1  UNL     1      13.358 -18.498 -45.704  1.00  0.00     0.184 C 
HETATM    3  N2  UNL     1      13.841 -17.296 -45.561  1.00  0.00    -0.363 N 
ATOM      4  H2  UNL     1      13.968 -16.623 -46.318  1.00  0.00     0.162 HD
HETATM    5  C2  UNL     1      14.172 -17.052 -44.170  1.00  0.00     0.147 C 
HETATM    6  C3  UNL     1      13.385 -18.097 -43.468  1.00  0.00     0.102 C 
HETATM    7  N3  UNL     1      13.320 -19.156 -44.450  1.00  0.00    -0.358 N 
ATOM      8  H3  UNL     1      13.260 -20.159 -44.277  1.00  0.00     0.162 HD
ENDROOT
BRANCH   6   9
HETATM    9  C4  UNL     1      13.996 -18.578 -42.179  1.00  0.00     0.027 C 
BRANCH   9  10
HETATM   10  C5  UNL     1      13.357 -19.918 -41.858  1.00  0.00     0.007 C 
BRANCH  10  11
HETATM   11  C6  UNL     1      11.952 -19.750 -41.321  1.00  0.00    -0.014 C 
HETATM   12  C7  UNL     1      11.452 -20.965 -40.595  1.00  0.00     0.004 C 
HETATM   13  C8  UNL     1      11.285 -20.568 -39.139  1.00  0.00     0.000 C 
HETATM   14  C9  UNL     1      12.299 -19.450 -39.005  1.00  0.00     0.000 C 
HETATM   15  C10 UNL     1      12.021 -18.649 -40.269  1.00  0.00     0.004 C 
ENDBRANCH  10  11
ENDBRANCH   9  10
ENDBRANCH   6   9
TORSDOF 3
ENDMDL
MODEL 2
REMARK VINA RESULT: -6.179083147      1.126      1.820
REMARK  3 active torsions:
REMARK  status: ('A' for Active; 'I' for Inactive)
REMARK    1  A    between atoms: C3_6  and  C4_7 
REMARK    2  A    between atoms: C4_7  and  C5_8 
REMARK    3  A    between atoms: C5_8  and  C6_9 
ROOT
HETATM    1  N1  UNL     1      14.967 -18.092 -47.011  1.00  0.00    -0.064 NA
HETATM    2  C1  UNL     1      14.270 -18.327 -45.781  1.00  0.00     0.184 C 
HETATM    3  N2  UNL     1      13.373 -19.254 -45.593  1.00  0.00    -0.363 N 
ATOM      4  H2  UNL     1      13.064 -19.919 -46.302  1.00  0.00     0.162 HD
HETATM    5  C2  UNL     1      12.878 -19.202 -44.230  1.00  0.00     0.147 C 
HETATM    6  C3  UNL     1      13.941 -18.432 -43.535  1.00  0.00     0.102 C 
HETATM    7  N3  UNL     1      14.456 -17.586 -44.588  1.00  0.00    -0.358 N 
ATOM      8  H3  UNL     1      14.866 -16.657 -44.492  1.00  0.00     0.162 HD
ENDROOT
BRANCH   6   9
HETATM    9  C4  UNL     1      13.457 -17.621 -42.363  1.00  0.00     0.027 C 
BRANCH   9  10
HETATM   10  C5  UNL     1      12.342 -18.415 -41.704  1.00  0.00     0.007 C 
BRANCH  10  11
HETATM   11  C6  UNL     1      12.871 -19.304 -40.599  1.00  0.00    -0.014 C 
HETATM   12  C7  UNL     1      12.128 -19.138 -39.306  1.00  0.00     0.004 C 
HETATM   13  C8  UNL     1      11.413 -20.451 -39.039  1.00  0.00     0.000 C 
HETATM   14  C9  UNL     1      11.228 -20.993 -40.442  1.00  0.00     0.000 C 
HETATM   15  C10 UNL     1      12.606 -20.740 -41.038  1.00  0.00     0.004 C 
ENDBRANCH  10  11
ENDBRANCH   9  10
ENDBRANCH   6   9
TORSDOF 3
ENDMDL
MODEL 3
REMARK VINA RESULT: -6.161700957      2.580      5.729
REMARK  3 active torsions:
REMARK  status: ('A' for Active; 'I' for Inactive)
REMARK    1  A    between atoms: C3_6  and  C4_7 
REMARK    2  A    between atoms: C4_7  and  C5_8 
REMARK    3  A    between atoms: C5_8  and  C6_9 
ROOT
HETATM    1  N1  UNL     1      11.400 -20.419 -39.300  1.00  0.00    -0.064 NA
HETATM    2  C1  UNL     1      12.348 -19.546 -39.926  1.00  0.00     0.184 C 
HETATM    3  N2  UNL     1      13.266 -18.864 -39.301  1.00  0.00    -0.363 N 
ATOM      4  H2  UNL     1      13.414 -18.874 -38.291  1.00  0.00     0.162 HD
HETATM    5  C2  UNL     1      14.045 -18.088 -40.247  1.00  0.00     0.147 C 
HETATM    6  C3  UNL     1      13.756 -18.773 -41.533  1.00  0.00     0.102 C 
HETATM    7  N3  UNL     1      12.426 -19.297 -41.319  1.00  0.00    -0.358 N 
ATOM      8  H3  UNL     1      11.701 -19.455 -42.019  1.00  0.00     0.162 HD
ENDROOT
BRANCH   6   9
HETATM    9  C4  UNL     1      13.807 -17.877 -42.741  1.00  0.00     0.027 C 
BRANCH   9  10
HETATM   10  C5  UNL     1      13.280 -18.684 -43.915  1.00  0.00     0.007 C 
BRANCH  10  11
HETATM   11  C6  UNL     1      13.323 -17.888 -45.202  1.00  0.00    -0.014 C 
HETATM   12  C7  UNL     1      14.714 -17.481 -45.593  1.00  0.00     0.004 C 
HETATM   13  C8  UNL     1      15.041 -18.218 -46.880  1.00  0.00     0.000 C 
HETATM   14  C9  UNL     1      14.162 -19.447 -46.764  1.00  0.00     0.000 C 
HETATM   15  C10 UNL     1      12.849 -18.828 -46.305  1.00  0.00     0.004 C 
ENDBRANCH  10  11
ENDBRANCH   9  10
ENDBRANCH   6   9
TORSDOF 3
ENDMDL
MODEL 4
REMARK VINA RESULT: -6.066416271      1.190      1.979
REMARK  3 active torsions:
REMARK  status: ('A' for Active; 'I' for Inactive)
REMARK    1  A    between atoms: C3_6  and  C4_7 
REMARK    2  A    between atoms: C4_7  and  C5_8 
REMARK    3  A    between atoms: C5_8  and  C6_9 
ROOT
HETATM    1  N1  UNL     1      15.772 -18.094 -47.265  1.00  0.00    -0.064 NA
HETATM    2  C1  UNL     1      14.650 -18.324 -46.403  1.00  0.00     0.184 C 
HETATM    3  N2  UNL     1      13.484 -18.759 -46.790  1.00  0.00    -0.363 N 
ATOM      4  H2  UNL     1      13.236 -18.986 -47.754  1.00  0.00     0.162 HD
HETATM    5  C2  UNL     1      12.589 -18.873 -45.654  1.00  0.00     0.147 C 
HETATM    6  C3  UNL     1      13.533 -18.892 -44.507  1.00  0.00     0.102 C 
HETATM    7  N3  UNL     1      14.645 -18.112 -45.002  1.00  0.00    -0.358 N 
ATOM      8  H3  UNL     1      15.288 -17.535 -44.460  1.00  0.00     0.162 HD
ENDROOT
BRANCH   6   9
HETATM    9  C4  UNL     1      12.978 -18.314 -43.234  1.00  0.00     0.027 C 
BRANCH   9  10
HETATM   10  C5  UNL     1      12.182 -19.416 -42.556  1.00  0.00     0.007 C 
BRANCH  10  11
HETATM   11  C6  UNL     1      12.918 -19.976 -41.357  1.00  0.00    -0.014 C 
HETATM   12  C7  UNL     1      13.100 -18.969 -40.259  1.00  0.00     0.004 C 
HETATM   13  C8  UNL     1      12.279 -19.454 -39.077  1.00  0.00     0.000 C 
HETATM   14  C9  UNL     1      11.198 -20.264 -39.765  1.00  0.00     0.000 C 
HETATM   15  C10 UNL     1      12.020 -21.059 -40.769  1.00  0.00     0.004 C 
ENDBRANCH  10  11
ENDBRANCH   9  10
ENDBRANCH   6   9
TORSDOF 3
ENDMDL
MODEL 5
REMARK VINA RESULT: -5.982565762      2.565      5.596
REMARK  3 active torsions:
REMARK  status: ('A' for Active; 'I' for Inactive)
REMARK    1  A    between atoms: C3_6  and  C4_7 
REMARK    2  A    between atoms: C4_7  and  C5_8 
REMARK    3  A    between atoms: C5_8  and  C6_9 
ROOT
HETATM    1  N1  UNL     1      15.178 -17.230 -39.547  1.00  0.00    -0.064 NA
HETATM    2  C1  UNL     1      14.118 -18.040 -40.071  1.00  0.00     0.184 C 
HETATM    3  N2  UNL     1      13.303 -18.762 -39.356  1.00  0.00    -0.363 N 
ATOM      4  H2  UNL     1      13.325 -18.833 -38.338  1.00  0.00     0.162 HD
HETATM    5  C2  UNL     1      12.358 -19.450 -40.215  1.00  0.00     0.147 C 
HETATM    6  C3  UNL     1      12.443 -18.666 -41.473  1.00  0.00     0.102 C 
HETATM    7  N3  UNL     1      13.802 -18.173 -41.446  1.00  0.00    -0.358 N 
ATOM      8  H3  UNL     1      14.403 -17.966 -42.244  1.00  0.00     0.162 HD
ENDROOT
BRANCH   6   9
HETATM    9  C4  UNL     1      12.170 -19.459 -42.722  1.00  0.00     0.027 C 
BRANCH   9  10
HETATM   10  C5  UNL     1      13.372 -19.281 -43.634  1.00  0.00     0.007 C 
BRANCH  10  11
HETATM   11  C6  UNL     1      13.124 -18.215 -44.680  1.00  0.00    -0.014 C 
HETATM   12  C7  UNL     1      14.294 -17.293 -44.865  1.00  0.00     0.004 C 
HETATM   13  C8  UNL     1      14.822 -17.531 -46.269  1.00  0.00     0.000 C 
HETATM   14  C9  UNL     1      14.403 -18.966 -46.517  1.00  0.00     0.000 C 
HETATM   15  C10 UNL     1      12.968 -18.945 -46.009  1.00  0.00     0.004 C 
ENDBRANCH  10  11
ENDBRANCH   9  10
ENDBRANCH   6   9
TORSDOF 3
ENDMDL
