MODEL 1
REMARK VINA RESULT: -8.454011209      0.000      0.000
REMARK  5 active torsions:
REMARK  status: ('A' for Active; 'I' for Inactive)
REMARK    1  A    between atoms: C2_2  and  N1_3 
REMARK       I    between atoms: N1_3  and  C3_5 
REMARK    2  A    between atoms: C3_5  and  C4_7 
REMARK    3  A    between atoms: C4_7  and  N2_8 
REMARK       I    between atoms: C5_10  and  N3_11 
REMARK       I    between atoms: C5_10  and  N7_19 
REMARK       I    between atoms: C6_13  and  N5_15 
REMARK    4  A    between atoms: N7_19  and  N8_21 
REMARK    5  A    between atoms: N8_21  and  C8_23 
ROOT
HETATM    1  N2  UNL     1      17.223 -28.459 -16.437  1.00  0.00    -0.216 N 
ATOM      2  H2  UNL     1      17.077 -29.176 -17.147  1.00  0.00     0.178 HD
HETATM    3  C5  UNL     1      17.890 -27.388 -16.705  1.00  0.00     0.695 C 
HETATM    4  N3  UNL     1      18.396 -27.292 -18.044  1.00  0.00    -0.162 N 
ATOM      5  H3  UNL     1      17.732 -27.284 -18.818  1.00  0.00     0.187 HD
HETATM    6  C6  UNL     1      19.640 -27.215 -18.308  1.00  0.00     0.215 C 
HETATM    7  N4  UNL     1      20.070 -27.123 -19.651  1.00  0.00    -0.062 NA
HETATM    8  N5  UNL     1      20.585 -27.222 -17.261  1.00  0.00    -0.267 N 
ATOM      9  H5  UNL     1      20.819 -26.350 -16.787  1.00  0.00     0.180 HD
HETATM   10  C7  UNL     1      21.203 -28.413 -16.867  1.00  0.00     0.184 C 
HETATM   11  N6  UNL     1      21.703 -29.388 -16.538  1.00  0.00    -0.172 NA
HETATM   12  N7  UNL     1      18.112 -26.375 -15.744  1.00  0.00    -0.130 N 
ATOM     13  H7  UNL     1      18.814 -26.527 -15.021  1.00  0.00     0.205 HD
ENDROOT
BRANCH   1  14
HETATM   14  C4  UNL     1      16.691 -28.613 -15.110  1.00  0.00     0.240 C 
BRANCH  14  15
HETATM   15  C3  UNL     1      17.001 -29.936 -14.522  1.00  0.00     0.235 C 
HETATM   16  N1  UNL     1      16.189 -30.474 -13.503  1.00  0.00    -0.360 N 
ATOM     17  H1  UNL     1      15.380 -29.950 -13.167  1.00  0.00     0.162 HD
HETATM   18  O1  UNL     1      18.011 -30.539 -14.974  1.00  0.00    -0.272 OA
BRANCH  16  19
HETATM   19  C2  UNL     1      16.495 -31.750 -12.941  1.00  0.00     0.118 C 
HETATM   20  C1  UNL     1      15.355 -32.368 -12.200  1.00  0.00     0.026 C 
ENDBRANCH  16  19
ENDBRANCH  14  15
ENDBRANCH   1  14
BRANCH  12  21
HETATM   21  N8  UNL     1      17.400 -25.175 -15.755  1.00  0.00    -0.264 N 
ATOM     22  H8  UNL     1      17.846 -24.335 -16.125  1.00  0.00     0.189 HD
BRANCH  21  23
HETATM   23  C8  UNL     1      16.082 -25.097 -15.268  1.00  0.00     0.200 C 
HETATM   24  N9  UNL     1      15.011 -25.031 -16.195  1.00  0.00    -0.068 NA
HETATM   25  S1  UNL     1      15.706 -25.079 -13.687  1.00  0.00    -0.043 SA
ENDBRANCH  21  23
ENDBRANCH  12  21
TORSDOF 5
ENDMDL
MODEL 2
REMARK VINA RESULT: -8.329018144      1.333      1.344
REMARK  5 active torsions:
REMARK  status: ('A' for Active; 'I' for Inactive)
REMARK    1  A    between atoms: C2_2  and  N1_3 
REMARK       I    between atoms: N1_3  and  C3_5 
REMARK    2  A    between atoms: C3_5  and  C4_7 
REMARK    3  A    between atoms: C4_7  and  N2_8 
REMARK       I    between atoms: C5_10  and  N3_11 
REMARK       I    between atoms: C5_10  and  N7_19 
REMARK       I    between atoms: C6_13  and  N5_15 
REMARK    4  A    between atoms: N7_19  and  N8_21 
REMARK    5  A    between atoms: N8_21  and  C8_23 
ROOT
HETATM    1  N2  UNL     1      18.044 -28.999 -16.379  1.00  0.00    -0.216 N 
ATOM      2  H2  UNL     1      17.852 -29.725 -17.069  1.00  0.00     0.178 HD
HETATM    3  C5  UNL     1      18.418 -27.820 -16.744  1.00  0.00     0.695 C 
HETATM    4  N3  UNL     1      18.537 -27.619 -18.160  1.00  0.00    -0.162 N 
ATOM      5  H3  UNL     1      17.706 -27.729 -18.741  1.00  0.00     0.187 HD
HETATM    6  C6  UNL     1      19.637 -27.308 -18.722  1.00  0.00     0.215 C 
HETATM    7  N4  UNL     1      19.684 -27.125 -20.123  1.00  0.00    -0.062 NA
HETATM    8  N5  UNL     1      20.804 -27.147 -17.948  1.00  0.00    -0.267 N 
ATOM      9  H5  UNL     1      20.993 -26.251 -17.499  1.00  0.00     0.180 HD
HETATM   10  C7  UNL     1      21.707 -28.205 -17.789  1.00  0.00     0.184 C 
HETATM   11  N6  UNL     1      22.440 -29.072 -17.652  1.00  0.00    -0.172 NA
HETATM   12  N7  UNL     1      18.693 -26.792 -15.814  1.00  0.00    -0.130 N 
ATOM     13  H7  UNL     1      19.573 -26.816 -15.300  1.00  0.00     0.205 HD
ENDROOT
BRANCH   1  14
HETATM   14  C4  UNL     1      17.907 -29.262 -14.972  1.00  0.00     0.240 C 
BRANCH  14  15
HETATM   15  C3  UNL     1      16.616 -29.903 -14.636  1.00  0.00     0.235 C 
HETATM   16  N1  UNL     1      16.508 -30.747 -13.511  1.00  0.00    -0.360 N 
ATOM     17  H1  UNL     1      17.324 -30.918 -12.923  1.00  0.00     0.162 HD
HETATM   18  O1  UNL     1      15.641 -29.658 -15.396  1.00  0.00    -0.272 OA
BRANCH  16  19
HETATM   19  C2  UNL     1      15.259 -31.362 -13.194  1.00  0.00     0.118 C 
HETATM   20  C1  UNL     1      15.372 -32.467 -12.195  1.00  0.00     0.026 C 
ENDBRANCH  16  19
ENDBRANCH  14  15
ENDBRANCH   1  14
BRANCH  12  21
HETATM   21  N8  UNL     1      17.801 -25.747 -15.579  1.00  0.00    -0.264 N 
ATOM     22  H8  UNL     1      18.093 -24.788 -15.771  1.00  0.00     0.189 HD
BRANCH  21  23
HETATM   23  C8  UNL     1      16.505 -25.984 -15.082  1.00  0.00     0.200 C 
HETATM   24  N9  UNL     1      16.322 -26.120 -13.682  1.00  0.00    -0.068 NA
HETATM   25  S1  UNL     1      15.188 -26.110 -16.025  1.00  0.00    -0.043 SA
ENDBRANCH  21  23
ENDBRANCH  12  21
TORSDOF 5
ENDMDL
MODEL 3
REMARK VINA RESULT: -7.639310919      2.409      4.460
REMARK  5 active torsions:
REMARK  status: ('A' for Active; 'I' for Inactive)
REMARK    1  A    between atoms: C2_2  and  N1_3 
REMARK       I    between atoms: N1_3  and  C3_5 
REMARK    2  A    between atoms: C3_5  and  C4_7 
REMARK    3  A    between atoms: C4_7  and  N2_8 
REMARK       I    between atoms: C5_10  and  N3_11 
REMARK       I    between atoms: C5_10  and  N7_19 
REMARK       I    between atoms: C6_13  and  N5_15 
REMARK    4  A    between atoms: N7_19  and  N8_21 
REMARK    5  A    between atoms: N8_21  and  C8_23 
ROOT
HETATM    1  N2  UNL     1      18.513 -28.191 -14.971  1.00  0.00    -0.216 N 
ATOM      2  H2  UNL     1      18.548 -27.786 -14.036  1.00  0.00     0.178 HD
HETATM    3  C5  UNL     1      18.123 -27.492 -15.982  1.00  0.00     0.695 C 
HETATM    4  N3  UNL     1      17.754 -26.136 -15.693  1.00  0.00    -0.162 N 
ATOM      5  H3  UNL     1      18.460 -25.509 -15.306  1.00  0.00     0.187 HD
HETATM    6  C6  UNL     1      16.582 -25.681 -15.898  1.00  0.00     0.215 C 
HETATM    7  N4  UNL     1      16.287 -24.334 -15.590  1.00  0.00    -0.062 NA
HETATM    8  N5  UNL     1      15.584 -26.520 -16.434  1.00  0.00    -0.267 N 
ATOM      9  H5  UNL     1      15.515 -26.642 -17.444  1.00  0.00     0.180 HD
HETATM   10  C7  UNL     1      14.687 -27.187 -15.592  1.00  0.00     0.184 C 
HETATM   11  N6  UNL     1      13.959 -27.740 -14.904  1.00  0.00    -0.172 NA
HETATM   12  N7  UNL     1      18.062 -28.023 -17.290  1.00  0.00    -0.130 N 
ATOM     13  H7  UNL     1      17.291 -28.645 -17.534  1.00  0.00     0.205 HD
ENDROOT
BRANCH   1  14
HETATM   14  C4  UNL     1      18.895 -29.559 -15.198  1.00  0.00     0.240 C 
BRANCH  14  15
HETATM   15  C3  UNL     1      17.849 -30.520 -14.781  1.00  0.00     0.235 C 
HETATM   16  N1  UNL     1      16.772 -30.099 -13.975  1.00  0.00    -0.360 N 
ATOM     17  H1  UNL     1      16.710 -29.125 -13.676  1.00  0.00     0.162 HD
HETATM   18  O1  UNL     1      17.975 -31.709 -15.179  1.00  0.00    -0.272 OA
BRANCH  16  19
HETATM   19  C2  UNL     1      15.767 -31.032 -13.578  1.00  0.00     0.118 C 
HETATM   20  C1  UNL     1      16.111 -31.790 -12.337  1.00  0.00     0.026 C 
ENDBRANCH  16  19
ENDBRANCH  14  15
ENDBRANCH   1  14
BRANCH  12  21
HETATM   21  N8  UNL     1      19.022 -27.725 -18.257  1.00  0.00    -0.264 N 
ATOM     22  H8  UNL     1      18.726 -27.567 -19.221  1.00  0.00     0.189 HD
BRANCH  21  23
HETATM   23  C8  UNL     1      20.389 -27.637 -17.934  1.00  0.00     0.200 C 
HETATM   24  N9  UNL     1      20.762 -27.143 -16.659  1.00  0.00    -0.068 NA
HETATM   25  S1  UNL     1      21.583 -28.075 -18.946  1.00  0.00    -0.043 SA
ENDBRANCH  21  23
ENDBRANCH  12  21
TORSDOF 5
ENDMDL
MODEL 4
REMARK VINA RESULT: -7.613102278      1.045      1.082
REMARK  5 active torsions:
REMARK  status: ('A' for Active; 'I' for Inactive)
REMARK    1  A    between atoms: C2_2  and  N1_3 
REMARK       I    between atoms: N1_3  and  C3_5 
REMARK    2  A    between atoms: C3_5  and  C4_7 
REMARK    3  A    between atoms: C4_7  and  N2_8 
REMARK       I    between atoms: C5_10  and  N3_11 
REMARK       I    between atoms: C5_10  and  N7_19 
REMARK       I    between atoms: C6_13  and  N5_15 
REMARK    4  A    between atoms: N7_19  and  N8_21 
REMARK    5  A    between atoms: N8_21  and  C8_23 
ROOT
HETATM    1  N2  UNL     1      16.891 -29.253 -16.590  1.00  0.00    -0.216 N 
ATOM      2  H2  UNL     1      17.147 -29.988 -17.249  1.00  0.00     0.178 HD
HETATM    3  C5  UNL     1      17.374 -28.063 -16.704  1.00  0.00     0.695 C 
HETATM    4  N3  UNL     1      18.276 -27.863 -17.802  1.00  0.00    -0.162 N 
ATOM      5  H3  UNL     1      17.930 -28.005 -18.751  1.00  0.00     0.187 HD
HETATM    6  C6  UNL     1      19.491 -27.516 -17.642  1.00  0.00     0.215 C 
HETATM    7  N4  UNL     1      20.326 -27.337 -18.769  1.00  0.00    -0.062 NA
HETATM    8  N5  UNL     1      20.001 -27.310 -16.344  1.00  0.00    -0.267 N 
ATOM      9  H5  UNL     1      19.875 -26.406 -15.889  1.00  0.00     0.180 HD
HETATM   10  C7  UNL     1      20.678 -28.334 -15.673  1.00  0.00     0.184 C 
HETATM   11  N6  UNL     1      21.224 -29.174 -15.121  1.00  0.00    -0.172 NA
HETATM   12  N7  UNL     1      17.041 -27.022 -15.808  1.00  0.00    -0.130 N 
ATOM     13  H7  UNL     1      17.468 -27.012 -14.883  1.00  0.00     0.205 HD
ENDROOT
BRANCH   1  14
HETATM   14  C4  UNL     1      15.980 -29.515 -15.508  1.00  0.00     0.240 C 
BRANCH  14  15
HETATM   15  C3  UNL     1      16.391 -30.676 -14.686  1.00  0.00     0.235 C 
HETATM   16  N1  UNL     1      16.020 -30.758 -13.329  1.00  0.00    -0.360 N 
ATOM     17  H1  UNL     1      15.464 -30.014 -12.907  1.00  0.00     0.162 HD
HETATM   18  O1  UNL     1      17.077 -31.565 -15.257  1.00  0.00    -0.272 OA
BRANCH  16  19
HETATM   19  C2  UNL     1      16.421 -31.881 -12.543  1.00  0.00     0.118 C 
HETATM   20  C1  UNL     1      15.279 -32.725 -12.078  1.00  0.00     0.026 C 
ENDBRANCH  16  19
ENDBRANCH  14  15
ENDBRANCH   1  14
BRANCH  12  21
HETATM   21  N8  UNL     1      16.145 -26.008 -16.150  1.00  0.00    -0.264 N 
ATOM     22  H8  UNL     1      15.552 -26.124 -16.972  1.00  0.00     0.189 HD
BRANCH  21  23
HETATM   23  C8  UNL     1      16.042 -24.830 -15.387  1.00  0.00     0.200 C 
HETATM   24  N9  UNL     1      16.559 -23.622 -15.918  1.00  0.00    -0.068 NA
HETATM   25  S1  UNL     1      15.355 -24.768 -13.915  1.00  0.00    -0.043 SA
ENDBRANCH  21  23
ENDBRANCH  12  21
TORSDOF 5
ENDMDL
MODEL 5
REMARK VINA RESULT: -7.397898027      2.561      5.956
REMARK  5 active torsions:
REMARK  status: ('A' for Active; 'I' for Inactive)
REMARK    1  A    between atoms: C2_2  and  N1_3 
REMARK       I    between atoms: N1_3  and  C3_5 
REMARK    2  A    between atoms: C3_5  and  C4_7 
REMARK    3  A    between atoms: C4_7  and  N2_8 
REMARK       I    between atoms: C5_10  and  N3_11 
REMARK       I    between atoms: C5_10  and  N7_19 
REMARK       I    between atoms: C6_13  and  N5_15 
REMARK    4  A    between atoms: N7_19  and  N8_21 
REMARK    5  A    between atoms: N8_21  and  C8_23 
ROOT
HETATM    1  N2  UNL     1      15.657 -27.888 -16.313  1.00  0.00    -0.216 N 
ATOM      2  H2  UNL     1      14.795 -27.592 -16.769  1.00  0.00     0.178 HD
HETATM    3  C5  UNL     1      15.869 -27.631 -15.067  1.00  0.00     0.695 C 
HETATM    4  N3  UNL     1      14.822 -26.916 -14.395  1.00  0.00    -0.162 N 
ATOM      5  H3  UNL     1      13.899 -27.345 -14.333  1.00  0.00     0.187 HD
HETATM    6  C6  UNL     1      14.997 -25.768 -13.872  1.00  0.00     0.215 C 
HETATM    7  N4  UNL     1      13.921 -25.118 -13.225  1.00  0.00    -0.062 NA
HETATM    8  N5  UNL     1      16.261 -25.147 -13.939  1.00  0.00    -0.267 N 
ATOM      9  H5  UNL     1      16.971 -25.370 -13.241  1.00  0.00     0.180 HD
HETATM   10  C7  UNL     1      16.552 -24.229 -14.954  1.00  0.00     0.184 C 
HETATM   11  N6  UNL     1      16.794 -23.486 -15.789  1.00  0.00    -0.172 NA
HETATM   12  N7  UNL     1      17.053 -28.027 -14.404  1.00  0.00    -0.130 N 
ATOM     13  H7  UNL     1      17.909 -27.498 -14.568  1.00  0.00     0.205 HD
ENDROOT
BRANCH   1  14
HETATM   14  C4  UNL     1      16.671 -28.602 -17.040  1.00  0.00     0.240 C 
BRANCH  14  15
HETATM   15  C3  UNL     1      17.831 -27.749 -17.388  1.00  0.00     0.235 C 
HETATM   16  N1  UNL     1      19.047 -28.331 -17.802  1.00  0.00    -0.360 N 
ATOM     17  H1  UNL     1      19.131 -29.345 -17.864  1.00  0.00     0.162 HD
HETATM   18  O1  UNL     1      17.672 -26.503 -17.293  1.00  0.00    -0.272 OA
BRANCH  16  19
HETATM   19  C2  UNL     1      20.161 -27.501 -18.134  1.00  0.00     0.118 C 
HETATM   20  C1  UNL     1      20.255 -27.180 -19.591  1.00  0.00     0.026 C 
ENDBRANCH  16  19
ENDBRANCH  14  15
ENDBRANCH   1  14
BRANCH  12  21
HETATM   21  N8  UNL     1      17.087 -29.116 -13.534  1.00  0.00    -0.264 N 
ATOM     22  H8  UNL     1      17.503 -29.003 -12.609  1.00  0.00     0.189 HD
BRANCH  21  23
HETATM   23  C8  UNL     1      16.559 -30.368 -13.901  1.00  0.00     0.200 C 
HETATM   24  N9  UNL     1      15.290 -30.752 -13.398  1.00  0.00    -0.068 NA
HETATM   25  S1  UNL     1      17.324 -31.415 -14.880  1.00  0.00    -0.043 SA
ENDBRANCH  21  23
ENDBRANCH  12  21
TORSDOF 5
ENDMDL
