MODEL 1
REMARK VINA RESULT: -8.930587657      0.000      0.000
REMARK  15 active torsions:
REMARK  status: ('A' for Active; 'I' for Inactive)
REMARK    1  A    between atoms: N1_2  and  C2_4 
REMARK    2  A    between atoms: C7_14  and  C8_15 
REMARK    3  A    between atoms: C8_15  and  N5_16 
REMARK    4  A    between atoms: C8_15  and  N6_20 
REMARK    5  A    between atoms: C9_24  and  N7_25 
REMARK       I    between atoms: N7_25  and  C10_27 
REMARK    6  A    between atoms: C10_27  and  C11_29 
REMARK    7  A    between atoms: C11_29  and  C12_31 
REMARK    8  A    between atoms: C12_31  and  O7_52 
REMARK    9  A    between atoms: C13_32  and  C14_33 
REMARK   10  A    between atoms: C15_35  and  O4_36 
REMARK   11  A    between atoms: O4_36  and  N8_37 
REMARK   12  A    between atoms: N9_39  and  N10_41 
REMARK   13  A    between atoms: C17_46  and  O5_47 
REMARK   14  A    between atoms: C18_49  and  O6_50 
REMARK   15  A    between atoms: O7_52  and  C19_53 
ROOT
HETATM    1  N7  UNL     1      33.536  -3.212  11.908  1.00  0.00    -0.316 N 
ATOM      2  H7  UNL     1      33.915  -4.158  11.847  1.00  0.00     0.169 HD
HETATM    3  C10 UNL     1      32.549  -2.975  12.889  1.00  0.00     0.299 C 
HETATM    4  O1  UNL     1      32.053  -1.834  13.011  1.00  0.00    -0.264 OA
ENDROOT
BRANCH   3   5
HETATM    5  C11 UNL     1      32.084  -4.029  13.771  1.00  0.00     0.272 C 
HETATM    6  O2  UNL     1      31.689  -5.091  13.205  1.00  0.00    -0.279 OA
BRANCH   5   7
HETATM    7  C12 UNL     1      32.061  -3.913  15.222  1.00  0.00     0.133 C 
HETATM    8  C13 UNL     1      30.975  -4.236  15.868  1.00  0.00     0.049 C 
BRANCH   8   9
HETATM    9  C14 UNL     1      30.914  -4.132  17.338  1.00  0.00     0.182 C 
HETATM   10  O3  UNL     1      31.122  -5.358  17.962  1.00  0.00    -0.344 OA
HETATM   11  C15 UNL     1      29.912  -5.732  18.529  1.00  0.00     0.322 C 
HETATM   12  C17 UNL     1      29.280  -4.453  18.986  1.00  0.00     0.207 C 
HETATM   13  C18 UNL     1      29.624  -3.547  17.824  1.00  0.00     0.184 C 
BRANCH  11  14
HETATM   14  O4  UNL     1      29.982  -6.752  19.460  1.00  0.00    -0.228 OA
BRANCH  14  15
HETATM   15  N8  UNL     1      30.043  -6.587  20.817  1.00  0.00    -0.190 N 
HETATM   16  N9  UNL     1      29.107  -6.573  21.627  1.00  0.00    -0.221 N 
ATOM     17  H9  UNL     1      29.384  -6.435  22.599  1.00  0.00     0.210 HD
ATOM     18  H8  UNL     1      30.975  -6.459  21.210  1.00  0.00     0.217 HD
BRANCH  16  19
HETATM   19  N10 UNL     1      27.761  -6.714  21.431  1.00  0.00    -0.260 N 
HETATM   20  C16 UNL     1      26.858  -5.826  21.398  1.00  0.00     0.216 C 
HETATM   21  N11 UNL     1      25.518  -6.276  21.172  1.00  0.00    -0.065 NA
HETATM   22  N12 UNL     1      27.071  -4.442  21.566  1.00  0.00    -0.065 NA
ATOM     23  H10 UNL     1      27.438  -7.670  21.292  1.00  0.00     0.191 HD
ENDBRANCH  16  19
ENDBRANCH  14  15
ENDBRANCH  11  14
BRANCH  12  24
HETATM   24  O5  UNL     1      29.919  -3.915  20.106  1.00  0.00    -0.388 OA
ATOM     25  H5  UNL     1      30.373  -3.104  19.907  1.00  0.00     0.210 HD
ENDBRANCH  12  24
BRANCH  13  26
HETATM   26  O6  UNL     1      28.660  -3.745  16.843  1.00  0.00    -0.390 OA
ATOM     27  H6  UNL     1      27.846  -3.356  17.142  1.00  0.00     0.210 HD
ENDBRANCH  13  26
ENDBRANCH   8   9
BRANCH   7  28
HETATM   28  O7  UNL     1      33.167  -3.465  15.915  1.00  0.00    -0.275 OA
BRANCH  28  29
HETATM   29  C19 UNL     1      33.586  -2.149  15.920  1.00  0.00     0.260 C 
HETATM   30  C20 UNL     1      32.716  -1.040  16.381  1.00  0.00     0.126 C 
HETATM   31  O8  UNL     1      34.738  -1.869  15.524  1.00  0.00    -0.265 OA
ENDBRANCH  28  29
ENDBRANCH   7  28
ENDBRANCH   5   7
ENDBRANCH   3   5
BRANCH   1  32
HETATM   32  C9  UNL     1      34.045  -2.249  11.000  1.00  0.00     0.092 A 
HETATM   33  C2  UNL     1      33.267  -1.870   9.900  1.00  0.00     0.130 A 
HETATM   34  N2  UNL     1      33.721  -0.947   9.037  1.00  0.00    -0.325 N 
HETATM   35  C3  UNL     1      34.921  -0.352   9.179  1.00  0.00     0.137 A 
ATOM     36  H2  UNL     1      33.136  -0.688   8.243  1.00  0.00     0.169 HD
HETATM   37  C4  UNL     1      35.682  -0.726  10.259  1.00  0.00     0.090 A 
HETATM   38  N4  UNL     1      35.573   0.592   8.439  1.00  0.00    -0.332 N 
HETATM   39  N3  UNL     1      36.826   0.015  10.166  1.00  0.00    -0.349 N 
HETATM   40  C7  UNL     1      35.278  -1.675  11.196  1.00  0.00     0.060 A 
HETATM   41  C5  UNL     1      36.738   0.792   9.074  1.00  0.00     0.184 A 
ATOM     42  H3  UNL     1      37.612  -0.017  10.815  1.00  0.00     0.167 HD
HETATM   43  C6  UNL     1      35.052   1.192   7.245  1.00  0.00     0.158 C 
BRANCH  33  44
HETATM   44  N1  UNL     1      32.120  -2.446   9.774  1.00  0.00    -0.379 N 
HETATM   45  C1  UNL     1      31.410  -2.549   8.534  1.00  0.00     0.147 C 
ATOM     46  H1  UNL     1      31.693  -2.853  10.606  1.00  0.00     0.160 HD
ENDBRANCH  33  44
BRANCH  40  47
HETATM   47  C8  UNL     1      36.185  -1.953  12.320  1.00  0.00     0.416 C 
BRANCH  47  48
HETATM   48  N5  UNL     1      36.447  -0.873  13.206  1.00  0.00    -0.046 N 
ATOM     49  H53 UNL     1      35.666  -0.218  13.189  1.00  0.00     0.277 HD
ATOM     50  H52 UNL     1      36.395  -1.201  14.171  1.00  0.00     0.277 HD
ATOM     51  H51 UNL     1      37.322  -0.368  13.063  1.00  0.00     0.277 HD
ENDBRANCH  47  48
BRANCH  47  52
HETATM   52  N6  UNL     1      37.462  -2.400  11.762  1.00  0.00    -0.046 N 
ATOM     53  H63 UNL     1      37.421  -3.348  11.389  1.00  0.00     0.277 HD
ATOM     54  H62 UNL     1      37.703  -1.924  10.892  1.00  0.00     0.277 HD
ATOM     55  H61 UNL     1      38.173  -2.289  12.485  1.00  0.00     0.277 HD
ENDBRANCH  47  52
ENDBRANCH  40  47
ENDBRANCH   1  32
TORSDOF 15
ENDMDL
MODEL 2
REMARK VINA RESULT: -8.763344242      3.335      6.200
REMARK  15 active torsions:
REMARK  status: ('A' for Active; 'I' for Inactive)
REMARK    1  A    between atoms: N1_2  and  C2_4 
REMARK    2  A    between atoms: C7_14  and  C8_15 
REMARK    3  A    between atoms: C8_15  and  N5_16 
REMARK    4  A    between atoms: C8_15  and  N6_20 
REMARK    5  A    between atoms: C9_24  and  N7_25 
REMARK       I    between atoms: N7_25  and  C10_27 
REMARK    6  A    between atoms: C10_27  and  C11_29 
REMARK    7  A    between atoms: C11_29  and  C12_31 
REMARK    8  A    between atoms: C12_31  and  O7_52 
REMARK    9  A    between atoms: C13_32  and  C14_33 
REMARK   10  A    between atoms: C15_35  and  O4_36 
REMARK   11  A    between atoms: O4_36  and  N8_37 
REMARK   12  A    between atoms: N9_39  and  N10_41 
REMARK   13  A    between atoms: C17_46  and  O5_47 
REMARK   14  A    between atoms: C18_49  and  O6_50 
REMARK   15  A    between atoms: O7_52  and  C19_53 
ROOT
HETATM    1  N7  UNL     1      33.357  -3.222  10.148  1.00  0.00    -0.316 N 
ATOM      2  H7  UNL     1      33.372  -3.293  11.166  1.00  0.00     0.169 HD
HETATM    3  C10 UNL     1      34.014  -2.114   9.570  1.00  0.00     0.299 C 
HETATM    4  O1  UNL     1      34.032  -1.980   8.327  1.00  0.00    -0.264 OA
ENDROOT
BRANCH   3   5
HETATM    5  C11 UNL     1      34.676  -1.112  10.383  1.00  0.00     0.272 C 
HETATM    6  O2  UNL     1      35.085  -0.082   9.769  1.00  0.00    -0.279 OA
BRANCH   5   7
HETATM    7  C12 UNL     1      34.875  -1.243  11.820  1.00  0.00     0.133 C 
HETATM    8  C13 UNL     1      33.905  -0.915  12.628  1.00  0.00     0.049 C 
BRANCH   8   9
HETATM    9  C14 UNL     1      34.069  -1.034  14.089  1.00  0.00     0.182 C 
HETATM   10  O3  UNL     1      33.269  -2.035  14.629  1.00  0.00    -0.344 OA
HETATM   11  C15 UNL     1      32.291  -1.405  15.385  1.00  0.00     0.322 C 
HETATM   12  C17 UNL     1      32.966  -0.210  15.984  1.00  0.00     0.207 C 
HETATM   13  C18 UNL     1      33.800   0.252  14.809  1.00  0.00     0.184 C 
BRANCH  11  14
HETATM   14  O4  UNL     1      31.595  -2.222  16.258  1.00  0.00    -0.228 OA
BRANCH  14  15
HETATM   15  N8  UNL     1      32.158  -3.079  17.163  1.00  0.00    -0.190 N 
HETATM   16  N9  UNL     1      31.735  -3.392  18.284  1.00  0.00    -0.221 N 
ATOM     17  H9  UNL     1      32.321  -4.055  18.793  1.00  0.00     0.210 HD
ATOM     18  H8  UNL     1      33.035  -3.515  16.880  1.00  0.00     0.217 HD
BRANCH  16  19
HETATM   19  N10 UNL     1      30.610  -2.993  18.951  1.00  0.00    -0.260 N 
HETATM   20  C16 UNL     1      30.501  -2.478  20.104  1.00  0.00     0.216 C 
HETATM   21  N11 UNL     1      29.177  -2.160  20.546  1.00  0.00    -0.065 NA
HETATM   22  N12 UNL     1      31.574  -2.198  20.975  1.00  0.00    -0.065 NA
ATOM     23  H10 UNL     1      29.734  -3.131  18.450  1.00  0.00     0.191 HD
ENDBRANCH  16  19
ENDBRANCH  14  15
ENDBRANCH  11  14
BRANCH  12  24
HETATM   24  O5  UNL     1      33.868  -0.559  16.992  1.00  0.00    -0.388 OA
ATOM     25  H5  UNL     1      34.712  -0.136  16.884  1.00  0.00     0.210 HD
ENDBRANCH  12  24
BRANCH  13  26
HETATM   26  O6  UNL     1      32.985   1.038  14.004  1.00  0.00    -0.390 OA
ATOM     27  H6  UNL     1      33.352   1.914  13.975  1.00  0.00     0.210 HD
ENDBRANCH  13  26
ENDBRANCH   8   9
BRANCH   7  28
HETATM   28  O7  UNL     1      36.070  -1.705  12.330  1.00  0.00    -0.275 OA
BRANCH  28  29
HETATM   29  C19 UNL     1      36.553  -2.981  12.113  1.00  0.00     0.260 C 
HETATM   30  C20 UNL     1      37.994  -3.261  11.903  1.00  0.00     0.126 C 
HETATM   31  O8  UNL     1      35.756  -3.944  12.091  1.00  0.00    -0.265 OA
ENDBRANCH  28  29
ENDBRANCH   7  28
ENDBRANCH   5   7
ENDBRANCH   3   5
BRANCH   1  32
HETATM   32  C9  UNL     1      32.680  -4.244   9.436  1.00  0.00     0.092 A 
HETATM   33  C2  UNL     1      33.316  -5.475   9.239  1.00  0.00     0.130 A 
HETATM   34  N2  UNL     1      32.687  -6.463   8.582  1.00  0.00    -0.325 N 
HETATM   35  C3  UNL     1      31.442  -6.325   8.088  1.00  0.00     0.137 A 
ATOM     36  H2  UNL     1      33.171  -7.351   8.452  1.00  0.00     0.169 HD
HETATM   37  C4  UNL     1      30.821  -5.116   8.282  1.00  0.00     0.090 A 
HETATM   38  N4  UNL     1      30.626  -7.176   7.400  1.00  0.00    -0.332 N 
HETATM   39  N3  UNL     1      29.595  -5.243   7.693  1.00  0.00    -0.349 N 
HETATM   40  C7  UNL     1      31.409  -4.046   8.953  1.00  0.00     0.060 A 
HETATM   41  C5  UNL     1      29.502  -6.479   7.175  1.00  0.00     0.184 A 
ATOM     42  H3  UNL     1      28.874  -4.523   7.654  1.00  0.00     0.167 HD
HETATM   43  C6  UNL     1      30.974  -8.519   7.034  1.00  0.00     0.158 C 
BRANCH  33  44
HETATM   44  N1  UNL     1      34.508  -5.596   9.717  1.00  0.00    -0.379 N 
HETATM   45  C1  UNL     1      35.694  -5.591   8.914  1.00  0.00     0.147 C 
ATOM     46  H1  UNL     1      34.611  -5.700  10.726  1.00  0.00     0.160 HD
ENDBRANCH  33  44
BRANCH  40  47
HETATM   47  C8  UNL     1      30.612  -2.820   9.113  1.00  0.00     0.416 C 
BRANCH  47  48
HETATM   48  N5  UNL     1      29.211  -2.991   9.287  1.00  0.00    -0.046 N 
ATOM     49  H53 UNL     1      28.765  -3.120   8.378  1.00  0.00     0.277 HD
ATOM     50  H52 UNL     1      29.027  -3.899   9.715  1.00  0.00     0.277 HD
ATOM     51  H51 UNL     1      28.724  -2.262   9.808  1.00  0.00     0.277 HD
ENDBRANCH  47  48
BRANCH  47  52
HETATM   52  N6  UNL     1      30.821  -1.995   7.923  1.00  0.00    -0.046 N 
ATOM     53  H63 UNL     1      30.939  -2.547   7.073  1.00  0.00     0.277 HD
ATOM     54  H62 UNL     1      29.981  -1.489   7.639  1.00  0.00     0.277 HD
ATOM     55  H61 UNL     1      31.612  -1.378   8.108  1.00  0.00     0.277 HD
ENDBRANCH  47  52
ENDBRANCH  40  47
ENDBRANCH   1  32
TORSDOF 15
ENDMDL
MODEL 3
REMARK VINA RESULT: -8.709533666      0.656      2.369
REMARK  15 active torsions:
REMARK  status: ('A' for Active; 'I' for Inactive)
REMARK    1  A    between atoms: N1_2  and  C2_4 
REMARK    2  A    between atoms: C7_14  and  C8_15 
REMARK    3  A    between atoms: C8_15  and  N5_16 
REMARK    4  A    between atoms: C8_15  and  N6_20 
REMARK    5  A    between atoms: C9_24  and  N7_25 
REMARK       I    between atoms: N7_25  and  C10_27 
REMARK    6  A    between atoms: C10_27  and  C11_29 
REMARK    7  A    between atoms: C11_29  and  C12_31 
REMARK    8  A    between atoms: C12_31  and  O7_52 
REMARK    9  A    between atoms: C13_32  and  C14_33 
REMARK   10  A    between atoms: C15_35  and  O4_36 
REMARK   11  A    between atoms: O4_36  and  N8_37 
REMARK   12  A    between atoms: N9_39  and  N10_41 
REMARK   13  A    between atoms: C17_46  and  O5_47 
REMARK   14  A    between atoms: C18_49  and  O6_50 
REMARK   15  A    between atoms: O7_52  and  C19_53 
ROOT
HETATM    1  N7  UNL     1      33.581  -3.284  11.868  1.00  0.00    -0.316 N 
ATOM      2  H7  UNL     1      33.957  -4.232  11.836  1.00  0.00     0.169 HD
HETATM    3  C10 UNL     1      32.568  -3.023  12.816  1.00  0.00     0.299 C 
HETATM    4  O1  UNL     1      32.075  -1.877  12.902  1.00  0.00    -0.264 OA
ENDROOT
BRANCH   3   5
HETATM    5  C11 UNL     1      32.074  -4.057  13.706  1.00  0.00     0.272 C 
HETATM    6  O2  UNL     1      31.653  -5.114  13.148  1.00  0.00    -0.279 OA
BRANCH   5   7
HETATM    7  C12 UNL     1      32.051  -3.928  15.156  1.00  0.00     0.133 C 
HETATM    8  C13 UNL     1      30.965  -4.248  15.805  1.00  0.00     0.049 C 
BRANCH   8   9
HETATM    9  C14 UNL     1      30.903  -4.132  17.274  1.00  0.00     0.182 C 
HETATM   10  O3  UNL     1      31.118  -5.350  17.908  1.00  0.00    -0.344 OA
HETATM   11  C15 UNL     1      29.911  -5.726  18.478  1.00  0.00     0.322 C 
HETATM   12  C17 UNL     1      29.271  -4.447  18.925  1.00  0.00     0.207 C 
HETATM   13  C18 UNL     1      29.610  -3.549  17.755  1.00  0.00     0.184 C 
BRANCH  11  14
HETATM   14  O4  UNL     1      29.986  -6.738  19.419  1.00  0.00    -0.228 OA
BRANCH  14  15
HETATM   15  N8  UNL     1      30.067  -6.559  20.773  1.00  0.00    -0.190 N 
HETATM   16  N9  UNL     1      29.143  -6.540  21.597  1.00  0.00    -0.221 N 
ATOM     17  H9  UNL     1      29.435  -6.393  22.564  1.00  0.00     0.210 HD
ATOM     18  H8  UNL     1      31.005  -6.426  21.151  1.00  0.00     0.217 HD
BRANCH  16  19
HETATM   19  N10 UNL     1      27.795  -6.685  21.423  1.00  0.00    -0.260 N 
HETATM   20  C16 UNL     1      26.888  -5.800  21.406  1.00  0.00     0.216 C 
HETATM   21  N11 UNL     1      25.546  -6.255  21.201  1.00  0.00    -0.065 NA
HETATM   22  N12 UNL     1      27.099  -4.416  21.572  1.00  0.00    -0.065 NA
ATOM     23  H10 UNL     1      27.473  -7.643  21.288  1.00  0.00     0.191 HD
ENDBRANCH  16  19
ENDBRANCH  14  15
ENDBRANCH  11  14
BRANCH  12  24
HETATM   24  O5  UNL     1      29.907  -3.895  20.039  1.00  0.00    -0.388 OA
ATOM     25  H5  UNL     1      30.337  -3.072  19.839  1.00  0.00     0.210 HD
ENDBRANCH  12  24
BRANCH  13  26
HETATM   26  O6  UNL     1      28.647  -3.761  16.775  1.00  0.00    -0.390 OA
ATOM     27  H6  UNL     1      28.393  -2.918  16.419  1.00  0.00     0.210 HD
ENDBRANCH  13  26
ENDBRANCH   8   9
BRANCH   7  28
HETATM   28  O7  UNL     1      33.155  -3.472  15.845  1.00  0.00    -0.275 OA
BRANCH  28  29
HETATM   29  C19 UNL     1      33.562  -2.152  15.851  1.00  0.00     0.260 C 
HETATM   30  C20 UNL     1      32.726  -1.065  16.415  1.00  0.00     0.126 C 
HETATM   31  O8  UNL     1      34.674  -1.850  15.368  1.00  0.00    -0.265 OA
ENDBRANCH  28  29
ENDBRANCH   7  28
ENDBRANCH   5   7
ENDBRANCH   3   5
BRANCH   1  32
HETATM   32  C9  UNL     1      34.119  -2.341  10.956  1.00  0.00     0.092 A 
HETATM   33  C2  UNL     1      35.278  -1.639  11.305  1.00  0.00     0.130 A 
HETATM   34  N2  UNL     1      35.816  -0.753  10.450  1.00  0.00    -0.325 N 
HETATM   35  C3  UNL     1      35.280  -0.499   9.240  1.00  0.00     0.137 A 
ATOM     36  H2  UNL     1      36.661  -0.254  10.728  1.00  0.00     0.169 HD
HETATM   37  C4  UNL     1      34.143  -1.189   8.901  1.00  0.00     0.090 A 
HETATM   38  N4  UNL     1      35.648   0.343   8.231  1.00  0.00    -0.332 N 
HETATM   39  N3  UNL     1      33.817  -0.750   7.650  1.00  0.00    -0.349 N 
HETATM   40  C7  UNL     1      33.529  -2.122   9.734  1.00  0.00     0.060 A 
HETATM   41  C5  UNL     1      34.728   0.162   7.271  1.00  0.00     0.184 A 
ATOM     42  H3  UNL     1      33.018  -1.061   7.097  1.00  0.00     0.167 HD
HETATM   43  C6  UNL     1      36.793   1.207   8.268  1.00  0.00     0.158 C 
BRANCH  33  44
HETATM   44  N1  UNL     1      35.782  -1.891  12.465  1.00  0.00    -0.379 N 
HETATM   45  C1  UNL     1      36.971  -1.273  12.970  1.00  0.00     0.147 C 
ATOM     46  H1  UNL     1      35.305  -2.570  13.058  1.00  0.00     0.160 HD
ENDBRANCH  33  44
BRANCH  40  47
HETATM   47  C8  UNL     1      32.332  -2.808   9.225  1.00  0.00     0.416 C 
BRANCH  47  48
HETATM   48  N5  UNL     1      31.100  -2.492   9.860  1.00  0.00    -0.046 N 
ATOM     49  H53 UNL     1      30.587  -3.351  10.060  1.00  0.00     0.277 HD
ATOM     50  H52 UNL     1      31.278  -2.156  10.807  1.00  0.00     0.277 HD
ATOM     51  H51 UNL     1      30.491  -1.834   9.372  1.00  0.00     0.277 HD
ENDBRANCH  47  48
BRANCH  47  52
HETATM   52  N6  UNL     1      32.552  -4.248   9.359  1.00  0.00    -0.046 N 
ATOM     53  H63 UNL     1      33.539  -4.493   9.436  1.00  0.00     0.277 HD
ATOM     54  H62 UNL     1      32.252  -4.613  10.263  1.00  0.00     0.277 HD
ATOM     55  H61 UNL     1      32.091  -4.708   8.573  1.00  0.00     0.277 HD
ENDBRANCH  47  52
ENDBRANCH  40  47
ENDBRANCH   1  32
TORSDOF 15
ENDMDL
MODEL 4
REMARK VINA RESULT: -8.659015823      0.863      1.105
REMARK  15 active torsions:
REMARK  status: ('A' for Active; 'I' for Inactive)
REMARK    1  A    between atoms: N1_2  and  C2_4 
REMARK    2  A    between atoms: C7_14  and  C8_15 
REMARK    3  A    between atoms: C8_15  and  N5_16 
REMARK    4  A    between atoms: C8_15  and  N6_20 
REMARK    5  A    between atoms: C9_24  and  N7_25 
REMARK       I    between atoms: N7_25  and  C10_27 
REMARK    6  A    between atoms: C10_27  and  C11_29 
REMARK    7  A    between atoms: C11_29  and  C12_31 
REMARK    8  A    between atoms: C12_31  and  O7_52 
REMARK    9  A    between atoms: C13_32  and  C14_33 
REMARK   10  A    between atoms: C15_35  and  O4_36 
REMARK   11  A    between atoms: O4_36  and  N8_37 
REMARK   12  A    between atoms: N9_39  and  N10_41 
REMARK   13  A    between atoms: C17_46  and  O5_47 
REMARK   14  A    between atoms: C18_49  and  O6_50 
REMARK   15  A    between atoms: O7_52  and  C19_53 
ROOT
HETATM    1  N7  UNL     1      33.628  -2.953  11.548  1.00  0.00    -0.316 N 
ATOM      2  H7  UNL     1      34.010  -3.898  11.512  1.00  0.00     0.169 HD
HETATM    3  C10 UNL     1      32.657  -2.686  12.538  1.00  0.00     0.299 C 
HETATM    4  O1  UNL     1      32.159  -1.543  12.630  1.00  0.00    -0.264 OA
ENDROOT
BRANCH   3   5
HETATM    5  C11 UNL     1      32.212  -3.711  13.462  1.00  0.00     0.272 C 
HETATM    6  O2  UNL     1      31.709  -4.750  12.939  1.00  0.00    -0.279 OA
BRANCH   5   7
HETATM    7  C12 UNL     1      32.322  -3.594  14.910  1.00  0.00     0.133 C 
HETATM    8  C13 UNL     1      31.316  -3.959  15.655  1.00  0.00     0.049 C 
BRANCH   8   9
HETATM    9  C14 UNL     1      31.391  -3.855  17.125  1.00  0.00     0.182 C 
HETATM   10  O3  UNL     1      31.951  -4.988  17.704  1.00  0.00    -0.344 OA
HETATM   11  C15 UNL     1      30.934  -5.633  18.393  1.00  0.00     0.322 C 
HETATM   12  C17 UNL     1      30.068  -4.537  18.934  1.00  0.00     0.207 C 
HETATM   13  C18 UNL     1      30.059  -3.588  17.755  1.00  0.00     0.184 C 
BRANCH  11  14
HETATM   14  O4  UNL     1      31.345  -6.596  19.297  1.00  0.00    -0.228 OA
BRANCH  14  15
HETATM   15  N8  UNL     1      30.801  -7.845  19.431  1.00  0.00    -0.190 N 
HETATM   16  N9  UNL     1      29.706  -8.152  19.919  1.00  0.00    -0.221 N 
ATOM     17  H9  UNL     1      29.502  -9.152  19.915  1.00  0.00     0.210 HD
ATOM     18  H8  UNL     1      31.369  -8.618  19.084  1.00  0.00     0.217 HD
BRANCH  16  19
HETATM   19  N10 UNL     1      28.725  -7.370  20.463  1.00  0.00    -0.260 N 
HETATM   20  C16 UNL     1      28.579  -6.984  21.661  1.00  0.00     0.216 C 
HETATM   21  N11 UNL     1      27.440  -6.162  21.939  1.00  0.00    -0.065 NA
HETATM   22  N12 UNL     1      29.443  -7.300  22.729  1.00  0.00    -0.065 NA
ATOM     23  H10 UNL     1      28.009  -7.052  19.811  1.00  0.00     0.191 HD
ENDBRANCH  16  19
ENDBRANCH  14  15
ENDBRANCH  11  14
BRANCH  12  24
HETATM   24  O5  UNL     1      30.677  -3.848  19.985  1.00  0.00    -0.388 OA
ATOM     25  H5  UNL     1      31.359  -4.359  20.405  1.00  0.00     0.210 HD
ENDBRANCH  12  24
BRANCH  13  26
HETATM   26  O6  UNL     1      29.070  -4.023  16.880  1.00  0.00    -0.390 OA
ATOM     27  H6  UNL     1      28.286  -3.510  17.038  1.00  0.00     0.210 HD
ENDBRANCH  13  26
ENDBRANCH   8   9
BRANCH   7  28
HETATM   28  O7  UNL     1      33.470  -3.102  15.495  1.00  0.00    -0.275 OA
BRANCH  28  29
HETATM   29  C19 UNL     1      33.788  -1.758  15.545  1.00  0.00     0.260 C 
HETATM   30  C20 UNL     1      32.872  -0.746  16.123  1.00  0.00     0.126 C 
HETATM   31  O8  UNL     1      34.886  -1.369  15.091  1.00  0.00    -0.265 OA
ENDBRANCH  28  29
ENDBRANCH   7  28
ENDBRANCH   5   7
ENDBRANCH   3   5
BRANCH   1  32
HETATM   32  C9  UNL     1      34.117  -2.018  10.600  1.00  0.00     0.092 A 
HETATM   33  C2  UNL     1      33.354  -1.740   9.460  1.00  0.00     0.130 A 
HETATM   34  N2  UNL     1      33.789  -0.847   8.557  1.00  0.00    -0.325 N 
HETATM   35  C3  UNL     1      34.955  -0.186   8.696  1.00  0.00     0.137 A 
ATOM     36  H2  UNL     1      33.216  -0.661   7.734  1.00  0.00     0.169 HD
HETATM   37  C4  UNL     1      35.701  -0.461   9.816  1.00  0.00     0.090 A 
HETATM   38  N4  UNL     1      35.583   0.745   7.921  1.00  0.00    -0.332 N 
HETATM   39  N3  UNL     1      36.810   0.329   9.711  1.00  0.00    -0.349 N 
HETATM   40  C7  UNL     1      35.315  -1.374  10.795  1.00  0.00     0.060 A 
HETATM   41  C5  UNL     1      36.718   1.038   8.574  1.00  0.00     0.184 A 
ATOM     42  H3  UNL     1      37.578   0.372  10.381  1.00  0.00     0.167 HD
HETATM   43  C6  UNL     1      35.069   1.251   6.680  1.00  0.00     0.158 C 
BRANCH  33  44
HETATM   44  N1  UNL     1      32.240  -2.378   9.337  1.00  0.00    -0.379 N 
HETATM   45  C1  UNL     1      31.437  -2.360   8.152  1.00  0.00     0.147 C 
ATOM     46  H1  UNL     1      31.912  -2.928  10.131  1.00  0.00     0.160 HD
ENDBRANCH  33  44
BRANCH  40  47
HETATM   47  C8  UNL     1      36.201  -1.544  11.956  1.00  0.00     0.416 C 
BRANCH  47  48
HETATM   48  N5  UNL     1      36.568  -0.360  12.653  1.00  0.00    -0.046 N 
ATOM     49  H53 UNL     1      37.525  -0.102  12.411  1.00  0.00     0.277 HD
ATOM     50  H52 UNL     1      36.058   0.436  12.271  1.00  0.00     0.277 HD
ATOM     51  H51 UNL     1      36.464  -0.378  13.668  1.00  0.00     0.277 HD
ENDBRANCH  47  48
BRANCH  47  52
HETATM   52  N6  UNL     1      37.427  -2.192  11.491  1.00  0.00    -0.046 N 
ATOM     53  H63 UNL     1      37.533  -3.142  11.848  1.00  0.00     0.277 HD
ATOM     54  H62 UNL     1      37.400  -2.424  10.498  1.00  0.00     0.277 HD
ATOM     55  H61 UNL     1      38.211  -1.587  11.736  1.00  0.00     0.277 HD
ENDBRANCH  47  52
ENDBRANCH  40  47
ENDBRANCH   1  32
TORSDOF 15
ENDMDL
MODEL 5
REMARK VINA RESULT: -8.627302314      2.063      3.821
REMARK  15 active torsions:
REMARK  status: ('A' for Active; 'I' for Inactive)
REMARK    1  A    between atoms: N1_2  and  C2_4 
REMARK    2  A    between atoms: C7_14  and  C8_15 
REMARK    3  A    between atoms: C8_15  and  N5_16 
REMARK    4  A    between atoms: C8_15  and  N6_20 
REMARK    5  A    between atoms: C9_24  and  N7_25 
REMARK       I    between atoms: N7_25  and  C10_27 
REMARK    6  A    between atoms: C10_27  and  C11_29 
REMARK    7  A    between atoms: C11_29  and  C12_31 
REMARK    8  A    between atoms: C12_31  and  O7_52 
REMARK    9  A    between atoms: C13_32  and  C14_33 
REMARK   10  A    between atoms: C15_35  and  O4_36 
REMARK   11  A    between atoms: O4_36  and  N8_37 
REMARK   12  A    between atoms: N9_39  and  N10_41 
REMARK   13  A    between atoms: C17_46  and  O5_47 
REMARK   14  A    between atoms: C18_49  and  O6_50 
REMARK   15  A    between atoms: O7_52  and  C19_53 
ROOT
HETATM    1  N7  UNL     1      31.863  -3.175  14.584  1.00  0.00    -0.316 N 
ATOM      2  H7  UNL     1      30.849  -3.210  14.694  1.00  0.00     0.169 HD
HETATM    3  C10 UNL     1      32.640  -3.206  15.762  1.00  0.00     0.299 C 
HETATM    4  O1  UNL     1      33.888  -3.171  15.686  1.00  0.00    -0.264 OA
ENDROOT
BRANCH   3   5
HETATM    5  C11 UNL     1      32.029  -3.276  17.076  1.00  0.00     0.272 C 
HETATM    6  O2  UNL     1      32.400  -2.395  17.908  1.00  0.00    -0.279 OA
BRANCH   5   7
HETATM    7  C12 UNL     1      31.043  -4.279  17.454  1.00  0.00     0.133 C 
HETATM    8  C13 UNL     1      31.452  -5.441  17.884  1.00  0.00     0.049 C 
BRANCH   8   9
HETATM    9  C14 UNL     1      30.483  -6.482  18.276  1.00  0.00     0.182 C 
HETATM   10  O3  UNL     1      29.973  -6.272  19.553  1.00  0.00    -0.344 OA
HETATM   11  C15 UNL     1      30.484  -7.277  20.361  1.00  0.00     0.322 C 
HETATM   12  C17 UNL     1      30.558  -8.489  19.483  1.00  0.00     0.207 C 
HETATM   13  C18 UNL     1      31.054  -7.864  18.196  1.00  0.00     0.184 C 
BRANCH  11  14
HETATM   14  O4  UNL     1      29.852  -7.439  21.581  1.00  0.00    -0.228 OA
BRANCH  14  15
HETATM   15  N8  UNL     1      28.510  -7.641  21.760  1.00  0.00    -0.190 N 
HETATM   16  N9  UNL     1      27.604  -6.798  21.752  1.00  0.00    -0.221 N 
ATOM     17  H9  UNL     1      26.668  -7.174  21.907  1.00  0.00     0.210 HD
ATOM     18  H8  UNL     1      28.221  -8.606  21.919  1.00  0.00     0.217 HD
BRANCH  16  19
HETATM   19  N10 UNL     1      27.652  -5.444  21.570  1.00  0.00    -0.260 N 
HETATM   20  C16 UNL     1      26.858  -4.549  21.987  1.00  0.00     0.216 C 
HETATM   21  N11 UNL     1      27.167  -3.196  21.634  1.00  0.00    -0.065 NA
HETATM   22  N12 UNL     1      25.703  -4.783  22.762  1.00  0.00    -0.065 NA
ATOM     23  H10 UNL     1      28.441  -5.105  21.020  1.00  0.00     0.191 HD
ENDBRANCH  16  19
ENDBRANCH  14  15
ENDBRANCH  11  14
BRANCH  12  24
HETATM   24  O5  UNL     1      29.297  -9.018  19.200  1.00  0.00    -0.388 OA
ATOM     25  H5  UNL     1      29.315  -9.623  18.467  1.00  0.00     0.210 HD
ENDBRANCH  12  24
BRANCH  13  26
HETATM   26  O6  UNL     1      32.438  -7.768  18.287  1.00  0.00    -0.390 OA
ATOM     27  H6  UNL     1      32.792  -8.645  18.375  1.00  0.00     0.210 HD
ENDBRANCH  13  26
ENDBRANCH   8   9
BRANCH   7  28
HETATM   28  O7  UNL     1      29.693  -4.016  17.358  1.00  0.00    -0.275 OA
BRANCH  28  29
HETATM   29  C19 UNL     1      28.910  -3.637  18.432  1.00  0.00     0.260 C 
HETATM   30  C20 UNL     1      29.417  -2.762  19.517  1.00  0.00     0.126 C 
HETATM   31  O8  UNL     1      27.728  -4.039  18.502  1.00  0.00    -0.265 OA
ENDBRANCH  28  29
ENDBRANCH   7  28
ENDBRANCH   5   7
ENDBRANCH   3   5
BRANCH   1  32
HETATM   32  C9  UNL     1      32.370  -3.100  13.263  1.00  0.00     0.092 A 
HETATM   33  C2  UNL     1      32.279  -4.223  12.432  1.00  0.00     0.130 A 
HETATM   34  N2  UNL     1      32.738  -4.170  11.171  1.00  0.00    -0.325 N 
HETATM   35  C3  UNL     1      33.298  -3.061  10.651  1.00  0.00     0.137 A 
ATOM     36  H2  UNL     1      32.660  -5.001  10.585  1.00  0.00     0.169 HD
HETATM   37  C4  UNL     1      33.386  -1.961  11.469  1.00  0.00     0.090 A 
HETATM   38  N4  UNL     1      33.823  -2.786   9.421  1.00  0.00    -0.332 N 
HETATM   39  N3  UNL     1      33.982  -0.996  10.708  1.00  0.00    -0.349 N 
HETATM   40  C7  UNL     1      32.932  -1.941  12.786  1.00  0.00     0.060 A 
HETATM   41  C5  UNL     1      34.232  -1.510   9.492  1.00  0.00     0.184 A 
ATOM     42  H3  UNL     1      34.199  -0.046  11.011  1.00  0.00     0.167 HD
HETATM   43  C6  UNL     1      33.885  -3.721   8.335  1.00  0.00     0.158 C 
BRANCH  33  44
HETATM   44  N1  UNL     1      31.741  -5.279  12.941  1.00  0.00    -0.379 N 
HETATM   45  C1  UNL     1      31.256  -6.380  12.164  1.00  0.00     0.147 C 
ATOM     46  H1  UNL     1      31.656  -5.333  13.955  1.00  0.00     0.160 HD
ENDBRANCH  33  44
BRANCH  40  47
HETATM   47  C8  UNL     1      33.065  -0.681  13.533  1.00  0.00     0.416 C 
BRANCH  47  48
HETATM   48  N5  UNL     1      32.619   0.498  12.875  1.00  0.00    -0.046 N 
ATOM     49  H53 UNL     1      33.294   0.767  12.158  1.00  0.00     0.277 HD
ATOM     50  H52 UNL     1      31.808   0.282  12.296  1.00  0.00     0.277 HD
ATOM     51  H51 UNL     1      32.411   1.301  13.470  1.00  0.00     0.277 HD
ENDBRANCH  47  48
BRANCH  47  52
HETATM   52  N6  UNL     1      34.480  -0.505  13.863  1.00  0.00    -0.046 N 
ATOM     53  H63 UNL     1      34.688  -0.718  14.839  1.00  0.00     0.277 HD
ATOM     54  H62 UNL     1      35.077  -1.216  13.441  1.00  0.00     0.277 HD
ATOM     55  H61 UNL     1      34.745   0.444  13.599  1.00  0.00     0.277 HD
ENDBRANCH  47  52
ENDBRANCH  40  47
ENDBRANCH   1  32
TORSDOF 15
ENDMDL
