MODEL 1
REMARK VINA RESULT: -5.633164986      0.000      0.000
REMARK  3 active torsions:
REMARK  status: ('A' for Active; 'I' for Inactive)
REMARK    1  A    between atoms: C3_3  and  N1_4 
REMARK    2  A    between atoms: C4_6  and  C5_7 
REMARK    3  A    between atoms: C4_6  and  C8_10 
ROOT
HETATM    1  C1  UNL     1      12.668   9.322  -4.036  1.00  0.00     0.018 C 
HETATM    2  C2  UNL     1      12.980   9.913  -3.040  1.00  0.00    -0.072 C 
HETATM    3  C3  UNL     1      13.371  10.649  -1.808  1.00  0.00     0.152 C 
ENDROOT
BRANCH   3   4
HETATM    4  N1  UNL     1      13.317   9.811  -0.692  1.00  0.00    -0.359 N 
HETATM    5  C4  UNL     1      13.992   9.651   0.352  1.00  0.00     0.047 C 
ATOM      6  H1  UNL     1      12.529   9.166  -0.739  1.00  0.00     0.165 HD
BRANCH   5   7
HETATM    7  C5  UNL     1      13.562   8.621   1.281  1.00  0.00    -0.046 C 
HETATM    8  C6  UNL     1      14.101   7.422   1.260  1.00  0.00     0.020 C 
HETATM    9  C7  UNL     1      12.503   8.899   2.276  1.00  0.00     0.049 C 
ENDBRANCH   5   7
BRANCH   5  10
HETATM   10  C8  UNL     1      15.161  10.439   0.689  1.00  0.00     0.194 C 
HETATM   11  N2  UNL     1      16.375  10.026   0.075  1.00  0.00    -0.383 N 
HETATM   12  C9  UNL     1      17.516  10.463   0.711  1.00  0.00     0.067 C 
ATOM     13  H2  UNL     1      16.398   9.452  -0.767  1.00  0.00     0.160 HD
HETATM   14  C10 UNL     1      17.377  10.719   2.150  1.00  0.00     0.120 C 
HETATM   15  S1  UNL     1      15.583  10.613   2.410  1.00  0.00    -0.133 SA
ENDBRANCH   5  10
ENDBRANCH   3   4
TORSDOF 3
ENDMDL
MODEL 2
REMARK VINA RESULT: -5.509158970      0.514      1.073
REMARK  3 active torsions:
REMARK  status: ('A' for Active; 'I' for Inactive)
REMARK    1  A    between atoms: C3_3  and  N1_4 
REMARK    2  A    between atoms: C4_6  and  C5_7 
REMARK    3  A    between atoms: C4_6  and  C8_10 
ROOT
HETATM    1  C1  UNL     1      14.046   9.675  -3.866  1.00  0.00     0.018 C 
HETATM    2  C2  UNL     1      13.773  10.240  -2.844  1.00  0.00    -0.072 C 
HETATM    3  C3  UNL     1      13.438  10.945  -1.578  1.00  0.00     0.152 C 
ENDROOT
BRANCH   3   4
HETATM    4  N1  UNL     1      13.340  10.041  -0.519  1.00  0.00    -0.359 N 
HETATM    5  C4  UNL     1      14.001   9.786   0.516  1.00  0.00     0.047 C 
ATOM      6  H1  UNL     1      12.525   9.434  -0.610  1.00  0.00     0.165 HD
BRANCH   5   7
HETATM    7  C5  UNL     1      13.520   8.718   1.376  1.00  0.00    -0.046 C 
HETATM    8  C6  UNL     1      12.551   8.927   2.238  1.00  0.00     0.020 C 
HETATM    9  C7  UNL     1      14.114   7.366   1.300  1.00  0.00     0.049 C 
ENDBRANCH   5   7
BRANCH   5  10
HETATM   10  C8  UNL     1      15.200  10.500   0.908  1.00  0.00     0.194 C 
HETATM   11  N2  UNL     1      16.403  10.059   0.293  1.00  0.00    -0.383 N 
HETATM   12  C9  UNL     1      17.553  10.410   0.966  1.00  0.00     0.067 C 
ATOM     13  H2  UNL     1      16.413   9.525  -0.576  1.00  0.00     0.160 HD
HETATM   14  C10 UNL     1      17.401  10.604   2.413  1.00  0.00     0.120 C 
HETATM   15  S1  UNL     1      15.600  10.572   2.641  1.00  0.00    -0.133 SA
ENDBRANCH   5  10
ENDBRANCH   3   4
TORSDOF 3
ENDMDL
MODEL 3
REMARK VINA RESULT: -5.473412809      1.306      3.404
REMARK  3 active torsions:
REMARK  status: ('A' for Active; 'I' for Inactive)
REMARK    1  A    between atoms: C3_3  and  N1_4 
REMARK    2  A    between atoms: C4_6  and  C5_7 
REMARK    3  A    between atoms: C4_6  and  C8_10 
ROOT
HETATM    1  C1  UNL     1      13.889   9.637  -3.689  1.00  0.00     0.018 C 
HETATM    2  C2  UNL     1      13.825  10.236  -2.652  1.00  0.00    -0.072 C 
HETATM    3  C3  UNL     1      13.742  10.983  -1.368  1.00  0.00     0.152 C 
ENDROOT
BRANCH   3   4
HETATM    4  N1  UNL     1      15.012  11.168  -0.819  1.00  0.00    -0.359 N 
HETATM    5  C4  UNL     1      15.633  10.750   0.187  1.00  0.00     0.047 C 
ATOM      6  H1  UNL     1      15.580  11.805  -1.379  1.00  0.00     0.165 HD
BRANCH   5   7
HETATM    7  C5  UNL     1      16.993  11.219   0.382  1.00  0.00    -0.046 C 
HETATM    8  C6  UNL     1      17.856  11.227  -0.610  1.00  0.00     0.020 C 
HETATM    9  C7  UNL     1      17.442  11.701   1.707  1.00  0.00     0.049 C 
ENDBRANCH   5   7
BRANCH   5  10
HETATM   10  C8  UNL     1      15.078   9.821   1.152  1.00  0.00     0.194 C 
HETATM   11  N2  UNL     1      14.754   8.534   0.645  1.00  0.00    -0.383 N 
HETATM   12  C9  UNL     1      13.850   7.828   1.408  1.00  0.00     0.067 C 
ATOM     13  H2  UNL     1      15.158   8.163  -0.214  1.00  0.00     0.160 HD
HETATM   14  C10 UNL     1      12.928   8.645   2.208  1.00  0.00     0.120 C 
HETATM   15  S1  UNL     1      13.619  10.316   2.044  1.00  0.00    -0.133 SA
ENDBRANCH   5  10
ENDBRANCH   3   4
TORSDOF 3
ENDMDL
MODEL 4
REMARK VINA RESULT: -5.420305969      1.679      4.802
REMARK  3 active torsions:
REMARK  status: ('A' for Active; 'I' for Inactive)
REMARK    1  A    between atoms: C3_3  and  N1_4 
REMARK    2  A    between atoms: C4_6  and  C5_7 
REMARK    3  A    between atoms: C4_6  and  C8_10 
ROOT
HETATM    1  C1  UNL     1      20.056  11.364   1.011  1.00  0.00     0.018 C 
HETATM    2  C2  UNL     1      18.894  11.542   1.249  1.00  0.00    -0.072 C 
HETATM    3  C3  UNL     1      17.454  11.761   1.549  1.00  0.00     0.152 C 
ENDROOT
BRANCH   3   4
HETATM    4  N1  UNL     1      16.665  11.455   0.439  1.00  0.00    -0.359 N 
HETATM    5  C4  UNL     1      15.710  10.680   0.193  1.00  0.00     0.047 C 
ATOM      6  H1  UNL     1      16.933  12.001  -0.381  1.00  0.00     0.165 HD
BRANCH   5   7
HETATM    7  C5  UNL     1      15.168  10.685  -1.154  1.00  0.00    -0.046 C 
HETATM    8  C6  UNL     1      15.865  10.221  -2.167  1.00  0.00     0.020 C 
HETATM    9  C7  UNL     1      13.813  11.216  -1.418  1.00  0.00     0.049 C 
ENDBRANCH   5   7
BRANCH   5  10
HETATM   10  C8  UNL     1      15.113   9.795   1.174  1.00  0.00     0.194 C 
HETATM   11  N2  UNL     1      14.725   8.517   0.688  1.00  0.00    -0.383 N 
HETATM   12  C9  UNL     1      13.788   7.869   1.463  1.00  0.00     0.067 C 
ATOM     13  H2  UNL     1      15.108   8.113  -0.166  1.00  0.00     0.160 HD
HETATM   14  C10 UNL     1      12.910   8.743   2.251  1.00  0.00     0.120 C 
HETATM   15  S1  UNL     1      13.682  10.375   2.059  1.00  0.00    -0.133 SA
ENDBRANCH   5  10
ENDBRANCH   3   4
TORSDOF 3
ENDMDL
MODEL 5
REMARK VINA RESULT: -5.302265423      1.581      4.543
REMARK  3 active torsions:
REMARK  status: ('A' for Active; 'I' for Inactive)
REMARK    1  A    between atoms: C3_3  and  N1_4 
REMARK    2  A    between atoms: C4_6  and  C5_7 
REMARK    3  A    between atoms: C4_6  and  C8_10 
ROOT
HETATM    1  C1  UNL     1      16.714  12.436   3.647  1.00  0.00     0.018 C 
HETATM    2  C2  UNL     1      16.784  11.635   2.756  1.00  0.00    -0.072 C 
HETATM    3  C3  UNL     1      16.874  10.646   1.649  1.00  0.00     0.152 C 
ENDROOT
BRANCH   3   4
HETATM    4  N1  UNL     1      15.812   9.742   1.705  1.00  0.00    -0.359 N 
HETATM    5  C4  UNL     1      14.814   9.473   0.996  1.00  0.00     0.047 C 
ATOM      6  H1  UNL     1      15.860   9.149   2.535  1.00  0.00     0.165 HD
BRANCH   5   7
HETATM    7  C5  UNL     1      13.931   8.412   1.449  1.00  0.00    -0.046 C 
HETATM    8  C6  UNL     1      14.106   7.171   1.053  1.00  0.00     0.020 C 
HETATM    9  C7  UNL     1      12.811   8.706   2.369  1.00  0.00     0.049 C 
ENDBRANCH   5   7
BRANCH   5  10
HETATM   10  C8  UNL     1      14.501  10.147  -0.249  1.00  0.00     0.194 C 
HETATM   11  N2  UNL     1      13.160  10.005  -0.700  1.00  0.00    -0.383 N 
HETATM   12  C9  UNL     1      12.979  10.248  -2.044  1.00  0.00     0.067 C 
ATOM     13  H2  UNL     1      12.395   9.746  -0.079  1.00  0.00     0.160 HD
HETATM   14  C10 UNL     1      14.153  10.005  -2.892  1.00  0.00     0.120 C 
HETATM   15  S1  UNL     1      15.483   9.753  -1.681  1.00  0.00    -0.133 SA
ENDBRANCH   5  10
ENDBRANCH   3   4
TORSDOF 3
ENDMDL
