MODEL 1
REMARK VINA RESULT: -8.627101714      0.000      0.000
REMARK  0 active torsions:
REMARK  status: ('A' for Active; 'I' for Inactive)
ROOT
HETATM    1  C1  UNL     1      10.065 -10.088  16.468  1.00  0.00     0.017 C 
HETATM    2  C2  UNL     1      11.323  -9.460  15.892  1.00  0.00    -0.021 C 
HETATM    3  C3  UNL     1      12.433 -10.494  16.171  1.00  0.00     0.017 C 
HETATM    4  C4  UNL     1      11.644  -8.273  16.732  1.00  0.00     0.055 C 
HETATM    5  C5  UNL     1      12.637  -7.319  16.235  1.00  0.00     0.061 C 
HETATM    6  N1  UNL     1      12.308  -6.207  15.465  1.00  0.00    -0.372 N 
HETATM    7  C6  UNL     1      13.341  -5.874  14.507  1.00  0.00     0.124 C 
HETATM    8  C7  UNL     1      14.286  -4.847  15.092  1.00  0.00     0.020 C 
HETATM    9  C8  UNL     1      13.463  -3.588  15.293  1.00  0.00     0.005 C 
HETATM   10  C9  UNL     1      12.407  -3.898  16.321  1.00  0.00     0.047 C 
HETATM   11  C10 UNL     1      11.579  -5.111  15.949  1.00  0.00     0.184 C 
HETATM   12  N2  UNL     1      10.555  -4.628  15.002  1.00  0.00    -0.352 N 
ATOM     13  H2  UNL     1      10.373  -3.628  14.916  1.00  0.00     0.163 HD
HETATM   14  C11 UNL     1       9.816  -5.566  14.202  1.00  0.00     0.146 A 
HETATM   15  N3  UNL     1      10.098  -6.857  14.338  1.00  0.00    -0.318 N 
ATOM     16  H3  UNL     1      10.825  -7.128  14.999  1.00  0.00     0.169 HD
HETATM   17  C12 UNL     1       9.484  -7.799  13.663  1.00  0.00     0.179 A 
HETATM   18  C13 UNL     1       8.504  -7.449  12.771  1.00  0.00     0.132 A 
HETATM   19 BR1  UNL     1       7.630  -8.845  11.802  1.00  0.00    -0.026 Br
HETATM   20  N4  UNL     1       8.164  -6.136  12.581  1.00  0.00    -0.332 N 
ATOM     21  H4  UNL     1       7.437  -5.864  11.920  1.00  0.00     0.168 HD
HETATM   22  C14 UNL     1       8.832  -5.222  13.305  1.00  0.00     0.161 A 
HETATM   23  N5  UNL     1       8.557  -3.816  13.187  1.00  0.00    -0.079 NA
HETATM   24  O1  UNL     1       9.891  -9.131  13.914  1.00  0.00    -0.333 OA
HETATM   25  C15 UNL     1      11.200  -9.324  14.441  1.00  0.00     0.186 C 
ENDROOT
TORSDOF 0
ENDMDL
MODEL 2
REMARK VINA RESULT: -7.655047248      2.347      3.701
REMARK  0 active torsions:
REMARK  status: ('A' for Active; 'I' for Inactive)
ROOT
HETATM    1  C1  UNL     1      11.439  -6.203  18.709  1.00  0.00     0.017 C 
HETATM    2  C2  UNL     1      12.335  -5.873  17.526  1.00  0.00    -0.021 C 
HETATM    3  C3  UNL     1      13.589  -5.236  18.158  1.00  0.00     0.017 C 
HETATM    4  C4  UNL     1      11.662  -4.789  16.757  1.00  0.00     0.055 C 
HETATM    5  C5  UNL     1      12.160  -4.478  15.416  1.00  0.00     0.061 C 
HETATM    6  N1  UNL     1      11.669  -5.079  14.261  1.00  0.00    -0.372 N 
HETATM    7  C6  UNL     1      12.688  -5.240  13.246  1.00  0.00     0.124 C 
HETATM    8  C7  UNL     1      12.679  -4.055  12.304  1.00  0.00     0.020 C 
HETATM    9  C8  UNL     1      11.344  -4.101  11.584  1.00  0.00     0.005 C 
HETATM   10  C9  UNL     1      10.268  -3.893  12.617  1.00  0.00     0.047 C 
HETATM   11  C10 UNL     1      10.373  -4.874  13.767  1.00  0.00     0.184 C 
HETATM   12  N2  UNL     1       9.724  -6.114  13.301  1.00  0.00    -0.352 N 
ATOM     13  H2  UNL     1       9.126  -6.097  12.474  1.00  0.00     0.163 HD
HETATM   14  C11 UNL     1       9.933  -7.347  14.011  1.00  0.00     0.146 A 
HETATM   15  N3  UNL     1      10.731  -7.323  15.073  1.00  0.00    -0.318 N 
ATOM     16  H3  UNL     1      11.161  -6.438  15.338  1.00  0.00     0.169 HD
HETATM   17  C12 UNL     1      10.990  -8.386  15.797  1.00  0.00     0.179 A 
HETATM   18  C13 UNL     1      10.418  -9.582  15.453  1.00  0.00     0.132 A 
HETATM   19 BR1  UNL     1      10.817 -11.112  16.527  1.00  0.00    -0.026 Br
HETATM   20  N4  UNL     1       9.586  -9.677  14.369  1.00  0.00    -0.332 N 
ATOM     21  H4  UNL     1       9.155 -10.562  14.103  1.00  0.00     0.168 HD
HETATM   22  C14 UNL     1       9.363  -8.550  13.671  1.00  0.00     0.161 A 
HETATM   23  N5  UNL     1       8.507  -8.533  12.517  1.00  0.00    -0.079 NA
HETATM   24  O1  UNL     1      11.858  -8.208  16.900  1.00  0.00    -0.333 OA
HETATM   25  C15 UNL     1      12.754  -7.102  16.854  1.00  0.00     0.186 C 
ENDROOT
TORSDOF 0
ENDMDL
MODEL 3
REMARK VINA RESULT: -7.465984644      2.325      4.758
REMARK  0 active torsions:
REMARK  status: ('A' for Active; 'I' for Inactive)
ROOT
HETATM    1  C1  UNL     1       7.261  -6.555  12.690  1.00  0.00     0.017 C 
HETATM    2  C2  UNL     1       8.206  -7.745  12.666  1.00  0.00    -0.021 C 
HETATM    3  C3  UNL     1       7.507  -8.774  11.754  1.00  0.00     0.017 C 
HETATM    4  C4  UNL     1       8.203  -8.333  14.034  1.00  0.00     0.055 C 
HETATM    5  C5  UNL     1       9.239  -9.311  14.371  1.00  0.00     0.061 C 
HETATM    6  N1  UNL     1      10.461  -8.963  14.938  1.00  0.00    -0.372 N 
HETATM    7  C6  UNL     1      11.536  -9.832  14.509  1.00  0.00     0.124 C 
HETATM    8  C7  UNL     1      11.714 -10.968  15.493  1.00  0.00     0.020 C 
HETATM    9  C8  UNL     1      12.169 -10.330  16.793  1.00  0.00     0.005 C 
HETATM   10  C9  UNL     1      11.046  -9.453  17.281  1.00  0.00     0.047 C 
HETATM   11  C10 UNL     1      10.600  -8.451  16.236  1.00  0.00     0.184 C 
HETATM   12  N2  UNL     1      11.552  -7.327  16.321  1.00  0.00    -0.352 N 
ATOM     13  H2  UNL     1      12.161  -7.236  17.134  1.00  0.00     0.163 HD
HETATM   14  C11 UNL     1      11.620  -6.361  15.258  1.00  0.00     0.146 A 
HETATM   15  N3  UNL     1      10.818  -6.529  14.213  1.00  0.00    -0.318 N 
ATOM     16  H3  UNL     1      10.191  -7.334  14.207  1.00  0.00     0.169 HD
HETATM   17  C12 UNL     1      10.793  -5.709  13.190  1.00  0.00     0.179 A 
HETATM   18  C13 UNL     1      11.630  -4.624  13.186  1.00  0.00     0.132 A 
HETATM   19 BR1  UNL     1      11.571  -3.448  11.680  1.00  0.00    -0.026 Br
HETATM   20  N4  UNL     1      12.483  -4.391  14.231  1.00  0.00    -0.332 N 
ATOM     21  H4  UNL     1      13.111  -3.587  14.238  1.00  0.00     0.168 HD
HETATM   22  C14 UNL     1      12.457  -5.271  15.247  1.00  0.00     0.161 A 
HETATM   23  N5  UNL     1      13.309  -5.124  16.395  1.00  0.00    -0.079 NA
HETATM   24  O1  UNL     1       9.885  -6.016  12.150  1.00  0.00    -0.333 OA
HETATM   25  C15 UNL     1       9.468  -7.372  12.027  1.00  0.00     0.186 C 
ENDROOT
TORSDOF 0
ENDMDL
MODEL 4
REMARK VINA RESULT: -7.059799086      2.295      3.038
REMARK  0 active torsions:
REMARK  status: ('A' for Active; 'I' for Inactive)
ROOT
HETATM    1  C1  UNL     1      11.511  -6.309  17.584  1.00  0.00     0.017 C 
HETATM    2  C2  UNL     1      12.641  -6.762  16.674  1.00  0.00    -0.021 C 
HETATM    3  C3  UNL     1      13.386  -7.838  17.491  1.00  0.00     0.017 C 
HETATM    4  C4  UNL     1      13.583  -5.616  16.543  1.00  0.00     0.055 C 
HETATM    5  C5  UNL     1      14.608  -5.676  15.500  1.00  0.00     0.061 C 
HETATM    6  N1  UNL     1      14.420  -5.173  14.215  1.00  0.00    -0.372 N 
HETATM    7  C6  UNL     1      15.129  -5.940  13.213  1.00  0.00     0.124 C 
HETATM    8  C7  UNL     1      16.491  -5.331  12.956  1.00  0.00     0.020 C 
HETATM    9  C8  UNL     1      16.231  -3.965  12.349  1.00  0.00     0.005 C 
HETATM   10  C9  UNL     1      15.531  -3.134  13.392  1.00  0.00     0.047 C 
HETATM   11  C10 UNL     1      14.284  -3.809  13.925  1.00  0.00     0.184 C 
HETATM   12  N2  UNL     1      13.219  -3.524  12.944  1.00  0.00    -0.352 N 
ATOM     13  H2  UNL     1      13.349  -2.790  12.249  1.00  0.00     0.163 HD
HETATM   14  C11 UNL     1      11.997  -4.283  12.969  1.00  0.00     0.146 A 
HETATM   15  N3  UNL     1      11.878  -5.238  13.883  1.00  0.00    -0.318 N 
ATOM     16  H3  UNL     1      12.654  -5.396  14.525  1.00  0.00     0.169 HD
HETATM   17  C12 UNL     1      10.808  -5.988  14.000  1.00  0.00     0.179 A 
HETATM   18  C13 UNL     1       9.757  -5.787  13.144  1.00  0.00     0.132 A 
HETATM   19 BR1  UNL     1       8.213  -6.897  13.339  1.00  0.00    -0.026 Br
HETATM   20  N4  UNL     1       9.814  -4.819  12.177  1.00  0.00    -0.332 N 
ATOM     21  H4  UNL     1       9.038  -4.661  11.535  1.00  0.00     0.168 HD
HETATM   22  C14 UNL     1      10.940  -4.087  12.113  1.00  0.00     0.161 A 
HETATM   23  N5  UNL     1      11.108  -3.044  11.139  1.00  0.00    -0.079 NA
HETATM   24  O1  UNL     1      10.825  -6.966  15.022  1.00  0.00    -0.333 OA
HETATM   25  C15 UNL     1      12.098  -7.409  15.481  1.00  0.00     0.186 C 
ENDROOT
TORSDOF 0
ENDMDL
MODEL 5
REMARK VINA RESULT: -7.010533479      2.766      4.579
REMARK  0 active torsions:
REMARK  status: ('A' for Active; 'I' for Inactive)
ROOT
HETATM    1  C1  UNL     1      12.595 -10.336  16.130  1.00  0.00     0.017 C 
HETATM    2  C2  UNL     1      11.291  -9.698  15.680  1.00  0.00    -0.021 C 
HETATM    3  C3  UNL     1      10.348 -10.891  15.417  1.00  0.00     0.017 C 
HETATM    4  C4  UNL     1      11.546  -9.072  14.352  1.00  0.00     0.055 C 
HETATM    5  C5  UNL     1      10.546  -8.145  13.819  1.00  0.00     0.061 C 
HETATM    6  N1  UNL     1      10.581  -6.772  14.046  1.00  0.00    -0.372 N 
HETATM    7  C6  UNL     1       9.258  -6.192  14.125  1.00  0.00     0.124 C 
HETATM    8  C7  UNL     1       8.829  -5.679  12.767  1.00  0.00     0.020 C 
HETATM    9  C8  UNL     1       9.778  -4.544  12.429  1.00  0.00     0.005 C 
HETATM   10  C9  UNL     1      11.158  -5.132  12.299  1.00  0.00     0.047 C 
HETATM   11  C10 UNL     1      11.567  -5.921  13.526  1.00  0.00     0.184 C 
HETATM   12  N2  UNL     1      12.053  -4.927  14.503  1.00  0.00    -0.352 N 
ATOM     13  H2  UNL     1      12.278  -3.981  14.197  1.00  0.00     0.163 HD
HETATM   14  C11 UNL     1      12.209  -5.293  15.885  1.00  0.00     0.146 A 
HETATM   15  N3  UNL     1      11.890  -6.532  16.238  1.00  0.00    -0.318 N 
ATOM     16  H3  UNL     1      11.546  -7.170  15.520  1.00  0.00     0.169 HD
HETATM   17  C12 UNL     1      11.996  -6.976  17.469  1.00  0.00     0.179 A 
HETATM   18  C13 UNL     1      12.456  -6.130  18.444  1.00  0.00     0.132 A 
HETATM   19 BR1  UNL     1      12.598  -6.805  20.226  1.00  0.00    -0.026 Br
HETATM   20  N4  UNL     1      12.803  -4.839  18.148  1.00  0.00    -0.332 N 
ATOM     21  H4  UNL     1      13.146  -4.201  18.865  1.00  0.00     0.168 HD
HETATM   22  C14 UNL     1      12.670  -4.450  16.868  1.00  0.00     0.161 A 
HETATM   23  N5  UNL     1      13.004  -3.118  16.444  1.00  0.00    -0.079 NA
HETATM   24  O1  UNL     1      11.619  -8.320  17.696  1.00  0.00    -0.333 OA
HETATM   25  C15 UNL     1      10.714  -8.910  16.767  1.00  0.00     0.186 C 
ENDROOT
TORSDOF 0
ENDMDL
