MODEL 1
REMARK VINA RESULT: -7.456209392      0.000      0.000
REMARK  2 active torsions:
REMARK  status: ('A' for Active; 'I' for Inactive)
REMARK    1  A    between atoms: C8_15  and  O1_16 
REMARK    2  A    between atoms: O1_16  and  C9_17 
ROOT
HETATM    1  C1  UNL     1       7.854  -3.763  13.126  1.00  0.00     0.054 C 
HETATM    2  C2  UNL     1       7.975  -5.249  13.226  1.00  0.00     0.012 A 
HETATM    3  C3  UNL     1       6.844  -6.047  13.367  1.00  0.00     0.124 A 
HETATM    4  C4  UNL     1       5.574  -5.377  13.408  1.00  0.00     0.118 C 
HETATM    5  N1  UNL     1       4.550  -4.841  13.445  1.00  0.00    -0.190 NA
HETATM    6  N2  UNL     1       6.929  -7.387  13.459  1.00  0.00    -0.331 N 
ATOM      7  H2  UNL     1       6.066  -7.921  13.560  1.00  0.00     0.168 HD
HETATM    8  C5  UNL     1       8.099  -8.058  13.425  1.00  0.00     0.137 A 
HETATM    9  N3  UNL     1       8.417  -9.363  13.499  1.00  0.00    -0.337 N 
ATOM     10  H3  UNL     1       7.774 -10.148  13.603  1.00  0.00     0.168 HD
HETATM   11  C6  UNL     1       9.758  -9.416  13.406  1.00  0.00     0.182 A 
HETATM   12  N4  UNL     1      10.263  -8.175  13.278  1.00  0.00    -0.347 N 
ATOM     13  H4  UNL     1      11.253  -7.944  13.190  1.00  0.00     0.167 HD
HETATM   14  C7  UNL     1       9.238  -7.277  13.286  1.00  0.00     0.112 A 
HETATM   15  C8  UNL     1       9.179  -5.908  13.189  1.00  0.00     0.117 A 
ENDROOT
BRANCH  15  16
HETATM   16  O1  UNL     1      10.331  -5.158  13.050  1.00  0.00    -0.291 OA
BRANCH  16  17
HETATM   17  C9  UNL     1      11.342  -5.237  14.016  1.00  0.00     0.164 C 
HETATM   18  N5  UNL     1      11.056  -5.524  15.215  1.00  0.00    -0.360 N 
HETATM   19  C10 UNL     1      12.102  -5.605  16.212  1.00  0.00     0.049 C 
ATOM     20  H5  UNL     1      10.086  -5.699  15.479  1.00  0.00     0.162 HD
HETATM   21  C11 UNL     1      12.548  -7.024  16.319  1.00  0.00     0.041 C 
HETATM   22  C12 UNL     1      11.429  -5.232  17.541  1.00  0.00     0.041 C 
HETATM   23  C13 UNL     1      13.216  -4.636  15.972  1.00  0.00     0.045 C 
HETATM   24  C14 UNL     1      14.489  -5.187  16.597  1.00  0.00     0.040 C 
HETATM   25  C15 UNL     1      12.926  -3.327  16.717  1.00  0.00     0.040 C 
HETATM   26  N6  UNL     1      13.478  -4.318  14.625  1.00  0.00    -0.384 N 
HETATM   27  C16 UNL     1      12.729  -4.985  13.626  1.00  0.00     0.166 C 
ATOM     28  H6  UNL     1      14.187  -3.627  14.376  1.00  0.00     0.156 HD
HETATM   29  C17 UNL     1      12.703  -4.070  12.393  1.00  0.00     0.065 C 
HETATM   30 CL1  UNL     1      13.546  -6.487  13.073  1.00  0.00    -0.087 Cl
ENDBRANCH  16  17
ENDBRANCH  15  16
TORSDOF 2
ENDMDL
MODEL 2
REMARK VINA RESULT: -7.453992699      3.914      5.590
REMARK  2 active torsions:
REMARK  status: ('A' for Active; 'I' for Inactive)
REMARK    1  A    between atoms: C8_15  and  O1_16 
REMARK    2  A    between atoms: O1_16  and  C9_17 
ROOT
HETATM    1  C1  UNL     1      11.741  -7.857  20.285  1.00  0.00     0.054 C 
HETATM    2  C2  UNL     1      11.385  -8.818  19.198  1.00  0.00     0.012 A 
HETATM    3  C3  UNL     1      10.305  -9.683  19.339  1.00  0.00     0.124 A 
HETATM    4  C4  UNL     1       9.562  -9.604  20.566  1.00  0.00     0.118 C 
HETATM    5  N1  UNL     1       8.963  -9.546  21.553  1.00  0.00    -0.190 NA
HETATM    6  N2  UNL     1       9.966 -10.556  18.373  1.00  0.00    -0.331 N 
ATOM      7  H2  UNL     1       9.164 -11.166  18.530  1.00  0.00     0.168 HD
HETATM    8  C5  UNL     1      10.634 -10.665  17.205  1.00  0.00     0.137 A 
HETATM    9  N3  UNL     1      10.478 -11.447  16.122  1.00  0.00    -0.337 N 
ATOM     10  H3  UNL     1       9.765 -12.161  15.976  1.00  0.00     0.168 HD
HETATM   11  C6  UNL     1      11.459 -11.091  15.273  1.00  0.00     0.182 A 
HETATM   12  N4  UNL     1      12.208 -10.111  15.814  1.00  0.00    -0.347 N 
ATOM     13  H4  UNL     1      13.013  -9.667  15.372  1.00  0.00     0.167 HD
HETATM   14  C7  UNL     1      11.716  -9.809  17.048  1.00  0.00     0.112 A 
HETATM   15  C8  UNL     1      12.082  -8.908  18.019  1.00  0.00     0.117 A 
ENDROOT
BRANCH  15  16
HETATM   16  O1  UNL     1      13.164  -8.068  17.832  1.00  0.00    -0.291 OA
BRANCH  16  17
HETATM   17  C9  UNL     1      13.051  -6.951  16.995  1.00  0.00     0.164 C 
HETATM   18  N5  UNL     1      12.945  -7.101  15.743  1.00  0.00    -0.360 N 
HETATM   19  C10 UNL     1      12.829  -5.945  14.880  1.00  0.00     0.049 C 
ATOM     20  H5  UNL     1      12.942  -8.039  15.341  1.00  0.00     0.162 HD
HETATM   21  C11 UNL     1      11.382  -5.672  14.643  1.00  0.00     0.041 C 
HETATM   22  C12 UNL     1      13.443  -6.373  13.539  1.00  0.00     0.041 C 
HETATM   23  C13 UNL     1      13.594  -4.761  15.380  1.00  0.00     0.045 C 
HETATM   24  C14 UNL     1      12.941  -3.494  14.849  1.00  0.00     0.040 C 
HETATM   25  C15 UNL     1      15.008  -4.776  14.784  1.00  0.00     0.040 C 
HETATM   26  N6  UNL     1      13.717  -4.651  16.780  1.00  0.00    -0.384 N 
HETATM   27  C16 UNL     1      13.055  -5.611  17.582  1.00  0.00     0.166 C 
ATOM     28  H6  UNL     1      14.266  -3.902  17.202  1.00  0.00     0.156 HD
HETATM   29  C17 UNL     1      13.818  -5.693  18.913  1.00  0.00     0.065 C 
HETATM   30 CL1  UNL     1      11.398  -5.077  18.029  1.00  0.00    -0.087 Cl
ENDBRANCH  16  17
ENDBRANCH  15  16
TORSDOF 2
ENDMDL
MODEL 3
REMARK VINA RESULT: -7.333869774      2.126      3.080
REMARK  2 active torsions:
REMARK  status: ('A' for Active; 'I' for Inactive)
REMARK    1  A    between atoms: C8_15  and  O1_16 
REMARK    2  A    between atoms: O1_16  and  C9_17 
ROOT
HETATM    1  C1  UNL     1       6.385  -7.634  14.200  1.00  0.00     0.054 C 
HETATM    2  C2  UNL     1       7.176  -6.490  13.653  1.00  0.00     0.012 A 
HETATM    3  C3  UNL     1       6.543  -5.324  13.234  1.00  0.00     0.124 A 
HETATM    4  C4  UNL     1       5.112  -5.279  13.355  1.00  0.00     0.118 C 
HETATM    5  N1  UNL     1       3.961  -5.240  13.449  1.00  0.00    -0.190 NA
HETATM    6  N2  UNL     1       7.234  -4.282  12.738  1.00  0.00    -0.331 N 
ATOM      7  H2  UNL     1       6.717  -3.451  12.448  1.00  0.00     0.168 HD
HETATM    8  C5  UNL     1       8.577  -4.279  12.606  1.00  0.00     0.137 A 
HETATM    9  N3  UNL     1       9.458  -3.373  12.148  1.00  0.00    -0.337 N 
ATOM     10  H3  UNL     1       9.251  -2.442  11.785  1.00  0.00     0.168 HD
HETATM   11  C6  UNL     1      10.668  -3.948  12.267  1.00  0.00     0.182 A 
HETATM   12  N4  UNL     1      10.544  -5.184  12.787  1.00  0.00    -0.347 N 
ATOM     13  H4  UNL     1      11.313  -5.827  12.977  1.00  0.00     0.167 HD
HETATM   14  C7  UNL     1       9.225  -5.436  13.019  1.00  0.00     0.112 A 
HETATM   15  C8  UNL     1       8.543  -6.514  13.529  1.00  0.00     0.117 A 
ENDROOT
BRANCH  15  16
HETATM   16  O1  UNL     1       9.217  -7.651  13.932  1.00  0.00    -0.291 OA
BRANCH  16  17
HETATM   17  C9  UNL     1      10.345  -7.546  14.755  1.00  0.00     0.164 C 
HETATM   18  N5  UNL     1      10.317  -6.805  15.781  1.00  0.00    -0.360 N 
HETATM   19  C10 UNL     1      11.485  -6.697  16.630  1.00  0.00     0.049 C 
ATOM     20  H5  UNL     1       9.471  -6.284  16.010  1.00  0.00     0.162 HD
HETATM   21  C11 UNL     1      11.359  -7.687  17.739  1.00  0.00     0.041 C 
HETATM   22  C12 UNL     1      11.408  -5.295  17.253  1.00  0.00     0.041 C 
HETATM   23  C13 UNL     1      12.771  -6.795  15.873  1.00  0.00     0.045 C 
HETATM   24  C14 UNL     1      13.852  -7.316  16.809  1.00  0.00     0.040 C 
HETATM   25  C15 UNL     1      13.229  -5.391  15.458  1.00  0.00     0.040 C 
HETATM   26  N6  UNL     1      12.748  -7.602  14.719  1.00  0.00    -0.384 N 
HETATM   27  C16 UNL     1      11.553  -8.299  14.418  1.00  0.00     0.166 C 
ATOM     28  H6  UNL     1      13.568  -7.682  14.117  1.00  0.00     0.156 HD
HETATM   29  C17 UNL     1      11.538  -8.539  12.901  1.00  0.00     0.065 C 
HETATM   30 CL1  UNL     1      11.537  -9.940  15.148  1.00  0.00    -0.087 Cl
ENDBRANCH  16  17
ENDBRANCH  15  16
TORSDOF 2
ENDMDL
MODEL 4
REMARK VINA RESULT: -7.320419730      2.147      6.408
REMARK  2 active torsions:
REMARK  status: ('A' for Active; 'I' for Inactive)
REMARK    1  A    between atoms: C8_15  and  O1_16 
REMARK    2  A    between atoms: O1_16  and  C9_17 
ROOT
HETATM    1  C1  UNL     1      11.542  -6.783  18.574  1.00  0.00     0.054 C 
HETATM    2  C2  UNL     1      12.353  -6.363  17.391  1.00  0.00     0.012 A 
HETATM    3  C3  UNL     1      13.374  -5.427  17.525  1.00  0.00     0.124 A 
HETATM    4  C4  UNL     1      13.602  -4.895  18.840  1.00  0.00     0.118 C 
HETATM    5  N1  UNL     1      13.788  -4.462  19.896  1.00  0.00    -0.190 NA
HETATM    6  N2  UNL     1      14.116  -5.034  16.474  1.00  0.00    -0.331 N 
ATOM      7  H2  UNL     1      14.852  -4.345  16.631  1.00  0.00     0.168 HD
HETATM    8  C5  UNL     1      13.937  -5.506  15.223  1.00  0.00     0.137 A 
HETATM    9  N3  UNL     1      14.545  -5.262  14.049  1.00  0.00    -0.337 N 
ATOM     10  H3  UNL     1      15.320  -4.621  13.878  1.00  0.00     0.168 HD
HETATM   11  C6  UNL     1      13.921  -6.041  13.147  1.00  0.00     0.182 A 
HETATM   12  N4  UNL     1      12.946  -6.752  13.745  1.00  0.00    -0.347 N 
ATOM     13  H4  UNL     1      12.327  -7.417  13.280  1.00  0.00     0.167 HD
HETATM   14  C7  UNL     1      12.922  -6.441  15.071  1.00  0.00     0.112 A 
HETATM   15  C8  UNL     1      12.149  -6.859  16.128  1.00  0.00     0.117 A 
ENDROOT
BRANCH  15  16
HETATM   16  O1  UNL     1      11.147  -7.792  15.945  1.00  0.00    -0.291 OA
BRANCH  16  17
HETATM   17  C9  UNL     1      10.309  -7.715  14.825  1.00  0.00     0.164 C 
HETATM   18  N5  UNL     1       9.819  -6.602  14.473  1.00  0.00    -0.360 N 
HETATM   19  C10 UNL     1       8.953  -6.523  13.316  1.00  0.00     0.049 C 
ATOM     20  H5  UNL     1      10.035  -5.759  15.006  1.00  0.00     0.162 HD
HETATM   21  C11 UNL     1       9.780  -6.168  12.127  1.00  0.00     0.041 C 
HETATM   22  C12 UNL     1       8.010  -5.342  13.592  1.00  0.00     0.041 C 
HETATM   23  C13 UNL     1       8.115  -7.747  13.128  1.00  0.00     0.045 C 
HETATM   24  C14 UNL     1       7.764  -7.879  11.653  1.00  0.00     0.040 C 
HETATM   25  C15 UNL     1       6.775  -7.568  13.854  1.00  0.00     0.040 C 
HETATM   26  N6  UNL     1       8.684  -8.960  13.565  1.00  0.00    -0.384 N 
HETATM   27  C16 UNL     1      10.007  -8.929  14.068  1.00  0.00     0.166 C 
ATOM     28  H6  UNL     1       8.159  -9.833  13.519  1.00  0.00     0.156 HD
HETATM   29  C17 UNL     1      10.154 -10.119  15.027  1.00  0.00     0.065 C 
HETATM   30 CL1  UNL     1      11.219  -9.223  12.774  1.00  0.00    -0.087 Cl
ENDBRANCH  16  17
ENDBRANCH  15  16
TORSDOF 2
ENDMDL
MODEL 5
REMARK VINA RESULT: -7.255807045      1.993      6.612
REMARK  2 active torsions:
REMARK  status: ('A' for Active; 'I' for Inactive)
REMARK    1  A    between atoms: C8_15  and  O1_16 
REMARK    2  A    between atoms: O1_16  and  C9_17 
ROOT
HETATM    1  C1  UNL     1      13.119  -7.125  16.935  1.00  0.00     0.054 C 
HETATM    2  C2  UNL     1      13.209  -6.268  15.714  1.00  0.00     0.012 A 
HETATM    3  C3  UNL     1      14.437  -5.783  15.275  1.00  0.00     0.124 A 
HETATM    4  C4  UNL     1      15.594  -6.144  16.046  1.00  0.00     0.118 C 
HETATM    5  N1  UNL     1      16.527  -6.429  16.665  1.00  0.00    -0.190 NA
HETATM    6  N2  UNL     1      14.542  -5.010  14.179  1.00  0.00    -0.331 N 
ATOM      7  H2  UNL     1      15.468  -4.683  13.903  1.00  0.00     0.168 HD
HETATM    8  C5  UNL     1      13.483  -4.646  13.425  1.00  0.00     0.137 A 
HETATM    9  N3  UNL     1      13.354  -3.898  12.315  1.00  0.00    -0.337 N 
ATOM     10  H3  UNL     1      14.099  -3.431  11.798  1.00  0.00     0.168 HD
HETATM   11  C6  UNL     1      12.040  -3.896  12.029  1.00  0.00     0.182 A 
HETATM   12  N4  UNL     1      11.366  -4.624  12.939  1.00  0.00    -0.347 N 
ATOM     13  H4  UNL     1      10.357  -4.779  12.946  1.00  0.00     0.167 HD
HETATM   14  C7  UNL     1      12.249  -5.122  13.849  1.00  0.00     0.112 A 
HETATM   15  C8  UNL     1      12.115  -5.913  14.965  1.00  0.00     0.117 A 
ENDROOT
BRANCH  15  16
HETATM   16  O1  UNL     1      10.873  -6.371  15.361  1.00  0.00    -0.291 OA
BRANCH  16  17
HETATM   17  C9  UNL     1      10.003  -6.943  14.424  1.00  0.00     0.164 C 
HETATM   18  N5  UNL     1       9.173  -6.219  13.801  1.00  0.00    -0.360 N 
HETATM   19  C10 UNL     1       8.275  -6.812  12.834  1.00  0.00     0.049 C 
ATOM     20  H5  UNL     1       9.139  -5.215  13.980  1.00  0.00     0.162 HD
HETATM   21  C11 UNL     1       8.893  -6.704  11.481  1.00  0.00     0.041 C 
HETATM   22  C12 UNL     1       7.023  -5.922  12.841  1.00  0.00     0.041 C 
HETATM   23  C13 UNL     1       7.854  -8.200  13.199  1.00  0.00     0.045 C 
HETATM   24  C14 UNL     1       7.496  -8.955  11.928  1.00  0.00     0.040 C 
HETATM   25  C15 UNL     1       6.561  -8.144  14.022  1.00  0.00     0.040 C 
HETATM   26  N6  UNL     1       8.795  -8.960  13.923  1.00  0.00    -0.384 N 
HETATM   27  C16 UNL     1      10.063  -8.383  14.174  1.00  0.00     0.166 C 
ATOM     28  H6  UNL     1       8.568  -9.898  14.255  1.00  0.00     0.156 HD
HETATM   29  C17 UNL     1      10.619  -9.049  15.442  1.00  0.00     0.065 C 
HETATM   30 CL1  UNL     1      11.245  -8.785  12.882  1.00  0.00    -0.087 Cl
ENDBRANCH  16  17
ENDBRANCH  15  16
TORSDOF 2
ENDMDL
