MODEL 1
REMARK VINA RESULT: -5.302433429      0.000      0.000
REMARK  2 active torsions:
REMARK  status: ('A' for Active; 'I' for Inactive)
REMARK    1  A    between atoms: C2_2  and  C4_4 
REMARK    2  A    between atoms: C5_5  and  C6_6 
ROOT
HETATM    1  C4  UNL     1       5.516  57.032   1.746  1.00  0.00     0.047 C 
HETATM    2  C5  UNL     1       6.662  56.344   1.126  1.00  0.00     0.014 C 
HETATM    3  C7  UNL     1       6.310  54.983   0.632  1.00  0.00     0.086 C 
HETATM    4  C8  UNL     1       7.531  54.168   0.370  1.00  0.00     0.037 C 
HETATM    5  C9  UNL     1       5.338  54.862  -0.446  1.00  0.00     0.037 C 
HETATM    6  S1  UNL     1       5.612  54.402   2.192  1.00  0.00     0.165 S 
HETATM    7  O2  UNL     1       4.569  53.395   1.929  1.00  0.00    -0.226 OA
HETATM    8  O3  UNL     1       6.698  53.970   3.097  1.00  0.00    -0.226 OA
HETATM    9  C10 UNL     1       4.935  56.008   2.676  1.00  0.00     0.066 C 
HETATM   10  C11 UNL     1       5.419  56.216   4.122  1.00  0.00     0.032 C 
HETATM   11  C12 UNL     1       3.485  55.808   2.720  1.00  0.00     0.032 C 
ENDROOT
BRANCH   1  12
HETATM   12  C2  UNL     1       4.535  57.741   0.914  1.00  0.00    -0.013 C 
HETATM   13  C1  UNL     1       4.996  58.736  -0.073  1.00  0.00     0.010 C 
HETATM   14  C3  UNL     1       3.634  58.561   1.848  1.00  0.00     0.010 C 
ENDBRANCH   1  12
BRANCH   2  15
HETATM   15  C6  UNL     1       7.577  57.104   0.289  1.00  0.00     0.259 C 
HETATM   16  N1  UNL     1       8.650  57.807   0.855  1.00  0.00    -0.058 NA
HETATM   17  O1  UNL     1       7.398  57.125  -0.971  1.00  0.00    -0.272 OA
ENDBRANCH   2  15
TORSDOF 2
ENDMDL
MODEL 2
REMARK VINA RESULT: -4.862557614      2.585      4.246
REMARK  2 active torsions:
REMARK  status: ('A' for Active; 'I' for Inactive)
REMARK    1  A    between atoms: C2_2  and  C4_4 
REMARK    2  A    between atoms: C5_5  and  C6_6 
ROOT
HETATM    1  C4  UNL     1       7.364  54.167   0.693  1.00  0.00     0.047 C 
HETATM    2  C5  UNL     1       5.896  54.066   0.772  1.00  0.00     0.014 C 
HETATM    3  C7  UNL     1       5.436  53.448   2.049  1.00  0.00     0.086 C 
HETATM    4  C8  UNL     1       4.016  53.003   1.956  1.00  0.00     0.037 C 
HETATM    5  C9  UNL     1       5.703  54.148   3.298  1.00  0.00     0.037 C 
HETATM    6  S1  UNL     1       6.464  51.970   1.911  1.00  0.00     0.165 S 
HETATM    7  O2  UNL     1       6.803  51.470   3.255  1.00  0.00    -0.226 OA
HETATM    8  O3  UNL     1       5.815  50.991   1.014  1.00  0.00    -0.226 OA
HETATM    9  C10 UNL     1       7.847  52.807   1.100  1.00  0.00     0.066 C 
HETATM   10  C11 UNL     1       8.172  51.931  -0.122  1.00  0.00     0.032 C 
HETATM   11  C12 UNL     1       8.963  52.686   2.041  1.00  0.00     0.032 C 
ENDROOT
BRANCH   1  12
HETATM   12  C2  UNL     1       8.067  55.291   1.326  1.00  0.00    -0.013 C 
HETATM   13  C1  UNL     1       7.412  56.610   1.410  1.00  0.00     0.010 C 
HETATM   14  C3  UNL     1       9.331  55.576   0.504  1.00  0.00     0.010 C 
ENDBRANCH   1  12
BRANCH   2  15
HETATM   15  C6  UNL     1       5.081  55.160   0.270  1.00  0.00     0.259 C 
HETATM   16  N1  UNL     1       4.283  55.917   1.140  1.00  0.00    -0.058 NA
HETATM   17  O1  UNL     1       5.096  55.430  -0.973  1.00  0.00    -0.272 OA
ENDBRANCH   2  15
TORSDOF 2
ENDMDL
MODEL 3
REMARK VINA RESULT: -4.568917828      2.764      4.433
REMARK  2 active torsions:
REMARK  status: ('A' for Active; 'I' for Inactive)
REMARK    1  A    between atoms: C2_2  and  C4_4 
REMARK    2  A    between atoms: C5_5  and  C6_6 
ROOT
HETATM    1  C4  UNL     1       7.075  54.364   1.964  1.00  0.00     0.047 C 
HETATM    2  C5  UNL     1       5.979  53.395   2.143  1.00  0.00     0.014 C 
HETATM    3  C7  UNL     1       4.788  53.723   1.310  1.00  0.00     0.086 C 
HETATM    4  C8  UNL     1       3.579  52.985   1.778  1.00  0.00     0.037 C 
HETATM    5  C9  UNL     1       4.918  53.682  -0.141  1.00  0.00     0.037 C 
HETATM    6  S1  UNL     1       4.627  55.424   1.891  1.00  0.00     0.165 S 
HETATM    7  O2  UNL     1       4.026  56.259   0.836  1.00  0.00    -0.226 OA
HETATM    8  O3  UNL     1       3.926  55.445   3.192  1.00  0.00    -0.226 OA
HETATM    9  C10 UNL     1       6.404  55.700   2.083  1.00  0.00     0.066 C 
HETATM   10  C11 UNL     1       6.558  56.288   3.497  1.00  0.00     0.032 C 
HETATM   11  C12 UNL     1       6.725  56.761   1.126  1.00  0.00     0.032 C 
ENDROOT
BRANCH   1  12
HETATM   12  C2  UNL     1       8.005  54.236   0.834  1.00  0.00    -0.013 C 
HETATM   13  C1  UNL     1       8.563  52.913   0.492  1.00  0.00     0.010 C 
HETATM   14  C3  UNL     1       9.250  55.072   1.154  1.00  0.00     0.010 C 
ENDBRANCH   1  12
BRANCH   2  15
HETATM   15  C6  UNL     1       6.296  51.981   2.265  1.00  0.00     0.259 C 
HETATM   16  N1  UNL     1       6.026  51.093   1.213  1.00  0.00    -0.058 NA
HETATM   17  O1  UNL     1       6.824  51.551   3.339  1.00  0.00    -0.272 OA
ENDBRANCH   2  15
TORSDOF 2
ENDMDL
MODEL 4
REMARK VINA RESULT: -4.566560682      2.548      3.107
REMARK  2 active torsions:
REMARK  status: ('A' for Active; 'I' for Inactive)
REMARK    1  A    between atoms: C2_2  and  C4_4 
REMARK    2  A    between atoms: C5_5  and  C6_6 
ROOT
HETATM    1  C4  UNL     1       4.705  54.169   2.392  1.00  0.00     0.047 C 
HETATM    2  C5  UNL     1       6.120  54.474   2.665  1.00  0.00     0.014 C 
HETATM    3  C7  UNL     1       7.041  53.818   1.695  1.00  0.00     0.086 C 
HETATM    4  C8  UNL     1       8.445  53.812   2.198  1.00  0.00     0.037 C 
HETATM    5  C9  UNL     1       6.971  54.208   0.293  1.00  0.00     0.037 C 
HETATM    6  S1  UNL     1       6.389  52.151   1.929  1.00  0.00     0.165 S 
HETATM    7  O2  UNL     1       6.556  51.370   0.691  1.00  0.00    -0.226 OA
HETATM    8  O3  UNL     1       6.977  51.549   3.144  1.00  0.00    -0.226 OA
HETATM    9  C10 UNL     1       4.681  52.681   2.203  1.00  0.00     0.066 C 
HETATM   10  C11 UNL     1       4.248  51.953   3.488  1.00  0.00     0.032 C 
HETATM   11  C12 UNL     1       3.925  52.103   1.091  1.00  0.00     0.032 C 
ENDROOT
BRANCH   1  12
HETATM   12  C2  UNL     1       3.959  54.933   1.383  1.00  0.00    -0.013 C 
HETATM   13  C1  UNL     1       4.652  55.970   0.593  1.00  0.00     0.010 C 
HETATM   14  C3  UNL     1       2.859  55.719   2.108  1.00  0.00     0.010 C 
ENDBRANCH   1  12
BRANCH   2  15
HETATM   15  C6  UNL     1       6.489  55.819   3.077  1.00  0.00     0.259 C 
HETATM   16  N1  UNL     1       5.913  56.403   4.215  1.00  0.00    -0.058 NA
HETATM   17  O1  UNL     1       7.345  56.467   2.395  1.00  0.00    -0.272 OA
ENDBRANCH   2  15
TORSDOF 2
ENDMDL
MODEL 5
REMARK VINA RESULT: -4.420601068      2.398      3.813
REMARK  2 active torsions:
REMARK  status: ('A' for Active; 'I' for Inactive)
REMARK    1  A    between atoms: C2_2  and  C4_4 
REMARK    2  A    between atoms: C5_5  and  C6_6 
ROOT
HETATM    1  C4  UNL     1       5.923  57.046  -0.045  1.00  0.00     0.047 C 
HETATM    2  C5  UNL     1       6.143  55.651   0.373  1.00  0.00     0.014 C 
HETATM    3  C7  UNL     1       7.040  55.546   1.559  1.00  0.00     0.086 C 
HETATM    4  C8  UNL     1       7.557  54.158   1.727  1.00  0.00     0.037 C 
HETATM    5  C9  UNL     1       6.593  56.114   2.824  1.00  0.00     0.037 C 
HETATM    6  S1  UNL     1       8.381  56.528   0.854  1.00  0.00     0.165 S 
HETATM    7  O2  UNL     1       9.120  57.211   1.931  1.00  0.00    -0.226 OA
HETATM    8  O3  UNL     1       9.200  55.687  -0.043  1.00  0.00    -0.226 OA
HETATM    9  C10 UNL     1       7.299  57.642  -0.074  1.00  0.00     0.066 C 
HETATM   10  C11 UNL     1       7.881  57.655  -1.498  1.00  0.00     0.032 C 
HETATM   11  C12 UNL     1       7.530  58.964   0.511  1.00  0.00     0.032 C 
ENDROOT
BRANCH   1  12
HETATM   12  C2  UNL     1       4.905  57.870   0.621  1.00  0.00    -0.013 C 
HETATM   13  C1  UNL     1       3.600  57.278   0.973  1.00  0.00     0.010 C 
HETATM   14  C3  UNL     1       4.529  59.012  -0.332  1.00  0.00     0.010 C 
ENDBRANCH   1  12
BRANCH   2  15
HETATM   15  C6  UNL     1       5.031  54.715   0.337  1.00  0.00     0.259 C 
HETATM   16  N1  UNL     1       4.388  54.321   1.520  1.00  0.00    -0.058 NA
HETATM   17  O1  UNL     1       4.640  54.253  -0.782  1.00  0.00    -0.272 OA
ENDBRANCH   2  15
TORSDOF 2
ENDMDL
