MODEL 1
REMARK VINA RESULT: -7.278590997      0.000      0.000
REMARK  4 active torsions:
REMARK  status: ('A' for Active; 'I' for Inactive)
REMARK    1  A    between atoms: O1_2  and  C2_3 
REMARK    2  A    between atoms: C2_3  and  C3_5 
REMARK    3  A    between atoms: C8_13  and  C9_14 
REMARK    4  A    between atoms: C14_19  and  N2_20 
ROOT
HETATM    1  C3  UNL     1       8.580  57.801  -0.393  1.00  0.00     0.088 A 
HETATM    2  C4  UNL     1       7.954  59.011  -0.481  1.00  0.00     0.024 A 
HETATM    3  C5  UNL     1       8.618  60.182  -1.086  1.00  0.00     0.069 C 
HETATM    4  N1  UNL     1       6.706  59.103   0.004  1.00  0.00    -0.353 N 
ATOM      5  H1  UNL     1       6.213  59.994  -0.046  1.00  0.00     0.166 HD
HETATM    6  C6  UNL     1       6.084  58.020   0.566  1.00  0.00     0.087 A 
HETATM    7  S1  UNL     1       4.542  57.897   1.261  1.00  0.00    -0.083 SA
HETATM    8  C7  UNL     1       4.614  56.251   1.705  1.00  0.00     0.060 A 
HETATM    9  C8  UNL     1       5.864  55.810   1.298  1.00  0.00    -0.029 A 
HETATM   10  C13 UNL     1       6.638  56.772   0.691  1.00  0.00     0.033 A 
HETATM   11  C14 UNL     1       7.948  56.712   0.174  1.00  0.00     0.058 A 
ENDROOT
BRANCH   1  12
HETATM   12  C2  UNL     1       9.939  57.708  -0.923  1.00  0.00     0.297 C 
HETATM   13  O2  UNL     1      10.936  57.841  -0.172  1.00  0.00    -0.259 OA
BRANCH  12  14
HETATM   14  O1  UNL     1      10.157  57.473  -2.271  1.00  0.00    -0.322 OA
HETATM   15  C1  UNL     1      11.411  57.384  -2.874  1.00  0.00     0.213 C 
ENDBRANCH  12  14
ENDBRANCH   1  12
BRANCH  11  16
HETATM   16  N2  UNL     1       8.635  55.666   0.230  1.00  0.00    -0.397 N 
ATOM     17  H22 UNL     1       9.425  55.571   0.868  1.00  0.00     0.156 HD
ATOM     18  H21 UNL     1       8.365  54.933  -0.427  1.00  0.00     0.156 HD
ENDBRANCH  11  16
BRANCH   9  19
HETATM   19  C9  UNL     1       6.229  54.351   1.487  1.00  0.00    -0.023 C 
HETATM   20  C10 UNL     1       6.401  53.567   0.235  1.00  0.00     0.019 C 
HETATM   21  C11 UNL     1       7.288  54.147   2.540  1.00  0.00     0.019 C 
HETATM   22  C12 UNL     1       4.996  53.679   2.131  1.00  0.00     0.019 C 
ENDBRANCH   9  19
TORSDOF 4
ENDMDL
MODEL 2
REMARK VINA RESULT: -6.460232315      3.400      5.312
REMARK  4 active torsions:
REMARK  status: ('A' for Active; 'I' for Inactive)
REMARK    1  A    between atoms: O1_2  and  C2_3 
REMARK    2  A    between atoms: C2_3  and  C3_5 
REMARK    3  A    between atoms: C8_13  and  C9_14 
REMARK    4  A    between atoms: C14_19  and  N2_20 
ROOT
HETATM    1  C3  UNL     1       9.382  53.771   1.253  1.00  0.00     0.088 A 
HETATM    2  C4  UNL     1      10.692  53.915   0.897  1.00  0.00     0.024 A 
HETATM    3  C5  UNL     1      11.660  52.811   1.051  1.00  0.00     0.069 C 
HETATM    4  N1  UNL     1      11.075  55.101   0.399  1.00  0.00    -0.353 N 
ATOM      5  H1  UNL     1      12.048  55.238   0.125  1.00  0.00     0.166 HD
HETATM    6  C6  UNL     1      10.183  56.128   0.252  1.00  0.00     0.087 A 
HETATM    7  S1  UNL     1      10.430  57.705  -0.322  1.00  0.00    -0.083 SA
HETATM    8  C7  UNL     1       8.834  58.276  -0.139  1.00  0.00     0.060 A 
HETATM    9  C8  UNL     1       8.113  57.210   0.377  1.00  0.00    -0.029 A 
HETATM   10  C13 UNL     1       8.853  56.068   0.582  1.00  0.00     0.033 A 
HETATM   11  C14 UNL     1       8.486  54.812   1.103  1.00  0.00     0.058 A 
ENDROOT
BRANCH   1  12
HETATM   12  C2  UNL     1       8.972  52.478   1.796  1.00  0.00     0.297 C 
HETATM   13  O2  UNL     1       9.060  52.235   3.024  1.00  0.00    -0.259 OA
BRANCH  12  14
HETATM   14  O1  UNL     1       8.478  51.487   0.962  1.00  0.00    -0.322 OA
HETATM   15  C1  UNL     1       7.466  50.589   1.302  1.00  0.00     0.213 C 
ENDBRANCH  12  14
ENDBRANCH   1  12
BRANCH  11  16
HETATM   16  N2  UNL     1       7.321  54.572   1.497  1.00  0.00    -0.397 N 
ATOM     17  H22 UNL     1       6.771  55.260   2.011  1.00  0.00     0.156 HD
ATOM     18  H21 UNL     1       6.978  53.633   1.291  1.00  0.00     0.156 HD
ENDBRANCH  11  16
BRANCH   9  19
HETATM   19  C9  UNL     1       6.621  57.365   0.599  1.00  0.00    -0.023 C 
HETATM   20  C10 UNL     1       5.754  56.557  -0.299  1.00  0.00     0.019 C 
HETATM   21  C11 UNL     1       6.245  57.355   2.058  1.00  0.00     0.019 C 
HETATM   22  C12 UNL     1       6.273  58.811   0.182  1.00  0.00     0.019 C 
ENDBRANCH   9  19
TORSDOF 4
ENDMDL
MODEL 3
REMARK VINA RESULT: -6.190265681      5.390      8.310
REMARK  4 active torsions:
REMARK  status: ('A' for Active; 'I' for Inactive)
REMARK    1  A    between atoms: O1_2  and  C2_3 
REMARK    2  A    between atoms: C2_3  and  C3_5 
REMARK    3  A    between atoms: C8_13  and  C9_14 
REMARK    4  A    between atoms: C14_19  and  N2_20 
ROOT
HETATM    1  C3  UNL     1       4.727  50.384   1.959  1.00  0.00     0.088 A 
HETATM    2  C4  UNL     1       5.482  49.248   1.989  1.00  0.00     0.024 A 
HETATM    3  C5  UNL     1       4.862  47.909   2.043  1.00  0.00     0.069 C 
HETATM    4  N1  UNL     1       6.817  49.387   1.969  1.00  0.00    -0.353 N 
ATOM      5  H1  UNL     1       7.407  48.555   1.991  1.00  0.00     0.166 HD
HETATM    6  C6  UNL     1       7.399  50.625   1.918  1.00  0.00     0.087 A 
HETATM    7  S1  UNL     1       9.040  51.051   1.909  1.00  0.00    -0.083 SA
HETATM    8  C7  UNL     1       8.844  52.745   1.858  1.00  0.00     0.060 A 
HETATM    9  C8  UNL     1       7.475  52.961   1.848  1.00  0.00    -0.029 A 
HETATM   10  C13 UNL     1       6.716  51.813   1.883  1.00  0.00     0.033 A 
HETATM   11  C14 UNL     1       5.319  51.632   1.908  1.00  0.00     0.058 A 
ENDROOT
BRANCH   1  12
HETATM   12  C2  UNL     1       3.275  50.226   1.982  1.00  0.00     0.297 C 
HETATM   13  O2  UNL     1       2.610  50.197   0.918  1.00  0.00    -0.259 OA
BRANCH  12  14
HETATM   14  O1  UNL     1       2.597  50.106   3.185  1.00  0.00    -0.322 OA
HETATM   15  C1  UNL     1       1.949  48.952   3.626  1.00  0.00     0.213 C 
ENDBRANCH  12  14
ENDBRANCH   1  12
BRANCH  11  16
HETATM   16  N2  UNL     1       4.524  52.600   1.919  1.00  0.00    -0.397 N 
ATOM     17  H22 UNL     1       4.844  53.561   2.040  1.00  0.00     0.156 HD
ATOM     18  H21 UNL     1       3.538  52.353   1.827  1.00  0.00     0.156 HD
ENDBRANCH  11  16
BRANCH   9  19
HETATM   19  C9  UNL     1       6.953  54.380   1.737  1.00  0.00    -0.023 C 
HETATM   20  C10 UNL     1       6.278  54.715   0.454  1.00  0.00     0.019 C 
HETATM   21  C11 UNL     1       6.250  54.842   2.988  1.00  0.00     0.019 C 
HETATM   22  C12 UNL     1       8.197  55.295   1.705  1.00  0.00     0.019 C 
ENDBRANCH   9  19
TORSDOF 4
ENDMDL
MODEL 4
REMARK VINA RESULT: -6.174202986      3.302      5.618
REMARK  4 active torsions:
REMARK  status: ('A' for Active; 'I' for Inactive)
REMARK    1  A    between atoms: O1_2  and  C2_3 
REMARK    2  A    between atoms: C2_3  and  C3_5 
REMARK    3  A    between atoms: C8_13  and  C9_14 
REMARK    4  A    between atoms: C14_19  and  N2_20 
ROOT
HETATM    1  C3  UNL     1       7.111  53.932   1.072  1.00  0.00     0.088 A 
HETATM    2  C4  UNL     1       8.392  53.555   0.788  1.00  0.00     0.024 A 
HETATM    3  C5  UNL     1       8.834  52.154   0.928  1.00  0.00     0.069 C 
HETATM    4  N1  UNL     1       9.243  54.507   0.373  1.00  0.00    -0.353 N 
ATOM      5  H1  UNL     1      10.207  54.255   0.154  1.00  0.00     0.166 HD
HETATM    6  C6  UNL     1       8.839  55.808   0.240  1.00  0.00     0.087 A 
HETATM    7  S1  UNL     1       9.725  57.174  -0.235  1.00  0.00    -0.083 SA
HETATM    8  C7  UNL     1       8.474  58.326  -0.098  1.00  0.00     0.060 A 
HETATM    9  C8  UNL     1       7.360  57.617   0.324  1.00  0.00    -0.029 A 
HETATM   10  C13 UNL     1       7.575  56.269   0.502  1.00  0.00     0.033 A 
HETATM   11  C14 UNL     1       6.709  55.247   0.936  1.00  0.00     0.058 A 
ENDROOT
BRANCH   1  12
HETATM   12  C2  UNL     1       6.190  52.891   1.523  1.00  0.00     0.297 C 
HETATM   13  O2  UNL     1       6.027  52.658   2.746  1.00  0.00    -0.259 OA
BRANCH  12  14
HETATM   14  O1  UNL     1       5.475  52.136   0.607  1.00  0.00    -0.322 OA
HETATM   15  C1  UNL     1       4.730  50.998   0.919  1.00  0.00     0.213 C 
ENDBRANCH  12  14
ENDBRANCH   1  12
BRANCH  11  16
HETATM   16  N2  UNL     1       5.521  55.476   1.260  1.00  0.00    -0.397 N 
ATOM     17  H22 UNL     1       4.741  55.277   0.633  1.00  0.00     0.156 HD
ATOM     18  H21 UNL     1       5.396  55.900   2.179  1.00  0.00     0.156 HD
ENDBRANCH  11  16
BRANCH   9  19
HETATM   19  C9  UNL     1       6.039  58.344   0.482  1.00  0.00    -0.023 C 
HETATM   20  C10 UNL     1       5.016  58.045  -0.556  1.00  0.00     0.019 C 
HETATM   21  C11 UNL     1       5.546  58.354   1.906  1.00  0.00     0.019 C 
HETATM   22  C12 UNL     1       6.338  59.839   0.230  1.00  0.00     0.019 C 
ENDBRANCH   9  19
TORSDOF 4
ENDMDL
MODEL 5
REMARK VINA RESULT: -6.150156293      2.911      4.139
REMARK  4 active torsions:
REMARK  status: ('A' for Active; 'I' for Inactive)
REMARK    1  A    between atoms: O1_2  and  C2_3 
REMARK    2  A    between atoms: C2_3  and  C3_5 
REMARK    3  A    between atoms: C8_13  and  C9_14 
REMARK    4  A    between atoms: C14_19  and  N2_20 
ROOT
HETATM    1  C3  UNL     1       6.793  58.038   0.306  1.00  0.00     0.088 A 
HETATM    2  C4  UNL     1       7.932  58.663  -0.113  1.00  0.00     0.024 A 
HETATM    3  C5  UNL     1       7.919  60.064  -0.576  1.00  0.00     0.069 C 
HETATM    4  N1  UNL     1       9.073  57.957  -0.090  1.00  0.00    -0.353 N 
ATOM      5  H1  UNL     1       9.940  58.397  -0.398  1.00  0.00     0.166 HD
HETATM    6  C6  UNL     1       9.093  56.657   0.339  1.00  0.00     0.087 A 
HETATM    7  S1  UNL     1      10.389  55.567   0.433  1.00  0.00    -0.083 SA
HETATM    8  C7  UNL     1       9.525  54.224   1.034  1.00  0.00     0.060 A 
HETATM    9  C8  UNL     1       8.211  54.651   1.156  1.00  0.00    -0.029 A 
HETATM   10  C13 UNL     1       7.999  55.957   0.776  1.00  0.00     0.033 A 
HETATM   11  C14 UNL     1       6.819  56.725   0.738  1.00  0.00     0.058 A 
ENDROOT
BRANCH   1  12
HETATM   12  C2  UNL     1       5.554  58.811   0.277  1.00  0.00     0.297 C 
HETATM   13  O2  UNL     1       4.852  58.870  -0.761  1.00  0.00    -0.259 OA
BRANCH  12  14
HETATM   14  O1  UNL     1       5.127  59.501   1.401  1.00  0.00    -0.322 OA
HETATM   15  C1  UNL     1       3.796  59.643   1.794  1.00  0.00     0.213 C 
ENDBRANCH  12  14
ENDBRANCH   1  12
BRANCH  11  16
HETATM   16  N2  UNL     1       5.706  56.250   1.064  1.00  0.00    -0.397 N 
ATOM     17  H22 UNL     1       4.829  56.715   0.827  1.00  0.00     0.156 HD
ATOM     18  H21 UNL     1       5.745  55.385   1.603  1.00  0.00     0.156 HD
ENDBRANCH  11  16
BRANCH   9  19
HETATM   19  C9  UNL     1       7.178  53.704   1.734  1.00  0.00    -0.023 C 
HETATM   20  C10 UNL     1       6.533  54.156   2.996  1.00  0.00     0.019 C 
HETATM   21  C11 UNL     1       6.251  53.143   0.687  1.00  0.00     0.019 C 
HETATM   22  C12 UNL     1       7.954  52.448   2.190  1.00  0.00     0.019 C 
ENDBRANCH   9  19
TORSDOF 4
ENDMDL
