MODEL 1
REMARK VINA RESULT: -3.852325408      0.000      0.000
REMARK  3 active torsions:
REMARK  status: ('A' for Active; 'I' for Inactive)
REMARK    1  A    between atoms: N1_2  and  C2_5 
REMARK    2  A    between atoms: C2_5  and  N2_6 
REMARK    3  A    between atoms: C5_12  and  C7_14 
ROOT
HETATM    1  C2  UNL     1      11.899  22.188  22.497  1.00  0.00     0.291 C 
HETATM    2  C3  UNL     1      12.325  23.570  22.968  1.00  0.00     0.071 C 
HETATM    3  C4  UNL     1      11.047  24.081  22.287  1.00  0.00     0.018 C 
HETATM    4  C5  UNL     1      10.523  22.678  22.443  1.00  0.00     0.022 C 
HETATM    5  C6  UNL     1       9.927  22.614  23.879  1.00  0.00     0.020 C 
ENDROOT
BRANCH   1   6
HETATM    6  N1  UNL     1      12.622  21.866  21.295  1.00  0.00    -0.044 N 
HETATM    7  C1  UNL     1      14.030  22.244  21.340  1.00  0.00     0.270 C 
ATOM      8  H12 UNL     1      12.166  22.275  20.479  1.00  0.00     0.279 HD
ATOM      9  H11 UNL     1      12.523  20.877  21.069  1.00  0.00     0.279 HD
ENDBRANCH   1   6
BRANCH   1  10
HETATM   10  N2  UNL     1      12.168  21.244  23.591  1.00  0.00    -0.044 N 
ATOM     11  H23 UNL     1      13.110  20.858  23.518  1.00  0.00     0.277 HD
ATOM     12  H22 UNL     1      12.259  21.733  24.482  1.00  0.00     0.277 HD
ATOM     13  H21 UNL     1      11.472  20.501  23.650  1.00  0.00     0.277 HD
ENDBRANCH   1  10
BRANCH   4  14
HETATM   14  C7  UNL     1       9.535  22.288  21.450  1.00  0.00    -0.040 C 
HETATM   15  C8  UNL     1       9.440  23.179  20.242  1.00  0.00     0.015 C 
HETATM   16  C9  UNL     1       8.142  22.389  22.111  1.00  0.00     0.015 C 
HETATM   17  C10 UNL     1       9.609  20.873  20.939  1.00  0.00     0.015 C 
ENDBRANCH   4  14
TORSDOF 3
ENDMDL
MODEL 2
REMARK VINA RESULT: -3.770877757      1.540      3.682
REMARK  3 active torsions:
REMARK  status: ('A' for Active; 'I' for Inactive)
REMARK    1  A    between atoms: N1_2  and  C2_5 
REMARK    2  A    between atoms: C2_5  and  N2_6 
REMARK    3  A    between atoms: C5_12  and  C7_14 
ROOT
HETATM    1  C2  UNL     1       9.717  22.475  21.495  1.00  0.00     0.291 C 
HETATM    2  C3  UNL     1       8.473  22.444  22.369  1.00  0.00     0.071 C 
HETATM    3  C4  UNL     1       9.435  22.554  23.560  1.00  0.00     0.018 C 
HETATM    4  C5  UNL     1      10.414  23.154  22.586  1.00  0.00     0.022 C 
HETATM    5  C6  UNL     1      10.062  24.668  22.520  1.00  0.00     0.020 C 
ENDROOT
BRANCH   1   6
HETATM    6  N1  UNL     1      10.053  21.126  21.122  1.00  0.00    -0.044 N 
HETATM    7  C1  UNL     1       8.902  20.325  20.722  1.00  0.00     0.270 C 
ATOM      8  H12 UNL     1      10.571  20.664  21.870  1.00  0.00     0.279 HD
ATOM      9  H11 UNL     1      10.766  21.121  20.393  1.00  0.00     0.279 HD
ENDBRANCH   1   6
BRANCH   1  10
HETATM   10  N2  UNL     1       9.422  23.327  20.334  1.00  0.00    -0.044 N 
ATOM     11  H23 UNL     1      10.216  23.926  20.109  1.00  0.00     0.277 HD
ATOM     12  H22 UNL     1       9.383  22.777  19.476  1.00  0.00     0.277 HD
ATOM     13  H21 UNL     1       8.572  23.877  20.456  1.00  0.00     0.277 HD
ENDBRANCH   1  10
BRANCH   4  14
HETATM   14  C7  UNL     1      11.812  22.958  22.934  1.00  0.00    -0.040 C 
HETATM   15  C8  UNL     1      12.174  21.581  23.422  1.00  0.00     0.015 C 
HETATM   16  C9  UNL     1      12.130  23.884  24.130  1.00  0.00     0.015 C 
HETATM   17  C10 UNL     1      12.830  23.328  21.888  1.00  0.00     0.015 C 
ENDBRANCH   4  14
TORSDOF 3
ENDMDL
MODEL 3
REMARK VINA RESULT: -3.706044484      1.535      3.664
REMARK  3 active torsions:
REMARK  status: ('A' for Active; 'I' for Inactive)
REMARK    1  A    between atoms: N1_2  and  C2_5 
REMARK    2  A    between atoms: C2_5  and  N2_6 
REMARK    3  A    between atoms: C5_12  and  C7_14 
ROOT
HETATM    1  C2  UNL     1       9.694  22.467  21.542  1.00  0.00     0.291 C 
HETATM    2  C3  UNL     1       8.414  22.445  22.363  1.00  0.00     0.071 C 
HETATM    3  C4  UNL     1       9.323  22.602  23.590  1.00  0.00     0.018 C 
HETATM    4  C5  UNL     1      10.335  23.186  22.641  1.00  0.00     0.022 C 
HETATM    5  C6  UNL     1       9.969  24.693  22.516  1.00  0.00     0.020 C 
ENDROOT
BRANCH   1   6
HETATM    6  N1  UNL     1      10.061  21.112  21.223  1.00  0.00    -0.044 N 
HETATM    7  C1  UNL     1       8.950  20.303  20.737  1.00  0.00     0.270 C 
ATOM      8  H12 UNL     1      10.511  20.664  22.022  1.00  0.00     0.279 HD
ATOM      9  H11 UNL     1      10.835  21.096  20.560  1.00  0.00     0.279 HD
ENDBRANCH   1   6
BRANCH   1  10
HETATM   10  N2  UNL     1       9.439  23.281  20.346  1.00  0.00    -0.044 N 
ATOM     11  H23 UNL     1       8.611  23.865  20.469  1.00  0.00     0.277 HD
ATOM     12  H22 UNL     1      10.142  24.013  20.244  1.00  0.00     0.277 HD
ATOM     13  H21 UNL     1       9.368  22.721  19.496  1.00  0.00     0.277 HD
ENDBRANCH   1  10
BRANCH   4  14
HETATM   14  C7  UNL     1      11.719  23.018  23.054  1.00  0.00    -0.040 C 
HETATM   15  C8  UNL     1      12.153  23.852  24.229  1.00  0.00     0.015 C 
HETATM   16  C9  UNL     1      12.616  23.500  21.891  1.00  0.00     0.015 C 
HETATM   17  C10 UNL     1      12.180  21.611  23.328  1.00  0.00     0.015 C 
ENDBRANCH   4  14
TORSDOF 3
ENDMDL
MODEL 4
REMARK VINA RESULT: -3.643250995      1.822      3.892
REMARK  3 active torsions:
REMARK  status: ('A' for Active; 'I' for Inactive)
REMARK    1  A    between atoms: N1_2  and  C2_5 
REMARK    2  A    between atoms: C2_5  and  N2_6 
REMARK    3  A    between atoms: C5_12  and  C7_14 
ROOT
HETATM    1  C2  UNL     1       9.152  21.907  20.556  1.00  0.00     0.291 C 
HETATM    2  C3  UNL     1       7.746  22.208  21.051  1.00  0.00     0.071 C 
HETATM    3  C4  UNL     1       8.423  22.797  22.296  1.00  0.00     0.018 C 
HETATM    4  C5  UNL     1       9.640  22.974  21.428  1.00  0.00     0.022 C 
HETATM    5  C6  UNL     1       9.436  24.332  20.696  1.00  0.00     0.020 C 
ENDROOT
BRANCH   1   6
HETATM    6  N1  UNL     1       9.453  20.526  20.829  1.00  0.00    -0.044 N 
HETATM    7  C1  UNL     1       8.452  19.597  20.318  1.00  0.00     0.270 C 
ATOM      8  H12 UNL     1       9.602  20.381  21.828  1.00  0.00     0.279 HD
ATOM      9  H11 UNL     1      10.380  20.284  20.481  1.00  0.00     0.279 HD
ENDBRANCH   1   6
BRANCH   1  10
HETATM   10  N2  UNL     1       9.195  22.224  19.121  1.00  0.00    -0.044 N 
ATOM     11  H23 UNL     1       9.796  23.028  18.941  1.00  0.00     0.277 HD
ATOM     12  H22 UNL     1       9.713  21.512  18.605  1.00  0.00     0.277 HD
ATOM     13  H21 UNL     1       8.267  22.364  18.722  1.00  0.00     0.277 HD
ENDBRANCH   1  10
BRANCH   4  14
HETATM   14  C7  UNL     1      10.904  22.954  22.146  1.00  0.00    -0.040 C 
HETATM   15  C8  UNL     1      10.824  22.546  23.592  1.00  0.00     0.015 C 
HETATM   16  C9  UNL     1      11.443  24.401  22.186  1.00  0.00     0.015 C 
HETATM   17  C10 UNL     1      12.021  22.151  21.532  1.00  0.00     0.015 C 
ENDBRANCH   4  14
TORSDOF 3
ENDMDL
MODEL 5
REMARK VINA RESULT: -3.618319965      1.205      1.537
REMARK  3 active torsions:
REMARK  status: ('A' for Active; 'I' for Inactive)
REMARK    1  A    between atoms: N1_2  and  C2_5 
REMARK    2  A    between atoms: C2_5  and  N2_6 
REMARK    3  A    between atoms: C5_12  and  C7_14 
ROOT
HETATM    1  C2  UNL     1      10.656  22.503  22.140  1.00  0.00     0.291 C 
HETATM    2  C3  UNL     1      10.940  23.981  21.927  1.00  0.00     0.071 C 
HETATM    3  C4  UNL     1       9.889  23.916  20.811  1.00  0.00     0.018 C 
HETATM    4  C5  UNL     1       9.343  22.713  21.533  1.00  0.00     0.022 C 
HETATM    5  C6  UNL     1       8.387  23.278  22.622  1.00  0.00     0.020 C 
ENDROOT
BRANCH   1   6
HETATM    6  N1  UNL     1      11.673  21.736  21.470  1.00  0.00    -0.044 N 
HETATM    7  C1  UNL     1      13.030  22.182  21.761  1.00  0.00     0.270 C 
ATOM      8  H12 UNL     1      11.507  21.720  20.463  1.00  0.00     0.279 HD
ATOM      9  H11 UNL     1      11.569  20.743  21.676  1.00  0.00     0.279 HD
ENDBRANCH   1   6
BRANCH   1  10
HETATM   10  N2  UNL     1      10.626  22.261  23.590  1.00  0.00    -0.044 N 
ATOM     11  H23 UNL     1      11.134  22.988  24.093  1.00  0.00     0.277 HD
ATOM     12  H22 UNL     1       9.692  22.421  23.969  1.00  0.00     0.277 HD
ATOM     13  H21 UNL     1      10.970  21.334  23.841  1.00  0.00     0.277 HD
ENDBRANCH   1  10
BRANCH   4  14
HETATM   14  C7  UNL     1       8.655  21.757  20.681  1.00  0.00    -0.040 C 
HETATM   15  C8  UNL     1       8.714  22.040  19.204  1.00  0.00     0.015 C 
HETATM   16  C9  UNL     1       7.149  21.823  21.024  1.00  0.00     0.015 C 
HETATM   17  C10 UNL     1       9.018  20.305  20.857  1.00  0.00     0.015 C 
ENDBRANCH   4  14
TORSDOF 3
ENDMDL
