MODEL 1
REMARK VINA RESULT: -7.416222593      0.000      0.000
REMARK  11 active torsions:
REMARK  status: ('A' for Active; 'I' for Inactive)
REMARK    1  A    between atoms: C2_2  and  O2_4 
REMARK    2  A    between atoms: O2_4  and  C3_5 
REMARK    3  A    between atoms: C3_5  and  C4_6 
REMARK    4  A    between atoms: C4_6  and  C6_8 
REMARK    5  A    between atoms: C4_6  and  O4_12 
REMARK    6  A    between atoms: C6_8  and  C7_9 
REMARK    7  A    between atoms: O4_12  and  C8_13 
REMARK    8  A    between atoms: C20_25  and  C21_26 
REMARK    9  A    between atoms: C21_26  and  C22_28 
REMARK   10  A    between atoms: C22_28  and  O6_29 
REMARK   11  A    between atoms: C26_34  and  O7_35 
ROOT
HETATM    1  C8  UNL     1      17.164 -26.823  -1.829  1.00  0.00     0.123 C 
HETATM    2  C9  UNL     1      18.232 -27.855  -1.558  1.00  0.00     0.033 C 
HETATM    3  C10 UNL     1      18.459 -28.037  -0.041  1.00  0.00     0.012 C 
HETATM    4  C11 UNL     1      19.302 -26.858   0.411  1.00  0.00    -0.034 C 
HETATM    5  C12 UNL     1      20.635 -27.077  -0.336  1.00  0.00     0.016 C 
HETATM    6  C13 UNL     1      18.677 -25.646  -0.206  1.00  0.00    -0.004 C 
HETATM    7  C14 UNL     1      18.710 -24.390   0.588  1.00  0.00     0.006 C 
HETATM    8  C15 UNL     1      19.936 -24.418   1.510  1.00  0.00     0.006 C 
HETATM    9  C16 UNL     1      19.598 -25.485   2.498  1.00  0.00    -0.003 C 
HETATM   10  C17 UNL     1      20.467 -25.526   3.694  1.00  0.00    -0.001 C 
HETATM   11  C18 UNL     1      21.931 -25.460   3.369  1.00  0.00     0.006 C 
HETATM   12  C19 UNL     1      22.608 -26.569   4.100  1.00  0.00     0.013 C 
HETATM   13  C20 UNL     1      21.527 -27.452   4.705  1.00  0.00     0.066 C 
HETATM   14  C23 UNL     1      20.238 -26.726   4.575  1.00  0.00    -0.027 C 
HETATM   15  C24 UNL     1      19.810 -26.141   5.908  1.00  0.00     0.016 C 
HETATM   16  C25 UNL     1      19.159 -27.658   4.154  1.00  0.00     0.042 C 
HETATM   17  C26 UNL     1      18.693 -27.647   2.748  1.00  0.00     0.124 C 
HETATM   18  C27 UNL     1      19.591 -26.832   1.843  1.00  0.00     0.027 C 
HETATM   19  C28 UNL     1      17.234 -25.870  -0.606  1.00  0.00     0.037 C 
ENDROOT
BRANCH   1  20
HETATM   20  O4  UNL     1      15.935 -27.434  -1.855  1.00  0.00    -0.373 OA
BRANCH  20  21
HETATM   21  C4  UNL     1      15.201 -27.212  -3.022  1.00  0.00     0.087 C 
HETATM   22  C5  UNL     1      15.811 -26.024  -3.712  1.00  0.00     0.049 C 
BRANCH  21  23
HETATM   23  C3  UNL     1      15.352 -28.407  -3.953  1.00  0.00     0.216 C 
BRANCH  23  24
HETATM   24  O2  UNL     1      14.323 -29.345  -3.703  1.00  0.00    -0.319 OA
BRANCH  24  25
HETATM   25  C2  UNL     1      14.624 -30.609  -3.210  1.00  0.00     0.254 C 
HETATM   26  C1  UNL     1      15.804 -30.969  -2.419  1.00  0.00     0.126 C 
HETATM   27  O1  UNL     1      13.783 -31.520  -3.486  1.00  0.00    -0.266 OA
ENDBRANCH  24  25
ENDBRANCH  23  24
ENDBRANCH  21  23
BRANCH  21  28
HETATM   28  C6  UNL     1      13.745 -27.008  -2.803  1.00  0.00     0.139 C 
BRANCH  28  29
HETATM   29  C7  UNL     1      13.400 -25.748  -2.119  1.00  0.00     0.234 C 
HETATM   30  N1  UNL     1      12.463 -24.874  -2.720  1.00  0.00    -0.062 NA
HETATM   31  O3  UNL     1      13.907 -25.402  -1.000  1.00  0.00    -0.277 OA
ENDBRANCH  28  29
ENDBRANCH  21  28
ENDBRANCH  20  21
ENDBRANCH   1  20
BRANCH  17  32
HETATM   32  O7  UNL     1      17.404 -27.066   2.759  1.00  0.00    -0.395 OA
ATOM     33  H7  UNL     1      17.422 -26.361   2.123  1.00  0.00     0.210 HD
ENDBRANCH  17  32
BRANCH  13  34
HETATM   34  C21 UNL     1      21.993 -27.863   6.019  1.00  0.00     0.154 C 
HETATM   35  O5  UNL     1      22.544 -27.139   6.801  1.00  0.00    -0.295 OA
BRANCH  34  36
HETATM   36  C22 UNL     1      21.812 -29.277   6.506  1.00  0.00     0.242 C 
BRANCH  36  37
HETATM   37  O6  UNL     1      21.226 -30.008   5.486  1.00  0.00    -0.394 OA
ATOM     38  H6  UNL     1      20.370 -30.293   5.784  1.00  0.00     0.209 HD
ENDBRANCH  36  37
ENDBRANCH  34  36
ENDBRANCH  13  34
TORSDOF 11
ENDMDL
MODEL 2
REMARK VINA RESULT: -7.328967395      1.005      1.297
REMARK  11 active torsions:
REMARK  status: ('A' for Active; 'I' for Inactive)
REMARK    1  A    between atoms: C2_2  and  O2_4 
REMARK    2  A    between atoms: O2_4  and  C3_5 
REMARK    3  A    between atoms: C3_5  and  C4_6 
REMARK    4  A    between atoms: C4_6  and  C6_8 
REMARK    5  A    between atoms: C4_6  and  O4_12 
REMARK    6  A    between atoms: C6_8  and  C7_9 
REMARK    7  A    between atoms: O4_12  and  C8_13 
REMARK    8  A    between atoms: C20_25  and  C21_26 
REMARK    9  A    between atoms: C21_26  and  C22_28 
REMARK   10  A    between atoms: C22_28  and  O6_29 
REMARK   11  A    between atoms: C26_34  and  O7_35 
ROOT
HETATM    1  C8  UNL     1      17.413 -26.928  -1.862  1.00  0.00     0.123 C 
HETATM    2  C9  UNL     1      18.491 -27.936  -1.543  1.00  0.00     0.033 C 
HETATM    3  C10 UNL     1      18.674 -28.091  -0.017  1.00  0.00     0.012 C 
HETATM    4  C11 UNL     1      19.481 -26.890   0.443  1.00  0.00    -0.034 C 
HETATM    5  C12 UNL     1      20.841 -27.095  -0.260  1.00  0.00     0.016 C 
HETATM    6  C13 UNL     1      18.854 -25.700  -0.212  1.00  0.00    -0.004 C 
HETATM    7  C14 UNL     1      18.839 -24.431   0.564  1.00  0.00     0.006 C 
HETATM    8  C15 UNL     1      20.037 -24.422   1.523  1.00  0.00     0.006 C 
HETATM    9  C16 UNL     1      19.688 -25.481   2.516  1.00  0.00    -0.003 C 
HETATM   10  C17 UNL     1      20.520 -25.488   3.738  1.00  0.00    -0.001 C 
HETATM   11  C18 UNL     1      21.992 -25.399   3.457  1.00  0.00     0.006 C 
HETATM   12  C19 UNL     1      22.667 -26.485   4.226  1.00  0.00     0.013 C 
HETATM   13  C20 UNL     1      21.585 -27.379   4.811  1.00  0.00     0.066 C 
HETATM   14  C23 UNL     1      20.287 -26.679   4.631  1.00  0.00    -0.027 C 
HETATM   15  C24 UNL     1      19.807 -26.083   5.941  1.00  0.00     0.016 C 
HETATM   16  C25 UNL     1      19.239 -27.638   4.191  1.00  0.00     0.042 C 
HETATM   17  C26 UNL     1      18.815 -27.656   2.772  1.00  0.00     0.124 C 
HETATM   18  C27 UNL     1      19.726 -26.837   1.882  1.00  0.00     0.027 C 
HETATM   19  C28 UNL     1      17.428 -25.956  -0.652  1.00  0.00     0.037 C 
ENDROOT
BRANCH   1  20
HETATM   20  O4  UNL     1      16.197 -27.563  -1.916  1.00  0.00    -0.373 OA
BRANCH  20  21
HETATM   21  C4  UNL     1      15.457 -27.304  -3.071  1.00  0.00     0.087 C 
HETATM   22  C5  UNL     1      16.339 -27.627  -4.245  1.00  0.00     0.049 C 
BRANCH  21  23
HETATM   23  C3  UNL     1      14.259 -28.242  -3.130  1.00  0.00     0.216 C 
BRANCH  23  24
HETATM   24  O2  UNL     1      13.831 -28.390  -4.470  1.00  0.00    -0.319 OA
BRANCH  24  25
HETATM   25  C2  UNL     1      12.546 -28.837  -4.756  1.00  0.00     0.254 C 
HETATM   26  C1  UNL     1      12.161 -30.217  -5.064  1.00  0.00     0.126 C 
HETATM   27  O1  UNL     1      11.641 -27.947  -4.743  1.00  0.00    -0.266 OA
ENDBRANCH  24  25
ENDBRANCH  23  24
ENDBRANCH  21  23
BRANCH  21  28
HETATM   28  C6  UNL     1      14.934 -25.917  -3.168  1.00  0.00     0.139 C 
BRANCH  28  29
HETATM   29  C7  UNL     1      13.895 -25.585  -2.175  1.00  0.00     0.234 C 
HETATM   30  N1  UNL     1      12.562 -25.394  -2.611  1.00  0.00    -0.062 NA
HETATM   31  O3  UNL     1      14.138 -25.462  -0.928  1.00  0.00    -0.277 OA
ENDBRANCH  28  29
ENDBRANCH  21  28
ENDBRANCH  20  21
ENDBRANCH   1  20
BRANCH  17  32
HETATM   32  O7  UNL     1      17.517 -27.100   2.735  1.00  0.00    -0.395 OA
ATOM     33  H7  UNL     1      17.609 -26.227   2.371  1.00  0.00     0.210 HD
ENDBRANCH  17  32
BRANCH  13  34
HETATM   34  C21 UNL     1      22.017 -27.761   6.145  1.00  0.00     0.154 C 
HETATM   35  O5  UNL     1      22.548 -27.020   6.925  1.00  0.00    -0.295 OA
BRANCH  34  36
HETATM   36  C22 UNL     1      21.825 -29.165   6.656  1.00  0.00     0.242 C 
BRANCH  36  37
HETATM   37  O6  UNL     1      21.431 -29.958   5.591  1.00  0.00    -0.394 OA
ATOM     38  H6  UNL     1      20.572 -30.311   5.791  1.00  0.00     0.209 HD
ENDBRANCH  36  37
ENDBRANCH  34  36
ENDBRANCH  13  34
TORSDOF 11
ENDMDL
MODEL 3
REMARK VINA RESULT: -7.264234510      0.942      1.195
REMARK  11 active torsions:
REMARK  status: ('A' for Active; 'I' for Inactive)
REMARK    1  A    between atoms: C2_2  and  O2_4 
REMARK    2  A    between atoms: O2_4  and  C3_5 
REMARK    3  A    between atoms: C3_5  and  C4_6 
REMARK    4  A    between atoms: C4_6  and  C6_8 
REMARK    5  A    between atoms: C4_6  and  O4_12 
REMARK    6  A    between atoms: C6_8  and  C7_9 
REMARK    7  A    between atoms: O4_12  and  C8_13 
REMARK    8  A    between atoms: C20_25  and  C21_26 
REMARK    9  A    between atoms: C21_26  and  C22_28 
REMARK   10  A    between atoms: C22_28  and  O6_29 
REMARK   11  A    between atoms: C26_34  and  O7_35 
ROOT
HETATM    1  C8  UNL     1      16.895 -26.404  -1.601  1.00  0.00     0.123 C 
HETATM    2  C9  UNL     1      17.938 -27.486  -1.465  1.00  0.00     0.033 C 
HETATM    3  C10 UNL     1      18.259 -27.766   0.020  1.00  0.00     0.012 C 
HETATM    4  C11 UNL     1      19.176 -26.647   0.478  1.00  0.00    -0.034 C 
HETATM    5  C12 UNL     1      20.447 -26.867  -0.372  1.00  0.00     0.016 C 
HETATM    6  C13 UNL     1      18.559 -25.379  -0.024  1.00  0.00    -0.004 C 
HETATM    7  C14 UNL     1      18.695 -24.174   0.837  1.00  0.00     0.006 C 
HETATM    8  C15 UNL     1      19.979 -24.300   1.667  1.00  0.00     0.006 C 
HETATM    9  C16 UNL     1      19.667 -25.412   2.614  1.00  0.00    -0.003 C 
HETATM   10  C17 UNL     1      20.612 -25.554   3.742  1.00  0.00    -0.001 C 
HETATM   11  C18 UNL     1      22.053 -25.520   3.320  1.00  0.00     0.006 C 
HETATM   12  C19 UNL     1      22.734 -26.694   3.937  1.00  0.00     0.013 C 
HETATM   13  C20 UNL     1      21.663 -27.573   4.565  1.00  0.00     0.066 C 
HETATM   14  C23 UNL     1      20.398 -26.796   4.567  1.00  0.00    -0.027 C 
HETATM   15  C24 UNL     1      20.083 -26.277   5.958  1.00  0.00     0.016 C 
HETATM   16  C25 UNL     1      19.257 -27.663   4.170  1.00  0.00     0.042 C 
HETATM   17  C26 UNL     1      18.697 -27.552   2.803  1.00  0.00     0.124 C 
HETATM   18  C27 UNL     1      19.563 -26.716   1.886  1.00  0.00     0.027 C 
HETATM   19  C28 UNL     1      17.084 -25.528  -0.334  1.00  0.00     0.037 C 
ENDROOT
BRANCH   1  20
HETATM   20  O4  UNL     1      15.644 -26.969  -1.576  1.00  0.00    -0.373 OA
BRANCH  20  21
HETATM   21  C4  UNL     1      14.716 -26.364  -2.426  1.00  0.00     0.087 C 
HETATM   22  C5  UNL     1      15.474 -25.402  -3.299  1.00  0.00     0.049 C 
BRANCH  21  23
HETATM   23  C3  UNL     1      14.098 -27.416  -3.337  1.00  0.00     0.216 C 
BRANCH  23  24
HETATM   24  O2  UNL     1      14.820 -28.627  -3.230  1.00  0.00    -0.319 OA
BRANCH  24  25
HETATM   25  C2  UNL     1      15.518 -29.133  -4.321  1.00  0.00     0.254 C 
HETATM   26  C1  UNL     1      15.716 -30.550  -4.637  1.00  0.00     0.126 C 
HETATM   27  O1  UNL     1      16.022 -28.265  -5.099  1.00  0.00    -0.266 OA
ENDBRANCH  24  25
ENDBRANCH  23  24
ENDBRANCH  21  23
BRANCH  21  28
HETATM   28  C6  UNL     1      13.599 -25.678  -1.727  1.00  0.00     0.139 C 
BRANCH  28  29
HETATM   29  C7  UNL     1      12.531 -25.184  -2.617  1.00  0.00     0.234 C 
HETATM   30  N1  UNL     1      12.566 -23.837  -3.051  1.00  0.00    -0.062 NA
HETATM   31  O3  UNL     1      11.570 -25.917  -3.024  1.00  0.00    -0.277 OA
ENDBRANCH  28  29
ENDBRANCH  21  28
ENDBRANCH  20  21
ENDBRANCH   1  20
BRANCH  17  32
HETATM   32  O7  UNL     1      17.436 -26.928   2.937  1.00  0.00    -0.395 OA
ATOM     33  H7  UNL     1      17.322 -26.748   3.863  1.00  0.00     0.210 HD
ENDBRANCH  17  32
BRANCH  13  34
HETATM   34  C21 UNL     1      22.201 -28.077   5.818  1.00  0.00     0.154 C 
HETATM   35  O5  UNL     1      22.994 -27.491   6.501  1.00  0.00    -0.295 OA
BRANCH  34  36
HETATM   36  C22 UNL     1      21.785 -29.419   6.363  1.00  0.00     0.242 C 
BRANCH  36  37
HETATM   37  O6  UNL     1      21.243 -30.154   5.322  1.00  0.00    -0.394 OA
ATOM     38  H6  UNL     1      21.279 -31.072   5.561  1.00  0.00     0.209 HD
ENDBRANCH  36  37
ENDBRANCH  34  36
ENDBRANCH  13  34
TORSDOF 11
ENDMDL
MODEL 4
REMARK VINA RESULT: -6.964838930      1.314      1.643
REMARK  11 active torsions:
REMARK  status: ('A' for Active; 'I' for Inactive)
REMARK    1  A    between atoms: C2_2  and  O2_4 
REMARK    2  A    between atoms: O2_4  and  C3_5 
REMARK    3  A    between atoms: C3_5  and  C4_6 
REMARK    4  A    between atoms: C4_6  and  C6_8 
REMARK    5  A    between atoms: C4_6  and  O4_12 
REMARK    6  A    between atoms: C6_8  and  C7_9 
REMARK    7  A    between atoms: O4_12  and  C8_13 
REMARK    8  A    between atoms: C20_25  and  C21_26 
REMARK    9  A    between atoms: C21_26  and  C22_28 
REMARK   10  A    between atoms: C22_28  and  O6_29 
REMARK   11  A    between atoms: C26_34  and  O7_35 
ROOT
HETATM    1  C8  UNL     1      16.959 -27.208  -2.026  1.00  0.00     0.123 C 
HETATM    2  C9  UNL     1      18.059 -28.193  -1.710  1.00  0.00     0.033 C 
HETATM    3  C10 UNL     1      18.338 -28.246  -0.191  1.00  0.00     0.012 C 
HETATM    4  C11 UNL     1      19.168 -27.018   0.136  1.00  0.00    -0.034 C 
HETATM    5  C12 UNL     1      20.481 -27.270  -0.636  1.00  0.00     0.016 C 
HETATM    6  C13 UNL     1      18.496 -25.873  -0.556  1.00  0.00    -0.004 C 
HETATM    7  C14 UNL     1      18.526 -24.556   0.133  1.00  0.00     0.006 C 
HETATM    8  C15 UNL     1      19.781 -24.484   1.012  1.00  0.00     0.006 C 
HETATM    9  C16 UNL     1      19.500 -25.474   2.094  1.00  0.00    -0.003 C 
HETATM   10  C17 UNL     1      20.407 -25.400   3.259  1.00  0.00    -0.001 C 
HETATM   11  C18 UNL     1      21.858 -25.331   2.880  1.00  0.00     0.006 C 
HETATM   12  C19 UNL     1      22.583 -26.363   3.675  1.00  0.00     0.013 C 
HETATM   13  C20 UNL     1      21.544 -27.216   4.385  1.00  0.00     0.066 C 
HETATM   14  C23 UNL     1      20.235 -26.529   4.241  1.00  0.00    -0.027 C 
HETATM   15  C24 UNL     1      19.836 -25.846   5.536  1.00  0.00     0.016 C 
HETATM   16  C25 UNL     1      19.164 -27.514   3.933  1.00  0.00     0.042 C 
HETATM   17  C26 UNL     1      18.653 -27.627   2.548  1.00  0.00     0.124 C 
HETATM   18  C27 UNL     1      19.502 -26.869   1.550  1.00  0.00     0.027 C 
HETATM   19  C28 UNL     1      17.046 -26.158  -0.888  1.00  0.00     0.037 C 
ENDROOT
BRANCH   1  20
HETATM   20  O4  UNL     1      15.744 -27.845  -1.961  1.00  0.00    -0.373 OA
BRANCH  20  21
HETATM   21  C4  UNL     1      15.240 -28.262  -3.195  1.00  0.00     0.087 C 
HETATM   22  C5  UNL     1      16.242 -27.863  -4.242  1.00  0.00     0.049 C 
BRANCH  21  23
HETATM   23  C3  UNL     1      15.141 -29.781  -3.216  1.00  0.00     0.216 C 
BRANCH  23  24
HETATM   24  O2  UNL     1      15.792 -30.289  -4.364  1.00  0.00    -0.319 OA
BRANCH  24  25
HETATM   25  C2  UNL     1      15.433 -31.524  -4.891  1.00  0.00     0.254 C 
HETATM   26  C1  UNL     1      16.089 -32.804  -4.613  1.00  0.00     0.126 C 
HETATM   27  O1  UNL     1      14.442 -31.515  -5.685  1.00  0.00    -0.266 OA
ENDBRANCH  24  25
ENDBRANCH  23  24
ENDBRANCH  21  23
BRANCH  21  28
HETATM   28  C6  UNL     1      13.892 -27.729  -3.520  1.00  0.00     0.139 C 
BRANCH  28  29
HETATM   29  C7  UNL     1      13.024 -28.669  -4.254  1.00  0.00     0.234 C 
HETATM   30  N1  UNL     1      12.914 -28.549  -5.660  1.00  0.00    -0.062 NA
HETATM   31  O3  UNL     1      12.361 -29.597  -3.682  1.00  0.00    -0.277 OA
ENDBRANCH  28  29
ENDBRANCH  21  28
ENDBRANCH  20  21
ENDBRANCH   1  20
BRANCH  17  32
HETATM   32  O7  UNL     1      17.352 -27.073   2.556  1.00  0.00    -0.395 OA
ATOM     33  H7  UNL     1      17.437 -26.193   2.903  1.00  0.00     0.210 HD
ENDBRANCH  17  32
BRANCH  13  34
HETATM   34  C21 UNL     1      22.061 -27.508   5.712  1.00  0.00     0.154 C 
HETATM   35  O5  UNL     1      22.749 -26.763   6.352  1.00  0.00    -0.295 OA
BRANCH  34  36
HETATM   36  C22 UNL     1      21.760 -28.816   6.396  1.00  0.00     0.242 C 
BRANCH  36  37
HETATM   37  O6  UNL     1      21.490 -29.759   5.419  1.00  0.00    -0.394 OA
ATOM     38  H6  UNL     1      20.581 -29.660   5.159  1.00  0.00     0.209 HD
ENDBRANCH  36  37
ENDBRANCH  34  36
ENDBRANCH  13  34
TORSDOF 11
ENDMDL
MODEL 5
REMARK VINA RESULT: -6.796926515      1.515      2.914
REMARK  11 active torsions:
REMARK  status: ('A' for Active; 'I' for Inactive)
REMARK    1  A    between atoms: C2_2  and  O2_4 
REMARK    2  A    between atoms: O2_4  and  C3_5 
REMARK    3  A    between atoms: C3_5  and  C4_6 
REMARK    4  A    between atoms: C4_6  and  C6_8 
REMARK    5  A    between atoms: C4_6  and  O4_12 
REMARK    6  A    between atoms: C6_8  and  C7_9 
REMARK    7  A    between atoms: O4_12  and  C8_13 
REMARK    8  A    between atoms: C20_25  and  C21_26 
REMARK    9  A    between atoms: C21_26  and  C22_28 
REMARK   10  A    between atoms: C22_28  and  O6_29 
REMARK   11  A    between atoms: C26_34  and  O7_35 
ROOT
HETATM    1  C8  UNL     1      17.114 -26.299  -1.544  1.00  0.00     0.123 C 
HETATM    2  C9  UNL     1      18.135 -27.395  -1.351  1.00  0.00     0.033 C 
HETATM    3  C10 UNL     1      18.367 -27.679   0.150  1.00  0.00     0.012 C 
HETATM    4  C11 UNL     1      19.269 -26.571   0.662  1.00  0.00    -0.034 C 
HETATM    5  C12 UNL     1      20.584 -26.806  -0.114  1.00  0.00     0.016 C 
HETATM    6  C13 UNL     1      18.697 -25.295   0.127  1.00  0.00    -0.004 C 
HETATM    7  C14 UNL     1      18.797 -24.093   0.995  1.00  0.00     0.006 C 
HETATM    8  C15 UNL     1      20.030 -24.234   1.898  1.00  0.00     0.006 C 
HETATM    9  C16 UNL     1      19.652 -25.343   2.824  1.00  0.00    -0.003 C 
HETATM   10  C17 UNL     1      20.529 -25.496   4.004  1.00  0.00    -0.001 C 
HETATM   11  C18 UNL     1      21.992 -25.479   3.665  1.00  0.00     0.006 C 
HETATM   12  C19 UNL     1      22.622 -26.662   4.319  1.00  0.00     0.013 C 
HETATM   13  C20 UNL     1      21.507 -27.529   4.883  1.00  0.00     0.066 C 
HETATM   14  C23 UNL     1      20.253 -26.736   4.814  1.00  0.00    -0.027 C 
HETATM   15  C24 UNL     1      19.865 -26.214   6.185  1.00  0.00     0.016 C 
HETATM   16  C25 UNL     1      19.127 -27.590   4.351  1.00  0.00     0.042 C 
HETATM   17  C26 UNL     1      18.647 -27.471   2.955  1.00  0.00     0.124 C 
HETATM   18  C27 UNL     1      19.574 -26.645   2.089  1.00  0.00     0.027 C 
HETATM   19  C28 UNL     1      17.241 -25.427  -0.268  1.00  0.00     0.037 C 
ENDROOT
BRANCH   1  20
HETATM   20  O4  UNL     1      15.857 -26.850  -1.592  1.00  0.00    -0.373 OA
BRANCH  20  21
HETATM   21  C4  UNL     1      15.222 -26.742  -2.831  1.00  0.00     0.087 C 
HETATM   22  C5  UNL     1      13.969 -27.571  -2.762  1.00  0.00     0.049 C 
BRANCH  21  23
HETATM   23  C3  UNL     1      14.799 -25.298  -3.062  1.00  0.00     0.216 C 
BRANCH  23  24
HETATM   24  O2  UNL     1      13.789 -24.940  -2.139  1.00  0.00    -0.319 OA
BRANCH  24  25
HETATM   25  C2  UNL     1      12.561 -24.465  -2.585  1.00  0.00     0.254 C 
HETATM   26  C1  UNL     1      12.352 -23.456  -3.626  1.00  0.00     0.126 C 
HETATM   27  O1  UNL     1      11.541 -24.969  -2.021  1.00  0.00    -0.266 OA
ENDBRANCH  24  25
ENDBRANCH  23  24
ENDBRANCH  21  23
BRANCH  21  28
HETATM   28  C6  UNL     1      16.061 -27.145  -3.988  1.00  0.00     0.139 C 
BRANCH  28  29
HETATM   29  C7  UNL     1      15.982 -28.577  -4.333  1.00  0.00     0.234 C 
HETATM   30  N1  UNL     1      16.638 -29.521  -3.507  1.00  0.00    -0.062 NA
HETATM   31  O3  UNL     1      15.343 -29.014  -5.347  1.00  0.00    -0.277 OA
ENDBRANCH  28  29
ENDBRANCH  21  28
ENDBRANCH  20  21
ENDBRANCH   1  20
BRANCH  17  32
HETATM   32  O7  UNL     1      17.388 -26.833   3.017  1.00  0.00    -0.395 OA
ATOM     33  H7  UNL     1      17.562 -25.899   3.052  1.00  0.00     0.210 HD
ENDBRANCH  17  32
BRANCH  13  34
HETATM   34  C21 UNL     1      21.966 -28.039   6.164  1.00  0.00     0.154 C 
HETATM   35  O5  UNL     1      22.577 -27.397   6.972  1.00  0.00    -0.295 OA
BRANCH  34  36
HETATM   36  C22 UNL     1      21.699 -29.463   6.578  1.00  0.00     0.242 C 
BRANCH  36  37
HETATM   37  O6  UNL     1      21.133 -30.123   5.500  1.00  0.00    -0.394 OA
ATOM     38  H6  UNL     1      20.340 -30.552   5.802  1.00  0.00     0.209 HD
ENDBRANCH  36  37
ENDBRANCH  34  36
ENDBRANCH  13  34
TORSDOF 11
ENDMDL
