MODEL 1
REMARK VINA RESULT: -8.006808355      0.000      0.000
REMARK  9 active torsions:
REMARK  status: ('A' for Active; 'I' for Inactive)
REMARK    1  A    between atoms: C2_2  and  O1_3 
REMARK    2  A    between atoms: O1_3  and  N1_4 
REMARK    3  A    between atoms: C3_6  and  C5_8 
REMARK    4  A    between atoms: C8_11  and  C9_12 
REMARK    5  A    between atoms: C9_12  and  O2_13 
REMARK    6  A    between atoms: O2_13  and  C10_14 
REMARK    7  A    between atoms: C10_14  and  N2_15 
REMARK    8  A    between atoms: C13_18  and  C14_19 
REMARK    9  A    between atoms: C18_23  and  N3_24 
REMARK       I    between atoms: N3_24  and  C19_26 
ROOT
HETATM    1  N2  UNL     1      21.315  -8.429   7.782  1.00  0.00    -0.345 N 
HETATM    2  C11 UNL     1      21.812  -7.639   6.808  1.00  0.00     0.093 A 
HETATM    3  C12 UNL     1      22.657  -6.565   7.047  1.00  0.00     0.031 A 
HETATM    4  C13 UNL     1      23.020  -6.269   8.331  1.00  0.00    -0.007 A 
HETATM    5  C20 UNL     1      22.504  -7.084   9.312  1.00  0.00     0.031 A 
HETATM    6  C21 UNL     1      21.667  -8.145   9.041  1.00  0.00     0.093 A 
ENDROOT
BRANCH   1   7
HETATM    7  C10 UNL     1      20.410  -9.526   7.460  1.00  0.00     0.297 C 
BRANCH   7   8
HETATM    8  O2  UNL     1      19.208  -9.370   8.053  1.00  0.00    -0.367 OA
BRANCH   8   9
HETATM    9  C9  UNL     1      18.427  -8.332   7.605  1.00  0.00     0.208 C 
BRANCH   9  10
HETATM   10  C8  UNL     1      17.864  -7.651   8.793  1.00  0.00    -0.035 A 
HETATM   11  C7  UNL     1      17.043  -6.569   8.670  1.00  0.00     0.010 A 
HETATM   12  C6  UNL     1      16.522  -5.938   9.806  1.00  0.00     0.014 A 
HETATM   13  C5  UNL     1      16.808  -6.372  11.063  1.00  0.00    -0.012 A 
HETATM   14  C23 UNL     1      17.642  -7.471  11.173  1.00  0.00     0.014 A 
HETATM   15  C22 UNL     1      18.168  -8.107  10.044  1.00  0.00     0.010 A 
BRANCH  13  16
HETATM   16  C3  UNL     1      16.288  -5.750  12.291  1.00  0.00     0.038 C 
HETATM   17  N1  UNL     1      15.399  -4.869  12.366  1.00  0.00    -0.271 N 
ATOM     18  H1  UNL     1      15.204  -4.591  13.328  1.00  0.00     0.194 HD
HETATM   19  C4  UNL     1      16.899  -6.231  13.590  1.00  0.00     0.071 C 
BRANCH  17  20
HETATM   20  O1  UNL     1      14.652  -4.217  11.486  1.00  0.00    -0.281 OA
BRANCH  20  21
HETATM   21  C2  UNL     1      14.751  -2.866  11.151  1.00  0.00     0.196 C 
HETATM   22  C1  UNL     1      14.693  -2.682   9.660  1.00  0.00     0.036 C 
ENDBRANCH  20  21
ENDBRANCH  17  20
ENDBRANCH  13  16
ENDBRANCH   9  10
ENDBRANCH   8   9
ENDBRANCH   7   8
ENDBRANCH   1   7
BRANCH   4  23
HETATM   23  C14 UNL     1      23.912  -5.151   8.683  1.00  0.00     0.044 A 
HETATM   24  C15 UNL     1      24.029  -4.775  10.014  1.00  0.00     0.030 A 
HETATM   25  C16 UNL     1      24.871  -3.715  10.374  1.00  0.00     0.006 A 
HETATM   26  C17 UNL     1      25.577  -3.054   9.393  1.00  0.00     0.049 A 
HETATM   27  C18 UNL     1      25.454  -3.434   8.080  1.00  0.00     0.109 A 
HETATM   28  N5  UNL     1      24.626  -4.462   7.802  1.00  0.00    -0.342 N 
ATOM     29  H5  UNL     1      24.541  -4.735   6.823  1.00  0.00     0.167 HD
BRANCH  27  30
HETATM   30  N3  UNL     1      26.119  -2.807   7.185  1.00  0.00    -0.297 N 
HETATM   31  C19 UNL     1      26.457  -3.454   5.970  1.00  0.00     0.334 C 
HETATM   32  N4  UNL     1      25.769  -3.226   4.754  1.00  0.00    -0.040 NA
HETATM   33  O3  UNL     1      27.419  -4.293   5.906  1.00  0.00    -0.251 OA
ATOM     34  H3  UNL     1      26.406  -1.840   7.346  1.00  0.00     0.171 HD
ENDBRANCH  27  30
ENDBRANCH   4  23
TORSDOF 9
ENDMDL
MODEL 2
REMARK VINA RESULT: -7.997853024      4.778      8.775
REMARK  9 active torsions:
REMARK  status: ('A' for Active; 'I' for Inactive)
REMARK    1  A    between atoms: C2_2  and  O1_3 
REMARK    2  A    between atoms: O1_3  and  N1_4 
REMARK    3  A    between atoms: C3_6  and  C5_8 
REMARK    4  A    between atoms: C8_11  and  C9_12 
REMARK    5  A    between atoms: C9_12  and  O2_13 
REMARK    6  A    between atoms: O2_13  and  C10_14 
REMARK    7  A    between atoms: C10_14  and  N2_15 
REMARK    8  A    between atoms: C13_18  and  C14_19 
REMARK    9  A    between atoms: C18_23  and  N3_24 
REMARK       I    between atoms: N3_24  and  C19_26 
ROOT
HETATM    1  N2  UNL     1      25.378  -4.495   8.150  1.00  0.00    -0.345 N 
HETATM    2  C11 UNL     1      24.030  -4.528   8.202  1.00  0.00     0.093 A 
HETATM    3  C12 UNL     1      23.303  -5.659   8.540  1.00  0.00     0.031 A 
HETATM    4  C13 UNL     1      23.962  -6.819   8.840  1.00  0.00    -0.007 A 
HETATM    5  C20 UNL     1      25.335  -6.768   8.781  1.00  0.00     0.031 A 
HETATM    6  C21 UNL     1      26.030  -5.627   8.443  1.00  0.00     0.093 A 
ENDROOT
BRANCH   1   7
HETATM    7  C10 UNL     1      26.078  -3.278   7.761  1.00  0.00     0.297 C 
BRANCH   7   8
HETATM    8  O2  UNL     1      26.902  -3.490   6.715  1.00  0.00    -0.367 OA
BRANCH   8   9
HETATM    9  C9  UNL     1      26.348  -3.397   5.461  1.00  0.00     0.208 C 
BRANCH   9  10
HETATM   10  C8  UNL     1      25.945  -4.760   5.048  1.00  0.00    -0.035 A 
HETATM   11  C7  UNL     1      26.854  -5.773   4.954  1.00  0.00     0.010 A 
HETATM   12  C6  UNL     1      26.454  -7.055   4.562  1.00  0.00     0.014 A 
HETATM   13  C5  UNL     1      25.158  -7.342   4.261  1.00  0.00    -0.012 A 
HETATM   14  C23 UNL     1      24.247  -6.305   4.360  1.00  0.00     0.014 A 
HETATM   15  C22 UNL     1      24.638  -5.021   4.751  1.00  0.00     0.010 A 
BRANCH  13  16
HETATM   16  C3  UNL     1      24.680  -8.670   3.844  1.00  0.00     0.038 C 
HETATM   17  N1  UNL     1      24.006  -9.473   4.532  1.00  0.00    -0.271 N 
ATOM     18  H1  UNL     1      23.791 -10.334   4.029  1.00  0.00     0.194 HD
HETATM   19  C4  UNL     1      25.045  -9.097   2.438  1.00  0.00     0.071 C 
BRANCH  17  20
HETATM   20  O1  UNL     1      23.509  -9.464   5.761  1.00  0.00    -0.281 OA
BRANCH  20  21
HETATM   21  C2  UNL     1      22.164  -9.573   6.115  1.00  0.00     0.196 C 
HETATM   22  C1  UNL     1      21.454  -8.263   5.915  1.00  0.00     0.036 C 
ENDBRANCH  20  21
ENDBRANCH  17  20
ENDBRANCH  13  16
ENDBRANCH   9  10
ENDBRANCH   8   9
ENDBRANCH   7   8
ENDBRANCH   1   7
BRANCH   4  23
HETATM   23  C14 UNL     1      23.276  -8.068   9.209  1.00  0.00     0.044 A 
HETATM   24  C15 UNL     1      21.947  -8.017   9.602  1.00  0.00     0.030 A 
HETATM   25  C16 UNL     1      21.273  -9.193   9.958  1.00  0.00     0.006 A 
HETATM   26  C17 UNL     1      21.946 -10.394   9.913  1.00  0.00     0.049 A 
HETATM   27  C18 UNL     1      23.261 -10.433   9.522  1.00  0.00     0.109 A 
HETATM   28  N5  UNL     1      23.850  -9.266   9.193  1.00  0.00    -0.342 N 
ATOM     29  H5  UNL     1      24.828  -9.306   8.906  1.00  0.00     0.167 HD
BRANCH  27  30
HETATM   30  N3  UNL     1      23.867 -11.559   9.487  1.00  0.00    -0.297 N 
HETATM   31  C19 UNL     1      24.222 -12.134   8.240  1.00  0.00     0.334 C 
HETATM   32  N4  UNL     1      25.537 -12.097   7.718  1.00  0.00    -0.040 NA
HETATM   33  O3  UNL     1      23.359 -12.728   7.509  1.00  0.00    -0.251 OA
ATOM     34  H3  UNL     1      24.095 -12.043  10.356  1.00  0.00     0.171 HD
ENDBRANCH  27  30
ENDBRANCH   4  23
TORSDOF 9
ENDMDL
MODEL 3
REMARK VINA RESULT: -7.959936985      0.842      2.006
REMARK  9 active torsions:
REMARK  status: ('A' for Active; 'I' for Inactive)
REMARK    1  A    between atoms: C2_2  and  O1_3 
REMARK    2  A    between atoms: O1_3  and  N1_4 
REMARK    3  A    between atoms: C3_6  and  C5_8 
REMARK    4  A    between atoms: C8_11  and  C9_12 
REMARK    5  A    between atoms: C9_12  and  O2_13 
REMARK    6  A    between atoms: O2_13  and  C10_14 
REMARK    7  A    between atoms: C10_14  and  N2_15 
REMARK    8  A    between atoms: C13_18  and  C14_19 
REMARK    9  A    between atoms: C18_23  and  N3_24 
REMARK       I    between atoms: N3_24  and  C19_26 
ROOT
HETATM    1  N2  UNL     1      21.321  -8.466   7.851  1.00  0.00    -0.345 N 
HETATM    2  C11 UNL     1      21.840  -7.721   6.853  1.00  0.00     0.093 A 
HETATM    3  C12 UNL     1      22.693  -6.647   7.060  1.00  0.00     0.031 A 
HETATM    4  C13 UNL     1      23.043  -6.302   8.335  1.00  0.00    -0.007 A 
HETATM    5  C20 UNL     1      22.506  -7.072   9.341  1.00  0.00     0.031 A 
HETATM    6  C21 UNL     1      21.661  -8.134   9.103  1.00  0.00     0.093 A 
ENDROOT
BRANCH   1   7
HETATM    7  C10 UNL     1      20.409  -9.565   7.562  1.00  0.00     0.297 C 
BRANCH   7   8
HETATM    8  O2  UNL     1      19.175  -9.330   8.053  1.00  0.00    -0.367 OA
BRANCH   8   9
HETATM    9  C9  UNL     1      18.430  -8.364   7.421  1.00  0.00     0.208 C 
BRANCH   9  10
HETATM   10  C8  UNL     1      17.772  -7.551   8.467  1.00  0.00    -0.035 A 
HETATM   11  C7  UNL     1      17.975  -7.798   9.793  1.00  0.00     0.010 A 
HETATM   12  C6  UNL     1      17.343  -7.017  10.768  1.00  0.00     0.014 A 
HETATM   13  C5  UNL     1      16.510  -5.993  10.439  1.00  0.00    -0.012 A 
HETATM   14  C23 UNL     1      16.314  -5.753   9.090  1.00  0.00     0.014 A 
HETATM   15  C22 UNL     1      16.941  -6.528   8.110  1.00  0.00     0.010 A 
BRANCH  13  16
HETATM   16  C3  UNL     1      15.820  -5.140  11.419  1.00  0.00     0.038 C 
HETATM   17  N1  UNL     1      15.780  -5.307  12.661  1.00  0.00    -0.271 N 
ATOM     18  H1  UNL     1      15.240  -4.584  13.137  1.00  0.00     0.194 HD
HETATM   19  C4  UNL     1      15.088  -3.939  10.858  1.00  0.00     0.071 C 
BRANCH  17  20
HETATM   20  O1  UNL     1      16.278  -6.206  13.500  1.00  0.00    -0.281 OA
BRANCH  20  21
HETATM   21  C2  UNL     1      17.347  -6.023  14.377  1.00  0.00     0.196 C 
HETATM   22  C1  UNL     1      16.968  -5.088  15.491  1.00  0.00     0.036 C 
ENDBRANCH  20  21
ENDBRANCH  17  20
ENDBRANCH  13  16
ENDBRANCH   9  10
ENDBRANCH   8   9
ENDBRANCH   7   8
ENDBRANCH   1   7
BRANCH   4  23
HETATM   23  C14 UNL     1      23.941  -5.180   8.654  1.00  0.00     0.044 A 
HETATM   24  C15 UNL     1      24.068  -4.771   9.974  1.00  0.00     0.030 A 
HETATM   25  C16 UNL     1      24.917  -3.705  10.301  1.00  0.00     0.006 A 
HETATM   26  C17 UNL     1      25.621  -3.074   9.300  1.00  0.00     0.049 A 
HETATM   27  C18 UNL     1      25.489  -3.487   7.998  1.00  0.00     0.109 A 
HETATM   28  N5  UNL     1      24.655  -4.517   7.751  1.00  0.00    -0.342 N 
ATOM     29  H5  UNL     1      24.563  -4.815   6.780  1.00  0.00     0.167 HD
BRANCH  27  30
HETATM   30  N3  UNL     1      26.152  -2.886   7.084  1.00  0.00    -0.297 N 
HETATM   31  C19 UNL     1      26.361  -3.516   5.830  1.00  0.00     0.334 C 
HETATM   32  N4  UNL     1      25.625  -3.187   4.667  1.00  0.00    -0.040 NA
HETATM   33  O3  UNL     1      27.241  -4.431   5.682  1.00  0.00    -0.251 OA
ATOM     34  H3  UNL     1      26.530  -1.954   7.256  1.00  0.00     0.171 HD
ENDBRANCH  27  30
ENDBRANCH   4  23
TORSDOF 9
ENDMDL
MODEL 4
REMARK VINA RESULT: -7.876650061      1.075      2.424
REMARK  9 active torsions:
REMARK  status: ('A' for Active; 'I' for Inactive)
REMARK    1  A    between atoms: C2_2  and  O1_3 
REMARK    2  A    between atoms: O1_3  and  N1_4 
REMARK    3  A    between atoms: C3_6  and  C5_8 
REMARK    4  A    between atoms: C8_11  and  C9_12 
REMARK    5  A    between atoms: C9_12  and  O2_13 
REMARK    6  A    between atoms: O2_13  and  C10_14 
REMARK    7  A    between atoms: C10_14  and  N2_15 
REMARK    8  A    between atoms: C13_18  and  C14_19 
REMARK    9  A    between atoms: C18_23  and  N3_24 
REMARK       I    between atoms: N3_24  and  C19_26 
ROOT
HETATM    1  N2  UNL     1      21.328  -8.391   7.438  1.00  0.00    -0.345 N 
HETATM    2  C11 UNL     1      21.621  -8.193   8.740  1.00  0.00     0.093 A 
HETATM    3  C12 UNL     1      22.441  -7.171   9.195  1.00  0.00     0.031 A 
HETATM    4  C13 UNL     1      22.998  -6.304   8.296  1.00  0.00    -0.007 A 
HETATM    5  C20 UNL     1      22.689  -6.521   6.973  1.00  0.00     0.031 A 
HETATM    6  C21 UNL     1      21.869  -7.545   6.552  1.00  0.00     0.093 A 
ENDROOT
BRANCH   1   7
HETATM    7  C10 UNL     1      20.479  -9.502   7.027  1.00  0.00     0.297 C 
BRANCH   7   8
HETATM    8  O2  UNL     1      19.252  -9.423   7.584  1.00  0.00    -0.367 OA
BRANCH   8   9
HETATM    9  C9  UNL     1      18.429  -8.422   7.129  1.00  0.00     0.208 C 
BRANCH   9  10
HETATM   10  C8  UNL     1      17.866  -7.734   8.313  1.00  0.00    -0.035 A 
HETATM   11  C7  UNL     1      18.079  -8.203   9.576  1.00  0.00     0.010 A 
HETATM   12  C6  UNL     1      17.538  -7.539  10.683  1.00  0.00     0.014 A 
HETATM   13  C5  UNL     1      16.786  -6.413  10.548  1.00  0.00    -0.012 A 
HETATM   14  C23 UNL     1      16.578  -5.948   9.261  1.00  0.00     0.014 A 
HETATM   15  C22 UNL     1      17.115  -6.605   8.150  1.00  0.00     0.010 A 
BRANCH  13  16
HETATM   16  C3  UNL     1      16.193  -5.674  11.673  1.00  0.00     0.038 C 
HETATM   17  N1  UNL     1      16.539  -5.738  12.877  1.00  0.00    -0.271 N 
ATOM     18  H1  UNL     1      15.980  -5.131  13.478  1.00  0.00     0.194 HD
HETATM   19  C4  UNL     1      15.049  -4.743  11.330  1.00  0.00     0.071 C 
BRANCH  17  20
HETATM   20  O1  UNL     1      17.462  -6.411  13.550  1.00  0.00    -0.281 OA
BRANCH  20  21
HETATM   21  C2  UNL     1      17.247  -7.500  14.395  1.00  0.00     0.196 C 
HETATM   22  C1  UNL     1      18.267  -8.576  14.147  1.00  0.00     0.036 C 
ENDBRANCH  20  21
ENDBRANCH  17  20
ENDBRANCH  13  16
ENDBRANCH   9  10
ENDBRANCH   8   9
ENDBRANCH   7   8
ENDBRANCH   1   7
BRANCH   4  23
HETATM   23  C14 UNL     1      23.880  -5.191   8.684  1.00  0.00     0.044 A 
HETATM   24  C15 UNL     1      23.977  -4.842  10.024  1.00  0.00     0.030 A 
HETATM   25  C16 UNL     1      24.810  -3.787  10.417  1.00  0.00     0.006 A 
HETATM   26  C17 UNL     1      25.527  -3.103   9.460  1.00  0.00     0.049 A 
HETATM   27  C18 UNL     1      25.425  -3.457   8.138  1.00  0.00     0.109 A 
HETATM   28  N5  UNL     1      24.605  -4.481   7.827  1.00  0.00    -0.342 N 
ATOM     29  H5  UNL     1      24.534  -4.735   6.842  1.00  0.00     0.167 HD
BRANCH  27  30
HETATM   30  N3  UNL     1      26.100  -2.809   7.266  1.00  0.00    -0.297 N 
HETATM   31  C19 UNL     1      26.446  -3.426   6.037  1.00  0.00     0.334 C 
HETATM   32  N4  UNL     1      25.770  -3.163   4.822  1.00  0.00    -0.040 NA
HETATM   33  O3  UNL     1      27.405  -4.267   5.959  1.00  0.00    -0.251 OA
ATOM     34  H3  UNL     1      26.389  -1.849   7.455  1.00  0.00     0.171 HD
ENDBRANCH  27  30
ENDBRANCH   4  23
TORSDOF 9
ENDMDL
MODEL 5
REMARK VINA RESULT: -7.839274580      2.208      3.080
REMARK  9 active torsions:
REMARK  status: ('A' for Active; 'I' for Inactive)
REMARK    1  A    between atoms: C2_2  and  O1_3 
REMARK    2  A    between atoms: O1_3  and  N1_4 
REMARK    3  A    between atoms: C3_6  and  C5_8 
REMARK    4  A    between atoms: C8_11  and  C9_12 
REMARK    5  A    between atoms: C9_12  and  O2_13 
REMARK    6  A    between atoms: O2_13  and  C10_14 
REMARK    7  A    between atoms: C10_14  and  N2_15 
REMARK    8  A    between atoms: C13_18  and  C14_19 
REMARK    9  A    between atoms: C18_23  and  N3_24 
REMARK       I    between atoms: N3_24  and  C19_26 
ROOT
HETATM    1  N2  UNL     1      21.767  -8.173   7.721  1.00  0.00    -0.345 N 
HETATM    2  C11 UNL     1      22.363  -7.823   8.879  1.00  0.00     0.093 A 
HETATM    3  C12 UNL     1      23.209  -6.731   9.009  1.00  0.00     0.031 A 
HETATM    4  C13 UNL     1      23.470  -5.950   7.918  1.00  0.00    -0.007 A 
HETATM    5  C20 UNL     1      22.853  -6.320   6.745  1.00  0.00     0.031 A 
HETATM    6  C21 UNL     1      22.018  -7.411   6.649  1.00  0.00     0.093 A 
ENDROOT
BRANCH   1   7
HETATM    7  C10 UNL     1      20.911  -9.350   7.651  1.00  0.00     0.297 C 
BRANCH   7   8
HETATM    8  O2  UNL     1      19.946  -9.320   8.593  1.00  0.00    -0.367 OA
BRANCH   8   9
HETATM    9  C9  UNL     1      19.141  -8.207   8.621  1.00  0.00     0.208 C 
BRANCH   9  10
HETATM   10  C8  UNL     1      18.737  -7.982  10.027  1.00  0.00    -0.035 A 
HETATM   11  C7  UNL     1      19.526  -8.382  11.066  1.00  0.00     0.010 A 
HETATM   12  C6  UNL     1      19.127  -8.160  12.389  1.00  0.00     0.014 A 
HETATM   13  C5  UNL     1      17.951  -7.546  12.691  1.00  0.00    -0.012 A 
HETATM   14  C23 UNL     1      17.161  -7.146  11.628  1.00  0.00     0.014 A 
HETATM   15  C22 UNL     1      17.552  -7.363  10.303  1.00  0.00     0.010 A 
BRANCH  13  16
HETATM   16  C3  UNL     1      17.481  -7.286  14.061  1.00  0.00     0.038 C 
HETATM   17  N1  UNL     1      17.070  -8.137  14.886  1.00  0.00    -0.271 N 
ATOM     18  H1  UNL     1      16.797  -7.719  15.776  1.00  0.00     0.194 HD
HETATM   19  C4  UNL     1      17.501  -5.840  14.509  1.00  0.00     0.071 C 
BRANCH  17  20
HETATM   20  O1  UNL     1      16.909  -9.453  14.870  1.00  0.00    -0.281 OA
BRANCH  20  21
HETATM   21  C2  UNL     1      15.730 -10.143  14.587  1.00  0.00     0.196 C 
HETATM   22  C1  UNL     1      15.540 -10.284  13.102  1.00  0.00     0.036 C 
ENDBRANCH  20  21
ENDBRANCH  17  20
ENDBRANCH  13  16
ENDBRANCH   9  10
ENDBRANCH   8   9
ENDBRANCH   7   8
ENDBRANCH   1   7
BRANCH   4  23
HETATM   23  C14 UNL     1      24.352  -4.771   7.958  1.00  0.00     0.044 A 
HETATM   24  C15 UNL     1      24.444  -4.037   9.131  1.00  0.00     0.030 A 
HETATM   25  C16 UNL     1      25.277  -2.912   9.194  1.00  0.00     0.006 A 
HETATM   26  C17 UNL     1      25.999  -2.548   8.079  1.00  0.00     0.049 A 
HETATM   27  C18 UNL     1      25.902  -3.281   6.924  1.00  0.00     0.109 A 
HETATM   28  N5  UNL     1      25.081  -4.352   6.931  1.00  0.00    -0.342 N 
ATOM     29  H5  UNL     1      25.015  -4.889   6.066  1.00  0.00     0.167 HD
BRANCH  27  30
HETATM   30  N3  UNL     1      26.582  -2.925   5.901  1.00  0.00    -0.297 N 
HETATM   31  C19 UNL     1      27.298  -3.895   5.153  1.00  0.00     0.334 C 
HETATM   32  N4  UNL     1      26.843  -4.409   3.916  1.00  0.00    -0.040 NA
HETATM   33  O3  UNL     1      28.413  -4.364   5.565  1.00  0.00    -0.251 OA
ATOM     34  H3  UNL     1      26.609  -1.944   5.622  1.00  0.00     0.171 HD
ENDBRANCH  27  30
ENDBRANCH   4  23
TORSDOF 9
ENDMDL
