MODEL 1
REMARK VINA RESULT: -6.747322104      0.000      0.000
REMARK  14 active torsions:
REMARK  status: ('A' for Active; 'I' for Inactive)
REMARK    1  A    between atoms: N1_1  and  C1_4 
REMARK    2  A    between atoms: C2_7  and  C3_8 
REMARK    3  A    between atoms: C3_8  and  C4_9 
REMARK    4  A    between atoms: C4_9  and  C5_10 
REMARK    5  A    between atoms: C5_10  and  C6_11 
REMARK    6  A    between atoms: C6_11  and  C7_12 
REMARK    7  A    between atoms: C7_12  and  C8_13 
REMARK    8  A    between atoms: C8_13  and  N3_14 
REMARK    9  A    between atoms: N3_14  and  C9_17 
REMARK   10  A    between atoms: C10_19  and  C11_20 
REMARK   11  A    between atoms: C11_20  and  O2_21 
REMARK   12  A    between atoms: C12_23  and  O3_24 
REMARK   13  A    between atoms: C13_26  and  O4_27 
REMARK   14  A    between atoms: C14_31  and  N5_32 
ROOT
HETATM    1  C5  UNL     1      11.994  20.415  17.199  1.00  0.00     0.000 C 
ENDROOT
BRANCH   1   2
HETATM    2  C4  UNL     1      12.656  21.713  16.914  1.00  0.00     0.007 C 
BRANCH   2   3
HETATM    3  C3  UNL     1      13.509  21.652  15.660  1.00  0.00     0.077 C 
BRANCH   3   4
HETATM    4  C2  UNL     1      13.051  22.597  14.622  1.00  0.00     0.113 A 
HETATM    5  N2  UNL     1      13.656  22.580  13.425  1.00  0.00    -0.180 N 
HETATM    6  C1  UNL     1      13.277  23.408  12.439  1.00  0.00     0.691 A 
ATOM      7  H2  UNL     1      14.419  21.923  13.261  1.00  0.00     0.185 HD
HETATM    8  N6  UNL     1      12.273  24.259  12.680  1.00  0.00    -0.023 N 
HETATM    9  C14 UNL     1      11.678  24.270  13.867  1.00  0.00     0.691 A 
ATOM     10  H6  UNL     1      11.963  24.900  11.951  1.00  0.00     0.203 HD
HETATM   11  N4  UNL     1      12.042  23.451  14.866  1.00  0.00    -0.180 N 
ATOM     12  H4  UNL     1      11.573  23.475  15.771  1.00  0.00     0.185 HD
BRANCH   6  13
HETATM   13  N1  UNL     1      13.846  23.399  11.291  1.00  0.00    -0.234 N 
ATOM     14  H12 UNL     1      14.788  23.019  11.193  1.00  0.00     0.174 HD
ATOM     15  H11 UNL     1      13.386  23.765  10.458  1.00  0.00     0.174 HD
ENDBRANCH   6  13
BRANCH   9  16
HETATM   16  N5  UNL     1      10.711  25.116  14.042  1.00  0.00    -0.234 N 
ATOM     17  H52 UNL     1      10.892  25.916  14.648  1.00  0.00     0.174 HD
ATOM     18  H51 UNL     1       9.814  24.967  13.581  1.00  0.00     0.174 HD
ENDBRANCH   9  16
ENDBRANCH   3   4
ENDBRANCH   2   3
ENDBRANCH   1   2
BRANCH   1  19
HETATM   19  C6  UNL     1      10.535  20.630  17.508  1.00  0.00     0.002 C 
BRANCH  19  20
HETATM   20  C7  UNL     1       9.793  20.968  16.261  1.00  0.00     0.027 C 
BRANCH  20  21
HETATM   21  C8  UNL     1       9.972  19.904  15.185  1.00  0.00     0.235 C 
BRANCH  21  22
HETATM   22  N3  UNL     1      10.257  20.473  13.899  1.00  0.00    -0.046 N 
ATOM     23  H32 UNL     1      11.134  20.994  13.892  1.00  0.00     0.280 HD
ATOM     24  H31 UNL     1      10.506  19.764  13.208  1.00  0.00     0.280 HD
BRANCH  22  25
HETATM   25  C9  UNL     1       9.152  21.268  13.484  1.00  0.00     0.353 C 
HETATM   26  O1  UNL     1       9.473  22.448  12.844  1.00  0.00    -0.347 OA
HETATM   27  C10 UNL     1       8.185  22.930  12.544  1.00  0.00     0.179 C 
HETATM   28  C12 UNL     1       7.642  21.765  11.744  1.00  0.00     0.182 C 
HETATM   29  C13 UNL     1       8.212  20.591  12.525  1.00  0.00     0.205 C 
BRANCH  27  30
HETATM   30  C11 UNL     1       8.216  24.174  11.699  1.00  0.00     0.198 C 
BRANCH  30  31
HETATM   31  O2  UNL     1       9.562  24.377  11.350  1.00  0.00    -0.398 OA
ATOM     32  H2  UNL     1       9.824  25.188  11.768  1.00  0.00     0.209 HD
ENDBRANCH  30  31
ENDBRANCH  27  30
BRANCH  28  33
HETATM   33  O3  UNL     1       6.248  21.781  11.777  1.00  0.00    -0.390 OA
ATOM     34  H3  UNL     1       5.905  21.539  10.925  1.00  0.00     0.210 HD
ENDBRANCH  28  33
BRANCH  29  35
HETATM   35  O4  UNL     1       8.821  19.670  11.698  1.00  0.00    -0.388 OA
ATOM     36  H4  UNL     1       9.673  19.942  11.377  1.00  0.00     0.210 HD
ENDBRANCH  29  35
ENDBRANCH  22  25
ENDBRANCH  21  22
ENDBRANCH  20  21
ENDBRANCH  19  20
ENDBRANCH   1  19
TORSDOF 14
ENDMDL
MODEL 2
REMARK VINA RESULT: -6.681887658      1.388      2.410
REMARK  14 active torsions:
REMARK  status: ('A' for Active; 'I' for Inactive)
REMARK    1  A    between atoms: N1_1  and  C1_4 
REMARK    2  A    between atoms: C2_7  and  C3_8 
REMARK    3  A    between atoms: C3_8  and  C4_9 
REMARK    4  A    between atoms: C4_9  and  C5_10 
REMARK    5  A    between atoms: C5_10  and  C6_11 
REMARK    6  A    between atoms: C6_11  and  C7_12 
REMARK    7  A    between atoms: C7_12  and  C8_13 
REMARK    8  A    between atoms: C8_13  and  N3_14 
REMARK    9  A    between atoms: N3_14  and  C9_17 
REMARK   10  A    between atoms: C10_19  and  C11_20 
REMARK   11  A    between atoms: C11_20  and  O2_21 
REMARK   12  A    between atoms: C12_23  and  O3_24 
REMARK   13  A    between atoms: C13_26  and  O4_27 
REMARK   14  A    between atoms: C14_31  and  N5_32 
ROOT
HETATM    1  C5  UNL     1      11.979  20.219  17.460  1.00  0.00     0.000 C 
ENDROOT
BRANCH   1   2
HETATM    2  C4  UNL     1      11.490  21.227  18.435  1.00  0.00     0.007 C 
BRANCH   2   3
HETATM    3  C3  UNL     1      12.077  22.601  18.173  1.00  0.00     0.077 C 
BRANCH   3   4
HETATM    4  C2  UNL     1      11.625  23.170  16.887  1.00  0.00     0.113 A 
HETATM    5  N2  UNL     1      10.333  23.505  16.752  1.00  0.00    -0.180 N 
HETATM    6  C1  UNL     1       9.864  24.035  15.611  1.00  0.00     0.691 A 
ATOM      7  H2  UNL     1       9.693  23.353  17.532  1.00  0.00     0.185 HD
HETATM    8  N6  UNL     1      10.724  24.223  14.603  1.00  0.00    -0.023 N 
HETATM    9  C14 UNL     1      12.002  23.890  14.745  1.00  0.00     0.691 A 
ATOM     10  H6  UNL     1      10.398  24.623  13.724  1.00  0.00     0.203 HD
HETATM   11  N4  UNL     1      12.490  23.359  15.876  1.00  0.00    -0.180 N 
ATOM     12  H4  UNL     1      13.474  23.109  15.965  1.00  0.00     0.185 HD
BRANCH   6  13
HETATM   13  N1  UNL     1       8.634  24.359  15.470  1.00  0.00    -0.234 N 
ATOM     14  H12 UNL     1       8.026  23.802  14.870  1.00  0.00     0.174 HD
ATOM     15  H11 UNL     1       8.231  25.168  15.944  1.00  0.00     0.174 HD
ENDBRANCH   6  13
BRANCH   9  16
HETATM   16  N5  UNL     1      12.787  24.096  13.734  1.00  0.00    -0.234 N 
ATOM     17  H52 UNL     1      13.355  24.942  13.747  1.00  0.00     0.174 HD
ATOM     18  H51 UNL     1      12.819  23.425  12.967  1.00  0.00     0.174 HD
ENDBRANCH   9  16
ENDBRANCH   3   4
ENDBRANCH   2   3
ENDBRANCH   1   2
BRANCH   1  19
HETATM   19  C6  UNL     1      10.862  19.285  17.073  1.00  0.00     0.002 C 
BRANCH  19  20
HETATM   20  C7  UNL     1       9.814  20.026  16.317  1.00  0.00     0.027 C 
BRANCH  20  21
HETATM   21  C8  UNL     1       9.706  19.549  14.873  1.00  0.00     0.235 C 
BRANCH  21  22
HETATM   22  N3  UNL     1      10.100  20.560  13.935  1.00  0.00    -0.046 N 
ATOM     23  H32 UNL     1      10.764  21.223  14.336  1.00  0.00     0.280 HD
ATOM     24  H31 UNL     1      10.695  20.190  13.193  1.00  0.00     0.280 HD
BRANCH  22  25
HETATM   25  C9  UNL     1       8.937  21.203  13.425  1.00  0.00     0.353 C 
HETATM   26  O1  UNL     1       9.153  22.400  12.773  1.00  0.00    -0.347 OA
HETATM   27  C10 UNL     1       7.840  22.712  12.375  1.00  0.00     0.179 C 
HETATM   28  C12 UNL     1       7.500  21.472  11.575  1.00  0.00     0.182 C 
HETATM   29  C13 UNL     1       8.155  20.395  12.426  1.00  0.00     0.205 C 
BRANCH  27  30
HETATM   30  C11 UNL     1       7.776  23.932  11.498  1.00  0.00     0.198 C 
BRANCH  30  31
HETATM   31  O2  UNL     1       6.513  23.904  10.881  1.00  0.00    -0.398 OA
ATOM     32  H2  UNL     1       5.970  24.516  11.363  1.00  0.00     0.209 HD
ENDBRANCH  30  31
ENDBRANCH  27  30
BRANCH  28  33
HETATM   33  O3  UNL     1       6.116  21.315  11.516  1.00  0.00    -0.390 OA
ATOM     34  H3  UNL     1       5.800  21.586  10.663  1.00  0.00     0.210 HD
ENDBRANCH  28  33
BRANCH  29  35
HETATM   35  O4  UNL     1       8.929  19.539  11.669  1.00  0.00    -0.388 OA
ATOM     36  H4  UNL     1       9.388  18.881  12.178  1.00  0.00     0.210 HD
ENDBRANCH  29  35
ENDBRANCH  22  25
ENDBRANCH  21  22
ENDBRANCH  20  21
ENDBRANCH  19  20
ENDBRANCH   1  19
TORSDOF 14
ENDMDL
MODEL 3
REMARK VINA RESULT: -6.397686835      1.295      1.665
REMARK  14 active torsions:
REMARK  status: ('A' for Active; 'I' for Inactive)
REMARK    1  A    between atoms: N1_1  and  C1_4 
REMARK    2  A    between atoms: C2_7  and  C3_8 
REMARK    3  A    between atoms: C3_8  and  C4_9 
REMARK    4  A    between atoms: C4_9  and  C5_10 
REMARK    5  A    between atoms: C5_10  and  C6_11 
REMARK    6  A    between atoms: C6_11  and  C7_12 
REMARK    7  A    between atoms: C7_12  and  C8_13 
REMARK    8  A    between atoms: C8_13  and  N3_14 
REMARK    9  A    between atoms: N3_14  and  C9_17 
REMARK   10  A    between atoms: C10_19  and  C11_20 
REMARK   11  A    between atoms: C11_20  and  O2_21 
REMARK   12  A    between atoms: C12_23  and  O3_24 
REMARK   13  A    between atoms: C13_26  and  O4_27 
REMARK   14  A    between atoms: C14_31  and  N5_32 
ROOT
HETATM    1  C5  UNL     1      11.526  20.989  17.556  1.00  0.00     0.000 C 
ENDROOT
BRANCH   1   2
HETATM    2  C4  UNL     1      12.418  21.333  16.419  1.00  0.00     0.007 C 
BRANCH   2   3
HETATM    3  C3  UNL     1      11.936  22.563  15.672  1.00  0.00     0.077 C 
BRANCH   3   4
HETATM    4  C2  UNL     1      12.976  23.128  14.788  1.00  0.00     0.113 A 
HETATM    5  N2  UNL     1      12.814  23.028  13.461  1.00  0.00    -0.180 N 
HETATM    6  C1  UNL     1      13.719  23.530  12.607  1.00  0.00     0.691 A 
ATOM      7  H2  UNL     1      11.985  22.560  13.092  1.00  0.00     0.185 HD
HETATM    8  N6  UNL     1      14.798  24.138  13.116  1.00  0.00    -0.023 N 
HETATM    9  C14 UNL     1      14.950  24.234  14.432  1.00  0.00     0.691 A 
ATOM     10  H6  UNL     1      15.503  24.529  12.493  1.00  0.00     0.203 HD
HETATM   11  N4  UNL     1      14.057  23.738  15.302  1.00  0.00    -0.180 N 
ATOM     12  H4  UNL     1      14.193  23.822  16.309  1.00  0.00     0.185 HD
BRANCH   6  13
HETATM   13  N1  UNL     1      13.575  23.442  11.337  1.00  0.00    -0.234 N 
ATOM     14  H12 UNL     1      13.784  22.564  10.861  1.00  0.00     0.174 HD
ATOM     15  H11 UNL     1      13.254  24.229  10.774  1.00  0.00     0.174 HD
ENDBRANCH   6  13
BRANCH   9  16
HETATM   16  N5  UNL     1      16.014  24.834  14.866  1.00  0.00    -0.234 N 
ATOM     17  H52 UNL     1      15.887  25.573  15.557  1.00  0.00     0.174 HD
ATOM     18  H51 UNL     1      16.933  24.562  14.516  1.00  0.00     0.174 HD
ENDBRANCH   9  16
ENDBRANCH   3   4
ENDBRANCH   2   3
ENDBRANCH   1   2
BRANCH   1  19
HETATM   19  C6  UNL     1      10.225  20.426  17.045  1.00  0.00     0.002 C 
BRANCH  19  20
HETATM   20  C7  UNL     1      10.482  19.211  16.222  1.00  0.00     0.027 C 
BRANCH  20  21
HETATM   21  C8  UNL     1       9.614  19.179  14.968  1.00  0.00     0.235 C 
BRANCH  21  22
HETATM   22  N3  UNL     1      10.121  20.035  13.934  1.00  0.00    -0.046 N 
ATOM     23  H32 UNL     1      10.986  20.502  14.207  1.00  0.00     0.280 HD
ATOM     24  H31 UNL     1      10.486  19.509  13.139  1.00  0.00     0.280 HD
BRANCH  22  25
HETATM   25  C9  UNL     1       9.106  20.957  13.551  1.00  0.00     0.353 C 
HETATM   26  O1  UNL     1       9.553  22.167  13.058  1.00  0.00    -0.347 OA
HETATM   27  C10 UNL     1       8.326  22.781  12.747  1.00  0.00     0.179 C 
HETATM   28  C12 UNL     1       7.744  21.753  11.800  1.00  0.00     0.182 C 
HETATM   29  C13 UNL     1       8.176  20.462  12.478  1.00  0.00     0.205 C 
BRANCH  27  30
HETATM   30  C11 UNL     1       8.501  24.098  12.043  1.00  0.00     0.198 C 
BRANCH  30  31
HETATM   31  O2  UNL     1       7.512  24.144  11.045  1.00  0.00    -0.398 OA
ATOM     32  H2  UNL     1       6.884  24.799  11.326  1.00  0.00     0.209 HD
ENDBRANCH  30  31
ENDBRANCH  27  30
BRANCH  28  33
HETATM   33  O3  UNL     1       6.355  21.879  11.764  1.00  0.00    -0.390 OA
ATOM     34  H3  UNL     1       5.953  21.089  12.104  1.00  0.00     0.210 HD
ENDBRANCH  28  33
BRANCH  29  35
HETATM   35  O4  UNL     1       8.760  19.584  11.590  1.00  0.00    -0.388 OA
ATOM     36  H4  UNL     1       9.709  19.634  11.564  1.00  0.00     0.210 HD
ENDBRANCH  29  35
ENDBRANCH  22  25
ENDBRANCH  21  22
ENDBRANCH  20  21
ENDBRANCH  19  20
ENDBRANCH   1  19
TORSDOF 14
ENDMDL
MODEL 4
REMARK VINA RESULT: -6.344537117      3.812      5.240
REMARK  14 active torsions:
REMARK  status: ('A' for Active; 'I' for Inactive)
REMARK    1  A    between atoms: N1_1  and  C1_4 
REMARK    2  A    between atoms: C2_7  and  C3_8 
REMARK    3  A    between atoms: C3_8  and  C4_9 
REMARK    4  A    between atoms: C4_9  and  C5_10 
REMARK    5  A    between atoms: C5_10  and  C6_11 
REMARK    6  A    between atoms: C6_11  and  C7_12 
REMARK    7  A    between atoms: C7_12  and  C8_13 
REMARK    8  A    between atoms: C8_13  and  N3_14 
REMARK    9  A    between atoms: N3_14  and  C9_17 
REMARK   10  A    between atoms: C10_19  and  C11_20 
REMARK   11  A    between atoms: C11_20  and  O2_21 
REMARK   12  A    between atoms: C12_23  and  O3_24 
REMARK   13  A    between atoms: C13_26  and  O4_27 
REMARK   14  A    between atoms: C14_31  and  N5_32 
ROOT
HETATM    1  C5  UNL     1      10.866  18.170  16.845  1.00  0.00     0.000 C 
ENDROOT
BRANCH   1   2
HETATM    2  C4  UNL     1      11.326  19.010  17.980  1.00  0.00     0.007 C 
BRANCH   2   3
HETATM    3  C3  UNL     1      12.187  18.226  18.954  1.00  0.00     0.077 C 
BRANCH   3   4
HETATM    4  C2  UNL     1      13.066  19.100  19.757  1.00  0.00     0.113 A 
HETATM    5  N2  UNL     1      13.630  18.599  20.866  1.00  0.00    -0.180 N 
HETATM    6  C1  UNL     1      14.446  19.342  21.631  1.00  0.00     0.691 A 
ATOM      7  H2  UNL     1      13.436  17.634  21.133  1.00  0.00     0.185 HD
HETATM    8  N6  UNL     1      14.684  20.605  21.258  1.00  0.00    -0.023 N 
HETATM    9  C14 UNL     1      14.122  21.093  20.159  1.00  0.00     0.691 A 
ATOM     10  H6  UNL     1      15.299  21.194  21.820  1.00  0.00     0.203 HD
HETATM   11  N4  UNL     1      13.305  20.368  19.381  1.00  0.00    -0.180 N 
ATOM     12  H4  UNL     1      12.883  20.761  18.540  1.00  0.00     0.185 HD
BRANCH   6  13
HETATM   13  N1  UNL     1      14.991  18.875  22.692  1.00  0.00    -0.234 N 
ATOM     14  H12 UNL     1      15.078  19.462  23.521  1.00  0.00     0.174 HD
ATOM     15  H11 UNL     1      15.349  17.921  22.739  1.00  0.00     0.174 HD
ENDBRANCH   6  13
BRANCH   9  16
HETATM   16  N5  UNL     1      14.391  22.323  19.848  1.00  0.00    -0.234 N 
ATOM     17  H52 UNL     1      14.273  22.596  18.873  1.00  0.00     0.174 HD
ATOM     18  H51 UNL     1      14.707  22.974  20.567  1.00  0.00     0.174 HD
ENDBRANCH   9  16
ENDBRANCH   3   4
ENDBRANCH   2   3
ENDBRANCH   1   2
BRANCH   1  19
HETATM   19  C6  UNL     1      10.131  19.014  15.837  1.00  0.00     0.002 C 
BRANCH  19  20
HETATM   20  C7  UNL     1      10.110  20.437  16.279  1.00  0.00     0.027 C 
BRANCH  20  21
HETATM   21  C8  UNL     1      10.633  21.377  15.199  1.00  0.00     0.235 C 
BRANCH  21  22
HETATM   22  N3  UNL     1      10.321  20.915  13.877  1.00  0.00    -0.046 N 
ATOM     23  H32 UNL     1      11.090  21.064  13.223  1.00  0.00     0.280 HD
ATOM     24  H31 UNL     1      10.281  19.897  13.822  1.00  0.00     0.280 HD
BRANCH  22  25
HETATM   25  C9  UNL     1       9.113  21.528  13.440  1.00  0.00     0.353 C 
HETATM   26  O1  UNL     1       9.263  22.668  12.678  1.00  0.00    -0.347 OA
HETATM   27  C10 UNL     1       7.916  22.961  12.394  1.00  0.00     0.179 C 
HETATM   28  C12 UNL     1       7.494  21.666  11.732  1.00  0.00     0.182 C 
HETATM   29  C13 UNL     1       8.231  20.652  12.593  1.00  0.00     0.205 C 
BRANCH  27  30
HETATM   30  C11 UNL     1       7.765  24.110  11.435  1.00  0.00     0.198 C 
BRANCH  30  31
HETATM   31  O2  UNL     1       6.559  23.890  10.748  1.00  0.00    -0.398 OA
ATOM     32  H2  UNL     1       6.654  23.053  10.309  1.00  0.00     0.209 HD
ENDBRANCH  30  31
ENDBRANCH  27  30
BRANCH  28  33
HETATM   33  O3  UNL     1       6.111  21.519  11.827  1.00  0.00    -0.390 OA
ATOM     34  H3  UNL     1       5.681  22.261  11.420  1.00  0.00     0.210 HD
ENDBRANCH  28  33
BRANCH  29  35
HETATM   35  O4  UNL     1       8.921  19.733  11.829  1.00  0.00    -0.388 OA
ATOM     36  H4  UNL     1       8.402  19.337  11.138  1.00  0.00     0.210 HD
ENDBRANCH  29  35
ENDBRANCH  22  25
ENDBRANCH  21  22
ENDBRANCH  20  21
ENDBRANCH  19  20
ENDBRANCH   1  19
TORSDOF 14
ENDMDL
MODEL 5
REMARK VINA RESULT: -6.166245062      4.703      5.917
REMARK  14 active torsions:
REMARK  status: ('A' for Active; 'I' for Inactive)
REMARK    1  A    between atoms: N1_1  and  C1_4 
REMARK    2  A    between atoms: C2_7  and  C3_8 
REMARK    3  A    between atoms: C3_8  and  C4_9 
REMARK    4  A    between atoms: C4_9  and  C5_10 
REMARK    5  A    between atoms: C5_10  and  C6_11 
REMARK    6  A    between atoms: C6_11  and  C7_12 
REMARK    7  A    between atoms: C7_12  and  C8_13 
REMARK    8  A    between atoms: C8_13  and  N3_14 
REMARK    9  A    between atoms: N3_14  and  C9_17 
REMARK   10  A    between atoms: C10_19  and  C11_20 
REMARK   11  A    between atoms: C11_20  and  O2_21 
REMARK   12  A    between atoms: C12_23  and  O3_24 
REMARK   13  A    between atoms: C13_26  and  O4_27 
REMARK   14  A    between atoms: C14_31  and  N5_32 
ROOT
HETATM    1  C5  UNL     1      11.505  19.091  18.144  1.00  0.00     0.000 C 
ENDROOT
BRANCH   1   2
HETATM    2  C4  UNL     1      12.746  19.227  18.948  1.00  0.00     0.007 C 
BRANCH   2   3
HETATM    3  C3  UNL     1      13.492  17.911  19.067  1.00  0.00     0.077 C 
BRANCH   3   4
HETATM    4  C2  UNL     1      14.756  18.047  19.817  1.00  0.00     0.113 A 
HETATM    5  N2  UNL     1      15.813  18.598  19.202  1.00  0.00    -0.180 N 
HETATM    6  C1  UNL     1      16.986  18.757  19.836  1.00  0.00     0.691 A 
ATOM      7  H2  UNL     1      15.723  18.903  18.232  1.00  0.00     0.185 HD
HETATM    8  N6  UNL     1      17.076  18.348  21.107  1.00  0.00    -0.023 N 
HETATM    9  C14 UNL     1      16.026  17.804  21.709  1.00  0.00     0.691 A 
ATOM     10  H6  UNL     1      17.954  18.455  21.614  1.00  0.00     0.203 HD
HETATM   11  N4  UNL     1      14.846  17.636  21.094  1.00  0.00    -0.180 N 
ATOM     12  H4  UNL     1      14.051  17.215  21.574  1.00  0.00     0.185 HD
BRANCH   6  13
HETATM   13  N1  UNL     1      18.001  19.283  19.259  1.00  0.00    -0.234 N 
ATOM     14  H12 UNL     1      18.753  18.689  18.911  1.00  0.00     0.174 HD
ATOM     15  H11 UNL     1      18.087  20.292  19.132  1.00  0.00     0.174 HD
ENDBRANCH   6  13
BRANCH   9  16
HETATM   16  N5  UNL     1      16.174  17.428  22.941  1.00  0.00    -0.234 N 
ATOM     17  H52 UNL     1      16.384  18.151  23.630  1.00  0.00     0.174 HD
ATOM     18  H51 UNL     1      16.081  16.443  23.189  1.00  0.00     0.174 HD
ENDBRANCH   9  16
ENDBRANCH   3   4
ENDBRANCH   2   3
ENDBRANCH   1   2
BRANCH   1  19
HETATM   19  C6  UNL     1      11.516  20.070  16.999  1.00  0.00     0.002 C 
BRANCH  19  20
HETATM   20  C7  UNL     1      10.126  20.313  16.519  1.00  0.00     0.027 C 
BRANCH  20  21
HETATM   21  C8  UNL     1       9.850  19.612  15.194  1.00  0.00     0.235 C 
BRANCH  21  22
HETATM   22  N3  UNL     1      10.259  20.399  14.066  1.00  0.00    -0.046 N 
ATOM     23  H32 UNL     1      11.068  20.984  14.275  1.00  0.00     0.280 HD
ATOM     24  H31 UNL     1      10.677  19.832  13.329  1.00  0.00     0.280 HD
BRANCH  22  25
HETATM   25  C9  UNL     1       9.149  21.159  13.599  1.00  0.00     0.353 C 
HETATM   26  O1  UNL     1       9.462  22.337  12.952  1.00  0.00    -0.347 OA
HETATM   27  C10 UNL     1       8.173  22.780  12.599  1.00  0.00     0.179 C 
HETATM   28  C12 UNL     1       7.690  21.590  11.799  1.00  0.00     0.182 C 
HETATM   29  C13 UNL     1       8.262  20.443  12.618  1.00  0.00     0.205 C 
BRANCH  27  30
HETATM   30  C11 UNL     1       8.202  24.012  11.736  1.00  0.00     0.198 C 
BRANCH  30  31
HETATM   31  O2  UNL     1       7.017  23.988  10.981  1.00  0.00    -0.398 OA
ATOM     32  H2  UNL     1       6.385  24.506  11.466  1.00  0.00     0.209 HD
ENDBRANCH  30  31
ENDBRANCH  27  30
BRANCH  28  33
HETATM   33  O3  UNL     1       6.296  21.569  11.782  1.00  0.00    -0.390 OA
ATOM     34  H3  UNL     1       5.979  20.886  12.362  1.00  0.00     0.210 HD
ENDBRANCH  28  33
BRANCH  29  35
HETATM   35  O4  UNL     1       8.924  19.526  11.829  1.00  0.00    -0.388 OA
ATOM     36  H4  UNL     1       9.806  19.786  11.591  1.00  0.00     0.210 HD
ENDBRANCH  29  35
ENDBRANCH  22  25
ENDBRANCH  21  22
ENDBRANCH  20  21
ENDBRANCH  19  20
ENDBRANCH   1  19
TORSDOF 14
ENDMDL
