MODEL 1
REMARK VINA RESULT: -7.112536528      0.000      0.000
REMARK  5 active torsions:
REMARK  status: ('A' for Active; 'I' for Inactive)
REMARK    1  A    between atoms: O1_1  and  C1_3 
REMARK    2  A    between atoms: C1_3  and  N1_4 
REMARK    3  A    between atoms: C1_3  and  C6_9 
REMARK    4  A    between atoms: C10_13  and  O2_14 
REMARK    5  A    between atoms: C12_17  and  O3_18 
ROOT
HETATM    1  C6  UNL     1      12.066   6.009  10.059  1.00  0.00     0.030 C 
HETATM    2  C7  UNL     1      13.223   6.153   9.053  1.00  0.00     0.023 C 
HETATM    3  C8  UNL     1      14.371   6.877   9.655  1.00  0.00    -0.008 C 
HETATM    4  C9  UNL     1      14.833   6.068  10.856  1.00  0.00     0.042 C 
HETATM    5  C10 UNL     1      13.748   6.068  11.877  1.00  0.00     0.062 C 
HETATM    6  C11 UNL     1      13.277   7.463  12.249  1.00  0.00     0.075 C 
HETATM    7  C12 UNL     1      12.773   8.161  11.024  1.00  0.00     0.062 C 
HETATM    8  C13 UNL     1      13.899   8.263  10.040  1.00  0.00     0.042 C 
HETATM    9  C14 UNL     1      11.592   7.411  10.440  1.00  0.00     0.056 C 
HETATM   10  C15 UNL     1      12.531   5.339  11.322  1.00  0.00     0.056 C 
ENDROOT
BRANCH   1  11
HETATM   11  C1  UNL     1      11.046   5.233   9.328  1.00  0.00     0.122 C 
BRANCH  11  12
HETATM   12  O1  UNL     1      10.013   4.781   9.977  1.00  0.00    -0.349 OA
ATOM     13  H1  UNL     1       9.877   5.164  10.836  1.00  0.00     0.219 HD
ENDBRANCH  11  12
BRANCH  11  14
HETATM   14  N1  UNL     1      11.073   4.921   7.966  1.00  0.00    -0.365 N 
HETATM   15  C2  UNL     1      10.490   5.849   6.960  1.00  0.00     0.124 C 
HETATM   16  C3  UNL     1      11.214   5.438   5.673  1.00  0.00     0.021 C 
HETATM   17  C4  UNL     1      11.159   3.939   5.857  1.00  0.00     0.021 C 
HETATM   18  C5  UNL     1      11.615   3.798   7.292  1.00  0.00     0.124 C 
ENDBRANCH  11  14
ENDBRANCH   1  11
BRANCH   7  19
HETATM   19  O3  UNL     1      12.314   9.438  11.356  1.00  0.00    -0.390 OA
ATOM     20  H3  UNL     1      12.425  10.025  10.617  1.00  0.00     0.210 HD
ENDBRANCH   7  19
BRANCH   5  21
HETATM   21  O2  UNL     1      14.184   5.386  13.007  1.00  0.00    -0.390 OA
ATOM     22  H2  UNL     1      15.025   5.737  13.278  1.00  0.00     0.210 HD
ENDBRANCH   5  21
TORSDOF 5
ENDMDL
MODEL 2
REMARK VINA RESULT: -7.100014052      2.614      5.655
REMARK  5 active torsions:
REMARK  status: ('A' for Active; 'I' for Inactive)
REMARK    1  A    between atoms: O1_1  and  C1_3 
REMARK    2  A    between atoms: C1_3  and  N1_4 
REMARK    3  A    between atoms: C1_3  and  C6_9 
REMARK    4  A    between atoms: C10_13  and  O2_14 
REMARK    5  A    between atoms: C12_17  and  O3_18 
ROOT
HETATM    1  C6  UNL     1      13.286   8.126  11.084  1.00  0.00     0.030 C 
HETATM    2  C7  UNL     1      14.328   7.891   9.973  1.00  0.00     0.023 C 
HETATM    3  C8  UNL     1      14.340   6.471   9.541  1.00  0.00    -0.008 C 
HETATM    4  C9  UNL     1      12.951   6.147   9.018  1.00  0.00     0.042 C 
HETATM    5  C10 UNL     1      11.983   6.239  10.148  1.00  0.00     0.062 C 
HETATM    6  C11 UNL     1      12.378   5.390  11.344  1.00  0.00     0.075 C 
HETATM    7  C12 UNL     1      13.724   5.823  11.837  1.00  0.00     0.062 C 
HETATM    8  C13 UNL     1      14.720   5.622  10.736  1.00  0.00     0.042 C 
HETATM    9  C14 UNL     1      13.678   7.270  12.288  1.00  0.00     0.056 C 
HETATM   10  C15 UNL     1      11.920   7.677  10.645  1.00  0.00     0.056 C 
ENDROOT
BRANCH   1  11
HETATM   11  C1  UNL     1      13.366   9.574  11.354  1.00  0.00     0.122 C 
BRANCH  11  12
HETATM   12  O1  UNL     1      12.274  10.280  11.335  1.00  0.00    -0.349 OA
ATOM     13  H1  UNL     1      11.831  10.361  12.172  1.00  0.00     0.219 HD
ENDBRANCH  11  12
BRANCH  11  14
HETATM   14  N1  UNL     1      14.531  10.292  11.638  1.00  0.00    -0.365 N 
HETATM   15  C2  UNL     1      14.631  11.742  11.319  1.00  0.00     0.124 C 
HETATM   16  C3  UNL     1      15.742  12.213  12.264  1.00  0.00     0.021 C 
HETATM   17  C4  UNL     1      16.687  11.045  12.093  1.00  0.00     0.021 C 
HETATM   18  C5  UNL     1      15.743   9.873  12.244  1.00  0.00     0.124 C 
ENDBRANCH  11  14
ENDBRANCH   1  11
BRANCH   7  19
HETATM   19  O3  UNL     1      14.090   5.066  12.954  1.00  0.00    -0.390 OA
ATOM     20  H3  UNL     1      14.481   5.628  13.613  1.00  0.00     0.210 HD
ENDBRANCH   7  19
BRANCH   5  21
HETATM   21  O2  UNL     1      10.718   5.880   9.696  1.00  0.00    -0.390 OA
ATOM     22  H2  UNL     1      10.762   5.019   9.297  1.00  0.00     0.210 HD
ENDBRANCH   5  21
TORSDOF 5
ENDMDL
MODEL 3
REMARK VINA RESULT: -6.901570554      0.960      2.543
REMARK  5 active torsions:
REMARK  status: ('A' for Active; 'I' for Inactive)
REMARK    1  A    between atoms: O1_1  and  C1_3 
REMARK    2  A    between atoms: C1_3  and  N1_4 
REMARK    3  A    between atoms: C1_3  and  C6_9 
REMARK    4  A    between atoms: C10_13  and  O2_14 
REMARK    5  A    between atoms: C12_17  and  O3_18 
ROOT
HETATM    1  C6  UNL     1      11.939   6.172  10.039  1.00  0.00     0.030 C 
HETATM    2  C7  UNL     1      11.713   5.858  11.531  1.00  0.00     0.023 C 
HETATM    3  C8  UNL     1      12.565   6.712  12.395  1.00  0.00    -0.008 C 
HETATM    4  C9  UNL     1      12.189   8.157  12.112  1.00  0.00     0.042 C 
HETATM    5  C10 UNL     1      12.554   8.478  10.704  1.00  0.00     0.062 C 
HETATM    6  C11 UNL     1      14.005   8.170  10.377  1.00  0.00     0.075 C 
HETATM    7  C12 UNL     1      14.270   6.716  10.615  1.00  0.00     0.062 C 
HETATM    8  C13 UNL     1      14.013   6.417  12.060  1.00  0.00     0.042 C 
HETATM    9  C14 UNL     1      13.400   5.868   9.709  1.00  0.00     0.056 C 
HETATM   10  C15 UNL     1      11.714   7.631   9.756  1.00  0.00     0.056 C 
ENDROOT
BRANCH   1  11
HETATM   11  C1  UNL     1      10.991   5.287   9.335  1.00  0.00     0.122 C 
BRANCH  11  12
HETATM   12  O1  UNL     1       9.998   4.773   9.999  1.00  0.00    -0.349 OA
ATOM     13  H1  UNL     1      10.216   4.450  10.866  1.00  0.00     0.219 HD
ENDBRANCH  11  12
BRANCH  11  14
HETATM   14  N1  UNL     1      11.050   4.932   7.985  1.00  0.00    -0.365 N 
HETATM   15  C2  UNL     1      10.461   5.810   6.939  1.00  0.00     0.124 C 
HETATM   16  C3  UNL     1      11.218   5.376   5.678  1.00  0.00     0.021 C 
HETATM   17  C4  UNL     1      11.196   3.882   5.912  1.00  0.00     0.021 C 
HETATM   18  C5  UNL     1      11.632   3.801   7.358  1.00  0.00     0.124 C 
ENDBRANCH  11  14
ENDBRANCH   1  11
BRANCH   7  19
HETATM   19  O3  UNL     1      15.597   6.413  10.296  1.00  0.00    -0.390 OA
ATOM     20  H3  UNL     1      15.915   5.717  10.858  1.00  0.00     0.210 HD
ENDBRANCH   7  19
BRANCH   5  21
HETATM   21  O2  UNL     1      12.274   9.817  10.454  1.00  0.00    -0.390 OA
ATOM     22  H2  UNL     1      12.855  10.135   9.773  1.00  0.00     0.210 HD
ENDBRANCH   5  21
TORSDOF 5
ENDMDL
MODEL 4
REMARK VINA RESULT: -6.895055230      1.193      1.812
REMARK  5 active torsions:
REMARK  status: ('A' for Active; 'I' for Inactive)
REMARK    1  A    between atoms: O1_1  and  C1_3 
REMARK    2  A    between atoms: C1_3  and  N1_4 
REMARK    3  A    between atoms: C1_3  and  C6_9 
REMARK    4  A    between atoms: C10_13  and  O2_14 
REMARK    5  A    between atoms: C12_17  and  O3_18 
ROOT
HETATM    1  C6  UNL     1      11.913   5.862  10.220  1.00  0.00     0.030 C 
HETATM    2  C7  UNL     1      11.911   7.284   9.626  1.00  0.00     0.023 C 
HETATM    3  C8  UNL     1      12.860   8.168  10.348  1.00  0.00    -0.008 C 
HETATM    4  C9  UNL     1      14.243   7.556  10.207  1.00  0.00     0.042 C 
HETATM    5  C10 UNL     1      14.260   6.246  10.916  1.00  0.00     0.062 C 
HETATM    6  C11 UNL     1      13.801   6.342  12.361  1.00  0.00     0.075 C 
HETATM    7  C12 UNL     1      12.406   6.886  12.404  1.00  0.00     0.062 C 
HETATM    8  C13 UNL     1      12.412   8.254  11.793  1.00  0.00     0.042 C 
HETATM    9  C14 UNL     1      11.456   5.956  11.675  1.00  0.00     0.056 C 
HETATM   10  C15 UNL     1      13.301   5.284  10.226  1.00  0.00     0.056 C 
ENDROOT
BRANCH   1  11
HETATM   11  C1  UNL     1      10.972   5.113   9.366  1.00  0.00     0.122 C 
BRANCH  11  12
HETATM   12  O1  UNL     1       9.981   4.481   9.924  1.00  0.00    -0.349 OA
ATOM     13  H1  UNL     1       9.198   4.406   9.391  1.00  0.00     0.219 HD
ENDBRANCH  11  12
BRANCH  11  14
HETATM   14  N1  UNL     1      11.034   5.006   7.974  1.00  0.00    -0.365 N 
HETATM   15  C2  UNL     1      11.733   3.863   7.327  1.00  0.00     0.124 C 
HETATM   16  C3  UNL     1      11.091   3.829   5.935  1.00  0.00     0.021 C 
HETATM   17  C4  UNL     1      11.066   5.316   5.666  1.00  0.00     0.021 C 
HETATM   18  C5  UNL     1      10.496   5.844   6.964  1.00  0.00     0.124 C 
ENDBRANCH  11  14
ENDBRANCH   1  11
BRANCH   7  19
HETATM   19  O3  UNL     1      11.962   6.958  13.726  1.00  0.00    -0.390 OA
ATOM     20  H3  UNL     1      11.749   6.089  14.045  1.00  0.00     0.210 HD
ENDBRANCH   7  19
BRANCH   5  21
HETATM   21  O2  UNL     1      15.539   5.706  10.849  1.00  0.00    -0.390 OA
ATOM     22  H2  UNL     1      15.619   5.013  11.493  1.00  0.00     0.210 HD
ENDBRANCH   5  21
TORSDOF 5
ENDMDL
MODEL 5
REMARK VINA RESULT: -6.777508598      2.818      5.656
REMARK  5 active torsions:
REMARK  status: ('A' for Active; 'I' for Inactive)
REMARK    1  A    between atoms: O1_1  and  C1_3 
REMARK    2  A    between atoms: C1_3  and  N1_4 
REMARK    3  A    between atoms: C1_3  and  C6_9 
REMARK    4  A    between atoms: C10_13  and  O2_14 
REMARK    5  A    between atoms: C12_17  and  O3_18 
ROOT
HETATM    1  C6  UNL     1      14.088   7.105  10.968  1.00  0.00     0.030 C 
HETATM    2  C7  UNL     1      13.508   6.708  12.339  1.00  0.00     0.023 C 
HETATM    3  C8  UNL     1      12.123   6.188  12.206  1.00  0.00    -0.008 C 
HETATM    4  C9  UNL     1      12.185   4.968  11.302  1.00  0.00     0.042 C 
HETATM    5  C10 UNL     1      12.609   5.404   9.941  1.00  0.00     0.062 C 
HETATM    6  C11 UNL     1      11.745   6.517   9.374  1.00  0.00     0.075 C 
HETATM    7  C12 UNL     1      11.799   7.702  10.288  1.00  0.00     0.062 C 
HETATM    8  C13 UNL     1      11.264   7.293  11.626  1.00  0.00     0.042 C 
HETATM    9  C14 UNL     1      13.219   8.222  10.392  1.00  0.00     0.056 C 
HETATM   10  C15 UNL     1      14.028   5.953  10.004  1.00  0.00     0.056 C 
ENDROOT
BRANCH   1  11
HETATM   11  C1  UNL     1      15.465   7.542  11.271  1.00  0.00     0.122 C 
BRANCH  11  12
HETATM   12  O1  UNL     1      16.447   6.712  11.074  1.00  0.00    -0.349 OA
ATOM     13  H1  UNL     1      16.934   6.471  11.853  1.00  0.00     0.219 HD
ENDBRANCH  11  12
BRANCH  11  14
HETATM   14  N1  UNL     1      15.837   8.795  11.765  1.00  0.00    -0.365 N 
HETATM   15  C2  UNL     1      16.923   8.926  12.773  1.00  0.00     0.124 C 
HETATM   16  C3  UNL     1      17.368  10.382  12.592  1.00  0.00     0.021 C 
HETATM   17  C4  UNL     1      16.002  11.014  12.450  1.00  0.00     0.021 C 
HETATM   18  C5  UNL     1      15.347  10.088  11.449  1.00  0.00     0.124 C 
ENDBRANCH  11  14
ENDBRANCH   1  11
BRANCH   7  19
HETATM   19  O3  UNL     1      11.027   8.743   9.766  1.00  0.00    -0.390 OA
ATOM     20  H3  UNL     1      11.529   9.550   9.765  1.00  0.00     0.210 HD
ENDBRANCH   7  19
BRANCH   5  21
HETATM   21  O2  UNL     1      12.606   4.305   9.089  1.00  0.00    -0.390 OA
ATOM     22  H2  UNL     1      11.837   3.776   9.266  1.00  0.00     0.210 HD
ENDBRANCH   5  21
TORSDOF 5
ENDMDL
