MODEL 1
REMARK VINA RESULT: -7.930236528      0.000      0.000
REMARK  4 active torsions:
REMARK  status: ('A' for Active; 'I' for Inactive)
REMARK    1  A    between atoms: C2_3  and  N2_4 
REMARK       I    between atoms: N2_4  and  C3_6 
REMARK       I    between atoms: C3_6  and  N4_17 
REMARK    2  A    between atoms: N3_7  and  C4_9 
REMARK    3  A    between atoms: C4_9  and  C5_10 
REMARK    4  A    between atoms: C5_10  and  C6_11 
ROOT
HETATM    1  N1  UNL     1       3.164   9.561  -8.078  1.00  0.00    -0.196 NA
HETATM    2  C1  UNL     1       3.156   9.909  -6.954  1.00  0.00     0.079 C 
HETATM    3  C2  UNL     1       3.162  10.342  -5.561  1.00  0.00     0.262 C 
ENDROOT
BRANCH   3   4
HETATM    4  N2  UNL     1       3.969   9.483  -4.722  1.00  0.00    -0.213 N 
HETATM    5  C3  UNL     1       4.330   9.939  -3.422  1.00  0.00     0.683 C 
HETATM    6  N3  UNL     1       3.782   9.319  -2.439  1.00  0.00    -0.226 N 
HETATM    7  N4  UNL     1       5.238  11.005  -3.283  1.00  0.00    -0.126 N 
ATOM      8  H3  UNL     1       3.140   8.559  -2.665  1.00  0.00     0.177 HD
HETATM    9  C12 UNL     1       5.974  11.466  -4.375  1.00  0.00     0.196 C 
ATOM     10  H4  UNL     1       5.360  11.446  -2.372  1.00  0.00     0.197 HD
HETATM   11  N5  UNL     1       6.610  11.861  -5.283  1.00  0.00    -0.171 NA
ATOM     12  H2  UNL     1       4.273   8.568  -5.054  1.00  0.00     0.178 HD
BRANCH   6  13
HETATM   13  C4  UNL     1       3.999   9.608  -1.038  1.00  0.00     0.138 C 
BRANCH  13  14
HETATM   14  C5  UNL     1       3.055   8.768  -0.231  1.00  0.00     0.025 C 
BRANCH  14  15
HETATM   15  C6  UNL     1       1.807   9.490   0.206  1.00  0.00    -0.013 C 
HETATM   16  C7  UNL     1       2.084  10.223   1.482  1.00  0.00     0.005 C 
HETATM   17  C8  UNL     1       1.865   9.431   2.729  1.00  0.00     0.000 C 
HETATM   18  C9  UNL     1       0.450   8.837   2.707  1.00  0.00     0.000 C 
HETATM   19  C10 UNL     1       0.477   7.830   1.563  1.00  0.00     0.000 C 
HETATM   20  C11 UNL     1       0.587   8.639   0.288  1.00  0.00     0.005 C 
ENDBRANCH  14  15
ENDBRANCH  13  14
ENDBRANCH   6  13
ENDBRANCH   3   4
TORSDOF 4
ENDMDL
MODEL 2
REMARK VINA RESULT: -7.366779971      1.163      2.341
REMARK  4 active torsions:
REMARK  status: ('A' for Active; 'I' for Inactive)
REMARK    1  A    between atoms: C2_3  and  N2_4 
REMARK       I    between atoms: N2_4  and  C3_6 
REMARK       I    between atoms: C3_6  and  N4_17 
REMARK    2  A    between atoms: N3_7  and  C4_9 
REMARK    3  A    between atoms: C4_9  and  C5_10 
REMARK    4  A    between atoms: C5_10  and  C6_11 
ROOT
HETATM    1  N1  UNL     1       5.420  12.774  -7.311  1.00  0.00    -0.196 NA
HETATM    2  C1  UNL     1       5.522  12.076  -6.369  1.00  0.00     0.079 C 
HETATM    3  C2  UNL     1       5.634  11.203  -5.206  1.00  0.00     0.262 C 
ENDROOT
BRANCH   3   4
HETATM    4  N2  UNL     1       4.411  11.151  -4.436  1.00  0.00    -0.213 N 
HETATM    5  C3  UNL     1       3.946   9.887  -3.974  1.00  0.00     0.683 C 
HETATM    6  N3  UNL     1       4.005   9.700  -2.703  1.00  0.00    -0.226 N 
HETATM    7  N4  UNL     1       3.460   8.942  -4.895  1.00  0.00    -0.126 N 
ATOM      8  H3  UNL     1       4.376  10.462  -2.136  1.00  0.00     0.177 HD
HETATM    9  C12 UNL     1       3.199   9.299  -6.218  1.00  0.00     0.196 C 
ATOM     10  H4  UNL     1       3.295   7.982  -4.592  1.00  0.00     0.197 HD
HETATM   11  N5  UNL     1       2.965   9.585  -7.335  1.00  0.00    -0.171 NA
ATOM     12  H2  UNL     1       3.891  12.003  -4.229  1.00  0.00     0.178 HD
BRANCH   6  13
HETATM   13  C4  UNL     1       3.590   8.499  -2.012  1.00  0.00     0.138 C 
BRANCH  13  14
HETATM   14  C5  UNL     1       3.271   8.860  -0.591  1.00  0.00     0.025 C 
BRANCH  14  15
HETATM   15  C6  UNL     1       1.859   9.340  -0.380  1.00  0.00    -0.013 C 
HETATM   16  C7  UNL     1       1.761  10.012   0.956  1.00  0.00     0.005 C 
HETATM   17  C8  UNL     1       1.449   9.104   2.100  1.00  0.00     0.000 C 
HETATM   18  C9  UNL     1       0.185   8.296   1.773  1.00  0.00     0.000 C 
HETATM   19  C10 UNL     1       0.600   7.394   0.615  1.00  0.00     0.000 C 
HETATM   20  C11 UNL     1       0.808   8.302  -0.578  1.00  0.00     0.005 C 
ENDBRANCH  14  15
ENDBRANCH  13  14
ENDBRANCH   6  13
ENDBRANCH   3   4
TORSDOF 4
ENDMDL
MODEL 3
REMARK VINA RESULT: -7.092477516      1.185      3.161
REMARK  4 active torsions:
REMARK  status: ('A' for Active; 'I' for Inactive)
REMARK    1  A    between atoms: C2_3  and  N2_4 
REMARK       I    between atoms: N2_4  and  C3_6 
REMARK       I    between atoms: C3_6  and  N4_17 
REMARK    2  A    between atoms: N3_7  and  C4_9 
REMARK    3  A    between atoms: C4_9  and  C5_10 
REMARK    4  A    between atoms: C5_10  and  C6_11 
ROOT
HETATM    1  N1  UNL     1       7.896  12.264  -4.564  1.00  0.00    -0.196 NA
HETATM    2  C1  UNL     1       6.926  11.882  -5.109  1.00  0.00     0.079 C 
HETATM    3  C2  UNL     1       5.715  11.423  -5.779  1.00  0.00     0.262 C 
ENDROOT
BRANCH   3   4
HETATM    4  N2  UNL     1       4.564  11.431  -4.904  1.00  0.00    -0.213 N 
HETATM    5  C3  UNL     1       4.121  10.200  -4.342  1.00  0.00     0.683 C 
HETATM    6  N3  UNL     1       4.290  10.070  -3.074  1.00  0.00    -0.226 N 
HETATM    7  N4  UNL     1       3.541   9.223  -5.171  1.00  0.00    -0.126 N 
ATOM      8  H3  UNL     1       4.721  10.850  -2.578  1.00  0.00     0.177 HD
HETATM    9  C12 UNL     1       3.171   9.523  -6.482  1.00  0.00     0.196 C 
ATOM     10  H4  UNL     1       3.389   8.281  -4.809  1.00  0.00     0.197 HD
HETATM   11  N5  UNL     1       2.843   9.762  -7.586  1.00  0.00    -0.171 NA
ATOM     12  H2  UNL     1       4.078  12.303  -4.692  1.00  0.00     0.178 HD
BRANCH   6  13
HETATM   13  C4  UNL     1       3.918   8.911  -2.292  1.00  0.00     0.138 C 
BRANCH  13  14
HETATM   14  C5  UNL     1       2.518   9.108  -1.794  1.00  0.00     0.025 C 
BRANCH  14  15
HETATM   15  C6  UNL     1       2.226   8.417  -0.488  1.00  0.00    -0.013 C 
HETATM   16  C7  UNL     1       0.788   7.995  -0.463  1.00  0.00     0.005 C 
HETATM   17  C8  UNL     1      -0.165   9.022   0.055  1.00  0.00     0.000 C 
HETATM   18  C9  UNL     1       0.313   9.503   1.433  1.00  0.00     0.000 C 
HETATM   19  C10 UNL     1       1.617  10.239   1.147  1.00  0.00     0.000 C 
HETATM   20  C11 UNL     1       2.618   9.184   0.728  1.00  0.00     0.005 C 
ENDBRANCH  14  15
ENDBRANCH  13  14
ENDBRANCH   6  13
ENDBRANCH   3   4
TORSDOF 4
ENDMDL
MODEL 4
REMARK VINA RESULT: -6.926410712      1.241      1.822
REMARK  4 active torsions:
REMARK  status: ('A' for Active; 'I' for Inactive)
REMARK    1  A    between atoms: C2_3  and  N2_4 
REMARK       I    between atoms: N2_4  and  C3_6 
REMARK       I    between atoms: C3_6  and  N4_17 
REMARK    2  A    between atoms: N3_7  and  C4_9 
REMARK    3  A    between atoms: C4_9  and  C5_10 
REMARK    4  A    between atoms: C5_10  and  C6_11 
ROOT
HETATM    1  N1  UNL     1       2.827   9.634  -7.840  1.00  0.00    -0.196 NA
HETATM    2  C1  UNL     1       3.407  10.358  -7.116  1.00  0.00     0.079 C 
HETATM    3  C2  UNL     1       4.142  11.247  -6.224  1.00  0.00     0.262 C 
ENDROOT
BRANCH   3   4
HETATM    4  N2  UNL     1       5.019  10.527  -5.327  1.00  0.00    -0.213 N 
HETATM    5  C3  UNL     1       4.819  10.654  -3.923  1.00  0.00     0.683 C 
HETATM    6  N3  UNL     1       4.386   9.603  -3.322  1.00  0.00    -0.226 N 
HETATM    7  N4  UNL     1       5.097  11.876  -3.286  1.00  0.00    -0.126 N 
ATOM      8  H3  UNL     1       4.222   8.773  -3.893  1.00  0.00     0.177 HD
HETATM    9  C12 UNL     1       5.789  12.890  -3.950  1.00  0.00     0.196 C 
ATOM     10  H4  UNL     1       4.789  12.024  -2.325  1.00  0.00     0.197 HD
HETATM   11  N5  UNL     1       6.379  13.751  -4.492  1.00  0.00    -0.171 NA
ATOM     12  H2  UNL     1       5.768   9.938  -5.694  1.00  0.00     0.178 HD
BRANCH   6  13
HETATM   13  C4  UNL     1       4.111   9.500  -1.906  1.00  0.00     0.138 C 
BRANCH  13  14
HETATM   14  C5  UNL     1       2.645   9.233  -1.729  1.00  0.00     0.025 C 
BRANCH  14  15
HETATM   15  C6  UNL     1       2.303   8.488  -0.465  1.00  0.00    -0.013 C 
HETATM   16  C7  UNL     1       0.902   7.968  -0.563  1.00  0.00     0.005 C 
HETATM   17  C8  UNL     1      -0.159   8.911  -0.100  1.00  0.00     0.000 C 
HETATM   18  C9  UNL     1       0.174   9.388   1.320  1.00  0.00     0.000 C 
HETATM   19  C10 UNL     1       1.441  10.221   1.155  1.00  0.00     0.000 C 
HETATM   20  C11 UNL     1       2.544   9.248   0.794  1.00  0.00     0.005 C 
ENDBRANCH  14  15
ENDBRANCH  13  14
ENDBRANCH   6  13
ENDBRANCH   3   4
TORSDOF 4
ENDMDL
MODEL 5
REMARK VINA RESULT: -6.812366604      2.491      7.497
REMARK  4 active torsions:
REMARK  status: ('A' for Active; 'I' for Inactive)
REMARK    1  A    between atoms: C2_3  and  N2_4 
REMARK       I    between atoms: N2_4  and  C3_6 
REMARK       I    between atoms: C3_6  and  N4_17 
REMARK    2  A    between atoms: N3_7  and  C4_9 
REMARK    3  A    between atoms: C4_9  and  C5_10 
REMARK    4  A    between atoms: C5_10  and  C6_11 
ROOT
HETATM    1  N1  UNL     1       4.346  11.872   1.707  1.00  0.00    -0.196 NA
HETATM    2  C1  UNL     1       3.554  11.087   1.332  1.00  0.00     0.079 C 
HETATM    3  C2  UNL     1       2.582  10.102   0.873  1.00  0.00     0.262 C 
ENDROOT
BRANCH   3   4
HETATM    4  N2  UNL     1       3.186   9.068   0.062  1.00  0.00    -0.213 N 
HETATM    5  C3  UNL     1       2.793   8.948  -1.301  1.00  0.00     0.683 C 
HETATM    6  N3  UNL     1       3.684   9.266  -2.171  1.00  0.00    -0.226 N 
HETATM    7  N4  UNL     1       1.497   8.502  -1.617  1.00  0.00    -0.126 N 
ATOM      8  H3  UNL     1       4.591   9.575  -1.819  1.00  0.00     0.177 HD
HETATM    9  C12 UNL     1       0.671   7.948  -0.639  1.00  0.00     0.196 C 
ATOM     10  H4  UNL     1       1.156   8.585  -2.575  1.00  0.00     0.197 HD
HETATM   11  N5  UNL     1      -0.035   7.469   0.171  1.00  0.00    -0.171 NA
ATOM     12  H2  UNL     1       3.881   8.436   0.459  1.00  0.00     0.178 HD
BRANCH   6  13
HETATM   13  C4  UNL     1       3.510   9.223  -3.607  1.00  0.00     0.138 C 
BRANCH  13  14
HETATM   14  C5  UNL     1       4.172  10.432  -4.198  1.00  0.00     0.025 C 
BRANCH  14  15
HETATM   15  C6  UNL     1       3.386  11.086  -5.304  1.00  0.00    -0.013 C 
HETATM   16  C7  UNL     1       2.882  10.031  -6.241  1.00  0.00     0.005 C 
HETATM   17  C8  UNL     1       3.817   9.664  -7.345  1.00  0.00     0.000 C 
HETATM   18  C9  UNL     1       4.239  10.937  -8.092  1.00  0.00     0.000 C 
HETATM   19  C10 UNL     1       5.066  11.718  -7.077  1.00  0.00     0.000 C 
HETATM   20  C11 UNL     1       4.098  12.187  -6.012  1.00  0.00     0.005 C 
ENDBRANCH  14  15
ENDBRANCH  13  14
ENDBRANCH   6  13
ENDBRANCH   3   4
TORSDOF 4
ENDMDL
