MODEL 1
REMARK VINA RESULT: -7.652809453      0.000      0.000
REMARK  4 active torsions:
REMARK  status: ('A' for Active; 'I' for Inactive)
REMARK    1  A    between atoms: N3_8  and  C4_10 
REMARK    2  A    between atoms: C4_10  and  C5_11 
REMARK    3  A    between atoms: C5_11  and  C6_12 
REMARK    4  A    between atoms: C6_12  and  N4_13 
ROOT
HETATM    1  C4  UNL     1       2.062   8.782  -1.721  1.00  0.00     0.139 C 
ENDROOT
BRANCH   1   2
HETATM    2  N3  UNL     1       1.627   8.069  -0.541  1.00  0.00    -0.225 N 
HETATM    3  C3  UNL     1       1.567   8.670   0.600  1.00  0.00     0.694 A 
HETATM    4  N2  UNL     1       1.859   9.943   0.921  1.00  0.00    -0.131 N 
HETATM    5  N6  UNL     1       1.178   8.106   1.762  1.00  0.00    -0.179 N 
HETATM    6  N1  UNL     1       1.659  10.146   2.208  1.00  0.00    -0.275 N 
ATOM      7  H2  UNL     1       2.189  10.650   0.263  1.00  0.00     0.205 HD
HETATM    8  C2  UNL     1       1.228   9.001   2.763  1.00  0.00     0.108 A 
ATOM      9  H1  UNL     1       1.808  11.027   2.701  1.00  0.00     0.189 HD
HETATM   10  C1  UNL     1       0.875   8.771   4.209  1.00  0.00     0.091 C 
ATOM     11  H6  UNL     1       0.885   7.134   1.867  1.00  0.00     0.185 HD
ATOM     12  H3  UNL     1       1.367   7.085  -0.611  1.00  0.00     0.177 HD
ENDBRANCH   1   2
BRANCH   1  13
HETATM   13  C5  UNL     1       3.559   8.825  -1.848  1.00  0.00     0.040 C 
BRANCH  13  14
HETATM   14  C6  UNL     1       4.005   9.716  -2.988  1.00  0.00     0.122 C 
BRANCH  14  15
HETATM   15  N4  UNL     1       3.879   9.075  -4.269  1.00  0.00    -0.380 N 
HETATM   16  C7  UNL     1       3.554   9.666  -5.353  1.00  0.00     0.072 C 
HETATM   17  C8  UNL     1       3.276  11.104  -5.351  1.00  0.00     0.076 C 
HETATM   18  N5  UNL     1       3.473   8.885  -6.564  1.00  0.00    -0.380 N 
HETATM   19  C9  UNL     1       3.568  11.752  -6.692  1.00  0.00     0.009 C 
HETATM   20  C10 UNL     1       2.865  10.891  -7.745  1.00  0.00     0.020 C 
HETATM   21  C11 UNL     1       3.627   9.597  -7.823  1.00  0.00     0.121 C 
ATOM     22  H5  UNL     1       3.314   7.878  -6.538  1.00  0.00     0.160 HD
ATOM     23  H4  UNL     1       4.065   8.073  -4.315  1.00  0.00     0.160 HD
ENDBRANCH  14  15
ENDBRANCH  13  14
ENDBRANCH   1  13
TORSDOF 4
ENDMDL
MODEL 2
REMARK VINA RESULT: -7.317671868      1.319      7.870
REMARK  4 active torsions:
REMARK  status: ('A' for Active; 'I' for Inactive)
REMARK    1  A    between atoms: N3_8  and  C4_10 
REMARK    2  A    between atoms: C4_10  and  C5_11 
REMARK    3  A    between atoms: C5_11  and  C6_12 
REMARK    4  A    between atoms: C6_12  and  N4_13 
ROOT
HETATM    1  C4  UNL     1       3.967   9.400  -2.512  1.00  0.00     0.139 C 
ENDROOT
BRANCH   1   2
HETATM    2  N3  UNL     1       3.383   9.105  -3.801  1.00  0.00    -0.225 N 
HETATM    3  C3  UNL     1       3.333  10.012  -4.718  1.00  0.00     0.694 A 
HETATM    4  N2  UNL     1       3.760  11.288  -4.694  1.00  0.00    -0.131 N 
HETATM    5  N6  UNL     1       2.814   9.850  -5.953  1.00  0.00    -0.179 N 
HETATM    6  N1  UNL     1       3.515  11.873  -5.850  1.00  0.00    -0.275 N 
ATOM      7  H2  UNL     1       4.209  11.738  -3.896  1.00  0.00     0.205 HD
HETATM    8  C2  UNL     1       2.917  10.985  -6.664  1.00  0.00     0.108 A 
ATOM      9  H1  UNL     1       3.741  12.839  -6.087  1.00  0.00     0.189 HD
HETATM   10  C1  UNL     1       2.459  11.219  -8.080  1.00  0.00     0.091 C 
ATOM     11  H6  UNL     1       2.400   8.984  -6.300  1.00  0.00     0.185 HD
ATOM     12  H3  UNL     1       3.008   8.175  -3.986  1.00  0.00     0.177 HD
ENDBRANCH   1   2
BRANCH   1  13
HETATM   13  C5  UNL     1       3.417   8.527  -1.419  1.00  0.00     0.040 C 
BRANCH  13  14
HETATM   14  C6  UNL     1       1.932   8.741  -1.218  1.00  0.00     0.122 C 
BRANCH  14  15
HETATM   15  N4  UNL     1       1.457   8.179   0.018  1.00  0.00    -0.380 N 
HETATM   16  C7  UNL     1       1.646   8.688   1.173  1.00  0.00     0.072 C 
HETATM   17  C8  UNL     1       2.395   9.939   1.311  1.00  0.00     0.076 C 
HETATM   18  N5  UNL     1       1.102   8.006   2.323  1.00  0.00    -0.380 N 
HETATM   19  C9  UNL     1       1.979  10.732   2.537  1.00  0.00     0.009 C 
HETATM   20  C10 UNL     1       2.008   9.749   3.710  1.00  0.00     0.020 C 
HETATM   21  C11 UNL     1       0.855   8.806   3.512  1.00  0.00     0.121 C 
ATOM     22  H5  UNL     1       0.900   7.007   2.302  1.00  0.00     0.160 HD
ATOM     23  H4  UNL     1       0.929   7.307  -0.033  1.00  0.00     0.160 HD
ENDBRANCH  14  15
ENDBRANCH  13  14
ENDBRANCH   1  13
TORSDOF 4
ENDMDL
MODEL 3
REMARK VINA RESULT: -7.264594045      1.193      1.746
REMARK  4 active torsions:
REMARK  status: ('A' for Active; 'I' for Inactive)
REMARK    1  A    between atoms: N3_8  and  C4_10 
REMARK    2  A    between atoms: C4_10  and  C5_11 
REMARK    3  A    between atoms: C5_11  and  C6_12 
REMARK    4  A    between atoms: C6_12  and  N4_13 
ROOT
HETATM    1  C4  UNL     1       4.684   9.252  -1.256  1.00  0.00     0.139 C 
ENDROOT
BRANCH   1   2
HETATM    2  N3  UNL     1       3.759   9.914  -0.364  1.00  0.00    -0.225 N 
HETATM    3  C3  UNL     1       2.670   9.326   0.003  1.00  0.00     0.694 A 
HETATM    4  N2  UNL     1       2.197   8.108  -0.319  1.00  0.00    -0.131 N 
HETATM    5  N6  UNL     1       1.738   9.846   0.828  1.00  0.00    -0.179 N 
HETATM    6  N1  UNL     1       1.041   7.896   0.277  1.00  0.00    -0.275 N 
ATOM      7  H2  UNL     1       2.666   7.443  -0.935  1.00  0.00     0.205 HD
HETATM    8  C2  UNL     1       0.728   8.979   1.008  1.00  0.00     0.108 A 
ATOM      9  H1  UNL     1       0.477   7.050   0.196  1.00  0.00     0.189 HD
HETATM   10  C1  UNL     1      -0.503   9.178   1.854  1.00  0.00     0.091 C 
ATOM     11  H6  UNL     1       1.793  10.770   1.256  1.00  0.00     0.185 HD
ATOM     12  H3  UNL     1       3.969  10.852  -0.023  1.00  0.00     0.177 HD
ENDBRANCH   1   2
BRANCH   1  13
HETATM   13  C5  UNL     1       4.548   9.720  -2.678  1.00  0.00     0.040 C 
BRANCH  13  14
HETATM   14  C6  UNL     1       3.331   9.127  -3.355  1.00  0.00     0.122 C 
BRANCH  14  15
HETATM   15  N4  UNL     1       3.607   8.690  -4.697  1.00  0.00    -0.380 N 
HETATM   16  C7  UNL     1       3.457   9.405  -5.744  1.00  0.00     0.072 C 
HETATM   17  C8  UNL     1       2.972  10.783  -5.630  1.00  0.00     0.076 C 
HETATM   18  N5  UNL     1       3.780   8.826  -7.026  1.00  0.00    -0.380 N 
HETATM   19  C9  UNL     1       3.467  11.667  -6.759  1.00  0.00     0.009 C 
HETATM   20  C10 UNL     1       3.168  10.911  -8.056  1.00  0.00     0.020 C 
HETATM   21  C11 UNL     1       4.114   9.743  -8.103  1.00  0.00     0.121 C 
ATOM     22  H5  UNL     1       3.774   7.816  -7.169  1.00  0.00     0.160 HD
ATOM     23  H4  UNL     1       3.948   7.737  -4.822  1.00  0.00     0.160 HD
ENDBRANCH  14  15
ENDBRANCH  13  14
ENDBRANCH   1  13
TORSDOF 4
ENDMDL
MODEL 4
REMARK VINA RESULT: -7.178684487      2.377      7.927
REMARK  4 active torsions:
REMARK  status: ('A' for Active; 'I' for Inactive)
REMARK    1  A    between atoms: N3_8  and  C4_10 
REMARK    2  A    between atoms: C4_10  and  C5_11 
REMARK    3  A    between atoms: C5_11  and  C6_12 
REMARK    4  A    between atoms: C6_12  and  N4_13 
ROOT
HETATM    1  C4  UNL     1       4.304   9.182  -1.826  1.00  0.00     0.139 C 
ENDROOT
BRANCH   1   2
HETATM    2  N3  UNL     1       4.327  10.105  -2.937  1.00  0.00    -0.225 N 
HETATM    3  C3  UNL     1       3.967   9.718  -4.115  1.00  0.00     0.694 A 
HETATM    4  N2  UNL     1       3.538   8.513  -4.534  1.00  0.00    -0.131 N 
HETATM    5  N6  UNL     1       3.948  10.490  -5.221  1.00  0.00    -0.179 N 
HETATM    6  N1  UNL     1       3.273   8.548  -5.825  1.00  0.00    -0.275 N 
ATOM      7  H2  UNL     1       3.434   7.691  -3.939  1.00  0.00     0.205 HD
HETATM    8  C2  UNL     1       3.523   9.786  -6.284  1.00  0.00     0.108 A 
ATOM      9  H1  UNL     1       2.933   7.764  -6.383  1.00  0.00     0.189 HD
HETATM   10  C1  UNL     1       3.360  10.280  -7.697  1.00  0.00     0.091 C 
ATOM     11  H6  UNL     1       4.219  11.473  -5.248  1.00  0.00     0.185 HD
ATOM     12  H3  UNL     1       4.630  11.068  -2.789  1.00  0.00     0.177 HD
ENDBRANCH   1   2
BRANCH   1  13
HETATM   13  C5  UNL     1       2.909   8.907  -1.335  1.00  0.00     0.040 C 
BRANCH  13  14
HETATM   14  C6  UNL     1       2.718   9.344   0.101  1.00  0.00     0.122 C 
BRANCH  14  15
HETATM   15  N4  UNL     1       3.562  10.452   0.456  1.00  0.00    -0.380 N 
HETATM   16  C7  UNL     1       3.474  11.121   1.541  1.00  0.00     0.072 C 
HETATM   17  C8  UNL     1       2.454  10.777   2.535  1.00  0.00     0.076 C 
HETATM   18  N5  UNL     1       4.398  12.208   1.756  1.00  0.00    -0.380 N 
HETATM   19  C9  UNL     1       2.872  11.150   3.945  1.00  0.00     0.009 C 
HETATM   20  C10 UNL     1       3.344  12.604   3.881  1.00  0.00     0.020 C 
HETATM   21  C11 UNL     1       4.648  12.603   3.133  1.00  0.00     0.121 C 
ATOM     22  H5  UNL     1       4.856  12.679   0.976  1.00  0.00     0.160 HD
ATOM     23  H4  UNL     1       4.287  10.725  -0.208  1.00  0.00     0.160 HD
ENDBRANCH  14  15
ENDBRANCH  13  14
ENDBRANCH   1  13
TORSDOF 4
ENDMDL
MODEL 5
REMARK VINA RESULT: -7.110413096      1.290      1.734
REMARK  4 active torsions:
REMARK  status: ('A' for Active; 'I' for Inactive)
REMARK    1  A    between atoms: N3_8  and  C4_10 
REMARK    2  A    between atoms: C4_10  and  C5_11 
REMARK    3  A    between atoms: C5_11  and  C6_12 
REMARK    4  A    between atoms: C6_12  and  N4_13 
ROOT
HETATM    1  C4  UNL     1       2.590   8.852  -1.837  1.00  0.00     0.139 C 
ENDROOT
BRANCH   1   2
HETATM    2  N3  UNL     1       2.635   9.419  -0.508  1.00  0.00    -0.225 N 
HETATM    3  C3  UNL     1       1.947   8.894   0.450  1.00  0.00     0.694 A 
HETATM    4  N2  UNL     1       1.126   7.828   0.438  1.00  0.00    -0.131 N 
HETATM    5  N6  UNL     1       1.913   9.336   1.724  1.00  0.00    -0.179 N 
HETATM    6  N1  UNL     1       0.618   7.630   1.639  1.00  0.00    -0.275 N 
ATOM      7  H2  UNL     1       0.924   7.255  -0.382  1.00  0.00     0.205 HD
HETATM    8  C2  UNL     1       1.100   8.570   2.470  1.00  0.00     0.108 A 
ATOM      9  H1  UNL     1      -0.032   6.887   1.894  1.00  0.00     0.189 HD
HETATM   10  C1  UNL     1       0.791   8.729   3.936  1.00  0.00     0.091 C 
ATOM     11  H6  UNL     1       2.433  10.142   2.073  1.00  0.00     0.185 HD
ATOM     12  H3  UNL     1       3.215  10.238  -0.327  1.00  0.00     0.177 HD
ENDBRANCH   1   2
BRANCH   1  13
HETATM   13  C5  UNL     1       3.626   9.445  -2.750  1.00  0.00     0.040 C 
BRANCH  13  14
HETATM   14  C6  UNL     1       3.532   8.882  -4.153  1.00  0.00     0.122 C 
BRANCH  14  15
HETATM   15  N4  UNL     1       2.817   9.751  -5.048  1.00  0.00    -0.380 N 
HETATM   16  C7  UNL     1       3.352  10.658  -5.771  1.00  0.00     0.072 C 
HETATM   17  C8  UNL     1       4.801  10.873  -5.725  1.00  0.00     0.076 C 
HETATM   18  N5  UNL     1       2.500  11.449  -6.624  1.00  0.00    -0.380 N 
HETATM   19  C9  UNL     1       5.343  11.437  -7.026  1.00  0.00     0.009 C 
HETATM   20  C10 UNL     1       4.454  12.633  -7.376  1.00  0.00     0.020 C 
HETATM   21  C11 UNL     1       3.119  12.074  -7.782  1.00  0.00     0.121 C 
ATOM     22  H5  UNL     1       1.507  11.565  -6.424  1.00  0.00     0.160 HD
ATOM     23  H4  UNL     1       1.806   9.634  -5.111  1.00  0.00     0.160 HD
ENDBRANCH  14  15
ENDBRANCH  13  14
ENDBRANCH   1  13
TORSDOF 4
ENDMDL
