MODEL 1
REMARK VINA RESULT: -6.004310431      0.000      0.000
REMARK  6 active torsions:
REMARK  status: ('A' for Active; 'I' for Inactive)
REMARK    1  A    between atoms: O1_2  and  C2_3 
REMARK    2  A    between atoms: C2_3  and  C3_4 
REMARK    3  A    between atoms: C3_4  and  N1_5 
REMARK    4  A    between atoms: N1_5  and  C4_7 
REMARK    5  A    between atoms: C4_7  and  N2_9 
REMARK    6  A    between atoms: N2_9  and  C5_11 
ROOT
HETATM    1  N2  UNL     1       3.954   9.496  -3.876  1.00  0.00    -0.363 N 
ATOM      2  H2  UNL     1       4.791   9.044  -4.244  1.00  0.00     0.162 HD
ENDROOT
BRANCH   1   3
HETATM    3  C4  UNL     1       3.593   9.221  -2.551  1.00  0.00     0.168 C 
HETATM    4  S1  UNL     1       4.601   9.411  -1.277  1.00  0.00    -0.041 SA
BRANCH   3   5
HETATM    5  N1  UNL     1       2.291   8.749  -2.230  1.00  0.00    -0.365 N 
ATOM      6  H1  UNL     1       1.609   8.555  -2.964  1.00  0.00     0.161 HD
BRANCH   5   7
HETATM    7  C3  UNL     1       1.955   8.547  -0.827  1.00  0.00     0.148 C 
BRANCH   7   8
HETATM    8  C2  UNL     1       0.466   8.369  -0.634  1.00  0.00     0.186 C 
BRANCH   8   9
HETATM    9  O1  UNL     1       0.215   7.428   0.362  1.00  0.00    -0.394 OA
HETATM   10  C1  UNL     1       0.505   7.905   1.624  1.00  0.00     0.201 C 
ENDBRANCH   8   9
ENDBRANCH   7   8
ENDBRANCH   5   7
ENDBRANCH   3   5
ENDBRANCH   1   3
BRANCH   1  11
HETATM   11  C5  UNL     1       3.215  10.385  -4.767  1.00  0.00     0.085 C 
HETATM   12  C6  UNL     1       2.878   9.648  -6.031  1.00  0.00     0.027 C 
HETATM   13  C7  UNL     1       3.888   9.764  -7.123  1.00  0.00     0.029 C 
HETATM   14  C8  UNL     1       3.521  10.899  -8.074  1.00  0.00     0.232 C 
HETATM   15  N3  UNL     1       3.038  11.961  -7.217  1.00  0.00    -0.075 N 
HETATM   16  C9  UNL     1       4.034  12.265  -6.268  1.00  0.00     0.234 C 
ATOM     17  H32 UNL     1       2.738  12.782  -7.745  1.00  0.00     0.277 HD
ATOM     18  H31 UNL     1       2.142  11.738  -6.784  1.00  0.00     0.277 HD
HETATM   19  C10 UNL     1       3.953  11.655  -4.926  1.00  0.00     0.052 C 
ENDBRANCH   1  11
TORSDOF 6
ENDMDL
MODEL 2
REMARK VINA RESULT: -5.976880627      2.725      6.793
REMARK  6 active torsions:
REMARK  status: ('A' for Active; 'I' for Inactive)
REMARK    1  A    between atoms: O1_2  and  C2_3 
REMARK    2  A    between atoms: C2_3  and  C3_4 
REMARK    3  A    between atoms: C3_4  and  N1_5 
REMARK    4  A    between atoms: N1_5  and  C4_7 
REMARK    5  A    between atoms: C4_7  and  N2_9 
REMARK    6  A    between atoms: N2_9  and  C5_11 
ROOT
HETATM    1  N2  UNL     1       2.290   8.925  -2.207  1.00  0.00    -0.363 N 
ATOM      2  H2  UNL     1       1.397   8.963  -2.699  1.00  0.00     0.162 HD
ENDROOT
BRANCH   1   3
HETATM    3  C4  UNL     1       3.449   9.223  -2.935  1.00  0.00     0.168 C 
HETATM    4  S1  UNL     1       4.736  10.014  -2.308  1.00  0.00    -0.041 SA
BRANCH   3   5
HETATM    5  N1  UNL     1       3.575   8.843  -4.299  1.00  0.00    -0.365 N 
ATOM      6  H1  UNL     1       3.929   7.921  -4.554  1.00  0.00     0.161 HD
BRANCH   5   7
HETATM    7  C3  UNL     1       3.185   9.803  -5.323  1.00  0.00     0.148 C 
BRANCH   7   8
HETATM    8  C2  UNL     1       3.653   9.371  -6.694  1.00  0.00     0.186 C 
BRANCH   8   9
HETATM    9  O1  UNL     1       2.726   9.744  -7.663  1.00  0.00    -0.394 OA
HETATM   10  C1  UNL     1       2.717  11.106  -7.889  1.00  0.00     0.201 C 
ENDBRANCH   8   9
ENDBRANCH   7   8
ENDBRANCH   5   7
ENDBRANCH   3   5
ENDBRANCH   1   3
BRANCH   1  11
HETATM   11  C5  UNL     1       2.271   8.561  -0.795  1.00  0.00     0.085 C 
HETATM   12  C6  UNL     1       0.934   7.967  -0.456  1.00  0.00     0.027 C 
HETATM   13  C7  UNL     1      -0.094   8.942   0.015  1.00  0.00     0.029 C 
HETATM   14  C8  UNL     1      -0.105   9.014   1.539  1.00  0.00     0.232 C 
HETATM   15  N3  UNL     1       1.289   8.963   1.925  1.00  0.00    -0.075 N 
HETATM   16  C9  UNL     1       1.976  10.008   1.274  1.00  0.00     0.234 C 
ATOM     17  H32 UNL     1       1.414   8.985   2.938  1.00  0.00     0.277 HD
ATOM     18  H31 UNL     1       1.710   8.051   1.751  1.00  0.00     0.277 HD
HETATM   19  C10 UNL     1       2.701   9.715   0.022  1.00  0.00     0.052 C 
ENDBRANCH   1  11
TORSDOF 6
ENDMDL
MODEL 3
REMARK VINA RESULT: -5.858162190      2.688      7.093
REMARK  6 active torsions:
REMARK  status: ('A' for Active; 'I' for Inactive)
REMARK    1  A    between atoms: O1_2  and  C2_3 
REMARK    2  A    between atoms: C2_3  and  C3_4 
REMARK    3  A    between atoms: C3_4  and  N1_5 
REMARK    4  A    between atoms: N1_5  and  C4_7 
REMARK    5  A    between atoms: C4_7  and  N2_9 
REMARK    6  A    between atoms: N2_9  and  C5_11 
ROOT
HETATM    1  N2  UNL     1       3.075   8.831  -0.920  1.00  0.00    -0.363 N 
ATOM      2  H2  UNL     1       3.708   8.277  -0.343  1.00  0.00     0.162 HD
ENDROOT
BRANCH   1   3
HETATM    3  C4  UNL     1       3.554   9.294  -2.152  1.00  0.00     0.168 C 
HETATM    4  S1  UNL     1       4.872  10.250  -2.313  1.00  0.00    -0.041 SA
BRANCH   3   5
HETATM    5  N1  UNL     1       2.904   8.946  -3.367  1.00  0.00    -0.365 N 
ATOM      6  H1  UNL     1       1.940   8.612  -3.367  1.00  0.00     0.161 HD
BRANCH   5   7
HETATM    7  C3  UNL     1       3.648   9.080  -4.612  1.00  0.00     0.148 C 
BRANCH   7   8
HETATM    8  C2  UNL     1       2.943  10.000  -5.583  1.00  0.00     0.186 C 
BRANCH   8   9
HETATM    9  O1  UNL     1       2.904   9.428  -6.853  1.00  0.00    -0.394 OA
HETATM   10  C1  UNL     1       3.302  10.307  -7.840  1.00  0.00     0.201 C 
ENDBRANCH   8   9
ENDBRANCH   7   8
ENDBRANCH   5   7
ENDBRANCH   3   5
ENDBRANCH   1   3
BRANCH   1  11
HETATM   11  C5  UNL     1       1.735   9.086  -0.405  1.00  0.00     0.085 C 
HETATM   12  C6  UNL     1       1.838   9.878   0.867  1.00  0.00     0.027 C 
HETATM   13  C7  UNL     1       1.917   9.066   2.117  1.00  0.00     0.029 C 
HETATM   14  C8  UNL     1       0.530   8.885   2.726  1.00  0.00     0.232 C 
HETATM   15  N3  UNL     1      -0.348   8.662   1.597  1.00  0.00    -0.075 N 
HETATM   16  C9  UNL     1       0.137   7.565   0.857  1.00  0.00     0.234 C 
ATOM     17  H32 UNL     1      -1.321   8.544   1.878  1.00  0.00     0.277 HD
ATOM     18  H31 UNL     1      -0.466   9.497   1.024  1.00  0.00     0.277 HD
HETATM   19  C10 UNL     1       0.981   7.818  -0.328  1.00  0.00     0.052 C 
ENDBRANCH   1  11
TORSDOF 6
ENDMDL
MODEL 4
REMARK VINA RESULT: -5.728895488      6.780      8.867
REMARK  6 active torsions:
REMARK  status: ('A' for Active; 'I' for Inactive)
REMARK    1  A    between atoms: O1_2  and  C2_3 
REMARK    2  A    between atoms: C2_3  and  C3_4 
REMARK    3  A    between atoms: C3_4  and  N1_5 
REMARK    4  A    between atoms: N1_5  and  C4_7 
REMARK    5  A    between atoms: C4_7  and  N2_9 
REMARK    6  A    between atoms: N2_9  and  C5_11 
ROOT
HETATM    1  N2  UNL     1       2.606  11.927   2.705  1.00  0.00    -0.363 N 
ATOM      2  H2  UNL     1       1.873  12.472   2.251  1.00  0.00     0.162 HD
ENDROOT
BRANCH   1   3
HETATM    3  C4  UNL     1       3.548  12.617   3.478  1.00  0.00     0.168 C 
HETATM    4  S1  UNL     1       5.066  12.956   2.971  1.00  0.00    -0.041 SA
BRANCH   3   5
HETATM    5  N1  UNL     1       3.228  13.077   4.784  1.00  0.00    -0.365 N 
ATOM      6  H1  UNL     1       2.257  13.148   5.090  1.00  0.00     0.161 HD
BRANCH   5   7
HETATM    7  C3  UNL     1       4.320  13.443   5.676  1.00  0.00     0.148 C 
BRANCH   7   8
HETATM    8  C2  UNL     1       3.910  14.539   6.633  1.00  0.00     0.186 C 
BRANCH   8   9
HETATM    9  O1  UNL     1       2.977  14.060   7.549  1.00  0.00    -0.394 OA
HETATM   10  C1  UNL     1       2.875  14.862   8.668  1.00  0.00     0.201 C 
ENDBRANCH   8   9
ENDBRANCH   7   8
ENDBRANCH   5   7
ENDBRANCH   3   5
ENDBRANCH   1   3
BRANCH   1  11
HETATM   11  C5  UNL     1       2.600  10.482   2.504  1.00  0.00     0.085 C 
HETATM   12  C6  UNL     1       1.976  10.172   1.174  1.00  0.00     0.027 C 
HETATM   13  C7  UNL     1       0.501   9.945   1.201  1.00  0.00     0.029 C 
HETATM   14  C8  UNL     1       0.190   8.457   1.327  1.00  0.00     0.232 C 
HETATM   15  N3  UNL     1       1.167   7.950   2.267  1.00  0.00    -0.075 N 
HETATM   16  C9  UNL     1       1.072   8.692   3.461  1.00  0.00     0.234 C 
ATOM     17  H32 UNL     1       1.073   6.946   2.422  1.00  0.00     0.277 HD
ATOM     18  H31 UNL     1       2.112   7.946   1.884  1.00  0.00     0.277 HD
HETATM   19  C10 UNL     1       2.001   9.818   3.680  1.00  0.00     0.052 C 
ENDBRANCH   1  11
TORSDOF 6
ENDMDL
MODEL 5
REMARK VINA RESULT: -5.586824920      6.631      8.501
REMARK  6 active torsions:
REMARK  status: ('A' for Active; 'I' for Inactive)
REMARK    1  A    between atoms: O1_2  and  C2_3 
REMARK    2  A    between atoms: C2_3  and  C3_4 
REMARK    3  A    between atoms: C3_4  and  N1_5 
REMARK    4  A    between atoms: N1_5  and  C4_7 
REMARK    5  A    between atoms: C4_7  and  N2_9 
REMARK    6  A    between atoms: N2_9  and  C5_11 
ROOT
HETATM    1  N2  UNL     1       2.571  12.029   2.718  1.00  0.00    -0.363 N 
ATOM      2  H2  UNL     1       1.803  12.533   2.276  1.00  0.00     0.162 HD
ENDROOT
BRANCH   1   3
HETATM    3  C4  UNL     1       3.509  12.774   3.445  1.00  0.00     0.168 C 
HETATM    4  S1  UNL     1       5.093  12.872   3.050  1.00  0.00    -0.041 SA
BRANCH   3   5
HETATM    5  N1  UNL     1       3.123  13.511   4.597  1.00  0.00    -0.365 N 
ATOM      6  H1  UNL     1       2.826  13.033   5.448  1.00  0.00     0.161 HD
BRANCH   5   7
HETATM    7  C3  UNL     1       3.163  14.966   4.533  1.00  0.00     0.148 C 
BRANCH   7   8
HETATM    8  C2  UNL     1       1.784  15.549   4.322  1.00  0.00     0.186 C 
BRANCH   8   9
HETATM    9  O1  UNL     1       1.249  15.106   3.115  1.00  0.00    -0.394 OA
HETATM   10  C1  UNL     1      -0.000  15.636   2.864  1.00  0.00     0.201 C 
ENDBRANCH   8   9
ENDBRANCH   7   8
ENDBRANCH   5   7
ENDBRANCH   3   5
ENDBRANCH   1   3
BRANCH   1  11
HETATM   11  C5  UNL     1       2.617  10.580   2.551  1.00  0.00     0.085 C 
HETATM   12  C6  UNL     1       2.014  10.218   1.224  1.00  0.00     0.027 C 
HETATM   13  C7  UNL     1       0.548   9.940   1.247  1.00  0.00     0.029 C 
HETATM   14  C8  UNL     1       0.288   8.445   1.405  1.00  0.00     0.232 C 
HETATM   15  N3  UNL     1       1.275   7.994   2.363  1.00  0.00    -0.075 N 
HETATM   16  C9  UNL     1       1.146   8.759   3.539  1.00  0.00     0.234 C 
ATOM     17  H32 UNL     1       1.216   6.991   2.541  1.00  0.00     0.277 HD
ATOM     18  H31 UNL     1       2.223   8.015   1.987  1.00  0.00     0.277 HD
HETATM   19  C10 UNL     1       2.033   9.923   3.738  1.00  0.00     0.052 C 
ENDBRANCH   1  11
TORSDOF 6
ENDMDL
