MODEL 1
REMARK VINA RESULT: -4.980351197      0.000      0.000
REMARK  6 active torsions:
REMARK  status: ('A' for Active; 'I' for Inactive)
REMARK    1  A    between atoms: O1_2  and  C2_3 
REMARK    2  A    between atoms: C3_5  and  C4_6 
REMARK    3  A    between atoms: C3_5  and  C5_9 
REMARK    4  A    between atoms: C4_6  and  O3_7 
REMARK    5  A    between atoms: C5_9  and  O4_10 
REMARK    6  A    between atoms: C6_13  and  O6_14 
ROOT
HETATM    1  C2  UNL     1      -0.827  -3.791 -16.970  1.00  0.00     0.318 C 
HETATM    2  O2  UNL     1       0.250  -4.674 -17.074  1.00  0.00    -0.316 OA
HETATM    3  C3  UNL     1       0.736  -4.711 -15.797  1.00  0.00     0.212 C 
HETATM    4  O5  UNL     1      -0.304  -4.476 -14.919  1.00  0.00    -0.316 OA
HETATM    5  C6  UNL     1      -1.457  -4.308 -15.686  1.00  0.00     0.316 C 
ENDROOT
BRANCH   3   6
HETATM    6  C4  UNL     1       1.371  -6.032 -15.430  1.00  0.00     0.235 C 
BRANCH   6   7
HETATM    7  O3  UNL     1       1.395  -6.248 -14.053  1.00  0.00    -0.395 OA
ATOM      8  H3  UNL     1       1.611  -5.461 -13.566  1.00  0.00     0.209 HD
ENDBRANCH   6   7
ENDBRANCH   3   6
BRANCH   3   9
HETATM    9  C5  UNL     1       1.822  -3.647 -15.689  1.00  0.00     0.235 C 
BRANCH   9  10
HETATM   10  O4  UNL     1       2.432  -3.747 -14.443  1.00  0.00    -0.395 OA
ATOM     11  H4  UNL     1       3.359  -3.919 -14.565  1.00  0.00     0.209 HD
ENDBRANCH   9  10
ENDBRANCH   3   9
BRANCH   1  12
HETATM   12  O1  UNL     1      -1.681  -3.842 -18.040  1.00  0.00    -0.361 OA
HETATM   13  C1  UNL     1      -2.486  -4.978 -18.044  1.00  0.00     0.205 C 
ENDBRANCH   1  12
BRANCH   5  14
HETATM   14  O6  UNL     1      -2.282  -3.310 -15.190  1.00  0.00    -0.367 OA
ATOM     15  H6  UNL     1      -1.977  -3.091 -14.318  1.00  0.00     0.212 HD
ENDBRANCH   5  14
TORSDOF 6
ENDMDL
MODEL 2
REMARK VINA RESULT: -4.954181069      1.478      2.436
REMARK  6 active torsions:
REMARK  status: ('A' for Active; 'I' for Inactive)
REMARK    1  A    between atoms: O1_2  and  C2_3 
REMARK    2  A    between atoms: C3_5  and  C4_6 
REMARK    3  A    between atoms: C3_5  and  C5_9 
REMARK    4  A    between atoms: C4_6  and  O3_7 
REMARK    5  A    between atoms: C5_9  and  O4_10 
REMARK    6  A    between atoms: C6_13  and  O6_14 
ROOT
HETATM    1  C2  UNL     1      -0.981  -3.933 -16.065  1.00  0.00     0.318 C 
HETATM    2  O2  UNL     1      -0.443  -4.869 -15.179  1.00  0.00    -0.316 OA
HETATM    3  C3  UNL     1       0.734  -5.214 -15.781  1.00  0.00     0.212 C 
HETATM    4  O5  UNL     1       1.186  -4.140 -16.522  1.00  0.00    -0.316 OA
HETATM    5  C6  UNL     1       0.263  -3.108 -16.350  1.00  0.00     0.316 C 
ENDROOT
BRANCH   3   6
HETATM    6  C4  UNL     1       1.822  -5.602 -14.805  1.00  0.00     0.235 C 
BRANCH   6   7
HETATM    7  O3  UNL     1       1.327  -6.295 -13.703  1.00  0.00    -0.395 OA
ATOM      8  H3  UNL     1       1.710  -7.160 -13.616  1.00  0.00     0.209 HD
ENDBRANCH   6   7
ENDBRANCH   3   6
BRANCH   3   9
HETATM    9  C5  UNL     1       0.462  -6.433 -16.655  1.00  0.00     0.235 C 
BRANCH   9  10
HETATM   10  O4  UNL     1       1.202  -7.509 -16.175  1.00  0.00    -0.395 OA
ATOM     11  H4  UNL     1       0.841  -8.314 -16.527  1.00  0.00     0.209 HD
ENDBRANCH   9  10
ENDBRANCH   3   9
BRANCH   1  12
HETATM   12  O1  UNL     1      -2.000  -3.193 -15.525  1.00  0.00    -0.361 OA
HETATM   13  C1  UNL     1      -2.918  -2.752 -16.473  1.00  0.00     0.205 C 
ENDBRANCH   1  12
BRANCH   5  14
HETATM   14  O6  UNL     1       0.039  -2.398 -17.521  1.00  0.00    -0.367 OA
ATOM     15  H6  UNL     1       0.516  -2.834 -18.217  1.00  0.00     0.212 HD
ENDBRANCH   5  14
TORSDOF 6
ENDMDL
MODEL 3
REMARK VINA RESULT: -4.944503456      1.684      2.633
REMARK  6 active torsions:
REMARK  status: ('A' for Active; 'I' for Inactive)
REMARK    1  A    between atoms: O1_2  and  C2_3 
REMARK    2  A    between atoms: C3_5  and  C4_6 
REMARK    3  A    between atoms: C3_5  and  C5_9 
REMARK    4  A    between atoms: C4_6  and  O3_7 
REMARK    5  A    between atoms: C5_9  and  O4_10 
REMARK    6  A    between atoms: C6_13  and  O6_14 
ROOT
HETATM    1  C2  UNL     1       0.253  -4.869 -15.798  1.00  0.00     0.318 C 
HETATM    2  O2  UNL     1       1.249  -5.096 -14.845  1.00  0.00    -0.316 OA
HETATM    3  C3  UNL     1       2.266  -4.289 -15.272  1.00  0.00     0.212 C 
HETATM    4  O5  UNL     1       1.725  -3.207 -15.939  1.00  0.00    -0.316 OA
HETATM    5  C6  UNL     1       0.338  -3.354 -15.900  1.00  0.00     0.316 C 
ENDROOT
BRANCH   3   6
HETATM    6  C4  UNL     1       3.133  -3.763 -14.151  1.00  0.00     0.235 C 
BRANCH   6   7
HETATM    7  O3  UNL     1       2.781  -2.471 -13.767  1.00  0.00    -0.395 OA
ATOM      8  H3  UNL     1       3.327  -2.141 -13.062  1.00  0.00     0.209 HD
ENDBRANCH   6   7
ENDBRANCH   3   6
BRANCH   3   9
HETATM    9  C5  UNL     1       3.163  -5.124 -16.178  1.00  0.00     0.235 C 
BRANCH   9  10
HETATM   10  O4  UNL     1       4.391  -5.310 -15.552  1.00  0.00    -0.395 OA
ATOM     11  H4  UNL     1       4.798  -6.097 -15.896  1.00  0.00     0.209 HD
ENDBRANCH   9  10
ENDBRANCH   3   9
BRANCH   1  12
HETATM   12  O1  UNL     1      -0.985  -5.308 -15.408  1.00  0.00    -0.361 OA
HETATM   13  C1  UNL     1      -1.664  -5.993 -16.412  1.00  0.00     0.205 C 
ENDBRANCH   1  12
BRANCH   5  14
HETATM   14  O6  UNL     1      -0.268  -2.978 -17.089  1.00  0.00    -0.367 OA
ATOM     15  H6  UNL     1       0.018  -3.584 -17.763  1.00  0.00     0.212 HD
ENDBRANCH   5  14
TORSDOF 6
ENDMDL
MODEL 4
REMARK VINA RESULT: -4.924455050      1.437      4.079
REMARK  6 active torsions:
REMARK  status: ('A' for Active; 'I' for Inactive)
REMARK    1  A    between atoms: O1_2  and  C2_3 
REMARK    2  A    between atoms: C3_5  and  C4_6 
REMARK    3  A    between atoms: C3_5  and  C5_9 
REMARK    4  A    between atoms: C4_6  and  O3_7 
REMARK    5  A    between atoms: C5_9  and  O4_10 
REMARK    6  A    between atoms: C6_13  and  O6_14 
ROOT
HETATM    1  C2  UNL     1       1.175  -5.020 -16.213  1.00  0.00     0.318 C 
HETATM    2  O2  UNL     1       0.234  -4.066 -16.609  1.00  0.00    -0.316 OA
HETATM    3  C3  UNL     1      -0.920  -4.526 -16.039  1.00  0.00     0.212 C 
HETATM    4  O5  UNL     1      -0.601  -5.224 -14.890  1.00  0.00    -0.316 OA
HETATM    5  C6  UNL     1       0.786  -5.171 -14.751  1.00  0.00     0.316 C 
ENDROOT
BRANCH   3   6
HETATM    6  C4  UNL     1      -1.890  -3.428 -15.667  1.00  0.00     0.235 C 
BRANCH   6   7
HETATM    7  O3  UNL     1      -2.381  -2.751 -16.781  1.00  0.00    -0.395 OA
ATOM      8  H3  UNL     1      -2.453  -1.815 -16.634  1.00  0.00     0.209 HD
ENDBRANCH   6   7
ENDBRANCH   3   6
BRANCH   3   9
HETATM    9  C5  UNL     1      -1.618  -5.410 -17.065  1.00  0.00     0.235 C 
BRANCH   9  10
HETATM   10  O4  UNL     1      -2.072  -6.564 -16.435  1.00  0.00    -0.395 OA
ATOM     11  H4  UNL     1      -1.830  -7.319 -16.960  1.00  0.00     0.209 HD
ENDBRANCH   9  10
ENDBRANCH   3   9
BRANCH   1  12
HETATM   12  O1  UNL     1       2.471  -4.608 -16.380  1.00  0.00    -0.361 OA
HETATM   13  C1  UNL     1       2.990  -3.968 -15.258  1.00  0.00     0.205 C 
ENDBRANCH   1  12
BRANCH   5  14
HETATM   14  O6  UNL     1       1.318  -6.368 -14.296  1.00  0.00    -0.367 OA
ATOM     15  H6  UNL     1       1.378  -6.314 -13.349  1.00  0.00     0.212 HD
ENDBRANCH   5  14
TORSDOF 6
ENDMDL
MODEL 5
REMARK VINA RESULT: -4.767393911      1.814      2.778
REMARK  6 active torsions:
REMARK  status: ('A' for Active; 'I' for Inactive)
REMARK    1  A    between atoms: O1_2  and  C2_3 
REMARK    2  A    between atoms: C3_5  and  C4_6 
REMARK    3  A    between atoms: C3_5  and  C5_9 
REMARK    4  A    between atoms: C4_6  and  O3_7 
REMARK    5  A    between atoms: C5_9  and  O4_10 
REMARK    6  A    between atoms: C6_13  and  O6_14 
ROOT
HETATM    1  C2  UNL     1       1.036  -3.972 -15.725  1.00  0.00     0.318 C 
HETATM    2  O2  UNL     1       2.382  -3.709 -15.990  1.00  0.00    -0.316 OA
HETATM    3  C3  UNL     1       3.016  -4.270 -14.917  1.00  0.00     0.212 C 
HETATM    4  O5  UNL     1       2.259  -5.330 -14.458  1.00  0.00    -0.316 OA
HETATM    5  C6  UNL     1       1.141  -5.424 -15.287  1.00  0.00     0.316 C 
ENDROOT
BRANCH   3   6
HETATM    6  C4  UNL     1       4.401  -4.786 -15.236  1.00  0.00     0.235 C 
BRANCH   6   7
HETATM    7  O3  UNL     1       4.970  -5.478 -14.169  1.00  0.00    -0.395 OA
ATOM      8  H3  UNL     1       5.277  -4.898 -13.482  1.00  0.00     0.209 HD
ENDBRANCH   6   7
ENDBRANCH   3   6
BRANCH   3   9
HETATM    9  C5  UNL     1       3.176  -3.184 -13.860  1.00  0.00     0.235 C 
BRANCH   9  10
HETATM   10  O4  UNL     1       4.524  -2.863 -13.741  1.00  0.00    -0.395 OA
ATOM     11  H4  UNL     1       4.946  -3.504 -13.181  1.00  0.00     0.209 HD
ENDBRANCH   9  10
ENDBRANCH   3   9
BRANCH   1  12
HETATM   12  O1  UNL     1       0.222  -3.802 -16.814  1.00  0.00    -0.361 OA
HETATM   13  C1  UNL     1      -1.034  -3.299 -16.487  1.00  0.00     0.205 C 
ENDBRANCH   1  12
BRANCH   5  14
HETATM   14  O6  UNL     1      -0.014  -5.736 -14.584  1.00  0.00    -0.367 OA
ATOM     15  H6  UNL     1      -0.742  -5.317 -15.027  1.00  0.00     0.212 HD
ENDBRANCH   5  14
TORSDOF 6
ENDMDL
