MODEL 1
REMARK VINA RESULT: -8.392932201      0.000      0.000
REMARK  10 active torsions:
REMARK  status: ('A' for Active; 'I' for Inactive)
REMARK    1  A    between atoms: C3_3  and  C4_4 
REMARK       I    between atoms: C4_4  and  N1_6 
REMARK    2  A    between atoms: N1_6  and  N2_7 
REMARK    3  A    between atoms: C5_9  and  O2_10 
REMARK    4  A    between atoms: C5_9  and  C6_12 
REMARK    5  A    between atoms: C6_12  and  N3_13 
REMARK    6  A    between atoms: N3_13  and  C7_15 
REMARK    7  A    between atoms: C10_18  and  C11_19 
REMARK       I    between atoms: C11_19  and  N4_21 
REMARK    8  A    between atoms: N4_21  and  C12_23 
REMARK    9  A    between atoms: C12_23  and  C13_24 
REMARK   10  A    between atoms: C13_24  and  O4_26 
ROOT
HETATM    1  C7  UNL     1     -33.583   0.008   5.190  1.00  0.00     0.028 A 
HETATM    2  C8  UNL     1     -34.827   0.796   4.994  1.00  0.00     0.030 A 
HETATM    3  C9  UNL     1     -34.973   1.528   3.800  1.00  0.00     0.019 A 
HETATM    4  C10 UNL     1     -33.904   1.519   2.786  1.00  0.00     0.032 A 
HETATM    5  C16 UNL     1     -32.869   0.787   3.129  1.00  0.00     0.019 A 
HETATM    6  C17 UNL     1     -32.721   0.050   4.274  1.00  0.00     0.030 A 
ENDROOT
BRANCH   1   7
HETATM    7  N3  UNL     1     -33.603  -0.622   6.492  1.00  0.00    -0.382 N 
ATOM      8  H3  UNL     1     -33.096  -1.483   6.700  1.00  0.00     0.160 HD
BRANCH   7   9
HETATM    9  C6  UNL     1     -34.435   0.101   7.509  1.00  0.00     0.206 C 
BRANCH   9  10
HETATM   10  C5  UNL     1     -35.578  -0.900   7.582  1.00  0.00     0.159 C 
HETATM   11  N2  UNL     1     -35.550  -2.218   7.286  1.00  0.00    -0.212 N 
ATOM     12  H2  UNL     1     -34.651  -2.685   7.170  1.00  0.00     0.204 HD
BRANCH  11  13
HETATM   13  N1  UNL     1     -36.661  -2.911   7.146  1.00  0.00    -0.280 NA
HETATM   14  C4  UNL     1     -37.833  -3.594   7.015  1.00  0.00     0.335 C 
HETATM   15  O1  UNL     1     -39.013  -3.367   7.204  1.00  0.00    -0.250 OA
BRANCH  14  16
HETATM   16  C3  UNL     1     -37.469  -5.011   6.441  1.00  0.00     0.087 C 
HETATM   17  C2  UNL     1     -36.358  -5.596   6.812  1.00  0.00    -0.024 C 
HETATM   18  C1  UNL     1     -36.100  -6.945   6.177  1.00  0.00     0.036 C 
ENDBRANCH  14  16
ENDBRANCH  11  13
BRANCH  10  19
HETATM   19  O2  UNL     1     -36.784  -0.376   7.959  1.00  0.00    -0.347 OA
ATOM     20  H2  UNL     1     -37.145   0.309   7.409  1.00  0.00     0.219 HD
ENDBRANCH  10  19
ENDBRANCH   9  10
ENDBRANCH   7   9
ENDBRANCH   1   7
BRANCH   4  21
HETATM   21  C11 UNL     1     -34.004   2.350   1.651  1.00  0.00     0.251 C 
HETATM   22  O3  UNL     1     -32.960   2.786   1.075  1.00  0.00    -0.268 OA
HETATM   23  N4  UNL     1     -35.316   2.605   1.185  1.00  0.00    -0.354 N 
ATOM     24  H4  UNL     1     -36.198   2.406   1.658  1.00  0.00     0.162 HD
BRANCH  23  25
HETATM   25  C12 UNL     1     -35.100   3.277  -0.247  1.00  0.00     0.154 C 
BRANCH  25  26
HETATM   26  C13 UNL     1     -36.652   3.569  -0.621  1.00  0.00     0.134 C 
HETATM   27  C14 UNL     1     -37.539   2.994   0.395  1.00  0.00     0.041 C 
BRANCH  26  28
HETATM   28  O4  UNL     1     -36.748   2.958  -1.834  1.00  0.00    -0.389 OA
HETATM   29  C15 UNL     1     -37.128   3.608  -2.945  1.00  0.00     0.202 C 
ENDBRANCH  26  28
ENDBRANCH  25  26
ENDBRANCH  23  25
ENDBRANCH   4  21
TORSDOF 10
ENDMDL
MODEL 2
REMARK VINA RESULT: -8.356759460      1.186      1.327
REMARK  10 active torsions:
REMARK  status: ('A' for Active; 'I' for Inactive)
REMARK    1  A    between atoms: C3_3  and  C4_4 
REMARK       I    between atoms: C4_4  and  N1_6 
REMARK    2  A    between atoms: N1_6  and  N2_7 
REMARK    3  A    between atoms: C5_9  and  O2_10 
REMARK    4  A    between atoms: C5_9  and  C6_12 
REMARK    5  A    between atoms: C6_12  and  N3_13 
REMARK    6  A    between atoms: N3_13  and  C7_15 
REMARK    7  A    between atoms: C10_18  and  C11_19 
REMARK       I    between atoms: C11_19  and  N4_21 
REMARK    8  A    between atoms: N4_21  and  C12_23 
REMARK    9  A    between atoms: C12_23  and  C13_24 
REMARK   10  A    between atoms: C13_24  and  O4_26 
ROOT
HETATM    1  C7  UNL     1     -33.773   0.420   4.150  1.00  0.00     0.028 A 
HETATM    2  C8  UNL     1     -35.024   1.176   3.888  1.00  0.00     0.030 A 
HETATM    3  C9  UNL     1     -35.037   2.098   2.823  1.00  0.00     0.019 A 
HETATM    4  C10 UNL     1     -33.828   2.311   2.008  1.00  0.00     0.032 A 
HETATM    5  C16 UNL     1     -32.809   1.576   2.388  1.00  0.00     0.019 A 
HETATM    6  C17 UNL     1     -32.786   0.657   3.405  1.00  0.00     0.030 A 
ENDROOT
BRANCH   1   7
HETATM    7  N3  UNL     1     -33.946  -0.428   5.309  1.00  0.00    -0.382 N 
ATOM      8  H3  UNL     1     -33.695  -1.416   5.317  1.00  0.00     0.160 HD
BRANCH   7   9
HETATM    9  C6  UNL     1     -34.528   0.277   6.499  1.00  0.00     0.206 C 
BRANCH   9  10
HETATM   10  C5  UNL     1     -35.554  -0.782   6.878  1.00  0.00     0.159 C 
HETATM   11  N2  UNL     1     -35.567  -2.087   6.533  1.00  0.00    -0.212 N 
ATOM     12  H2  UNL     1     -34.730  -2.506   6.127  1.00  0.00     0.204 HD
BRANCH  11  13
HETATM   13  N1  UNL     1     -36.640  -2.830   6.710  1.00  0.00    -0.280 NA
HETATM   14  C4  UNL     1     -37.772  -3.564   6.908  1.00  0.00     0.335 C 
HETATM   15  O1  UNL     1     -38.906  -3.351   7.291  1.00  0.00    -0.250 OA
BRANCH  14  16
HETATM   16  C3  UNL     1     -37.437  -5.038   6.476  1.00  0.00     0.087 C 
HETATM   17  C2  UNL     1     -36.286  -5.566   6.809  1.00  0.00    -0.024 C 
HETATM   18  C1  UNL     1     -36.063  -6.980   6.319  1.00  0.00     0.036 C 
ENDBRANCH  14  16
ENDBRANCH  11  13
BRANCH  10  19
HETATM   19  O2  UNL     1     -36.603  -0.329   7.627  1.00  0.00    -0.347 OA
ATOM     20  H2  UNL     1     -36.463  -0.255   8.563  1.00  0.00     0.219 HD
ENDBRANCH  10  19
ENDBRANCH   9  10
ENDBRANCH   7   9
ENDBRANCH   1   7
BRANCH   4  21
HETATM   21  C11 UNL     1     -33.812   3.322   1.025  1.00  0.00     0.251 C 
HETATM   22  O3  UNL     1     -33.089   4.356   1.173  1.00  0.00    -0.268 OA
HETATM   23  N4  UNL     1     -34.595   3.076  -0.128  1.00  0.00    -0.354 N 
ATOM     24  H4  UNL     1     -35.295   2.346  -0.266  1.00  0.00     0.162 HD
BRANCH  23  25
HETATM   25  C12 UNL     1     -34.134   4.201  -1.163  1.00  0.00     0.154 C 
BRANCH  25  26
HETATM   26  C13 UNL     1     -35.254   3.956  -2.311  1.00  0.00     0.134 C 
HETATM   27  C14 UNL     1     -36.478   3.406  -1.722  1.00  0.00     0.041 C 
BRANCH  26  28
HETATM   28  O4  UNL     1     -34.604   3.082  -3.128  1.00  0.00    -0.389 OA
HETATM   29  C15 UNL     1     -35.239   2.341  -4.049  1.00  0.00     0.202 C 
ENDBRANCH  26  28
ENDBRANCH  25  26
ENDBRANCH  23  25
ENDBRANCH   4  21
TORSDOF 10
ENDMDL
MODEL 3
REMARK VINA RESULT: -8.320090206      1.340      1.935
REMARK  10 active torsions:
REMARK  status: ('A' for Active; 'I' for Inactive)
REMARK    1  A    between atoms: C3_3  and  C4_4 
REMARK       I    between atoms: C4_4  and  N1_6 
REMARK    2  A    between atoms: N1_6  and  N2_7 
REMARK    3  A    between atoms: C5_9  and  O2_10 
REMARK    4  A    between atoms: C5_9  and  C6_12 
REMARK    5  A    between atoms: C6_12  and  N3_13 
REMARK    6  A    between atoms: N3_13  and  C7_15 
REMARK    7  A    between atoms: C10_18  and  C11_19 
REMARK       I    between atoms: C11_19  and  N4_21 
REMARK    8  A    between atoms: N4_21  and  C12_23 
REMARK    9  A    between atoms: C12_23  and  C13_24 
REMARK   10  A    between atoms: C13_24  and  O4_26 
ROOT
HETATM    1  C7  UNL     1     -34.415   0.831   3.706  1.00  0.00     0.028 A 
HETATM    2  C8  UNL     1     -33.064   1.082   3.143  1.00  0.00     0.030 A 
HETATM    3  C9  UNL     1     -32.945   1.982   2.067  1.00  0.00     0.019 A 
HETATM    4  C10 UNL     1     -34.141   2.639   1.510  1.00  0.00     0.032 A 
HETATM    5  C16 UNL     1     -35.253   2.289   2.113  1.00  0.00     0.019 A 
HETATM    6  C17 UNL     1     -35.385   1.436   3.176  1.00  0.00     0.030 A 
ENDROOT
BRANCH   1   7
HETATM    7  N3  UNL     1     -34.332  -0.156   4.760  1.00  0.00    -0.382 N 
ATOM      8  H3  UNL     1     -34.132  -1.141   4.584  1.00  0.00     0.160 HD
BRANCH   7   9
HETATM    9  C6  UNL     1     -34.566   0.397   6.134  1.00  0.00     0.206 C 
BRANCH   9  10
HETATM   10  C5  UNL     1     -35.529  -0.676   6.622  1.00  0.00     0.159 C 
HETATM   11  N2  UNL     1     -35.562  -1.982   6.279  1.00  0.00    -0.212 N 
ATOM     12  H2  UNL     1     -34.768  -2.389   5.784  1.00  0.00     0.204 HD
BRANCH  11  13
HETATM   13  N1  UNL     1     -36.598  -2.740   6.572  1.00  0.00    -0.280 NA
HETATM   14  C4  UNL     1     -37.692  -3.489   6.889  1.00  0.00     0.335 C 
HETATM   15  O1  UNL     1     -38.808  -3.281   7.324  1.00  0.00    -0.250 OA
BRANCH  14  16
HETATM   16  C3  UNL     1     -37.336  -4.980   6.539  1.00  0.00     0.087 C 
HETATM   17  C2  UNL     1     -36.167  -5.464   6.876  1.00  0.00    -0.024 C 
HETATM   18  C1  UNL     1     -35.926  -6.901   6.467  1.00  0.00     0.036 C 
ENDBRANCH  14  16
ENDBRANCH  11  13
BRANCH  10  19
HETATM   19  O2  UNL     1     -36.497  -0.237   7.482  1.00  0.00    -0.347 OA
ATOM     20  H2  UNL     1     -36.294  -0.268   8.409  1.00  0.00     0.219 HD
ENDBRANCH  10  19
ENDBRANCH   9  10
ENDBRANCH   7   9
ENDBRANCH   1   7
BRANCH   4  21
HETATM   21  C11 UNL     1     -34.029   3.442   0.356  1.00  0.00     0.251 C 
HETATM   22  O3  UNL     1     -33.105   4.308   0.259  1.00  0.00    -0.268 OA
HETATM   23  N4  UNL     1     -34.961   3.176  -0.675  1.00  0.00    -0.354 N 
ATOM     24  H4  UNL     1     -35.802   2.600  -0.626  1.00  0.00     0.162 HD
BRANCH  23  25
HETATM   25  C12 UNL     1     -34.399   3.986  -1.931  1.00  0.00     0.154 C 
BRANCH  25  26
HETATM   26  C13 UNL     1     -35.501   3.533  -3.032  1.00  0.00     0.134 C 
HETATM   27  C14 UNL     1     -36.752   3.146  -2.374  1.00  0.00     0.041 C 
BRANCH  26  28
HETATM   28  O4  UNL     1     -34.859   2.492  -3.632  1.00  0.00    -0.389 OA
HETATM   29  C15 UNL     1     -35.419   1.760  -4.607  1.00  0.00     0.202 C 
ENDBRANCH  26  28
ENDBRANCH  25  26
ENDBRANCH  23  25
ENDBRANCH   4  21
TORSDOF 10
ENDMDL
MODEL 4
REMARK VINA RESULT: -8.301561043      1.549      1.937
REMARK  10 active torsions:
REMARK  status: ('A' for Active; 'I' for Inactive)
REMARK    1  A    between atoms: C3_3  and  C4_4 
REMARK       I    between atoms: C4_4  and  N1_6 
REMARK    2  A    between atoms: N1_6  and  N2_7 
REMARK    3  A    between atoms: C5_9  and  O2_10 
REMARK    4  A    between atoms: C5_9  and  C6_12 
REMARK    5  A    between atoms: C6_12  and  N3_13 
REMARK    6  A    between atoms: N3_13  and  C7_15 
REMARK    7  A    between atoms: C10_18  and  C11_19 
REMARK       I    between atoms: C11_19  and  N4_21 
REMARK    8  A    between atoms: N4_21  and  C12_23 
REMARK    9  A    between atoms: C12_23  and  C13_24 
REMARK   10  A    between atoms: C13_24  and  O4_26 
ROOT
HETATM    1  C7  UNL     1     -33.785   0.330   4.229  1.00  0.00     0.028 A 
HETATM    2  C8  UNL     1     -35.170   0.735   3.878  1.00  0.00     0.030 A 
HETATM    3  C9  UNL     1     -35.359   1.555   2.748  1.00  0.00     0.019 A 
HETATM    4  C10 UNL     1     -34.203   2.005   1.953  1.00  0.00     0.032 A 
HETATM    5  C16 UNL     1     -33.053   1.571   2.415  1.00  0.00     0.019 A 
HETATM    6  C17 UNL     1     -32.853   0.754   3.497  1.00  0.00     0.030 A 
ENDROOT
BRANCH   1   7
HETATM    7  N3  UNL     1     -33.799  -0.458   5.443  1.00  0.00    -0.382 N 
ATOM      8  H3  UNL     1     -33.433  -1.409   5.493  1.00  0.00     0.160 HD
BRANCH   7   9
HETATM    9  C6  UNL     1     -34.400   0.248   6.622  1.00  0.00     0.206 C 
BRANCH   9  10
HETATM   10  C5  UNL     1     -35.473  -0.781   6.948  1.00  0.00     0.159 C 
HETATM   11  N2  UNL     1     -35.463  -2.105   6.681  1.00  0.00    -0.212 N 
ATOM     12  H2  UNL     1     -34.591  -2.551   6.395  1.00  0.00     0.204 HD
BRANCH  11  13
HETATM   13  N1  UNL     1     -36.557  -2.831   6.783  1.00  0.00    -0.280 NA
HETATM   14  C4  UNL     1     -37.710  -3.548   6.903  1.00  0.00     0.335 C 
HETATM   15  O1  UNL     1     -38.857  -3.324   7.240  1.00  0.00    -0.250 OA
BRANCH  14  16
HETATM   16  C3  UNL     1     -37.383  -5.013   6.437  1.00  0.00     0.087 C 
HETATM   17  C2  UNL     1     -36.257  -5.574   6.801  1.00  0.00    -0.024 C 
HETATM   18  C1  UNL     1     -36.039  -6.975   6.274  1.00  0.00     0.036 C 
ENDBRANCH  14  16
ENDBRANCH  11  13
BRANCH  10  19
HETATM   19  O2  UNL     1     -36.593  -0.279   7.549  1.00  0.00    -0.347 OA
ATOM     20  H2  UNL     1     -36.950  -0.776   8.275  1.00  0.00     0.219 HD
ENDBRANCH  10  19
ENDBRANCH   9  10
ENDBRANCH   7   9
ENDBRANCH   1   7
BRANCH   4  21
HETATM   21  C11 UNL     1     -34.389   2.923   0.898  1.00  0.00     0.251 C 
HETATM   22  O3  UNL     1     -35.545   3.123   0.413  1.00  0.00    -0.268 OA
HETATM   23  N4  UNL     1     -33.233   3.622   0.476  1.00  0.00    -0.354 N 
ATOM     24  H4  UNL     1     -32.261   3.429   0.718  1.00  0.00     0.162 HD
BRANCH  23  25
HETATM   25  C12 UNL     1     -33.798   4.780  -0.467  1.00  0.00     0.154 C 
BRANCH  25  26
HETATM   26  C13 UNL     1     -33.311   4.193  -1.900  1.00  0.00     0.134 C 
HETATM   27  C14 UNL     1     -32.303   5.074  -2.497  1.00  0.00     0.041 C 
BRANCH  26  28
HETATM   28  O4  UNL     1     -34.487   4.169  -2.586  1.00  0.00    -0.389 OA
HETATM   29  C15 UNL     1     -34.969   3.056  -3.161  1.00  0.00     0.202 C 
ENDBRANCH  26  28
ENDBRANCH  25  26
ENDBRANCH  23  25
ENDBRANCH   4  21
TORSDOF 10
ENDMDL
MODEL 5
REMARK VINA RESULT: -8.240786784      0.639      1.029
REMARK  10 active torsions:
REMARK  status: ('A' for Active; 'I' for Inactive)
REMARK    1  A    between atoms: C3_3  and  C4_4 
REMARK       I    between atoms: C4_4  and  N1_6 
REMARK    2  A    between atoms: N1_6  and  N2_7 
REMARK    3  A    between atoms: C5_9  and  O2_10 
REMARK    4  A    between atoms: C5_9  and  C6_12 
REMARK    5  A    between atoms: C6_12  and  N3_13 
REMARK    6  A    between atoms: N3_13  and  C7_15 
REMARK    7  A    between atoms: C10_18  and  C11_19 
REMARK       I    between atoms: C11_19  and  N4_21 
REMARK    8  A    between atoms: N4_21  and  C12_23 
REMARK    9  A    between atoms: C12_23  and  C13_24 
REMARK   10  A    between atoms: C13_24  and  O4_26 
ROOT
HETATM    1  C7  UNL     1     -33.626   0.014   5.207  1.00  0.00     0.028 A 
HETATM    2  C8  UNL     1     -34.884   0.786   5.035  1.00  0.00     0.030 A 
HETATM    3  C9  UNL     1     -35.065   1.511   3.841  1.00  0.00     0.019 A 
HETATM    4  C10 UNL     1     -34.018   1.509   2.803  1.00  0.00     0.032 A 
HETATM    5  C16 UNL     1     -32.967   0.792   3.127  1.00  0.00     0.019 A 
HETATM    6  C17 UNL     1     -32.785   0.062   4.271  1.00  0.00     0.030 A 
ENDROOT
BRANCH   1   7
HETATM    7  N3  UNL     1     -33.610  -0.611   6.511  1.00  0.00    -0.382 N 
ATOM      8  H3  UNL     1     -33.083  -1.461   6.713  1.00  0.00     0.160 HD
BRANCH   7   9
HETATM    9  C6  UNL     1     -34.435   0.102   7.541  1.00  0.00     0.206 C 
BRANCH   9  10
HETATM   10  C5  UNL     1     -35.582  -0.895   7.605  1.00  0.00     0.159 C 
HETATM   11  N2  UNL     1     -35.553  -2.216   7.323  1.00  0.00    -0.212 N 
ATOM     12  H2  UNL     1     -34.653  -2.686   7.226  1.00  0.00     0.204 HD
BRANCH  11  13
HETATM   13  N1  UNL     1     -36.663  -2.907   7.170  1.00  0.00    -0.280 NA
HETATM   14  C4  UNL     1     -37.835  -3.590   7.029  1.00  0.00     0.335 C 
HETATM   15  O1  UNL     1     -39.013  -3.373   7.237  1.00  0.00    -0.250 OA
BRANCH  14  16
HETATM   16  C3  UNL     1     -37.473  -4.986   6.403  1.00  0.00     0.087 C 
HETATM   17  C2  UNL     1     -36.410  -5.628   6.821  1.00  0.00    -0.024 C 
HETATM   18  C1  UNL     1     -36.147  -6.949   6.131  1.00  0.00     0.036 C 
ENDBRANCH  14  16
ENDBRANCH  11  13
BRANCH  10  19
HETATM   19  O2  UNL     1     -36.792  -0.365   7.957  1.00  0.00    -0.347 OA
ATOM     20  H2  UNL     1     -36.808   0.202   8.719  1.00  0.00     0.219 HD
ENDBRANCH  10  19
ENDBRANCH   9  10
ENDBRANCH   7   9
ENDBRANCH   1   7
BRANCH   4  21
HETATM   21  C11 UNL     1     -34.153   2.334   1.667  1.00  0.00     0.251 C 
HETATM   22  O3  UNL     1     -33.128   2.735   1.034  1.00  0.00    -0.268 OA
HETATM   23  N4  UNL     1     -35.480   2.624   1.268  1.00  0.00    -0.354 N 
ATOM     24  H4  UNL     1     -36.342   2.455   1.787  1.00  0.00     0.162 HD
BRANCH  23  25
HETATM   25  C12 UNL     1     -35.320   3.278  -0.179  1.00  0.00     0.154 C 
BRANCH  25  26
HETATM   26  C13 UNL     1     -36.839   3.076  -0.712  1.00  0.00     0.134 C 
HETATM   27  C14 UNL     1     -37.141   4.042  -1.773  1.00  0.00     0.041 C 
BRANCH  26  28
HETATM   28  O4  UNL     1     -37.548   3.286   0.432  1.00  0.00    -0.389 OA
HETATM   29  C15 UNL     1     -38.736   3.908   0.444  1.00  0.00     0.202 C 
ENDBRANCH  26  28
ENDBRANCH  25  26
ENDBRANCH  23  25
ENDBRANCH   4  21
TORSDOF 10
ENDMDL
