MODEL 1
REMARK VINA RESULT: -8.321864981      0.000      0.000
REMARK  8 active torsions:
REMARK  status: ('A' for Active; 'I' for Inactive)
REMARK       I    between atoms: C2_2  and  N1_4 
REMARK    1  A    between atoms: N1_4  and  C3_6 
REMARK    2  A    between atoms: C3_6  and  C4_7 
REMARK    3  A    between atoms: C3_6  and  C14_32 
REMARK       I    between atoms: C4_7  and  N2_9 
REMARK    4  A    between atoms: N2_9  and  C5_11 
REMARK    5  A    between atoms: C5_11  and  C6_12 
REMARK       I    between atoms: C6_12  and  N3_14 
REMARK    6  A    between atoms: N3_14  and  C7_16 
REMARK    7  A    between atoms: C7_16  and  C9_18 
REMARK       I    between atoms: C9_18  and  N4_20 
REMARK    8  A    between atoms: N4_20  and  C10_22 
ROOT
HETATM    1  C6  UNL     1      -5.406  -1.630  19.674  1.00  0.00     0.236 C 
HETATM    2  O3  UNL     1      -4.336  -1.115  20.081  1.00  0.00    -0.272 OA
HETATM    3  N3  UNL     1      -6.601  -1.421  20.396  1.00  0.00    -0.347 N 
ATOM      4  H3  UNL     1      -7.453  -1.852  20.038  1.00  0.00     0.163 HD
ENDROOT
BRANCH   3   5
HETATM    5  C7  UNL     1      -6.701  -0.645  21.598  1.00  0.00     0.172 C 
HETATM    6  C8  UNL     1      -8.009  -0.898  22.335  1.00  0.00     0.042 C 
BRANCH   5   7
HETATM    7  C9  UNL     1      -6.587   0.800  21.384  1.00  0.00     0.242 C 
HETATM    8  O4  UNL     1      -7.572   1.462  21.005  1.00  0.00    -0.271 OA
HETATM    9  N4  UNL     1      -5.363   1.459  21.605  1.00  0.00    -0.332 N 
ATOM     10  H4  UNL     1      -4.554   0.922  21.915  1.00  0.00     0.165 HD
BRANCH   9  11
HETATM   11  C10 UNL     1      -5.231   2.904  21.398  1.00  0.00     0.234 C 
HETATM   12  C11 UNL     1      -3.777   3.243  21.304  1.00  0.00     0.074 C 
HETATM   13  C12 UNL     1      -3.647   4.729  21.082  1.00  0.00     0.127 C 
HETATM   14  N5  UNL     1      -4.234   5.033  19.793  1.00  0.00    -0.356 N 
HETATM   15  C13 UNL     1      -5.472   4.417  19.476  1.00  0.00     0.214 C 
ATOM     16  H5  UNL     1      -3.774   5.665  19.138  1.00  0.00     0.163 HD
HETATM   17  N6  UNL     1      -6.162   4.899  18.501  1.00  0.00    -0.365 N 
HETATM   18  O5  UNL     1      -5.919   3.312  20.215  1.00  0.00    -0.296 OA
ATOM     19  H62 UNL     1      -5.837   5.702  17.964  1.00  0.00     0.159 HD
ATOM     20  H61 UNL     1      -7.052   4.456  18.273  1.00  0.00     0.159 HD
ENDBRANCH   9  11
ENDBRANCH   5   7
ENDBRANCH   3   5
BRANCH   1  21
HETATM   21  C5  UNL     1      -5.408  -2.452  18.441  1.00  0.00     0.225 C 
BRANCH  21  22
HETATM   22  N2  UNL     1      -4.796  -3.728  18.561  1.00  0.00    -0.351 N 
HETATM   23  C4  UNL     1      -4.091  -4.332  17.500  1.00  0.00     0.241 C 
HETATM   24  O2  UNL     1      -3.998  -3.731  16.404  1.00  0.00    -0.271 OA
ATOM     25  H2  UNL     1      -4.868  -4.226  19.447  1.00  0.00     0.163 HD
BRANCH  23  26
HETATM   26  C3  UNL     1      -3.441  -5.670  17.621  1.00  0.00     0.179 C 
BRANCH  26  27
HETATM   27  N1  UNL     1      -4.083  -6.655  16.802  1.00  0.00    -0.348 N 
HETATM   28  C2  UNL     1      -4.740  -7.782  17.378  1.00  0.00     0.214 C 
HETATM   29  C1  UNL     1      -5.410  -8.815  16.559  1.00  0.00     0.117 C 
HETATM   30  O1  UNL     1      -4.772  -7.941  18.644  1.00  0.00    -0.274 OA
ATOM     31  H1  UNL     1      -4.070  -6.547  15.788  1.00  0.00     0.163 HD
ENDBRANCH  26  27
BRANCH  26  32
HETATM   32  C14 UNL     1      -1.952  -5.573  17.368  1.00  0.00     0.009 C 
HETATM   33  C15 UNL     1      -1.490  -6.560  16.330  1.00  0.00     0.012 C 
HETATM   34  C16 UNL     1      -1.162  -5.659  18.655  1.00  0.00     0.012 C 
ENDBRANCH  26  32
ENDBRANCH  23  26
ENDBRANCH  21  22
ENDBRANCH   1  21
TORSDOF 8
ENDMDL
MODEL 2
REMARK VINA RESULT: -7.901084294      1.268      1.989
REMARK  8 active torsions:
REMARK  status: ('A' for Active; 'I' for Inactive)
REMARK       I    between atoms: C2_2  and  N1_4 
REMARK    1  A    between atoms: N1_4  and  C3_6 
REMARK    2  A    between atoms: C3_6  and  C4_7 
REMARK    3  A    between atoms: C3_6  and  C14_32 
REMARK       I    between atoms: C4_7  and  N2_9 
REMARK    4  A    between atoms: N2_9  and  C5_11 
REMARK    5  A    between atoms: C5_11  and  C6_12 
REMARK       I    between atoms: C6_12  and  N3_14 
REMARK    6  A    between atoms: N3_14  and  C7_16 
REMARK    7  A    between atoms: C7_16  and  C9_18 
REMARK       I    between atoms: C9_18  and  N4_20 
REMARK    8  A    between atoms: N4_20  and  C10_22 
ROOT
HETATM    1  C6  UNL     1      -5.509  -1.658  19.980  1.00  0.00     0.236 C 
HETATM    2  O3  UNL     1      -4.459  -1.027  20.258  1.00  0.00    -0.272 OA
HETATM    3  N3  UNL     1      -6.663  -1.478  20.771  1.00  0.00    -0.347 N 
ATOM      4  H3  UNL     1      -7.499  -2.003  20.517  1.00  0.00     0.163 HD
ENDROOT
BRANCH   3   5
HETATM    5  C7  UNL     1      -6.743  -0.607  21.908  1.00  0.00     0.172 C 
HETATM    6  C8  UNL     1      -8.064  -0.757  22.651  1.00  0.00     0.042 C 
BRANCH   5   7
HETATM    7  C9  UNL     1      -6.577   0.812  21.584  1.00  0.00     0.242 C 
HETATM    8  O4  UNL     1      -7.504   1.449  21.048  1.00  0.00    -0.271 OA
HETATM    9  N4  UNL     1      -5.370   1.474  21.875  1.00  0.00    -0.332 N 
ATOM     10  H4  UNL     1      -4.608   0.956  22.313  1.00  0.00     0.165 HD
BRANCH   9  11
HETATM   11  C10 UNL     1      -5.187   2.893  21.559  1.00  0.00     0.234 C 
HETATM   12  C11 UNL     1      -3.724   3.165  21.407  1.00  0.00     0.074 C 
HETATM   13  C12 UNL     1      -3.542   4.625  21.074  1.00  0.00     0.127 C 
HETATM   14  N5  UNL     1      -4.148   4.857  19.780  1.00  0.00    -0.356 N 
HETATM   15  C13 UNL     1      -5.417   4.271  19.537  1.00  0.00     0.214 C 
ATOM     16  H5  UNL     1      -3.681   5.421  19.070  1.00  0.00     0.163 HD
HETATM   17  N6  UNL     1      -6.113   4.708  18.545  1.00  0.00    -0.365 N 
HETATM   18  O5  UNL     1      -5.889   3.242  20.365  1.00  0.00    -0.296 OA
ATOM     19  H62 UNL     1      -5.770   5.457  17.942  1.00  0.00     0.159 HD
ATOM     20  H61 UNL     1      -7.025   4.286  18.370  1.00  0.00     0.159 HD
ENDBRANCH   9  11
ENDBRANCH   5   7
ENDBRANCH   3   5
BRANCH   1  21
HETATM   21  C5  UNL     1      -5.528  -2.584  18.823  1.00  0.00     0.225 C 
BRANCH  21  22
HETATM   22  N2  UNL     1      -4.530  -3.595  18.838  1.00  0.00    -0.351 N 
HETATM   23  C4  UNL     1      -3.835  -3.991  17.676  1.00  0.00     0.241 C 
HETATM   24  O2  UNL     1      -4.103  -3.438  16.584  1.00  0.00    -0.271 OA
ATOM     25  H2  UNL     1      -4.307  -4.052  19.722  1.00  0.00     0.163 HD
BRANCH  23  26
HETATM   26  C3  UNL     1      -2.783  -5.047  17.687  1.00  0.00     0.179 C 
BRANCH  26  27
HETATM   27  N1  UNL     1      -2.698  -5.708  18.956  1.00  0.00    -0.348 N 
HETATM   28  C2  UNL     1      -1.443  -6.118  19.495  1.00  0.00     0.214 C 
HETATM   29  C1  UNL     1      -1.323  -6.802  20.800  1.00  0.00     0.117 C 
HETATM   30  O1  UNL     1      -0.359  -5.904  18.855  1.00  0.00    -0.274 OA
ATOM     31  H1  UNL     1      -3.552  -5.888  19.484  1.00  0.00     0.163 HD
ENDBRANCH  26  27
BRANCH  26  32
HETATM   32  C14 UNL     1      -2.971  -6.009  16.534  1.00  0.00     0.009 C 
HETATM   33  C15 UNL     1      -3.944  -7.108  16.867  1.00  0.00     0.012 C 
HETATM   34  C16 UNL     1      -1.646  -6.531  16.023  1.00  0.00     0.012 C 
ENDBRANCH  26  32
ENDBRANCH  23  26
ENDBRANCH  21  22
ENDBRANCH   1  21
TORSDOF 8
ENDMDL
MODEL 3
REMARK VINA RESULT: -7.790965580      1.568      1.971
REMARK  8 active torsions:
REMARK  status: ('A' for Active; 'I' for Inactive)
REMARK       I    between atoms: C2_2  and  N1_4 
REMARK    1  A    between atoms: N1_4  and  C3_6 
REMARK    2  A    between atoms: C3_6  and  C4_7 
REMARK    3  A    between atoms: C3_6  and  C14_32 
REMARK       I    between atoms: C4_7  and  N2_9 
REMARK    4  A    between atoms: N2_9  and  C5_11 
REMARK    5  A    between atoms: C5_11  and  C6_12 
REMARK       I    between atoms: C6_12  and  N3_14 
REMARK    6  A    between atoms: N3_14  and  C7_16 
REMARK    7  A    between atoms: C7_16  and  C9_18 
REMARK       I    between atoms: C9_18  and  N4_20 
REMARK    8  A    between atoms: N4_20  and  C10_22 
ROOT
HETATM    1  C6  UNL     1      -5.071  -2.268  19.377  1.00  0.00     0.236 C 
HETATM    2  O3  UNL     1      -4.210  -1.524  19.910  1.00  0.00    -0.272 OA
HETATM    3  N3  UNL     1      -6.343  -2.403  19.974  1.00  0.00    -0.347 N 
ATOM      4  H3  UNL     1      -7.020  -3.013  19.516  1.00  0.00     0.163 HD
ENDROOT
BRANCH   3   5
HETATM    5  C7  UNL     1      -6.751  -1.742  21.180  1.00  0.00     0.172 C 
HETATM    6  C8  UNL     1      -8.156  -2.146  21.606  1.00  0.00     0.042 C 
BRANCH   5   7
HETATM    7  C9  UNL     1      -6.719  -0.279  21.097  1.00  0.00     0.242 C 
HETATM    8  O4  UNL     1      -7.703   0.350  20.662  1.00  0.00    -0.271 OA
HETATM    9  N4  UNL     1      -5.578   0.433  21.509  1.00  0.00    -0.332 N 
ATOM     10  H4  UNL     1      -4.770  -0.078  21.865  1.00  0.00     0.165 HD
BRANCH   9  11
HETATM   11  C10 UNL     1      -5.528   1.896  21.435  1.00  0.00     0.234 C 
HETATM   12  C11 UNL     1      -4.125   2.341  21.700  1.00  0.00     0.074 C 
HETATM   13  C12 UNL     1      -4.078   3.847  21.613  1.00  0.00     0.127 C 
HETATM   14  N5  UNL     1      -4.385   4.217  20.248  1.00  0.00    -0.356 N 
HETATM   15  C13 UNL     1      -5.462   3.546  19.613  1.00  0.00     0.214 C 
ATOM     16  H5  UNL     1      -3.847   4.933  19.760  1.00  0.00     0.163 HD
HETATM   17  N6  UNL     1      -5.955   4.059  18.540  1.00  0.00    -0.365 N 
HETATM   18  O5  UNL     1      -5.966   2.354  20.155  1.00  0.00    -0.296 OA
ATOM     19  H62 UNL     1      -5.589   4.926  18.147  1.00  0.00     0.159 HD
ATOM     20  H61 UNL     1      -6.729   3.577  18.085  1.00  0.00     0.159 HD
ENDBRANCH   9  11
ENDBRANCH   5   7
ENDBRANCH   3   5
BRANCH   1  21
HETATM   21  C5  UNL     1      -4.746  -2.996  18.128  1.00  0.00     0.225 C 
BRANCH  21  22
HETATM   22  N2  UNL     1      -3.992  -4.188  18.299  1.00  0.00    -0.351 N 
HETATM   23  C4  UNL     1      -3.374  -4.854  17.221  1.00  0.00     0.241 C 
HETATM   24  O2  UNL     1      -3.490  -4.386  16.064  1.00  0.00    -0.271 OA
ATOM     25  H2  UNL     1      -3.895  -4.577  19.236  1.00  0.00     0.163 HD
BRANCH  23  26
HETATM   26  C3  UNL     1      -2.577  -6.102  17.395  1.00  0.00     0.179 C 
BRANCH  26  27
HETATM   27  N1  UNL     1      -1.540  -6.218  16.413  1.00  0.00    -0.348 N 
HETATM   28  C2  UNL     1      -1.297  -7.448  15.734  1.00  0.00     0.214 C 
HETATM   29  C1  UNL     1      -0.235  -7.600  14.716  1.00  0.00     0.117 C 
HETATM   30  O1  UNL     1      -2.004  -8.481  15.986  1.00  0.00    -0.274 OA
ATOM     31  H1  UNL     1      -0.964  -5.405  16.195  1.00  0.00     0.163 HD
ENDBRANCH  26  27
BRANCH  26  32
HETATM   32  C14 UNL     1      -2.061  -6.222  18.813  1.00  0.00     0.009 C 
HETATM   33  C15 UNL     1      -0.659  -5.693  18.951  1.00  0.00     0.012 C 
HETATM   34  C16 UNL     1      -2.214  -7.630  19.343  1.00  0.00     0.012 C 
ENDBRANCH  26  32
ENDBRANCH  23  26
ENDBRANCH  21  22
ENDBRANCH   1  21
TORSDOF 8
ENDMDL
MODEL 4
REMARK VINA RESULT: -7.431132942      2.537      9.780
REMARK  8 active torsions:
REMARK  status: ('A' for Active; 'I' for Inactive)
REMARK       I    between atoms: C2_2  and  N1_4 
REMARK    1  A    between atoms: N1_4  and  C3_6 
REMARK    2  A    between atoms: C3_6  and  C4_7 
REMARK    3  A    between atoms: C3_6  and  C14_32 
REMARK       I    between atoms: C4_7  and  N2_9 
REMARK    4  A    between atoms: N2_9  and  C5_11 
REMARK    5  A    between atoms: C5_11  and  C6_12 
REMARK       I    between atoms: C6_12  and  N3_14 
REMARK    6  A    between atoms: N3_14  and  C7_16 
REMARK    7  A    between atoms: C7_16  and  C9_18 
REMARK       I    between atoms: C9_18  and  N4_20 
REMARK    8  A    between atoms: N4_20  and  C10_22 
ROOT
HETATM    1  C6  UNL     1      -4.344  -4.033  17.935  1.00  0.00     0.236 C 
HETATM    2  O3  UNL     1      -4.478  -4.424  19.122  1.00  0.00    -0.272 OA
HETATM    3  N3  UNL     1      -3.648  -4.839  17.009  1.00  0.00    -0.347 N 
ATOM      4  H3  UNL     1      -3.559  -4.494  16.053  1.00  0.00     0.163 HD
ENDROOT
BRANCH   3   5
HETATM    5  C7  UNL     1      -3.058  -6.109  17.316  1.00  0.00     0.172 C 
HETATM    6  C8  UNL     1      -1.990  -6.503  16.305  1.00  0.00     0.042 C 
BRANCH   5   7
HETATM    7  C9  UNL     1      -4.022  -7.211  17.391  1.00  0.00     0.242 C 
HETATM    8  O4  UNL     1      -4.410  -7.781  16.354  1.00  0.00    -0.271 OA
HETATM    9  N4  UNL     1      -4.520  -7.639  18.636  1.00  0.00    -0.332 N 
ATOM     10  H4  UNL     1      -4.205  -7.174  19.487  1.00  0.00     0.165 HD
BRANCH   9  11
HETATM   11  C10 UNL     1      -5.482  -8.739  18.731  1.00  0.00     0.234 C 
HETATM   12  C11 UNL     1      -5.022  -9.688  19.791  1.00  0.00     0.074 C 
HETATM   13  C12 UNL     1      -6.022 -10.814  19.890  1.00  0.00     0.127 C 
HETATM   14  N5  UNL     1      -7.273 -10.250  20.347  1.00  0.00    -0.356 N 
HETATM   15  C13 UNL     1      -7.698  -9.032  19.756  1.00  0.00     0.214 C 
ATOM     16  H5  UNL     1      -7.830 -10.709  21.068  1.00  0.00     0.163 HD
HETATM   17  N6  UNL     1      -8.927  -8.676  19.902  1.00  0.00    -0.365 N 
HETATM   18  O5  UNL     1      -6.789  -8.246  19.032  1.00  0.00    -0.296 OA
ATOM     19  H62 UNL     1      -9.588  -9.248  20.428  1.00  0.00     0.159 HD
ATOM     20  H61 UNL     1      -9.231  -7.801  19.477  1.00  0.00     0.159 HD
ENDBRANCH   9  11
ENDBRANCH   5   7
ENDBRANCH   3   5
BRANCH   1  21
HETATM   21  C5  UNL     1      -4.918  -2.732  17.518  1.00  0.00     0.225 C 
BRANCH  21  22
HETATM   22  N2  UNL     1      -5.657  -2.045  18.518  1.00  0.00    -0.351 N 
HETATM   23  C4  UNL     1      -5.036  -1.333  19.564  1.00  0.00     0.241 C 
HETATM   24  O2  UNL     1      -3.784  -1.301  19.625  1.00  0.00    -0.271 OA
ATOM     25  H2  UNL     1      -6.676  -2.068  18.478  1.00  0.00     0.163 HD
BRANCH  23  26
HETATM   26  C3  UNL     1      -5.806  -0.606  20.613  1.00  0.00     0.179 C 
BRANCH  26  27
HETATM   27  N1  UNL     1      -5.537   0.802  20.598  1.00  0.00    -0.348 N 
HETATM   28  C2  UNL     1      -5.060   1.476  21.760  1.00  0.00     0.214 C 
HETATM   29  C1  UNL     1      -4.773   2.927  21.777  1.00  0.00     0.117 C 
HETATM   30  O1  UNL     1      -4.860   0.838  22.848  1.00  0.00    -0.274 OA
ATOM     31  H1  UNL     1      -5.689   1.331  19.740  1.00  0.00     0.163 HD
ENDBRANCH  26  27
BRANCH  26  32
HETATM   32  C14 UNL     1      -7.283  -0.923  20.518  1.00  0.00     0.009 C 
HETATM   33  C15 UNL     1      -8.139   0.298  20.725  1.00  0.00     0.012 C 
HETATM   34  C16 UNL     1      -7.665  -2.070  21.426  1.00  0.00     0.012 C 
ENDBRANCH  26  32
ENDBRANCH  23  26
ENDBRANCH  21  22
ENDBRANCH   1  21
TORSDOF 8
ENDMDL
MODEL 5
REMARK VINA RESULT: -7.395318571      2.231     10.014
REMARK  8 active torsions:
REMARK  status: ('A' for Active; 'I' for Inactive)
REMARK       I    between atoms: C2_2  and  N1_4 
REMARK    1  A    between atoms: N1_4  and  C3_6 
REMARK    2  A    between atoms: C3_6  and  C4_7 
REMARK    3  A    between atoms: C3_6  and  C14_32 
REMARK       I    between atoms: C4_7  and  N2_9 
REMARK    4  A    between atoms: N2_9  and  C5_11 
REMARK    5  A    between atoms: C5_11  and  C6_12 
REMARK       I    between atoms: C6_12  and  N3_14 
REMARK    6  A    between atoms: N3_14  and  C7_16 
REMARK    7  A    between atoms: C7_16  and  C9_18 
REMARK       I    between atoms: C9_18  and  N4_20 
REMARK    8  A    between atoms: N4_20  and  C10_22 
ROOT
HETATM    1  C6  UNL     1      -3.701  -3.913  18.467  1.00  0.00     0.236 C 
HETATM    2  O3  UNL     1      -4.628  -4.611  18.947  1.00  0.00    -0.272 OA
HETATM    3  N3  UNL     1      -2.445  -4.502  18.209  1.00  0.00    -0.347 N 
ATOM      4  H3  UNL     1      -1.714  -3.908  17.817  1.00  0.00     0.163 HD
ENDROOT
BRANCH   3   5
HETATM    5  C7  UNL     1      -2.124  -5.877  18.457  1.00  0.00     0.172 C 
HETATM    6  C8  UNL     1      -0.628  -6.142  18.358  1.00  0.00     0.042 C 
BRANCH   5   7
HETATM    7  C9  UNL     1      -2.799  -6.818  17.560  1.00  0.00     0.242 C 
HETATM    8  O4  UNL     1      -2.465  -6.897  16.362  1.00  0.00    -0.271 OA
HETATM    9  N4  UNL     1      -3.832  -7.644  18.039  1.00  0.00    -0.332 N 
ATOM     10  H4  UNL     1      -4.109  -7.582  19.019  1.00  0.00     0.165 HD
BRANCH   9  11
HETATM   11  C10 UNL     1      -4.517  -8.592  17.157  1.00  0.00     0.234 C 
HETATM   12  C11 UNL     1      -4.277  -9.978  17.663  1.00  0.00     0.074 C 
HETATM   13  C12 UNL     1      -4.993 -10.949  16.756  1.00  0.00     0.127 C 
HETATM   14  N5  UNL     1      -6.413 -10.698  16.879  1.00  0.00    -0.356 N 
HETATM   15  C13 UNL     1      -6.841  -9.345  16.879  1.00  0.00     0.214 C 
ATOM     16  H5  UNL     1      -7.081 -11.464  16.963  1.00  0.00     0.163 HD
HETATM   17  N6  UNL     1      -8.088  -9.098  16.669  1.00  0.00    -0.365 N 
HETATM   18  O5  UNL     1      -5.917  -8.313  17.103  1.00  0.00    -0.296 OA
ATOM     19  H62 UNL     1      -8.760  -9.848  16.506  1.00  0.00     0.159 HD
ATOM     20  H61 UNL     1      -8.395  -8.126  16.669  1.00  0.00     0.159 HD
ENDBRANCH   9  11
ENDBRANCH   5   7
ENDBRANCH   3   5
BRANCH   1  21
HETATM   21  C5  UNL     1      -3.933  -2.478  18.175  1.00  0.00     0.225 C 
BRANCH  21  22
HETATM   22  N2  UNL     1      -4.302  -1.683  19.293  1.00  0.00    -0.351 N 
HETATM   23  C4  UNL     1      -5.646  -1.409  19.617  1.00  0.00     0.241 C 
HETATM   24  O2  UNL     1      -6.558  -1.878  18.896  1.00  0.00    -0.271 OA
ATOM     25  H2  UNL     1      -3.567  -1.295  19.884  1.00  0.00     0.163 HD
BRANCH  23  26
HETATM   26  C3  UNL     1      -6.040  -0.579  20.792  1.00  0.00     0.179 C 
BRANCH  26  27
HETATM   27  N1  UNL     1      -5.516   0.752  20.709  1.00  0.00    -0.348 N 
HETATM   28  C2  UNL     1      -5.003   1.419  21.860  1.00  0.00     0.214 C 
HETATM   29  C1  UNL     1      -4.457   2.792  21.806  1.00  0.00     0.117 C 
HETATM   30  O1  UNL     1      -4.997   0.842  22.998  1.00  0.00    -0.274 OA
ATOM     31  H1  UNL     1      -5.511   1.232  19.808  1.00  0.00     0.163 HD
ENDBRANCH  26  27
BRANCH  26  32
HETATM   32  C14 UNL     1      -7.538  -0.611  20.999  1.00  0.00     0.009 C 
HETATM   33  C15 UNL     1      -8.126   0.772  21.088  1.00  0.00     0.012 C 
HETATM   34  C16 UNL     1      -7.920  -1.489  22.170  1.00  0.00     0.012 C 
ENDBRANCH  26  32
ENDBRANCH  23  26
ENDBRANCH  21  22
ENDBRANCH   1  21
TORSDOF 8
ENDMDL
