MODEL 1
REMARK VINA RESULT: -8.140013967      0.000      0.000
REMARK  6 active torsions:
REMARK  status: ('A' for Active; 'I' for Inactive)
REMARK    1  A    between atoms: C2_2  and  O1_3 
REMARK    2  A    between atoms: C2_2  and  C3_5 
REMARK    3  A    between atoms: C7_10  and  N1_11 
REMARK       I    between atoms: N1_11  and  C8_13 
REMARK    4  A    between atoms: C8_13  and  C9_15 
REMARK    5  A    between atoms: C13_19  and  N2_20 
REMARK    6  A    between atoms: N2_20  and  C14_22 
ROOT
HETATM    1  N1  UNL     1     -39.664  22.703  93.650  1.00  0.00    -0.347 N 
ATOM      2  H1  UNL     1     -39.372  22.510  94.608  1.00  0.00     0.163 HD
HETATM    3  C8  UNL     1     -40.900  23.346  93.397  1.00  0.00     0.223 C 
HETATM    4  O3  UNL     1     -41.250  23.579  92.230  1.00  0.00    -0.273 OA
ENDROOT
BRANCH   3   5
HETATM    5  C9  UNL     1     -41.775  23.740  94.531  1.00  0.00     0.083 C 
HETATM    6  C10 UNL     1     -42.763  24.738  93.988  1.00  0.00     0.014 C 
HETATM    7  C11 UNL     1     -43.504  25.495  95.030  1.00  0.00     0.003 C 
HETATM    8  C12 UNL     1     -42.757  25.786  96.280  1.00  0.00     0.025 C 
HETATM    9  C13 UNL     1     -41.870  24.689  96.781  1.00  0.00     0.081 C 
HETATM   10  C20 UNL     1     -40.952  24.274  95.653  1.00  0.00     0.017 C 
HETATM   11  C21 UNL     1     -40.150  25.452  95.141  1.00  0.00     0.013 C 
BRANCH   9  12
HETATM   12  N2  UNL     1     -42.576  23.529  97.216  1.00  0.00    -0.413 N 
ATOM     13  H2  UNL     1     -43.070  22.914  96.568  1.00  0.00     0.154 HD
BRANCH  12  14
HETATM   14  C14 UNL     1     -42.541  23.287  98.646  1.00  0.00     0.077 C 
HETATM   15  C15 UNL     1     -41.710  24.262  99.402  1.00  0.00     0.024 C 
HETATM   16  C16 UNL     1     -40.942  23.539 100.488  1.00  0.00     0.002 C 
HETATM   17  C17 UNL     1     -41.798  22.467 101.145  1.00  0.00     0.000 C 
HETATM   18  C18 UNL     1     -42.025  21.344 100.140  1.00  0.00     0.002 C 
HETATM   19  C19 UNL     1     -41.844  21.920  98.775  1.00  0.00     0.024 C 
ENDBRANCH  12  14
ENDBRANCH   9  12
ENDBRANCH   3   5
BRANCH   1  20
HETATM   20  C7  UNL     1     -38.820  22.323  92.543  1.00  0.00     0.184 C 
HETATM   21  C6  UNL     1     -37.495  22.982  92.701  1.00  0.00     0.184 C 
HETATM   22  C5  UNL     1     -36.630  22.040  93.422  1.00  0.00     0.297 C 
HETATM   23  O2  UNL     1     -37.181  24.092  92.308  1.00  0.00    -0.293 OA
HETATM   24  C4  UNL     1     -35.531  21.534  92.499  1.00  0.00     0.082 C 
HETATM   25  N3  UNL     1     -37.285  20.758  93.418  1.00  0.00     0.110 N 
HETATM   26  C3  UNL     1     -36.119  20.181  92.773  1.00  0.00     0.254 C 
HETATM   27  C22 UNL     1     -38.454  20.867  92.584  1.00  0.00     0.306 C 
BRANCH  26  28
HETATM   28  C2  UNL     1     -35.324  19.327  93.731  1.00  0.00     0.147 C 
HETATM   29  C1  UNL     1     -36.192  18.151  94.132  1.00  0.00     0.041 C 
BRANCH  28  30
HETATM   30  O1  UNL     1     -34.174  18.824  93.101  1.00  0.00    -0.394 OA
ATOM     31  H1  UNL     1     -34.417  18.037  92.629  1.00  0.00     0.210 HD
ENDBRANCH  28  30
ENDBRANCH  26  28
ENDBRANCH   1  20
TORSDOF 6
ENDMDL
MODEL 2
REMARK VINA RESULT: -7.593112375      1.378      1.826
REMARK  6 active torsions:
REMARK  status: ('A' for Active; 'I' for Inactive)
REMARK    1  A    between atoms: C2_2  and  O1_3 
REMARK    2  A    between atoms: C2_2  and  C3_5 
REMARK    3  A    between atoms: C7_10  and  N1_11 
REMARK       I    between atoms: N1_11  and  C8_13 
REMARK    4  A    between atoms: C8_13  and  C9_15 
REMARK    5  A    between atoms: C13_19  and  N2_20 
REMARK    6  A    between atoms: N2_20  and  C14_22 
ROOT
HETATM    1  N1  UNL     1     -39.224  22.428  92.979  1.00  0.00    -0.347 N 
ATOM      2  H1  UNL     1     -39.863  21.637  92.903  1.00  0.00     0.163 HD
HETATM    3  C8  UNL     1     -39.589  23.571  93.732  1.00  0.00     0.223 C 
HETATM    4  O3  UNL     1     -38.807  24.530  93.821  1.00  0.00    -0.273 OA
ENDROOT
BRANCH   3   5
HETATM    5  C9  UNL     1     -40.908  23.618  94.413  1.00  0.00     0.083 C 
HETATM    6  C10 UNL     1     -41.932  23.926  93.354  1.00  0.00     0.014 C 
HETATM    7  C11 UNL     1     -43.256  24.340  93.884  1.00  0.00     0.003 C 
HETATM    8  C12 UNL     1     -43.239  25.110  95.153  1.00  0.00     0.025 C 
HETATM    9  C13 UNL     1     -42.241  24.663  96.175  1.00  0.00     0.081 C 
HETATM   10  C20 UNL     1     -40.880  24.620  95.516  1.00  0.00     0.017 C 
HETATM   11  C21 UNL     1     -40.515  25.968  94.931  1.00  0.00     0.013 C 
BRANCH   9  12
HETATM   12  N2  UNL     1     -42.505  23.369  96.711  1.00  0.00    -0.413 N 
ATOM     13  H2  UNL     1     -43.084  22.683  96.225  1.00  0.00     0.154 HD
BRANCH  12  14
HETATM   14  C14 UNL     1     -41.893  23.098  97.998  1.00  0.00     0.077 C 
HETATM   15  C15 UNL     1     -42.052  21.692  98.457  1.00  0.00     0.024 C 
HETATM   16  C16 UNL     1     -42.323  21.672  99.946  1.00  0.00     0.002 C 
HETATM   17  C17 UNL     1     -41.481  22.710 100.672  1.00  0.00     0.000 C 
HETATM   18  C18 UNL     1     -41.988  24.096 100.293  1.00  0.00     0.002 C 
HETATM   19  C19 UNL     1     -42.689  23.975  98.982  1.00  0.00     0.024 C 
ENDBRANCH  12  14
ENDBRANCH   9  12
ENDBRANCH   3   5
BRANCH   1  20
HETATM   20  C7  UNL     1     -37.941  22.391  92.320  1.00  0.00     0.184 C 
HETATM   21  C6  UNL     1     -36.905  21.981  93.307  1.00  0.00     0.184 C 
HETATM   22  C5  UNL     1     -36.773  20.521  93.208  1.00  0.00     0.297 C 
HETATM   23  O2  UNL     1     -36.282  22.711  94.057  1.00  0.00    -0.293 OA
HETATM   24  C4  UNL     1     -35.415  20.162  92.624  1.00  0.00     0.082 C 
HETATM   25  N3  UNL     1     -37.449  20.103  92.008  1.00  0.00     0.110 N 
HETATM   26  C3  UNL     1     -36.214  19.502  91.539  1.00  0.00     0.254 C 
HETATM   27  C22 UNL     1     -37.859  21.289  91.302  1.00  0.00     0.306 C 
BRANCH  26  28
HETATM   28  C2  UNL     1     -36.268  17.995  91.619  1.00  0.00     0.147 C 
HETATM   29  C1  UNL     1     -36.306  17.458  90.202  1.00  0.00     0.041 C 
BRANCH  28  30
HETATM   30  O1  UNL     1     -35.113  17.496  92.243  1.00  0.00    -0.394 OA
ATOM     31  H1  UNL     1     -35.225  17.583  93.182  1.00  0.00     0.210 HD
ENDBRANCH  28  30
ENDBRANCH  26  28
ENDBRANCH   1  20
TORSDOF 6
ENDMDL
MODEL 3
REMARK VINA RESULT: -6.666468634     12.124     15.464
REMARK  6 active torsions:
REMARK  status: ('A' for Active; 'I' for Inactive)
REMARK    1  A    between atoms: C2_2  and  O1_3 
REMARK    2  A    between atoms: C2_2  and  C3_5 
REMARK    3  A    between atoms: C7_10  and  N1_11 
REMARK       I    between atoms: N1_11  and  C8_13 
REMARK    4  A    between atoms: C8_13  and  C9_15 
REMARK    5  A    between atoms: C13_19  and  N2_20 
REMARK    6  A    between atoms: N2_20  and  C14_22 
ROOT
HETATM    1  N1  UNL     1     -37.478  14.630 107.895  1.00  0.00    -0.347 N 
ATOM      2  H1  UNL     1     -37.418  15.338 108.626  1.00  0.00     0.163 HD
HETATM    3  C8  UNL     1     -38.006  14.961 106.623  1.00  0.00     0.223 C 
HETATM    4  O3  UNL     1     -38.075  14.096 105.737  1.00  0.00    -0.273 OA
ENDROOT
BRANCH   3   5
HETATM    5  C9  UNL     1     -38.476  16.344 106.354  1.00  0.00     0.083 C 
HETATM    6  C10 UNL     1     -38.935  16.373 104.920  1.00  0.00     0.014 C 
HETATM    7  C11 UNL     1     -39.126  17.739 104.367  1.00  0.00     0.003 C 
HETATM    8  C12 UNL     1     -38.207  18.786 104.880  1.00  0.00     0.025 C 
HETATM    9  C13 UNL     1     -37.888  18.716 106.340  1.00  0.00     0.081 C 
HETATM   10  C20 UNL     1     -37.389  17.321 106.646  1.00  0.00     0.017 C 
HETATM   11  C21 UNL     1     -36.188  16.972 105.794  1.00  0.00     0.013 C 
BRANCH   9  12
HETATM   12  N2  UNL     1     -39.005  18.974 107.188  1.00  0.00    -0.413 N 
ATOM     13  H2  UNL     1     -39.680  18.251 107.439  1.00  0.00     0.154 HD
BRANCH  12  14
HETATM   14  C14 UNL     1     -39.111  20.339 107.668  1.00  0.00     0.077 C 
HETATM   15  C15 UNL     1     -39.751  21.270 106.699  1.00  0.00     0.024 C 
HETATM   16  C16 UNL     1     -39.034  22.602 106.726  1.00  0.00     0.002 C 
HETATM   17  C17 UNL     1     -38.648  22.990 108.146  1.00  0.00     0.000 C 
HETATM   18  C18 UNL     1     -37.550  22.048 108.624  1.00  0.00     0.002 C 
HETATM   19  C19 UNL     1     -37.649  20.797 107.818  1.00  0.00     0.024 C 
ENDBRANCH  12  14
ENDBRANCH   9  12
ENDBRANCH   3   5
BRANCH   1  20
HETATM   20  C7  UNL     1     -37.024  13.284 108.148  1.00  0.00     0.184 C 
HETATM   21  C6  UNL     1     -35.539  13.251 108.047  1.00  0.00     0.184 C 
HETATM   22  C5  UNL     1     -35.011  13.468 109.400  1.00  0.00     0.297 C 
HETATM   23  O2  UNL     1     -34.880  13.076 107.037  1.00  0.00    -0.293 OA
HETATM   24  C4  UNL     1     -34.347  12.198 109.908  1.00  0.00     0.082 C 
HETATM   25  N3  UNL     1     -36.106  13.319 110.323  1.00  0.00     0.110 N 
HETATM   26  C3  UNL     1     -35.367  12.272 111.006  1.00  0.00     0.254 C 
HETATM   27  C22 UNL     1     -37.251  12.869 109.574  1.00  0.00     0.306 C 
BRANCH  26  28
HETATM   28  C2  UNL     1     -34.834  12.751 112.335  1.00  0.00     0.147 C 
HETATM   29  C1  UNL     1     -35.926  12.558 113.369  1.00  0.00     0.041 C 
BRANCH  28  30
HETATM   30  O1  UNL     1     -33.725  11.981 112.724  1.00  0.00    -0.394 OA
ATOM     31  H1  UNL     1     -33.421  11.498 111.965  1.00  0.00     0.210 HD
ENDBRANCH  28  30
ENDBRANCH  26  28
ENDBRANCH   1  20
TORSDOF 6
ENDMDL
MODEL 4
REMARK VINA RESULT: -6.529295387      1.580      2.098
REMARK  6 active torsions:
REMARK  status: ('A' for Active; 'I' for Inactive)
REMARK    1  A    between atoms: C2_2  and  O1_3 
REMARK    2  A    between atoms: C2_2  and  C3_5 
REMARK    3  A    between atoms: C7_10  and  N1_11 
REMARK       I    between atoms: N1_11  and  C8_13 
REMARK    4  A    between atoms: C8_13  and  C9_15 
REMARK    5  A    between atoms: C13_19  and  N2_20 
REMARK    6  A    between atoms: N2_20  and  C14_22 
ROOT
HETATM    1  N1  UNL     1     -40.193  23.233  94.404  1.00  0.00    -0.347 N 
ATOM      2  H1  UNL     1     -40.198  22.318  94.856  1.00  0.00     0.163 HD
HETATM    3  C8  UNL     1     -40.774  24.350  95.052  1.00  0.00     0.223 C 
HETATM    4  O3  UNL     1     -40.765  25.461  94.499  1.00  0.00    -0.273 OA
ENDROOT
BRANCH   3   5
HETATM    5  C9  UNL     1     -41.392  24.190  96.393  1.00  0.00     0.083 C 
HETATM    6  C10 UNL     1     -42.443  23.120  96.259  1.00  0.00     0.014 C 
HETATM    7  C11 UNL     1     -43.393  23.050  97.400  1.00  0.00     0.003 C 
HETATM    8  C12 UNL     1     -43.718  24.340  98.059  1.00  0.00     0.025 C 
HETATM    9  C13 UNL     1     -42.578  25.296  98.221  1.00  0.00     0.081 C 
HETATM   10  C20 UNL     1     -41.935  25.495  96.867  1.00  0.00     0.017 C 
HETATM   11  C21 UNL     1     -42.942  25.993  95.852  1.00  0.00     0.013 C 
BRANCH   9  12
HETATM   12  N2  UNL     1     -41.569  24.843  99.120  1.00  0.00    -0.413 N 
ATOM     13  H2  UNL     1     -40.683  25.335  99.242  1.00  0.00     0.154 HD
BRANCH  12  14
HETATM   14  C14 UNL     1     -41.891  23.630  99.849  1.00  0.00     0.077 C 
HETATM   15  C15 UNL     1     -41.861  23.790 101.327  1.00  0.00     0.024 C 
HETATM   16  C16 UNL     1     -41.248  22.558 101.958  1.00  0.00     0.002 C 
HETATM   17  C17 UNL     1     -41.708  21.292 101.252  1.00  0.00     0.000 C 
HETATM   18  C18 UNL     1     -41.086  21.259  99.862  1.00  0.00     0.002 C 
HETATM   19  C19 UNL     1     -40.749  22.663  99.487  1.00  0.00     0.024 C 
ENDBRANCH  12  14
ENDBRANCH   9  12
ENDBRANCH   3   5
BRANCH   1  20
HETATM   20  C7  UNL     1     -39.595  23.397  93.102  1.00  0.00     0.184 C 
HETATM   21  C6  UNL     1     -38.131  23.608  93.268  1.00  0.00     0.184 C 
HETATM   22  C5  UNL     1     -37.494  22.288  93.172  1.00  0.00     0.297 C 
HETATM   23  O2  UNL     1     -37.562  24.670  93.450  1.00  0.00    -0.293 OA
HETATM   24  C4  UNL     1     -36.669  22.202  91.897  1.00  0.00     0.082 C 
HETATM   25  N3  UNL     1     -38.473  21.369  92.653  1.00  0.00     0.110 N 
HETATM   26  C3  UNL     1     -37.577  21.058  91.554  1.00  0.00     0.254 C 
HETATM   27  C22 UNL     1     -39.640  22.132  92.294  1.00  0.00     0.306 C 
BRANCH  26  28
HETATM   28  C2  UNL     1     -36.961  19.689  91.715  1.00  0.00     0.147 C 
HETATM   29  C1  UNL     1     -37.296  18.883  90.476  1.00  0.00     0.041 C 
BRANCH  28  30
HETATM   30  O1  UNL     1     -35.563  19.789  91.805  1.00  0.00    -0.394 OA
ATOM     31  H1  UNL     1     -35.198  18.918  91.700  1.00  0.00     0.210 HD
ENDBRANCH  28  30
ENDBRANCH  26  28
ENDBRANCH   1  20
TORSDOF 6
ENDMDL
MODEL 5
REMARK VINA RESULT: -6.336033354      2.304      8.563
REMARK  6 active torsions:
REMARK  status: ('A' for Active; 'I' for Inactive)
REMARK    1  A    between atoms: C2_2  and  O1_3 
REMARK    2  A    between atoms: C2_2  and  C3_5 
REMARK    3  A    between atoms: C7_10  and  N1_11 
REMARK       I    between atoms: N1_11  and  C8_13 
REMARK    4  A    between atoms: C8_13  and  C9_15 
REMARK    5  A    between atoms: C13_19  and  N2_20 
REMARK    6  A    between atoms: N2_20  and  C14_22 
ROOT
HETATM    1  N1  UNL     1     -39.539  23.390  93.681  1.00  0.00    -0.347 N 
ATOM      2  H1  UNL     1     -39.998  22.479  93.654  1.00  0.00     0.163 HD
HETATM    3  C8  UNL     1     -38.143  23.492  93.468  1.00  0.00     0.223 C 
HETATM    4  O3  UNL     1     -37.590  24.602  93.501  1.00  0.00    -0.273 OA
ENDROOT
BRANCH   3   5
HETATM    5  C9  UNL     1     -37.344  22.268  93.204  1.00  0.00     0.083 C 
HETATM    6  C10 UNL     1     -36.009  22.471  93.871  1.00  0.00     0.014 C 
HETATM    7  C11 UNL     1     -34.959  21.510  93.444  1.00  0.00     0.003 C 
HETATM    8  C12 UNL     1     -35.028  21.052  92.034  1.00  0.00     0.025 C 
HETATM    9  C13 UNL     1     -36.401  20.793  91.498  1.00  0.00     0.081 C 
HETATM   10  C20 UNL     1     -37.240  22.029  91.736  1.00  0.00     0.017 C 
HETATM   11  C21 UNL     1     -36.610  23.248  91.096  1.00  0.00     0.013 C 
BRANCH   9  12
HETATM   12  N2  UNL     1     -37.064  19.692  92.116  1.00  0.00    -0.413 N 
ATOM     13  H2  UNL     1     -37.756  19.816  92.856  1.00  0.00     0.154 HD
BRANCH  12  14
HETATM   14  C14 UNL     1     -36.683  18.385  91.616  1.00  0.00     0.077 C 
HETATM   15  C15 UNL     1     -35.491  17.806  92.292  1.00  0.00     0.024 C 
HETATM   16  C16 UNL     1     -34.619  17.108  91.270  1.00  0.00     0.002 C 
HETATM   17  C17 UNL     1     -35.461  16.358  90.249  1.00  0.00     0.000 C 
HETATM   18  C18 UNL     1     -36.186  17.377  89.378  1.00  0.00     0.002 C 
HETATM   19  C19 UNL     1     -36.277  18.647  90.155  1.00  0.00     0.024 C 
ENDBRANCH  12  14
ENDBRANCH   9  12
ENDBRANCH   3   5
BRANCH   1  20
HETATM   20  C7  UNL     1     -40.309  24.583  93.937  1.00  0.00     0.184 C 
HETATM   21  C6  UNL     1     -41.755  24.264  93.789  1.00  0.00     0.184 C 
HETATM   22  C5  UNL     1     -42.253  23.900  95.122  1.00  0.00     0.297 C 
HETATM   23  O2  UNL     1     -42.408  24.297  92.760  1.00  0.00    -0.293 OA
HETATM   24  C4  UNL     1     -43.216  24.965  95.624  1.00  0.00     0.082 C 
HETATM   25  N3  UNL     1     -41.252  24.287  96.081  1.00  0.00     0.110 N 
HETATM   26  C3  UNL     1     -42.239  25.113  96.753  1.00  0.00     0.254 C 
HETATM   27  C22 UNL     1     -40.228  25.012  95.374  1.00  0.00     0.306 C 
BRANCH  26  28
HETATM   28  C2  UNL     1     -42.679  24.495  98.058  1.00  0.00     0.147 C 
HETATM   29  C1  UNL     1     -41.448  24.313  98.923  1.00  0.00     0.041 C 
BRANCH  28  30
HETATM   30  O1  UNL     1     -43.563  25.353  98.733  1.00  0.00    -0.394 OA
ATOM     31  H1  UNL     1     -43.104  26.165  98.913  1.00  0.00     0.210 HD
ENDBRANCH  28  30
ENDBRANCH  26  28
ENDBRANCH   1  20
TORSDOF 6
ENDMDL
