MODEL 1
REMARK VINA RESULT: -7.711107002      0.000      0.000
REMARK  8 active torsions:
REMARK  status: ('A' for Active; 'I' for Inactive)
REMARK    1  A    between atoms: C1_2  and  C2_4 
REMARK    2  A    between atoms: C2_4  and  C3_5 
REMARK    3  A    between atoms: C3_5  and  N1_6 
REMARK       I    between atoms: N1_6  and  C4_8 
REMARK    4  A    between atoms: C4_8  and  C5_10 
REMARK    5  A    between atoms: N2_13  and  C8_14 
REMARK    6  A    between atoms: C8_14  and  O4_15 
REMARK    7  A    between atoms: C8_14  and  C9_17 
REMARK    8  A    between atoms: C19_27  and  C20_28 
ROOT
HETATM    1  C5  UNL     1     -37.545  17.052 106.763  1.00  0.00     0.082 C 
HETATM    2  C6  UNL     1     -38.964  17.390 107.127  1.00  0.00     0.034 C 
HETATM    3  C7  UNL     1     -39.154  18.825 107.478  1.00  0.00     0.126 C 
HETATM    4  N2  UNL     1     -38.149  19.706 106.822  1.00  0.00    -0.350 N 
HETATM    5  C19 UNL     1     -37.667  19.270 105.565  1.00  0.00     0.188 C 
HETATM    6  C21 UNL     1     -37.064  17.873 105.604  1.00  0.00     0.050 C 
ENDROOT
BRANCH   4   7
HETATM    7  C8  UNL     1     -37.785  20.856 107.498  1.00  0.00     0.123 C 
BRANCH   7   8
HETATM    8  O4  UNL     1     -37.442  20.672 108.741  1.00  0.00    -0.349 OA
ATOM      9  H4  UNL     1     -36.505  20.638 108.892  1.00  0.00     0.219 HD
ENDBRANCH   7   8
BRANCH   7  10
HETATM   10  C9  UNL     1     -37.713  22.258 107.079  1.00  0.00     0.026 C 
HETATM   11  C10 UNL     1     -38.853  22.766 106.275  1.00  0.00     0.022 C 
HETATM   12  C11 UNL     1     -38.621  24.246 105.975  1.00  0.00    -0.013 C 
HETATM   13  C12 UNL     1     -38.570  25.073 107.221  1.00  0.00     0.009 C 
HETATM   14  C16 UNL     1     -37.347  24.352 105.178  1.00  0.00     0.009 C 
HETATM   15  C13 UNL     1     -37.442  24.547 108.083  1.00  0.00    -0.013 C 
HETATM   16  C14 UNL     1     -36.165  24.755 107.334  1.00  0.00     0.009 C 
HETATM   17  C18 UNL     1     -37.731  23.109 108.377  1.00  0.00     0.022 C 
HETATM   18  C15 UNL     1     -36.192  23.959 106.042  1.00  0.00    -0.013 C 
HETATM   19  C17 UNL     1     -36.367  22.512 106.454  1.00  0.00     0.022 C 
ENDBRANCH   7  10
ENDBRANCH   4   7
BRANCH   5  20
HETATM   20  C20 UNL     1     -38.777  19.219 104.537  1.00  0.00     0.196 C 
HETATM   21  O5  UNL     1     -39.384  20.265 104.197  1.00  0.00    -0.646 OA
HETATM   22  O6  UNL     1     -39.161  18.030 103.940  1.00  0.00    -0.646 OA
ENDBRANCH   5  20
BRANCH   1  23
HETATM   23  C4  UNL     1     -37.466  15.605 106.468  1.00  0.00     0.222 C 
HETATM   24  N1  UNL     1     -36.323  14.828 106.779  1.00  0.00    -0.360 N 
ATOM     25  H1  UNL     1     -35.537  15.304 107.222  1.00  0.00     0.162 HD
HETATM   26  O3  UNL     1     -38.442  15.036 105.922  1.00  0.00    -0.273 OA
BRANCH  24  27
HETATM   27  C3  UNL     1     -36.184  13.437 106.522  1.00  0.00     0.133 C 
BRANCH  27  28
HETATM   28  C2  UNL     1     -35.756  12.640 107.730  1.00  0.00     0.133 C 
BRANCH  28  29
HETATM   29  C1  UNL     1     -36.882  12.309 108.617  1.00  0.00     0.174 C 
HETATM   30  O1  UNL     1     -37.464  13.221 109.252  1.00  0.00    -0.648 OA
HETATM   31  O2  UNL     1     -37.304  10.999 108.759  1.00  0.00    -0.648 OA
ENDBRANCH  28  29
ENDBRANCH  27  28
ENDBRANCH  24  27
ENDBRANCH   1  23
TORSDOF 8
ENDMDL
MODEL 2
REMARK VINA RESULT: -7.495957349      1.314      1.571
REMARK  8 active torsions:
REMARK  status: ('A' for Active; 'I' for Inactive)
REMARK    1  A    between atoms: C1_2  and  C2_4 
REMARK    2  A    between atoms: C2_4  and  C3_5 
REMARK    3  A    between atoms: C3_5  and  N1_6 
REMARK       I    between atoms: N1_6  and  C4_8 
REMARK    4  A    between atoms: C4_8  and  C5_10 
REMARK    5  A    between atoms: N2_13  and  C8_14 
REMARK    6  A    between atoms: C8_14  and  O4_15 
REMARK    7  A    between atoms: C8_14  and  C9_17 
REMARK    8  A    between atoms: C19_27  and  C20_28 
ROOT
HETATM    1  C5  UNL     1     -37.556  17.107 106.715  1.00  0.00     0.082 C 
HETATM    2  C6  UNL     1     -38.929  17.525 107.163  1.00  0.00     0.034 C 
HETATM    3  C7  UNL     1     -39.021  18.974 107.499  1.00  0.00     0.126 C 
HETATM    4  N2  UNL     1     -38.018  19.790 106.762  1.00  0.00    -0.350 N 
HETATM    5  C19 UNL     1     -37.642  19.310 105.485  1.00  0.00     0.188 C 
HETATM    6  C21 UNL     1     -37.111  17.884 105.511  1.00  0.00     0.050 C 
ENDROOT
BRANCH   4   7
HETATM    7  C8  UNL     1     -37.551  20.930 107.391  1.00  0.00     0.123 C 
BRANCH   7   8
HETATM    8  O4  UNL     1     -36.960  20.718 108.532  1.00  0.00    -0.349 OA
ATOM      9  H4  UNL     1     -36.107  21.127 108.619  1.00  0.00     0.219 HD
ENDBRANCH   7   8
BRANCH   7  10
HETATM   10  C9  UNL     1     -37.598  22.345 107.016  1.00  0.00     0.026 C 
HETATM   11  C10 UNL     1     -38.863  22.825 106.408  1.00  0.00     0.022 C 
HETATM   12  C11 UNL     1     -38.737  24.322 106.129  1.00  0.00    -0.013 C 
HETATM   13  C12 UNL     1     -38.534  25.114 107.383  1.00  0.00     0.009 C 
HETATM   14  C16 UNL     1     -37.601  24.508 105.157  1.00  0.00     0.009 C 
HETATM   15  C13 UNL     1     -37.270  24.613 108.049  1.00  0.00    -0.013 C 
HETATM   16  C14 UNL     1     -36.129  24.899 107.129  1.00  0.00     0.009 C 
HETATM   17  C18 UNL     1     -37.456  23.156 108.332  1.00  0.00     0.022 C 
HETATM   18  C15 UNL     1     -36.316  24.141 105.827  1.00  0.00    -0.013 C 
HETATM   19  C17 UNL     1     -36.371  22.676 106.209  1.00  0.00     0.022 C 
ENDBRANCH   7  10
ENDBRANCH   4   7
BRANCH   5  20
HETATM   20  C20 UNL     1     -38.818  19.301 104.532  1.00  0.00     0.196 C 
HETATM   21  O5  UNL     1     -39.463  20.355 104.301  1.00  0.00    -0.646 OA
HETATM   22  O6  UNL     1     -39.225  18.144 103.888  1.00  0.00    -0.646 OA
ENDBRANCH   5  20
BRANCH   1  23
HETATM   23  C4  UNL     1     -37.571  15.653 106.442  1.00  0.00     0.222 C 
HETATM   24  N1  UNL     1     -36.485  14.807 106.775  1.00  0.00    -0.360 N 
ATOM     25  H1  UNL     1     -35.673  15.237 107.218  1.00  0.00     0.162 HD
HETATM   26  O3  UNL     1     -38.579  15.142 105.896  1.00  0.00    -0.273 OA
BRANCH  24  27
HETATM   27  C3  UNL     1     -36.437  13.406 106.541  1.00  0.00     0.133 C 
BRANCH  27  28
HETATM   28  C2  UNL     1     -35.044  12.882 106.298  1.00  0.00     0.133 C 
BRANCH  28  29
HETATM   29  C1  UNL     1     -34.002  13.853 106.666  1.00  0.00     0.174 C 
HETATM   30  O1  UNL     1     -33.425  14.517 105.772  1.00  0.00    -0.648 OA
HETATM   31  O2  UNL     1     -33.652  14.040 107.991  1.00  0.00    -0.648 OA
ENDBRANCH  28  29
ENDBRANCH  27  28
ENDBRANCH  24  27
ENDBRANCH   1  23
TORSDOF 8
ENDMDL
MODEL 3
REMARK VINA RESULT: -7.416815002      0.204      1.274
REMARK  8 active torsions:
REMARK  status: ('A' for Active; 'I' for Inactive)
REMARK    1  A    between atoms: C1_2  and  C2_4 
REMARK    2  A    between atoms: C2_4  and  C3_5 
REMARK    3  A    between atoms: C3_5  and  N1_6 
REMARK       I    between atoms: N1_6  and  C4_8 
REMARK    4  A    between atoms: C4_8  and  C5_10 
REMARK    5  A    between atoms: N2_13  and  C8_14 
REMARK    6  A    between atoms: C8_14  and  O4_15 
REMARK    7  A    between atoms: C8_14  and  C9_17 
REMARK    8  A    between atoms: C19_27  and  C20_28 
ROOT
HETATM    1  C5  UNL     1     -37.532  17.025 106.766  1.00  0.00     0.082 C 
HETATM    2  C6  UNL     1     -38.949  17.370 107.130  1.00  0.00     0.034 C 
HETATM    3  C7  UNL     1     -39.128  18.801 107.502  1.00  0.00     0.126 C 
HETATM    4  N2  UNL     1     -38.114  19.683 106.861  1.00  0.00    -0.350 N 
HETATM    5  C19 UNL     1     -37.632  19.261 105.599  1.00  0.00     0.188 C 
HETATM    6  C21 UNL     1     -37.041  17.858 105.619  1.00  0.00     0.050 C 
ENDROOT
BRANCH   4   7
HETATM    7  C8  UNL     1     -37.742  20.820 107.554  1.00  0.00     0.123 C 
BRANCH   7   8
HETATM    8  O4  UNL     1     -37.558  20.643 108.832  1.00  0.00    -0.349 OA
ATOM      9  H4  UNL     1     -37.467  21.443 109.334  1.00  0.00     0.219 HD
ENDBRANCH   7   8
BRANCH   7  10
HETATM   10  C9  UNL     1     -37.514  22.201 107.122  1.00  0.00     0.026 C 
HETATM   11  C10 UNL     1     -36.482  22.402 106.074  1.00  0.00     0.022 C 
HETATM   12  C11 UNL     1     -36.420  23.888 105.726  1.00  0.00    -0.013 C 
HETATM   13  C12 UNL     1     -37.713  24.389 105.159  1.00  0.00     0.009 C 
HETATM   14  C16 UNL     1     -36.030  24.632 106.975  1.00  0.00     0.009 C 
HETATM   15  C13 UNL     1     -38.794  24.154 106.192  1.00  0.00    -0.013 C 
HETATM   16  C14 UNL     1     -38.462  24.980 107.392  1.00  0.00     0.009 C 
HETATM   17  C18 UNL     1     -38.838  22.686 106.475  1.00  0.00     0.022 C 
HETATM   18  C15 UNL     1     -37.136  24.527 107.976  1.00  0.00    -0.013 C 
HETATM   19  C17 UNL     1     -37.323  23.068 108.338  1.00  0.00     0.022 C 
ENDBRANCH   7  10
ENDBRANCH   4   7
BRANCH   5  20
HETATM   20  C20 UNL     1     -38.739  19.233 104.568  1.00  0.00     0.196 C 
HETATM   21  O5  UNL     1     -39.353  20.286 104.260  1.00  0.00    -0.646 OA
HETATM   22  O6  UNL     1     -39.114  18.061 103.934  1.00  0.00    -0.646 OA
ENDBRANCH   5  20
BRANCH   1  23
HETATM   23  C4  UNL     1     -37.464  15.581 106.450  1.00  0.00     0.222 C 
HETATM   24  N1  UNL     1     -36.331  14.789 106.757  1.00  0.00    -0.360 N 
ATOM     25  H1  UNL     1     -35.544  15.252 107.212  1.00  0.00     0.162 HD
HETATM   26  O3  UNL     1     -38.442  15.029 105.890  1.00  0.00    -0.273 OA
BRANCH  24  27
HETATM   27  C3  UNL     1     -36.203  13.400 106.481  1.00  0.00     0.133 C 
BRANCH  27  28
HETATM   28  C2  UNL     1     -35.763  12.587 107.673  1.00  0.00     0.133 C 
BRANCH  28  29
HETATM   29  C1  UNL     1     -36.875  12.272 108.584  1.00  0.00     0.174 C 
HETATM   30  O1  UNL     1     -37.387  13.181 109.280  1.00  0.00    -0.648 OA
HETATM   31  O2  UNL     1     -37.360  10.980 108.681  1.00  0.00    -0.648 OA
ENDBRANCH  28  29
ENDBRANCH  27  28
ENDBRANCH  24  27
ENDBRANCH   1  23
TORSDOF 8
ENDMDL
MODEL 4
REMARK VINA RESULT: -7.338882447      1.998      2.307
REMARK  8 active torsions:
REMARK  status: ('A' for Active; 'I' for Inactive)
REMARK    1  A    between atoms: C1_2  and  C2_4 
REMARK    2  A    between atoms: C2_4  and  C3_5 
REMARK    3  A    between atoms: C3_5  and  N1_6 
REMARK       I    between atoms: N1_6  and  C4_8 
REMARK    4  A    between atoms: C4_8  and  C5_10 
REMARK    5  A    between atoms: N2_13  and  C8_14 
REMARK    6  A    between atoms: C8_14  and  O4_15 
REMARK    7  A    between atoms: C8_14  and  C9_17 
REMARK    8  A    between atoms: C19_27  and  C20_28 
ROOT
HETATM    1  C5  UNL     1     -37.189  16.445 106.811  1.00  0.00     0.082 C 
HETATM    2  C6  UNL     1     -38.673  16.390 107.041  1.00  0.00     0.034 C 
HETATM    3  C7  UNL     1     -39.263  17.714 107.384  1.00  0.00     0.126 C 
HETATM    4  N2  UNL     1     -38.470  18.847 106.832  1.00  0.00    -0.350 N 
HETATM    5  C19 UNL     1     -37.780  18.592 105.623  1.00  0.00     0.188 C 
HETATM    6  C21 UNL     1     -36.838  17.399 105.708  1.00  0.00     0.050 C 
ENDROOT
BRANCH   4   7
HETATM    7  C8  UNL     1     -38.482  20.030 107.548  1.00  0.00     0.123 C 
BRANCH   7   8
HETATM    8  O4  UNL     1     -38.991  19.937 108.744  1.00  0.00    -0.349 OA
ATOM      9  H4  UNL     1     -39.538  20.670 109.000  1.00  0.00     0.219 HD
ENDBRANCH   7   8
BRANCH   7  10
HETATM   10  C9  UNL     1     -38.028  21.382 107.215  1.00  0.00     0.026 C 
HETATM   11  C10 UNL     1     -38.623  21.998 106.002  1.00  0.00     0.022 C 
HETATM   12  C11 UNL     1     -38.065  23.411 105.845  1.00  0.00    -0.013 C 
HETATM   13  C12 UNL     1     -38.431  24.293 106.999  1.00  0.00     0.009 C 
HETATM   14  C16 UNL     1     -36.573  23.294 105.679  1.00  0.00     0.009 C 
HETATM   15  C13 UNL     1     -37.874  23.664 108.258  1.00  0.00    -0.013 C 
HETATM   16  C14 UNL     1     -36.385  23.650 108.138  1.00  0.00     0.009 C 
HETATM   17  C18 UNL     1     -38.473  22.299 108.385  1.00  0.00     0.022 C 
HETATM   18  C15 UNL     1     -35.974  22.794 106.954  1.00  0.00    -0.013 C 
HETATM   19  C17 UNL     1     -36.523  21.411 107.236  1.00  0.00     0.022 C 
ENDBRANCH   7  10
ENDBRANCH   4   7
BRANCH   5  20
HETATM   20  C20 UNL     1     -38.742  18.286 104.495  1.00  0.00     0.196 C 
HETATM   21  O5  UNL     1     -39.259  19.216 103.825  1.00  0.00    -0.646 OA
HETATM   22  O6  UNL     1     -39.083  16.986 104.162  1.00  0.00    -0.646 OA
ENDBRANCH   5  20
BRANCH   1  23
HETATM   23  C4  UNL     1     -36.707  15.078 106.513  1.00  0.00     0.222 C 
HETATM   24  N1  UNL     1     -35.330  14.747 106.490  1.00  0.00    -0.360 N 
ATOM     25  H1  UNL     1     -34.663  15.494 106.688  1.00  0.00     0.162 HD
HETATM   26  O3  UNL     1     -37.541  14.173 106.272  1.00  0.00    -0.273 OA
BRANCH  24  27
HETATM   27  C3  UNL     1     -34.802  13.457 106.213  1.00  0.00     0.133 C 
BRANCH  27  28
HETATM   28  C2  UNL     1     -33.297  13.426 106.125  1.00  0.00     0.133 C 
BRANCH  28  29
HETATM   29  C1  UNL     1     -32.680  14.696 106.538  1.00  0.00     0.174 C 
HETATM   30  O1  UNL     1     -32.391  14.885 107.744  1.00  0.00    -0.648 OA
HETATM   31  O2  UNL     1     -32.417  15.685 105.608  1.00  0.00    -0.648 OA
ENDBRANCH  28  29
ENDBRANCH  27  28
ENDBRANCH  24  27
ENDBRANCH   1  23
TORSDOF 8
ENDMDL
MODEL 5
REMARK VINA RESULT: -7.209585828     13.631     16.054
REMARK  8 active torsions:
REMARK  status: ('A' for Active; 'I' for Inactive)
REMARK    1  A    between atoms: C1_2  and  C2_4 
REMARK    2  A    between atoms: C2_4  and  C3_5 
REMARK    3  A    between atoms: C3_5  and  N1_6 
REMARK       I    between atoms: N1_6  and  C4_8 
REMARK    4  A    between atoms: C4_8  and  C5_10 
REMARK    5  A    between atoms: N2_13  and  C8_14 
REMARK    6  A    between atoms: C8_14  and  O4_15 
REMARK    7  A    between atoms: C8_14  and  C9_17 
REMARK    8  A    between atoms: C19_27  and  C20_28 
ROOT
HETATM    1  C5  UNL     1     -37.659  22.143  93.246  1.00  0.00     0.082 C 
HETATM    2  C6  UNL     1     -36.350  22.883  93.230  1.00  0.00     0.034 C 
HETATM    3  C7  UNL     1     -35.165  21.981  93.194  1.00  0.00     0.126 C 
HETATM    4  N2  UNL     1     -35.474  20.667  92.566  1.00  0.00    -0.350 N 
HETATM    5  C19 UNL     1     -36.476  20.675  91.567  1.00  0.00     0.188 C 
HETATM    6  C21 UNL     1     -37.800  21.252  92.048  1.00  0.00     0.050 C 
ENDROOT
BRANCH   4   7
HETATM    7  C8  UNL     1     -34.758  19.572  93.016  1.00  0.00     0.123 C 
BRANCH   7   8
HETATM    8  O4  UNL     1     -35.480  18.642  93.572  1.00  0.00    -0.349 OA
ATOM      9  H4  UNL     1     -35.547  17.839  93.070  1.00  0.00     0.219 HD
ENDBRANCH   7   8
BRANCH   7  10
HETATM   10  C9  UNL     1     -33.328  19.257  92.988  1.00  0.00     0.026 C 
HETATM   11  C10 UNL     1     -32.461  20.192  92.227  1.00  0.00     0.022 C 
HETATM   12  C11 UNL     1     -31.012  19.727  92.350  1.00  0.00    -0.013 C 
HETATM   13  C12 UNL     1     -30.530  19.750  93.767  1.00  0.00     0.009 C 
HETATM   14  C16 UNL     1     -30.925  18.348  91.750  1.00  0.00     0.009 C 
HETATM   15  C13 UNL     1     -31.426  18.838  94.577  1.00  0.00    -0.013 C 
HETATM   16  C14 UNL     1     -31.255  17.450  94.050  1.00  0.00     0.009 C 
HETATM   17  C18 UNL     1     -32.825  19.352  94.453  1.00  0.00     0.022 C 
HETATM   18  C15 UNL     1     -31.699  17.393  92.600  1.00  0.00    -0.013 C 
HETATM   19  C17 UNL     1     -33.154  17.813  92.599  1.00  0.00     0.022 C 
ENDBRANCH   7  10
ENDBRANCH   4   7
BRANCH   5  20
HETATM   20  C20 UNL     1     -36.061  21.516  90.378  1.00  0.00     0.196 C 
HETATM   21  O5  UNL     1     -34.913  21.399  89.881  1.00  0.00    -0.646 OA
HETATM   22  O6  UNL     1     -36.921  22.436  89.802  1.00  0.00    -0.646 OA
ENDBRANCH   5  20
BRANCH   1  23
HETATM   23  C4  UNL     1     -38.758  23.130  93.316  1.00  0.00     0.222 C 
HETATM   24  N1  UNL     1     -40.119  22.760  93.183  1.00  0.00    -0.360 N 
ATOM     25  H1  UNL     1     -40.325  21.772  93.034  1.00  0.00     0.162 HD
HETATM   26  O3  UNL     1     -38.485  24.340  93.499  1.00  0.00    -0.273 OA
BRANCH  24  27
HETATM   27  C3  UNL     1     -41.221  23.657  93.241  1.00  0.00     0.133 C 
BRANCH  27  28
HETATM   28  C2  UNL     1     -41.600  24.056  94.646  1.00  0.00     0.133 C 
BRANCH  28  29
HETATM   29  C1  UNL     1     -41.732  25.512  94.804  1.00  0.00     0.174 C 
HETATM   30  O1  UNL     1     -40.719  26.245  94.698  1.00  0.00    -0.648 OA
HETATM   31  O2  UNL     1     -42.964  26.082  95.069  1.00  0.00    -0.648 OA
ENDBRANCH  28  29
ENDBRANCH  27  28
ENDBRANCH  24  27
ENDBRANCH   1  23
TORSDOF 8
ENDMDL
