MODEL 1
REMARK VINA RESULT: -8.981280337      0.000      0.000
REMARK  11 active torsions:
REMARK  status: ('A' for Active; 'I' for Inactive)
REMARK    1  A    between atoms: C2_2  and  C3_3 
REMARK    2  A    between atoms: C3_3  and  O1_4 
REMARK    3  A    between atoms: C3_3  and  C4_6 
REMARK    4  A    between atoms: C4_6  and  O2_7 
REMARK    5  A    between atoms: C4_6  and  C5_9 
REMARK    6  A    between atoms: N1_12  and  C7_13 
REMARK    7  A    between atoms: C7_13  and  C8_14 
REMARK    8  A    between atoms: C8_14  and  O4_15 
REMARK    9  A    between atoms: C8_14  and  N2_17 
REMARK   10  A    between atoms: C11_20  and  N3_21 
REMARK   11  A    between atoms: C29_39  and  O5_40 
ROOT
HETATM    1  C5  UNL     1      37.721  54.749 135.730  1.00  0.00     0.116 C 
HETATM    2  C6  UNL     1      38.304  53.902 134.654  1.00  0.00     0.227 C 
HETATM    3  O3  UNL     1      37.755  52.954 134.082  1.00  0.00    -0.273 OA
HETATM    4  N1  UNL     1      39.609  54.429 134.443  1.00  0.00    -0.338 N 
HETATM    5  C15 UNL     1      40.124  54.565 135.797  1.00  0.00     0.036 C 
HETATM    6  C16 UNL     1      40.764  53.226 136.102  1.00  0.00     0.039 C 
HETATM    7  C17 UNL     1      41.125  55.653 135.900  1.00  0.00     0.032 C 
HETATM    8  C18 UNL     1      41.431  56.131 137.266  1.00  0.00     0.012 C 
HETATM    9  C19 UNL     1      40.314  56.115 138.253  1.00  0.00    -0.032 C 
HETATM   10  C20 UNL     1      40.621  55.019 139.255  1.00  0.00     0.016 C 
HETATM   11  C21 UNL     1      38.954  55.868 137.640  1.00  0.00     0.002 C 
HETATM   12  C22 UNL     1      37.973  55.525 138.751  1.00  0.00     0.006 C 
HETATM   13  C23 UNL     1      38.189  56.281 140.006  1.00  0.00     0.006 C 
HETATM   14  C24 UNL     1      38.955  57.559 139.811  1.00  0.00     0.003 C 
HETATM   15  C25 UNL     1      39.134  58.329 141.120  1.00  0.00    -0.035 C 
HETATM   16  C26 UNL     1      39.733  57.548 142.226  1.00  0.00     0.016 C 
HETATM   17  C27 UNL     1      37.808  58.883 141.618  1.00  0.00     0.012 C 
HETATM   18  C28 UNL     1      37.600  60.335 141.194  1.00  0.00     0.033 C 
HETATM   19  C29 UNL     1      38.548  61.262 141.881  1.00  0.00     0.126 C 
HETATM   20  C30 UNL     1      39.942  60.640 141.829  1.00  0.00    -0.017 C 
HETATM   21  C31 UNL     1      40.454  60.399 143.188  1.00  0.00     0.018 C 
HETATM   22  C32 UNL     1      40.840  61.751 141.241  1.00  0.00     0.018 C 
HETATM   23  C33 UNL     1      39.978  59.550 140.833  1.00  0.00     0.004 C 
HETATM   24  C34 UNL     1      41.344  59.141 140.416  1.00  0.00     0.007 C 
HETATM   25  C35 UNL     1      41.436  57.832 139.706  1.00  0.00     0.011 C 
HETATM   26  C36 UNL     1      40.177  57.472 138.973  1.00  0.00    -0.032 C 
HETATM   27  C37 UNL     1      40.049  58.491 137.827  1.00  0.00     0.016 C 
HETATM   28  C38 UNL     1      38.881  54.802 136.629  1.00  0.00     0.034 C 
ENDROOT
BRANCH   4  29
HETATM   29  C7  UNL     1      40.270  54.740 133.198  1.00  0.00     0.190 C 
BRANCH  29  30
HETATM   30  C8  UNL     1      39.761  55.888 132.419  1.00  0.00     0.374 C 
BRANCH  30  31
HETATM   31  O4  UNL     1      39.269  56.961 133.127  1.00  0.00    -0.366 OA
ATOM     32  H4  UNL     1      39.850  57.702 133.254  1.00  0.00     0.212 HD
ENDBRANCH  30  31
BRANCH  30  33
HETATM   33  N2  UNL     1      38.787  55.425 131.459  1.00  0.00     0.120 N 
HETATM   34  C9  UNL     1      37.517  56.038 131.510  1.00  0.00     0.278 C 
HETATM   35  C10 UNL     1      37.396  56.946 130.301  1.00  0.00     0.068 C 
HETATM   36  C11 UNL     1      38.507  56.544 129.382  1.00  0.00     0.252 C 
HETATM   37  C14 UNL     1      39.276  55.489 130.102  1.00  0.00     0.311 C 
BRANCH  36  38
HETATM   38  N3  UNL     1      38.056  56.172 128.073  1.00  0.00     0.086 N 
HETATM   39  C12 UNL     1      37.678  54.798 127.927  1.00  0.00     0.310 C 
HETATM   40  C13 UNL     1      38.972  56.600 127.059  1.00  0.00     0.310 C 
ENDBRANCH  36  38
ENDBRANCH  30  33
ENDBRANCH  29  30
ENDBRANCH   4  29
BRANCH   1  41
HETATM   41  C4  UNL     1      37.208  55.959 135.065  1.00  0.00     0.160 C 
BRANCH  41  42
HETATM   42  C3  UNL     1      35.691  56.037 135.130  1.00  0.00     0.147 C 
BRANCH  42  43
HETATM   43  C2  UNL     1      35.110  54.732 135.667  1.00  0.00     0.030 C 
HETATM   44  C1  UNL     1      34.385  53.993 134.592  1.00  0.00     0.007 C 
ENDBRANCH  42  43
BRANCH  42  45
HETATM   45  O1  UNL     1      35.124  56.197 133.879  1.00  0.00    -0.393 OA
ATOM     46  H1  UNL     1      34.354  56.735 134.023  1.00  0.00     0.210 HD
ENDBRANCH  42  45
ENDBRANCH  41  42
BRANCH  41  47
HETATM   47  O2  UNL     1      37.655  57.190 135.432  1.00  0.00    -0.392 OA
ATOM     48  H2  UNL     1      38.072  57.554 134.660  1.00  0.00     0.210 HD
ENDBRANCH  41  47
ENDBRANCH   1  41
BRANCH  19  49
HETATM   49  O5  UNL     1      38.477  62.493 141.275  1.00  0.00    -0.395 OA
ATOM     50  H5  UNL     1      39.338  62.895 141.299  1.00  0.00     0.210 HD
ENDBRANCH  19  49
TORSDOF 11
ENDMDL
MODEL 2
REMARK VINA RESULT: -8.941562121      1.805      2.511
REMARK  11 active torsions:
REMARK  status: ('A' for Active; 'I' for Inactive)
REMARK    1  A    between atoms: C2_2  and  C3_3 
REMARK    2  A    between atoms: C3_3  and  O1_4 
REMARK    3  A    between atoms: C3_3  and  C4_6 
REMARK    4  A    between atoms: C4_6  and  O2_7 
REMARK    5  A    between atoms: C4_6  and  C5_9 
REMARK    6  A    between atoms: N1_12  and  C7_13 
REMARK    7  A    between atoms: C7_13  and  C8_14 
REMARK    8  A    between atoms: C8_14  and  O4_15 
REMARK    9  A    between atoms: C8_14  and  N2_17 
REMARK   10  A    between atoms: C11_20  and  N3_21 
REMARK   11  A    between atoms: C29_39  and  O5_40 
ROOT
HETATM    1  C5  UNL     1      37.012  53.987 134.776  1.00  0.00     0.116 C 
HETATM    2  C6  UNL     1      37.120  53.813 133.302  1.00  0.00     0.227 C 
HETATM    3  O3  UNL     1      36.771  52.823 132.649  1.00  0.00    -0.273 OA
HETATM    4  N1  UNL     1      37.704  55.023 132.834  1.00  0.00    -0.338 N 
HETATM    5  C15 UNL     1      38.813  55.224 133.754  1.00  0.00     0.036 C 
HETATM    6  C16 UNL     1      39.972  54.476 133.128  1.00  0.00     0.039 C 
HETATM    7  C17 UNL     1      39.146  56.658 133.913  1.00  0.00     0.032 C 
HETATM    8  C18 UNL     1      39.980  57.009 135.084  1.00  0.00     0.012 C 
HETATM    9  C19 UNL     1      39.786  56.197 136.318  1.00  0.00    -0.032 C 
HETATM   10  C20 UNL     1      41.028  55.345 136.491  1.00  0.00     0.016 C 
HETATM   11  C21 UNL     1      38.565  55.305 136.283  1.00  0.00     0.002 C 
HETATM   12  C22 UNL     1      38.670  54.291 137.413  1.00  0.00     0.006 C 
HETATM   13  C23 UNL     1      39.264  54.829 138.658  1.00  0.00     0.006 C 
HETATM   14  C24 UNL     1      39.181  56.326 138.763  1.00  0.00     0.003 C 
HETATM   15  C25 UNL     1      39.777  56.845 140.072  1.00  0.00    -0.035 C 
HETATM   16  C26 UNL     1      41.160  56.398 140.349  1.00  0.00     0.016 C 
HETATM   17  C27 UNL     1      38.921  56.444 141.264  1.00  0.00     0.012 C 
HETATM   18  C28 UNL     1      37.949  57.549 141.669  1.00  0.00     0.033 C 
HETATM   19  C29 UNL     1      38.655  58.735 142.239  1.00  0.00     0.126 C 
HETATM   20  C30 UNL     1      39.850  59.054 141.341  1.00  0.00    -0.017 C 
HETATM   21  C31 UNL     1      41.109  58.950 142.098  1.00  0.00     0.018 C 
HETATM   22  C32 UNL     1      39.693  60.554 141.007  1.00  0.00     0.018 C 
HETATM   23  C33 UNL     1      39.717  58.356 140.048  1.00  0.00     0.004 C 
HETATM   24  C34 UNL     1      40.592  58.884 138.970  1.00  0.00     0.007 C 
HETATM   25  C35 UNL     1      40.754  57.999 137.779  1.00  0.00     0.011 C 
HETATM   26  C36 UNL     1      39.578  57.093 137.556  1.00  0.00    -0.032 C 
HETATM   27  C37 UNL     1      38.408  58.010 137.162  1.00  0.00     0.016 C 
HETATM   28  C38 UNL     1      38.338  54.564 135.032  1.00  0.00     0.034 C 
ENDROOT
BRANCH   4  29
HETATM   29  C7  UNL     1      37.308  55.847 131.716  1.00  0.00     0.190 C 
BRANCH  29  30
HETATM   30  C8  UNL     1      37.425  55.267 130.361  1.00  0.00     0.374 C 
BRANCH  30  31
HETATM   31  O4  UNL     1      37.949  53.998 130.262  1.00  0.00    -0.366 OA
ATOM     32  H4  UNL     1      37.344  53.270 130.351  1.00  0.00     0.212 HD
ENDBRANCH  30  31
BRANCH  30  33
HETATM   33  N2  UNL     1      38.147  56.181 129.508  1.00  0.00     0.120 N 
HETATM   34  C9  UNL     1      38.562  57.394 130.098  1.00  0.00     0.278 C 
HETATM   35  C10 UNL     1      40.065  57.322 130.287  1.00  0.00     0.068 C 
HETATM   36  C11 UNL     1      40.522  56.167 129.452  1.00  0.00     0.252 C 
HETATM   37  C14 UNL     1      39.287  55.562 128.876  1.00  0.00     0.311 C 
BRANCH  36  38
HETATM   38  N3  UNL     1      41.525  56.521 128.490  1.00  0.00     0.086 N 
HETATM   39  C12 UNL     1      41.433  55.836 127.235  1.00  0.00     0.310 C 
HETATM   40  C13 UNL     1      42.840  56.461 129.053  1.00  0.00     0.310 C 
ENDBRANCH  36  38
ENDBRANCH  30  33
ENDBRANCH  29  30
ENDBRANCH   4  29
BRANCH   1  41
HETATM   41  C4  UNL     1      35.779  54.761 135.007  1.00  0.00     0.160 C 
BRANCH  41  42
HETATM   42  C3  UNL     1      34.951  54.173 136.138  1.00  0.00     0.147 C 
BRANCH  42  43
HETATM   43  C2  UNL     1      34.929  52.650 136.052  1.00  0.00     0.030 C 
HETATM   44  C1  UNL     1      33.757  52.095 136.792  1.00  0.00     0.007 C 
ENDBRANCH  42  43
BRANCH  42  45
HETATM   45  O1  UNL     1      33.625  54.559 136.067  1.00  0.00    -0.393 OA
ATOM     46  H1  UNL     1      33.516  55.202 136.758  1.00  0.00     0.210 HD
ENDBRANCH  42  45
ENDBRANCH  41  42
BRANCH  41  47
HETATM   47  O2  UNL     1      35.839  56.097 135.250  1.00  0.00    -0.392 OA
ATOM     48  H2  UNL     1      36.331  56.468 134.527  1.00  0.00     0.210 HD
ENDBRANCH  41  47
ENDBRANCH   1  41
BRANCH  19  49
HETATM   49  O5  UNL     1      37.760  59.772 142.344  1.00  0.00    -0.395 OA
ATOM     50  H5  UNL     1      37.608  59.952 143.265  1.00  0.00     0.210 HD
ENDBRANCH  19  49
TORSDOF 11
ENDMDL
MODEL 3
REMARK VINA RESULT: -8.840502687      1.720      2.206
REMARK  11 active torsions:
REMARK  status: ('A' for Active; 'I' for Inactive)
REMARK    1  A    between atoms: C2_2  and  C3_3 
REMARK    2  A    between atoms: C3_3  and  O1_4 
REMARK    3  A    between atoms: C3_3  and  C4_6 
REMARK    4  A    between atoms: C4_6  and  O2_7 
REMARK    5  A    between atoms: C4_6  and  C5_9 
REMARK    6  A    between atoms: N1_12  and  C7_13 
REMARK    7  A    between atoms: C7_13  and  C8_14 
REMARK    8  A    between atoms: C8_14  and  O4_15 
REMARK    9  A    between atoms: C8_14  and  N2_17 
REMARK   10  A    between atoms: C11_20  and  N3_21 
REMARK   11  A    between atoms: C29_39  and  O5_40 
ROOT
HETATM    1  C5  UNL     1      37.016  53.884 134.761  1.00  0.00     0.116 C 
HETATM    2  C6  UNL     1      37.297  53.316 133.414  1.00  0.00     0.227 C 
HETATM    3  O3  UNL     1      36.756  52.330 132.901  1.00  0.00    -0.273 OA
HETATM    4  N1  UNL     1      38.308  54.156 132.869  1.00  0.00    -0.338 N 
HETATM    5  C15 UNL     1      39.259  54.268 133.965  1.00  0.00     0.036 C 
HETATM    6  C16 UNL     1      40.199  53.095 133.781  1.00  0.00     0.039 C 
HETATM    7  C17 UNL     1      40.009  55.545 133.917  1.00  0.00     0.032 C 
HETATM    8  C18 UNL     1      40.712  55.937 135.159  1.00  0.00     0.012 C 
HETATM    9  C19 UNL     1      40.069  55.554 136.447  1.00  0.00    -0.032 C 
HETATM   10  C20 UNL     1      40.923  54.464 137.064  1.00  0.00     0.016 C 
HETATM   11  C21 UNL     1      38.647  55.057 136.303  1.00  0.00     0.002 C 
HETATM   12  C22 UNL     1      38.235  54.377 137.600  1.00  0.00     0.006 C 
HETATM   13  C23 UNL     1      38.762  55.028 138.822  1.00  0.00     0.006 C 
HETATM   14  C24 UNL     1      39.153  56.464 138.614  1.00  0.00     0.003 C 
HETATM   15  C25 UNL     1      39.665  57.113 139.900  1.00  0.00    -0.035 C 
HETATM   16  C26 UNL     1      40.766  56.386 140.570  1.00  0.00     0.016 C 
HETATM   17  C27 UNL     1      38.546  57.283 140.915  1.00  0.00     0.012 C 
HETATM   18  C28 UNL     1      37.932  58.680 140.862  1.00  0.00     0.033 C 
HETATM   19  C29 UNL     1      38.882  59.728 141.340  1.00  0.00     0.126 C 
HETATM   20  C30 UNL     1      40.244  59.463 140.700  1.00  0.00    -0.017 C 
HETATM   21  C31 UNL     1      41.262  59.210 141.733  1.00  0.00     0.018 C 
HETATM   22  C32 UNL     1      40.638  60.810 140.055  1.00  0.00     0.018 C 
HETATM   23  C33 UNL     1      40.103  58.523 139.571  1.00  0.00     0.004 C 
HETATM   24  C34 UNL     1      41.263  58.494 138.644  1.00  0.00     0.007 C 
HETATM   25  C35 UNL     1      41.320  57.326 137.717  1.00  0.00     0.011 C 
HETATM   26  C36 UNL     1      39.965  56.757 137.407  1.00  0.00    -0.032 C 
HETATM   27  C37 UNL     1      39.235  57.830 136.582  1.00  0.00     0.016 C 
HETATM   28  C38 UNL     1      38.397  54.116 135.201  1.00  0.00     0.034 C 
ENDROOT
BRANCH   4  29
HETATM   29  C7  UNL     1      38.387  54.743 131.552  1.00  0.00     0.190 C 
BRANCH  29  30
HETATM   30  C8  UNL     1      38.289  56.214 131.450  1.00  0.00     0.374 C 
BRANCH  30  31
HETATM   31  O4  UNL     1      37.059  56.782 131.694  1.00  0.00    -0.366 OA
ATOM     32  H4  UNL     1      36.941  57.224 132.527  1.00  0.00     0.212 HD
ENDBRANCH  30  31
BRANCH  30  33
HETATM   33  N2  UNL     1      38.800  56.642 130.169  1.00  0.00     0.120 N 
HETATM   34  C9  UNL     1      39.153  58.005 130.060  1.00  0.00     0.278 C 
HETATM   35  C10 UNL     1      40.667  58.084 130.021  1.00  0.00     0.068 C 
HETATM   36  C11 UNL     1      41.139  56.690 129.753  1.00  0.00     0.252 C 
HETATM   37  C14 UNL     1      39.914  55.840 129.723  1.00  0.00     0.311 C 
BRANCH  36  38
HETATM   38  N3  UNL     1      41.972  56.584 128.591  1.00  0.00     0.086 N 
HETATM   39  C12 UNL     1      41.439  55.784 127.529  1.00  0.00     0.310 C 
HETATM   40  C13 UNL     1      43.312  56.215 128.936  1.00  0.00     0.310 C 
ENDBRANCH  36  38
ENDBRANCH  30  33
ENDBRANCH  29  30
ENDBRANCH   4  29
BRANCH   1  41
HETATM   41  C4  UNL     1      36.079  55.001 134.546  1.00  0.00     0.160 C 
BRANCH  41  42
HETATM   42  C3  UNL     1      34.756  54.770 135.256  1.00  0.00     0.147 C 
BRANCH  42  43
HETATM   43  C2  UNL     1      34.890  53.658 136.291  1.00  0.00     0.030 C 
HETATM   44  C1  UNL     1      33.637  53.528 137.094  1.00  0.00     0.007 C 
ENDBRANCH  42  43
BRANCH  42  45
HETATM   45  O1  UNL     1      33.768  54.340 134.389  1.00  0.00    -0.393 OA
ATOM     46  H1  UNL     1      33.730  55.001 133.708  1.00  0.00     0.210 HD
ENDBRANCH  42  45
ENDBRANCH  41  42
BRANCH  41  47
HETATM   47  O2  UNL     1      36.444  56.275 134.852  1.00  0.00    -0.392 OA
ATOM     48  H2  UNL     1      36.045  56.824 134.187  1.00  0.00     0.210 HD
ENDBRANCH  41  47
ENDBRANCH   1  41
BRANCH  19  49
HETATM   49  O5  UNL     1      38.367  60.964 141.033  1.00  0.00    -0.395 OA
ATOM     50  H5  UNL     1      38.947  61.391 140.413  1.00  0.00     0.210 HD
ENDBRANCH  19  49
TORSDOF 11
ENDMDL
MODEL 4
REMARK VINA RESULT: -8.627223951      3.194      9.659
REMARK  11 active torsions:
REMARK  status: ('A' for Active; 'I' for Inactive)
REMARK    1  A    between atoms: C2_2  and  C3_3 
REMARK    2  A    between atoms: C3_3  and  O1_4 
REMARK    3  A    between atoms: C3_3  and  C4_6 
REMARK    4  A    between atoms: C4_6  and  O2_7 
REMARK    5  A    between atoms: C4_6  and  C5_9 
REMARK    6  A    between atoms: N1_12  and  C7_13 
REMARK    7  A    between atoms: C7_13  and  C8_14 
REMARK    8  A    between atoms: C8_14  and  O4_15 
REMARK    9  A    between atoms: C8_14  and  N2_17 
REMARK   10  A    between atoms: C11_20  and  N3_21 
REMARK   11  A    between atoms: C29_39  and  O5_40 
ROOT
HETATM    1  C5  UNL     1      40.113  54.625 137.789  1.00  0.00     0.116 C 
HETATM    2  C6  UNL     1      40.458  55.795 138.642  1.00  0.00     0.227 C 
HETATM    3  O3  UNL     1      40.935  55.761 139.783  1.00  0.00    -0.273 OA
HETATM    4  N1  UNL     1      40.122  56.931 137.855  1.00  0.00    -0.338 N 
HETATM    5  C15 UNL     1      38.796  56.599 137.358  1.00  0.00     0.036 C 
HETATM    6  C16 UNL     1      37.847  57.111 138.422  1.00  0.00     0.039 C 
HETATM    7  C17 UNL     1      38.515  57.248 136.057  1.00  0.00     0.032 C 
HETATM    8  C18 UNL     1      37.380  56.697 135.284  1.00  0.00     0.012 C 
HETATM    9  C19 UNL     1      37.133  55.232 135.400  1.00  0.00    -0.032 C 
HETATM   10  C20 UNL     1      35.851  55.059 136.190  1.00  0.00     0.016 C 
HETATM   11  C21 UNL     1      38.249  54.471 136.080  1.00  0.00     0.002 C 
HETATM   12  C22 UNL     1      37.739  53.087 136.452  1.00  0.00     0.006 C 
HETATM   13  C23 UNL     1      36.819  52.490 135.456  1.00  0.00     0.006 C 
HETATM   14  C24 UNL     1      36.954  53.088 134.084  1.00  0.00     0.003 C 
HETATM   15  C25 UNL     1      36.012  52.430 133.074  1.00  0.00    -0.035 C 
HETATM   16  C26 UNL     1      34.587  52.406 133.474  1.00  0.00     0.016 C 
HETATM   17  C27 UNL     1      36.429  50.997 132.785  1.00  0.00     0.012 C 
HETATM   18  C28 UNL     1      37.291  50.894 131.529  1.00  0.00     0.033 C 
HETATM   19  C29 UNL     1      36.514  51.197 130.291  1.00  0.00     0.126 C 
HETATM   20  C30 UNL     1      35.679  52.450 130.548  1.00  0.00    -0.017 C 
HETATM   21  C31 UNL     1      34.243  52.154 130.410  1.00  0.00     0.018 C 
HETATM   22  C32 UNL     1      36.020  53.391 129.371  1.00  0.00     0.018 C 
HETATM   23  C33 UNL     1      36.165  53.149 131.753  1.00  0.00     0.004 C 
HETATM   24  C34 UNL     1      35.703  54.555 131.880  1.00  0.00     0.007 C 
HETATM   25  C35 UNL     1      35.866  55.169 133.230  1.00  0.00     0.011 C 
HETATM   26  C36 UNL     1      36.998  54.570 134.014  1.00  0.00    -0.032 C 
HETATM   27  C37 UNL     1      38.285  54.979 133.278  1.00  0.00     0.016 C 
HETATM   28  C38 UNL     1      38.810  55.086 137.293  1.00  0.00     0.034 C 
ENDROOT
BRANCH   4  29
HETATM   29  C7  UNL     1      40.894  58.129 137.616  1.00  0.00     0.190 C 
BRANCH  29  30
HETATM   30  C8  UNL     1      40.536  59.340 138.382  1.00  0.00     0.374 C 
BRANCH  30  31
HETATM   31  O4  UNL     1      41.015  60.544 137.916  1.00  0.00    -0.366 OA
ATOM     32  H4  UNL     1      40.941  61.294 138.494  1.00  0.00     0.212 HD
ENDBRANCH  30  31
BRANCH  30  33
HETATM   33  N2  UNL     1      40.893  59.156 139.769  1.00  0.00     0.120 N 
HETATM   34  C9  UNL     1      41.912  59.994 140.270  1.00  0.00     0.278 C 
HETATM   35  C10 UNL     1      41.260  61.008 141.191  1.00  0.00     0.068 C 
HETATM   36  C11 UNL     1      39.886  60.481 141.465  1.00  0.00     0.252 C 
HETATM   37  C14 UNL     1      39.751  59.241 140.648  1.00  0.00     0.311 C 
BRANCH  36  38
HETATM   38  N3  UNL     1      39.608  60.315 142.861  1.00  0.00     0.086 N 
HETATM   39  C12 UNL     1      40.750  60.041 143.682  1.00  0.00     0.310 C 
HETATM   40  C13 UNL     1      38.540  59.386 143.079  1.00  0.00     0.310 C 
ENDBRANCH  36  38
ENDBRANCH  30  33
ENDBRANCH  29  30
ENDBRANCH   4  29
BRANCH   1  41
HETATM   41  C4  UNL     1      41.257  54.430 136.880  1.00  0.00     0.160 C 
BRANCH  41  42
HETATM   42  C3  UNL     1      40.808  53.962 135.505  1.00  0.00     0.147 C 
BRANCH  42  43
HETATM   43  C2  UNL     1      41.158  52.492 135.299  1.00  0.00     0.030 C 
HETATM   44  C1  UNL     1      40.354  51.908 134.185  1.00  0.00     0.007 C 
ENDBRANCH  42  43
BRANCH  42  45
HETATM   45  O1  UNL     1      41.460  54.635 134.489  1.00  0.00    -0.393 OA
ATOM     46  H1  UNL     1      40.768  55.003 133.951  1.00  0.00     0.210 HD
ENDBRANCH  42  45
ENDBRANCH  41  42
BRANCH  41  47
HETATM   47  O2  UNL     1      42.138  55.441 136.656  1.00  0.00    -0.392 OA
ATOM     48  H2  UNL     1      42.429  55.724 137.515  1.00  0.00     0.210 HD
ENDBRANCH  41  47
ENDBRANCH   1  41
BRANCH  19  49
HETATM   49  O5  UNL     1      37.392  51.332 129.242  1.00  0.00    -0.395 OA
ATOM     50  H5  UNL     1      36.896  51.374 128.432  1.00  0.00     0.210 HD
ENDBRANCH  19  49
TORSDOF 11
ENDMDL
MODEL 5
REMARK VINA RESULT: -8.570357557      3.478      9.389
REMARK  11 active torsions:
REMARK  status: ('A' for Active; 'I' for Inactive)
REMARK    1  A    between atoms: C2_2  and  C3_3 
REMARK    2  A    between atoms: C3_3  and  O1_4 
REMARK    3  A    between atoms: C3_3  and  C4_6 
REMARK    4  A    between atoms: C4_6  and  O2_7 
REMARK    5  A    between atoms: C4_6  and  C5_9 
REMARK    6  A    between atoms: N1_12  and  C7_13 
REMARK    7  A    between atoms: C7_13  and  C8_14 
REMARK    8  A    between atoms: C8_14  and  O4_15 
REMARK    9  A    between atoms: C8_14  and  N2_17 
REMARK   10  A    between atoms: C11_20  and  N3_21 
REMARK   11  A    between atoms: C29_39  and  O5_40 
ROOT
HETATM    1  C5  UNL     1      39.238  55.427 132.793  1.00  0.00     0.116 C 
HETATM    2  C6  UNL     1      39.953  56.542 133.470  1.00  0.00     0.227 C 
HETATM    3  O3  UNL     1      40.804  57.286 132.969  1.00  0.00    -0.273 OA
HETATM    4  N1  UNL     1      39.439  56.552 134.797  1.00  0.00    -0.338 N 
HETATM    5  C15 UNL     1      39.493  55.147 135.174  1.00  0.00     0.036 C 
HETATM    6  C16 UNL     1      40.877  54.960 135.761  1.00  0.00     0.039 C 
HETATM    7  C17 UNL     1      38.456  54.804 136.174  1.00  0.00     0.032 C 
HETATM    8  C18 UNL     1      38.167  53.362 136.346  1.00  0.00     0.012 C 
HETATM    9  C19 UNL     1      38.281  52.502 135.135  1.00  0.00    -0.032 C 
HETATM   10  C20 UNL     1      39.505  51.628 135.323  1.00  0.00     0.016 C 
HETATM   11  C21 UNL     1      38.409  53.274 133.840  1.00  0.00     0.002 C 
HETATM   12  C22 UNL     1      38.867  52.320 132.747  1.00  0.00     0.006 C 
HETATM   13  C23 UNL     1      38.286  50.961 132.844  1.00  0.00     0.006 C 
HETATM   14  C24 UNL     1      37.014  50.910 133.644  1.00  0.00     0.003 C 
HETATM   15  C25 UNL     1      36.426  49.500 133.700  1.00  0.00    -0.035 C 
HETATM   16  C26 UNL     1      37.359  48.453 134.172  1.00  0.00     0.016 C 
HETATM   17  C27 UNL     1      35.905  49.066 132.338  1.00  0.00     0.012 C 
HETATM   18  C28 UNL     1      34.406  49.314 132.194  1.00  0.00     0.033 C 
HETATM   19  C29 UNL     1      33.602  48.421 133.079  1.00  0.00     0.126 C 
HETATM   20  C30 UNL     1      34.249  48.416 134.463  1.00  0.00    -0.017 C 
HETATM   21  C31 UNL     1      34.678  47.056 134.831  1.00  0.00     0.018 C 
HETATM   22  C32 UNL     1      33.096  48.760 135.432  1.00  0.00     0.018 C 
HETATM   23  C33 UNL     1      35.201  49.538 134.586  1.00  0.00     0.004 C 
HETATM   24  C34 UNL     1      35.590  49.868 135.980  1.00  0.00     0.007 C 
HETATM   25  C35 UNL     1      36.798  50.731 136.126  1.00  0.00     0.011 C 
HETATM   26  C36 UNL     1      37.025  51.627 134.943  1.00  0.00    -0.032 C 
HETATM   27  C37 UNL     1      35.864  52.635 134.947  1.00  0.00     0.016 C 
HETATM   28  C38 UNL     1      39.333  54.419 133.856  1.00  0.00     0.034 C 
ENDROOT
BRANCH   4  29
HETATM   29  C7  UNL     1      38.987  57.674 135.586  1.00  0.00     0.190 C 
BRANCH  29  30
HETATM   30  C8  UNL     1      40.003  58.436 136.341  1.00  0.00     0.374 C 
BRANCH  30  31
HETATM   31  O4  UNL     1      41.276  58.475 135.820  1.00  0.00    -0.366 OA
ATOM     32  H4  UNL     1      41.359  58.628 134.886  1.00  0.00     0.212 HD
ENDBRANCH  30  31
BRANCH  30  33
HETATM   33  N2  UNL     1      40.029  57.977 137.710  1.00  0.00     0.120 N 
HETATM   34  C9  UNL     1      40.906  58.658 138.581  1.00  0.00     0.278 C 
HETATM   35  C10 UNL     1      40.061  59.509 139.510  1.00  0.00     0.068 C 
HETATM   36  C11 UNL     1      38.661  59.004 139.358  1.00  0.00     0.252 C 
HETATM   37  C14 UNL     1      38.716  57.947 138.307  1.00  0.00     0.311 C 
BRANCH  36  38
HETATM   38  N3  UNL     1      38.067  58.591 140.596  1.00  0.00     0.086 N 
HETATM   39  C12 UNL     1      37.320  57.370 140.536  1.00  0.00     0.310 C 
HETATM   40  C13 UNL     1      37.330  59.655 141.208  1.00  0.00     0.310 C 
ENDBRANCH  36  38
ENDBRANCH  30  33
ENDBRANCH  29  30
ENDBRANCH   4  29
BRANCH   1  41
HETATM   41  C4  UNL     1      37.937  55.975 132.367  1.00  0.00     0.160 C 
BRANCH  41  42
HETATM   42  C3  UNL     1      37.850  56.104 130.855  1.00  0.00     0.147 C 
BRANCH  42  43
HETATM   43  C2  UNL     1      38.863  55.186 130.179  1.00  0.00     0.030 C 
HETATM   44  C1  UNL     1      38.180  54.020 129.544  1.00  0.00     0.007 C 
ENDBRANCH  42  43
BRANCH  42  45
HETATM   45  O1  UNL     1      38.170  57.377 130.422  1.00  0.00    -0.393 OA
ATOM     46  H1  UNL     1      37.441  57.923 130.692  1.00  0.00     0.210 HD
ENDBRANCH  42  45
ENDBRANCH  41  42
BRANCH  41  47
HETATM   47  O2  UNL     1      36.778  55.378 132.753  1.00  0.00    -0.392 OA
ATOM     48  H2  UNL     1      36.843  54.477 132.460  1.00  0.00     0.210 HD
ENDBRANCH  41  47
ENDBRANCH   1  41
BRANCH  19  49
HETATM   49  O5  UNL     1      32.300  48.863 133.088  1.00  0.00    -0.395 OA
ATOM     50  H5  UNL     1      32.163  49.393 133.865  1.00  0.00     0.210 HD
ENDBRANCH  19  49
TORSDOF 11
ENDMDL
