MODEL 1
REMARK VINA RESULT: -5.580129232      0.000      0.000
REMARK  9 active torsions:
REMARK  status: ('A' for Active; 'I' for Inactive)
REMARK    1  A    between atoms: C2_2  and  C3_3 
REMARK    2  A    between atoms: C3_3  and  C4_4 
REMARK    3  A    between atoms: C4_4  and  C5_5 
REMARK    4  A    between atoms: C5_5  and  O1_6 
REMARK    5  A    between atoms: C5_5  and  C6_8 
REMARK    6  A    between atoms: C6_8  and  C7_9 
REMARK    7  A    between atoms: C7_9  and  C8_10 
REMARK    8  A    between atoms: C8_10  and  C9_11 
REMARK    9  A    between atoms: C14_17  and  O3_18 
ROOT
HETATM    1  C6  UNL     1     -53.877  24.175 -32.435  1.00  0.00     0.120 C 
HETATM    2  O2  UNL     1     -54.409  23.607 -31.228  1.00  0.00    -0.337 OA
HETATM    3  C11 UNL     1     -55.544  24.119 -30.616  1.00  0.00     0.079 C 
HETATM    4  C12 UNL     1     -56.495  24.629 -31.351  1.00  0.00     0.078 C 
HETATM    5  C13 UNL     1     -56.302  24.629 -32.838  1.00  0.00     0.103 C 
HETATM    6  C14 UNL     1     -54.880  24.915 -33.225  1.00  0.00     0.182 C 
HETATM    7  O4  UNL     1     -57.553  25.094 -30.554  1.00  0.00    -0.352 OA
HETATM    8  C15 UNL     1     -57.079  25.171 -29.224  1.00  0.00     0.182 C 
HETATM    9  C16 UNL     1     -55.910  24.204 -29.179  1.00  0.00     0.094 C 
ENDROOT
BRANCH   1  10
HETATM   10  C5  UNL     1     -52.635  24.912 -32.043  1.00  0.00     0.155 C 
BRANCH  10  11
HETATM   11  C4  UNL     1     -51.791  24.162 -31.004  1.00  0.00     0.035 C 
BRANCH  11  12
HETATM   12  C3  UNL     1     -50.339  24.141 -31.504  1.00  0.00     0.002 C 
BRANCH  12  13
HETATM   13  C2  UNL     1     -49.677  22.834 -31.112  1.00  0.00    -0.004 C 
HETATM   14  C1  UNL     1     -49.687  21.901 -32.291  1.00  0.00     0.005 C 
ENDBRANCH  12  13
ENDBRANCH  11  12
ENDBRANCH  10  11
BRANCH  10  15
HETATM   15  O1  UNL     1     -51.745  25.046 -33.118  1.00  0.00    -0.392 OA
ATOM     16  H1  UNL     1     -52.296  25.421 -33.795  1.00  0.00     0.210 HD
ENDBRANCH  10  15
ENDBRANCH   1  10
BRANCH   1  17
HETATM   17  C7  UNL     1     -53.412  22.915 -33.198  1.00  0.00     0.044 C 
BRANCH  17  18
HETATM   18  C8  UNL     1     -54.060  22.787 -34.525  1.00  0.00     0.003 C 
BRANCH  18  19
HETATM   19  C9  UNL     1     -53.113  23.079 -35.670  1.00  0.00    -0.004 C 
HETATM   20  C10 UNL     1     -53.512  22.173 -36.822  1.00  0.00     0.005 C 
ENDBRANCH  18  19
ENDBRANCH  17  18
ENDBRANCH   1  17
BRANCH   6  21
HETATM   21  O3  UNL     1     -54.580  26.249 -33.294  1.00  0.00    -0.299 OA
HETATM   22  S1  UNL     1     -54.813  26.986 -34.797  1.00  0.00     0.093 SA
ENDBRANCH   6  21
TORSDOF 9
ENDMDL
MODEL 2
REMARK VINA RESULT: -5.450580949      0.684      1.006
REMARK  9 active torsions:
REMARK  status: ('A' for Active; 'I' for Inactive)
REMARK    1  A    between atoms: C2_2  and  C3_3 
REMARK    2  A    between atoms: C3_3  and  C4_4 
REMARK    3  A    between atoms: C4_4  and  C5_5 
REMARK    4  A    between atoms: C5_5  and  O1_6 
REMARK    5  A    between atoms: C5_5  and  C6_8 
REMARK    6  A    between atoms: C6_8  and  C7_9 
REMARK    7  A    between atoms: C7_9  and  C8_10 
REMARK    8  A    between atoms: C8_10  and  C9_11 
REMARK    9  A    between atoms: C14_17  and  O3_18 
ROOT
HETATM    1  C6  UNL     1     -53.861  24.239 -32.559  1.00  0.00     0.120 C 
HETATM    2  O2  UNL     1     -54.605  23.779 -31.419  1.00  0.00    -0.337 OA
HETATM    3  C11 UNL     1     -55.762  24.417 -30.995  1.00  0.00     0.079 C 
HETATM    4  C12 UNL     1     -56.551  24.969 -31.875  1.00  0.00     0.078 C 
HETATM    5  C13 UNL     1     -56.156  24.878 -33.318  1.00  0.00     0.103 C 
HETATM    6  C14 UNL     1     -54.674  25.022 -33.510  1.00  0.00     0.182 C 
HETATM    7  O4  UNL     1     -57.662  25.562 -31.254  1.00  0.00    -0.352 OA
HETATM    8  C15 UNL     1     -57.370  25.665 -29.875  1.00  0.00     0.182 C 
HETATM    9  C16 UNL     1     -56.313  24.604 -29.628  1.00  0.00     0.094 C 
ENDROOT
BRANCH   1  10
HETATM   10  C5  UNL     1     -52.623  24.886 -32.023  1.00  0.00     0.155 C 
BRANCH  10  11
HETATM   11  C4  UNL     1     -51.833  23.978 -31.070  1.00  0.00     0.035 C 
BRANCH  11  12
HETATM   12  C3  UNL     1     -50.346  24.095 -31.434  1.00  0.00     0.002 C 
BRANCH  12  13
HETATM   13  C2  UNL     1     -49.621  22.816 -31.063  1.00  0.00    -0.004 C 
HETATM   14  C1  UNL     1     -49.663  21.867 -32.228  1.00  0.00     0.005 C 
ENDBRANCH  12  13
ENDBRANCH  11  12
ENDBRANCH  10  11
BRANCH  10  15
HETATM   15  O1  UNL     1     -51.690  25.149 -33.036  1.00  0.00    -0.392 OA
ATOM     16  H1  UNL     1     -50.888  24.788 -32.676  1.00  0.00     0.210 HD
ENDBRANCH  10  15
ENDBRANCH   1  10
BRANCH   1  17
HETATM   17  C7  UNL     1     -53.413  22.908 -33.201  1.00  0.00     0.044 C 
BRANCH  17  18
HETATM   18  C8  UNL     1     -53.665  22.871 -34.661  1.00  0.00     0.003 C 
BRANCH  18  19
HETATM   19  C9  UNL     1     -54.611  21.760 -35.065  1.00  0.00    -0.004 C 
HETATM   20  C10 UNL     1     -55.256  21.236 -33.793  1.00  0.00     0.005 C 
ENDBRANCH  18  19
ENDBRANCH  17  18
ENDBRANCH   1  17
BRANCH   6  21
HETATM   21  O3  UNL     1     -54.246  26.320 -33.586  1.00  0.00    -0.299 OA
HETATM   22  S1  UNL     1     -54.969  27.273 -34.781  1.00  0.00     0.093 SA
ENDBRANCH   6  21
TORSDOF 9
ENDMDL
MODEL 3
REMARK VINA RESULT: -5.418253486      2.173      4.751
REMARK  9 active torsions:
REMARK  status: ('A' for Active; 'I' for Inactive)
REMARK    1  A    between atoms: C2_2  and  C3_3 
REMARK    2  A    between atoms: C3_3  and  C4_4 
REMARK    3  A    between atoms: C4_4  and  C5_5 
REMARK    4  A    between atoms: C5_5  and  O1_6 
REMARK    5  A    between atoms: C5_5  and  C6_8 
REMARK    6  A    between atoms: C6_8  and  C7_9 
REMARK    7  A    between atoms: C7_9  and  C8_10 
REMARK    8  A    between atoms: C8_10  and  C9_11 
REMARK    9  A    between atoms: C14_17  and  O3_18 
ROOT
HETATM    1  C6  UNL     1     -54.072  23.742 -33.901  1.00  0.00     0.120 C 
HETATM    2  O2  UNL     1     -53.115  22.804 -33.385  1.00  0.00    -0.337 OA
HETATM    3  C11 UNL     1     -52.061  23.203 -32.576  1.00  0.00     0.079 C 
HETATM    4  C12 UNL     1     -52.227  24.201 -31.750  1.00  0.00     0.078 C 
HETATM    5  C13 UNL     1     -53.571  24.866 -31.724  1.00  0.00     0.103 C 
HETATM    6  C14 UNL     1     -54.176  24.974 -33.094  1.00  0.00     0.182 C 
HETATM    7  O4  UNL     1     -51.054  24.454 -31.023  1.00  0.00    -0.352 OA
HETATM    8  C15 UNL     1     -49.997  23.779 -31.677  1.00  0.00     0.182 C 
HETATM    9  C16 UNL     1     -50.679  22.672 -32.461  1.00  0.00     0.094 C 
ENDROOT
BRANCH   1  10
HETATM   10  C5  UNL     1     -53.766  23.902 -35.357  1.00  0.00     0.155 C 
BRANCH  10  11
HETATM   11  C4  UNL     1     -53.170  22.637 -35.990  1.00  0.00     0.035 C 
BRANCH  11  12
HETATM   12  C3  UNL     1     -54.122  22.174 -37.102  1.00  0.00     0.002 C 
BRANCH  12  13
HETATM   13  C2  UNL     1     -53.606  20.891 -37.723  1.00  0.00    -0.004 C 
HETATM   14  C1  UNL     1     -54.351  19.724 -37.138  1.00  0.00     0.005 C 
ENDBRANCH  12  13
ENDBRANCH  11  12
ENDBRANCH  10  11
BRANCH  10  15
HETATM   15  O1  UNL     1     -54.927  24.104 -36.116  1.00  0.00    -0.392 OA
ATOM     16  H1  UNL     1     -55.443  24.673 -35.556  1.00  0.00     0.210 HD
ENDBRANCH  10  15
ENDBRANCH   1  10
BRANCH   1  17
HETATM   17  C7  UNL     1     -55.384  22.931 -33.819  1.00  0.00     0.044 C 
BRANCH  17  18
HETATM   18  C8  UNL     1     -55.169  21.558 -33.304  1.00  0.00     0.003 C 
BRANCH  18  19
HETATM   19  C9  UNL     1     -55.999  20.522 -34.034  1.00  0.00    -0.004 C 
HETATM   20  C10 UNL     1     -55.807  19.202 -33.308  1.00  0.00     0.005 C 
ENDBRANCH  18  19
ENDBRANCH  17  18
ENDBRANCH   1  17
BRANCH   6  21
HETATM   21  O3  UNL     1     -53.766  26.072 -33.800  1.00  0.00    -0.299 OA
HETATM   22  S1  UNL     1     -54.984  27.129 -34.306  1.00  0.00     0.093 SA
ENDBRANCH   6  21
TORSDOF 9
ENDMDL
MODEL 4
REMARK VINA RESULT: -5.407605650      1.988      4.426
REMARK  9 active torsions:
REMARK  status: ('A' for Active; 'I' for Inactive)
REMARK    1  A    between atoms: C2_2  and  C3_3 
REMARK    2  A    between atoms: C3_3  and  C4_4 
REMARK    3  A    between atoms: C4_4  and  C5_5 
REMARK    4  A    between atoms: C5_5  and  O1_6 
REMARK    5  A    between atoms: C5_5  and  C6_8 
REMARK    6  A    between atoms: C6_8  and  C7_9 
REMARK    7  A    between atoms: C7_9  and  C8_10 
REMARK    8  A    between atoms: C8_10  and  C9_11 
REMARK    9  A    between atoms: C14_17  and  O3_18 
ROOT
HETATM    1  C6  UNL     1     -52.260  24.045 -32.460  1.00  0.00     0.120 C 
HETATM    2  O2  UNL     1     -52.861  22.744 -32.556  1.00  0.00    -0.337 OA
HETATM    3  C11 UNL     1     -53.926  22.490 -33.408  1.00  0.00     0.079 C 
HETATM    4  C12 UNL     1     -54.003  23.124 -34.546  1.00  0.00     0.078 C 
HETATM    5  C13 UNL     1     -52.916  24.105 -34.872  1.00  0.00     0.103 C 
HETATM    6  C14 UNL     1     -52.466  24.874 -33.664  1.00  0.00     0.182 C 
HETATM    7  O4  UNL     1     -55.145  22.735 -35.263  1.00  0.00    -0.352 OA
HETATM    8  C15 UNL     1     -55.999  22.058 -34.363  1.00  0.00     0.182 C 
HETATM    9  C16 UNL     1     -55.079  21.566 -33.261  1.00  0.00     0.094 C 
ENDROOT
BRANCH   1  10
HETATM   10  C5  UNL     1     -52.700  24.619 -31.150  1.00  0.00     0.155 C 
BRANCH  10  11
HETATM   11  C4  UNL     1     -54.092  24.136 -30.717  1.00  0.00     0.035 C 
BRANCH  11  12
HETATM   12  C3  UNL     1     -54.114  24.080 -29.183  1.00  0.00     0.002 C 
BRANCH  12  13
HETATM   13  C2  UNL     1     -55.539  23.910 -28.694  1.00  0.00    -0.004 C 
HETATM   14  C1  UNL     1     -55.529  23.157 -27.393  1.00  0.00     0.005 C 
ENDBRANCH  12  13
ENDBRANCH  11  12
ENDBRANCH  10  11
BRANCH  10  15
HETATM   15  O1  UNL     1     -51.887  24.191 -30.092  1.00  0.00    -0.392 OA
ATOM     16  H1  UNL     1     -51.156  24.796 -30.137  1.00  0.00     0.210 HD
ENDBRANCH  10  15
ENDBRANCH   1  10
BRANCH   1  17
HETATM   17  C7  UNL     1     -50.765  23.691 -32.299  1.00  0.00     0.044 C 
BRANCH  17  18
HETATM   18  C8  UNL     1     -50.535  22.229 -32.221  1.00  0.00     0.003 C 
BRANCH  18  19
HETATM   19  C9  UNL     1     -49.069  21.860 -32.315  1.00  0.00    -0.004 C 
HETATM   20  C10 UNL     1     -48.526  21.818 -30.898  1.00  0.00     0.005 C 
ENDBRANCH  18  19
ENDBRANCH  17  18
ENDBRANCH   1  17
BRANCH   6  21
HETATM   21  O3  UNL     1     -53.230  25.976 -33.389  1.00  0.00    -0.299 OA
HETATM   22  S1  UNL     1     -54.364  26.406 -34.566  1.00  0.00     0.093 SA
ENDBRANCH   6  21
TORSDOF 9
ENDMDL
MODEL 5
REMARK VINA RESULT: -5.335715039      2.495      3.285
REMARK  9 active torsions:
REMARK  status: ('A' for Active; 'I' for Inactive)
REMARK    1  A    between atoms: C2_2  and  C3_3 
REMARK    2  A    between atoms: C3_3  and  C4_4 
REMARK    3  A    between atoms: C4_4  and  C5_5 
REMARK    4  A    between atoms: C5_5  and  O1_6 
REMARK    5  A    between atoms: C5_5  and  C6_8 
REMARK    6  A    between atoms: C6_8  and  C7_9 
REMARK    7  A    between atoms: C7_9  and  C8_10 
REMARK    8  A    between atoms: C8_10  and  C9_11 
REMARK    9  A    between atoms: C14_17  and  O3_18 
ROOT
HETATM    1  C6  UNL     1     -53.199  24.088 -32.107  1.00  0.00     0.120 C 
HETATM    2  O2  UNL     1     -53.732  23.249 -33.143  1.00  0.00    -0.337 OA
HETATM    3  C11 UNL     1     -54.905  22.529 -32.971  1.00  0.00     0.079 C 
HETATM    4  C12 UNL     1     -55.862  23.026 -32.235  1.00  0.00     0.078 C 
HETATM    5  C13 UNL     1     -55.633  24.370 -31.611  1.00  0.00     0.103 C 
HETATM    6  C14 UNL     1     -54.218  24.543 -31.141  1.00  0.00     0.182 C 
HETATM    7  O4  UNL     1     -56.961  22.154 -32.181  1.00  0.00    -0.352 OA
HETATM    8  C15 UNL     1     -56.522  20.893 -32.646  1.00  0.00     0.182 C 
HETATM    9  C16 UNL     1     -55.309  21.203 -33.504  1.00  0.00     0.094 C 
ENDROOT
BRANCH   1  10
HETATM   10  C5  UNL     1     -52.004  23.375 -31.556  1.00  0.00     0.155 C 
BRANCH  10  11
HETATM   11  C4  UNL     1     -51.004  22.950 -32.640  1.00  0.00     0.035 C 
BRANCH  11  12
HETATM   12  C3  UNL     1     -49.589  23.144 -32.076  1.00  0.00     0.002 C 
BRANCH  12  13
HETATM   13  C2  UNL     1     -48.853  21.818 -32.062  1.00  0.00    -0.004 C 
HETATM   14  C1  UNL     1     -48.060  21.679 -33.331  1.00  0.00     0.005 C 
ENDBRANCH  12  13
ENDBRANCH  11  12
ENDBRANCH  10  11
BRANCH  10  15
HETATM   15  O1  UNL     1     -51.230  24.207 -30.737  1.00  0.00    -0.392 OA
ATOM     16  H1  UNL     1     -50.343  23.977 -30.989  1.00  0.00     0.210 HD
ENDBRANCH  10  15
ENDBRANCH   1  10
BRANCH   1  17
HETATM   17  C7  UNL     1     -52.654  25.285 -32.919  1.00  0.00     0.044 C 
BRANCH  17  18
HETATM   18  C8  UNL     1     -53.263  25.377 -34.267  1.00  0.00     0.003 C 
BRANCH  18  19
HETATM   19  C9  UNL     1     -54.335  26.443 -34.354  1.00  0.00    -0.004 C 
HETATM   20  C10 UNL     1     -55.526  25.823 -35.063  1.00  0.00     0.005 C 
ENDBRANCH  18  19
ENDBRANCH  17  18
ENDBRANCH   1  17
BRANCH   6  21
HETATM   21  O3  UNL     1     -53.982  24.041 -29.889  1.00  0.00    -0.299 OA
HETATM   22  S1  UNL     1     -55.285  24.084 -28.814  1.00  0.00     0.093 SA
ENDBRANCH   6  21
TORSDOF 9
ENDMDL
