MODEL 1
REMARK VINA RESULT: -6.958681188      0.000      0.000
REMARK  4 active torsions:
REMARK  status: ('A' for Active; 'I' for Inactive)
REMARK    1  A    between atoms: O1_2  and  C2_3 
REMARK    2  A    between atoms: C2_3  and  C3_5 
REMARK    3  A    between atoms: C4_6  and  C5_7 
REMARK    4  A    between atoms: C5_7  and  N1_8 
ROOT
HETATM    1  C3  UNL     1      -3.642   1.684  19.380  1.00  0.00     0.061 A 
HETATM    2  C4  UNL     1      -4.257   1.172  20.492  1.00  0.00     0.028 A 
HETATM    3  S1  UNL     1      -5.633   0.409  19.839  1.00  0.00    -0.096 SA
HETATM    4  C12 UNL     1      -5.404   0.750  18.189  1.00  0.00    -0.010 A 
HETATM    5  C13 UNL     1      -4.251   1.457  18.189  1.00  0.00    -0.028 A 
HETATM    6  C14 UNL     1      -3.635   1.994  16.900  1.00  0.00     0.041 C 
HETATM    7  C15 UNL     1      -3.630   0.929  15.833  1.00  0.00     0.005 C 
HETATM    8  C16 UNL     1      -5.035   0.960  15.217  1.00  0.00     0.001 C 
HETATM    9  C17 UNL     1      -5.820  -0.110  15.879  1.00  0.00     0.005 C 
HETATM   10  C18 UNL     1      -6.388   0.267  17.212  1.00  0.00     0.046 C 
ENDROOT
BRANCH   2  11
HETATM   11  C5  UNL     1      -3.762   1.306  21.888  1.00  0.00     0.320 C 
BRANCH  11  12
HETATM   12  N1  UNL     1      -2.770   0.324  22.208  1.00  0.00     0.097 N 
HETATM   13  C6  UNL     1      -1.612   0.787  22.859  1.00  0.00     0.273 C 
HETATM   14  C7  UNL     1      -1.122  -0.037  24.005  1.00  0.00     0.030 C 
HETATM   15  C8  UNL     1      -1.349  -1.504  23.879  1.00  0.00     0.004 C 
HETATM   16  C9  UNL     1      -2.443  -1.902  22.954  1.00  0.00     0.035 C 
HETATM   17  C10 UNL     1      -3.450  -0.781  22.852  1.00  0.00     0.219 C 
HETATM   18  C11 UNL     1      -4.056  -0.425  24.171  1.00  0.00     0.043 C 
ENDBRANCH  11  12
ENDBRANCH   2  11
BRANCH   1  19
HETATM   19  C2  UNL     1      -2.357   2.460  19.494  1.00  0.00     0.294 C 
HETATM   20  O2  UNL     1      -1.276   1.827  19.501  1.00  0.00    -0.259 OA
BRANCH  19  21
HETATM   21  O1  UNL     1      -2.338   3.822  19.588  1.00  0.00    -0.322 OA
HETATM   22  C1  UNL     1      -2.687   4.561  20.730  1.00  0.00     0.213 C 
ENDBRANCH  19  21
ENDBRANCH   1  19
TORSDOF 4
ENDMDL
MODEL 2
REMARK VINA RESULT: -6.950690064      3.119      4.168
REMARK  4 active torsions:
REMARK  status: ('A' for Active; 'I' for Inactive)
REMARK    1  A    between atoms: O1_2  and  C2_3 
REMARK    2  A    between atoms: C2_3  and  C3_5 
REMARK    3  A    between atoms: C4_6  and  C5_7 
REMARK    4  A    between atoms: C5_7  and  N1_8 
ROOT
HETATM    1  C3  UNL     1      -2.427   2.094  17.795  1.00  0.00     0.061 A 
HETATM    2  C4  UNL     1      -2.337   2.260  19.152  1.00  0.00     0.028 A 
HETATM    3  S1  UNL     1      -3.874   1.759  19.690  1.00  0.00    -0.096 SA
HETATM    4  C12 UNL     1      -4.591   1.354  18.202  1.00  0.00    -0.010 A 
HETATM    5  C13 UNL     1      -3.605   1.623  17.315  1.00  0.00    -0.028 A 
HETATM    6  C14 UNL     1      -3.790   1.409  15.816  1.00  0.00     0.041 C 
HETATM    7  C15 UNL     1      -4.426   0.069  15.546  1.00  0.00     0.005 C 
HETATM    8  C16 UNL     1      -5.933   0.284  15.739  1.00  0.00     0.001 C 
HETATM    9  C17 UNL     1      -6.259  -0.157  17.117  1.00  0.00     0.005 C 
HETATM   10  C18 UNL     1      -5.971   0.855  18.181  1.00  0.00     0.046 C 
ENDROOT
BRANCH   2  11
HETATM   11  C5  UNL     1      -1.143   2.762  19.881  1.00  0.00     0.320 C 
BRANCH  11  12
HETATM   12  N1  UNL     1      -1.494   3.607  20.982  1.00  0.00     0.097 N 
HETATM   13  C6  UNL     1      -0.521   3.774  21.984  1.00  0.00     0.273 C 
HETATM   14  C7  UNL     1      -0.323   5.166  22.489  1.00  0.00     0.030 C 
HETATM   15  C8  UNL     1      -1.545   6.017  22.513  1.00  0.00     0.004 C 
HETATM   16  C9  UNL     1      -2.632   5.597  21.589  1.00  0.00     0.035 C 
HETATM   17  C10 UNL     1      -2.040   4.830  20.430  1.00  0.00     0.219 C 
HETATM   18  C11 UNL     1      -1.046   5.631  19.653  1.00  0.00     0.043 C 
ENDBRANCH  11  12
ENDBRANCH   2  11
BRANCH   1  19
HETATM   19  C2  UNL     1      -1.265   2.425  16.896  1.00  0.00     0.294 C 
HETATM   20  O2  UNL     1      -0.374   1.561  16.728  1.00  0.00    -0.259 OA
BRANCH  19  21
HETATM   21  O1  UNL     1      -1.158   3.632  16.266  1.00  0.00    -0.322 OA
HETATM   22  C1  UNL     1      -1.042   3.815  14.879  1.00  0.00     0.213 C 
ENDBRANCH  19  21
ENDBRANCH   1  19
TORSDOF 4
ENDMDL
MODEL 3
REMARK VINA RESULT: -6.837157584      1.763      6.210
REMARK  4 active torsions:
REMARK  status: ('A' for Active; 'I' for Inactive)
REMARK    1  A    between atoms: O1_2  and  C2_3 
REMARK    2  A    between atoms: C2_3  and  C3_5 
REMARK    3  A    between atoms: C4_6  and  C5_7 
REMARK    4  A    between atoms: C5_7  and  N1_8 
ROOT
HETATM    1  C3  UNL     1      -2.554   1.745  20.713  1.00  0.00     0.061 A 
HETATM    2  C4  UNL     1      -2.755   0.829  19.714  1.00  0.00     0.028 A 
HETATM    3  S1  UNL     1      -3.066  -0.604  20.581  1.00  0.00    -0.096 SA
HETATM    4  C12 UNL     1      -2.937  -0.021  22.173  1.00  0.00    -0.010 A 
HETATM    5  C13 UNL     1      -2.651   1.288  21.987  1.00  0.00    -0.028 A 
HETATM    6  C14 UNL     1      -2.440   2.241  23.160  1.00  0.00     0.041 C 
HETATM    7  C15 UNL     1      -3.519   2.053  24.196  1.00  0.00     0.005 C 
HETATM    8  C16 UNL     1      -3.071   0.854  25.042  1.00  0.00     0.001 C 
HETATM    9  C17 UNL     1      -3.771  -0.338  24.507  1.00  0.00     0.005 C 
HETATM   10  C18 UNL     1      -3.136  -0.945  23.296  1.00  0.00     0.046 C 
ENDROOT
BRANCH   2  11
HETATM   11  C5  UNL     1      -2.695   1.118  18.257  1.00  0.00     0.320 C 
BRANCH  11  12
HETATM   12  N1  UNL     1      -3.776   0.515  17.539  1.00  0.00     0.097 N 
HETATM   13  C6  UNL     1      -5.076   0.849  17.960  1.00  0.00     0.273 C 
HETATM   14  C7  UNL     1      -6.064   1.151  16.880  1.00  0.00     0.030 C 
HETATM   15  C8  UNL     1      -5.884   0.385  15.616  1.00  0.00     0.004 C 
HETATM   16  C9  UNL     1      -4.516  -0.154  15.388  1.00  0.00     0.035 C 
HETATM   17  C10 UNL     1      -3.510   0.697  16.127  1.00  0.00     0.219 C 
HETATM   18  C11 UNL     1      -3.530   2.126  15.693  1.00  0.00     0.043 C 
ENDBRANCH  11  12
ENDBRANCH   2  11
BRANCH   1  19
HETATM   19  C2  UNL     1      -2.240   3.183  20.394  1.00  0.00     0.294 C 
HETATM   20  O2  UNL     1      -3.192   3.982  20.240  1.00  0.00    -0.259 OA
BRANCH  19  21
HETATM   21  O1  UNL     1      -0.957   3.633  20.269  1.00  0.00    -0.322 OA
HETATM   22  C1  UNL     1      -0.277   3.818  19.054  1.00  0.00     0.213 C 
ENDBRANCH  19  21
ENDBRANCH   1  19
TORSDOF 4
ENDMDL
MODEL 4
REMARK VINA RESULT: -6.824679467      2.287      3.340
REMARK  4 active torsions:
REMARK  status: ('A' for Active; 'I' for Inactive)
REMARK    1  A    between atoms: O1_2  and  C2_3 
REMARK    2  A    between atoms: C2_3  and  C3_5 
REMARK    3  A    between atoms: C4_6  and  C5_7 
REMARK    4  A    between atoms: C5_7  and  N1_8 
ROOT
HETATM    1  C3  UNL     1      -3.048   1.650  19.957  1.00  0.00     0.061 A 
HETATM    2  C4  UNL     1      -2.528   2.470  20.925  1.00  0.00     0.028 A 
HETATM    3  S1  UNL     1      -1.310   3.313  20.083  1.00  0.00    -0.096 SA
HETATM    4  C12 UNL     1      -1.481   2.617  18.541  1.00  0.00    -0.010 A 
HETATM    5  C13 UNL     1      -2.492   1.737  18.723  1.00  0.00    -0.028 A 
HETATM    6  C14 UNL     1      -3.009   0.858  17.588  1.00  0.00     0.041 C 
HETATM    7  C15 UNL     1      -3.205   1.673  16.334  1.00  0.00     0.005 C 
HETATM    8  C16 UNL     1      -1.818   1.761  15.683  1.00  0.00     0.001 C 
HETATM    9  C17 UNL     1      -1.230   3.059  16.094  1.00  0.00     0.005 C 
HETATM   10  C18 UNL     1      -0.601   3.057  17.452  1.00  0.00     0.046 C 
ENDROOT
BRANCH   2  11
HETATM   11  C5  UNL     1      -2.988   2.533  22.337  1.00  0.00     0.320 C 
BRANCH  11  12
HETATM   12  N1  UNL     1      -2.499   1.437  23.117  1.00  0.00     0.097 N 
HETATM   13  C6  UNL     1      -1.209   1.575  23.660  1.00  0.00     0.273 C 
HETATM   14  C7  UNL     1      -1.040   1.145  25.081  1.00  0.00     0.030 C 
HETATM   15  C8  UNL     1      -1.889  -0.002  25.507  1.00  0.00     0.004 C 
HETATM   16  C9  UNL     1      -3.115  -0.223  24.695  1.00  0.00     0.035 C 
HETATM   17  C10 UNL     1      -3.540   1.080  24.059  1.00  0.00     0.219 C 
HETATM   18  C11 UNL     1      -3.829   2.148  25.064  1.00  0.00     0.043 C 
ENDBRANCH  11  12
ENDBRANCH   2  11
BRANCH   1  19
HETATM   19  C2  UNL     1      -4.177   0.704  20.269  1.00  0.00     0.294 C 
HETATM   20  O2  UNL     1      -3.898  -0.440  20.697  1.00  0.00    -0.259 OA
BRANCH  19  21
HETATM   21  O1  UNL     1      -5.485   1.057  20.100  1.00  0.00    -0.322 OA
HETATM   22  C1  UNL     1      -6.376   0.458  19.195  1.00  0.00     0.213 C 
ENDBRANCH  19  21
ENDBRANCH   1  19
TORSDOF 4
ENDMDL
MODEL 5
REMARK VINA RESULT: -6.791342916      0.677      1.183
REMARK  4 active torsions:
REMARK  status: ('A' for Active; 'I' for Inactive)
REMARK    1  A    between atoms: O1_2  and  C2_3 
REMARK    2  A    between atoms: C2_3  and  C3_5 
REMARK    3  A    between atoms: C4_6  and  C5_7 
REMARK    4  A    between atoms: C5_7  and  N1_8 
ROOT
HETATM    1  C3  UNL     1      -3.720   1.671  19.397  1.00  0.00     0.061 A 
HETATM    2  C4  UNL     1      -4.392   1.194  20.491  1.00  0.00     0.028 A 
HETATM    3  S1  UNL     1      -5.762   0.458  19.794  1.00  0.00    -0.096 SA
HETATM    4  C12 UNL     1      -5.459   0.767  18.150  1.00  0.00    -0.010 A 
HETATM    5  C13 UNL     1      -4.288   1.443  18.186  1.00  0.00    -0.028 A 
HETATM    6  C14 UNL     1      -3.606   1.942  16.915  1.00  0.00     0.041 C 
HETATM    7  C15 UNL     1      -3.588   0.860  15.864  1.00  0.00     0.005 C 
HETATM    8  C16 UNL     1      -4.967   0.919  15.192  1.00  0.00     0.001 C 
HETATM    9  C17 UNL     1      -5.807  -0.118  15.839  1.00  0.00     0.005 C 
HETATM   10  C18 UNL     1      -6.416   0.295  17.141  1.00  0.00     0.046 C 
ENDROOT
BRANCH   2  11
HETATM   11  C5  UNL     1      -3.949   1.335  21.903  1.00  0.00     0.320 C 
BRANCH  11  12
HETATM   12  N1  UNL     1      -3.425   0.114  22.433  1.00  0.00     0.097 N 
HETATM   13  C6  UNL     1      -2.903  -0.804  21.503  1.00  0.00     0.273 C 
HETATM   14  C7  UNL     1      -1.606  -1.450  21.867  1.00  0.00     0.030 C 
HETATM   15  C8  UNL     1      -1.398  -1.691  23.322  1.00  0.00     0.004 C 
HETATM   16  C9  UNL     1      -2.201  -0.831  24.231  1.00  0.00     0.035 C 
HETATM   17  C10 UNL     1      -2.545   0.462  23.529  1.00  0.00     0.219 C 
HETATM   18  C11 UNL     1      -1.335   1.229  23.105  1.00  0.00     0.043 C 
ENDBRANCH  11  12
ENDBRANCH   2  11
BRANCH   1  19
HETATM   19  C2  UNL     1      -2.419   2.414  19.551  1.00  0.00     0.294 C 
HETATM   20  O2  UNL     1      -1.359   1.751  19.629  1.00  0.00    -0.259 OA
BRANCH  19  21
HETATM   21  O1  UNL     1      -2.365   3.777  19.606  1.00  0.00    -0.322 OA
HETATM   22  C1  UNL     1      -2.740   4.559  20.711  1.00  0.00     0.213 C 
ENDBRANCH  19  21
ENDBRANCH   1  19
TORSDOF 4
ENDMDL
