MODEL 1
REMARK VINA RESULT: -7.807795117      0.000      0.000
REMARK  3 active torsions:
REMARK  status: ('A' for Active; 'I' for Inactive)
REMARK    1  A    between atoms: O1_2  and  C2_3 
REMARK    2  A    between atoms: C7_8  and  O2_9 
REMARK    3  A    between atoms: C9_11  and  O3_12 
ROOT
HETATM    1  C2  UNL     1      33.380   6.784  26.448  1.00  0.00     0.104 A 
HETATM    2  C3  UNL     1      32.762   7.417  25.391  1.00  0.00     0.077 A 
HETATM    3  C4  UNL     1      31.799   8.417  25.562  1.00  0.00     0.081 A 
HETATM    4  C5  UNL     1      31.482   8.754  26.852  1.00  0.00     0.007 A 
HETATM    5  C6  UNL     1      32.105   8.116  27.932  1.00  0.00     0.052 A 
HETATM    6  C7  UNL     1      33.049   7.136  27.740  1.00  0.00     0.102 A 
HETATM    7  C9  UNL     1      30.486   9.792  27.121  1.00  0.00     0.157 C 
HETATM    8  C10 UNL     1      29.759  10.342  25.960  1.00  0.00     0.075 C 
HETATM    9  C11 UNL     1      30.509  10.272  24.658  1.00  0.00     0.070 C 
HETATM   10  C12 UNL     1      29.607  10.560  23.495  1.00  0.00     0.038 C 
HETATM   11  C13 UNL     1      29.229  12.001  23.380  1.00  0.00     0.003 C 
HETATM   12  C14 UNL     1      30.319  12.884  22.854  1.00  0.00     0.000 C 
HETATM   13  C15 UNL     1      31.483  12.139  22.290  1.00  0.00     0.000 C 
HETATM   14  C16 UNL     1      32.265  11.440  23.348  1.00  0.00     0.003 C 
HETATM   15  C17 UNL     1      31.601  11.349  24.687  1.00  0.00     0.038 C 
HETATM   16  O4  UNL     1      31.192   9.039  24.503  1.00  0.00    -0.339 OA
ENDROOT
BRANCH   7  17
HETATM   17  O3  UNL     1      29.605   9.281  28.093  1.00  0.00    -0.391 OA
ATOM     18  H3  UNL     1      28.919   9.927  28.218  1.00  0.00     0.210 HD
ENDBRANCH   7  17
BRANCH   1  19
HETATM   19  O1  UNL     1      34.328   5.799  26.264  1.00  0.00    -0.353 OA
HETATM   20  C1  UNL     1      34.899   5.665  24.976  1.00  0.00     0.210 C 
ENDBRANCH   1  19
BRANCH   6  21
HETATM   21  O2  UNL     1      33.665   6.504  28.839  1.00  0.00    -0.353 OA
HETATM   22  C8  UNL     1      33.594   7.142  30.100  1.00  0.00     0.210 C 
ENDBRANCH   6  21
TORSDOF 3
ENDMDL
MODEL 2
REMARK VINA RESULT: -7.149318082      2.058      3.445
REMARK  3 active torsions:
REMARK  status: ('A' for Active; 'I' for Inactive)
REMARK    1  A    between atoms: O1_2  and  C2_3 
REMARK    2  A    between atoms: C7_8  and  O2_9 
REMARK    3  A    between atoms: C9_11  and  O3_12 
ROOT
HETATM    1  C2  UNL     1      35.276   5.790  23.256  1.00  0.00     0.104 A 
HETATM    2  C3  UNL     1      34.452   6.844  22.925  1.00  0.00     0.077 A 
HETATM    3  C4  UNL     1      33.712   7.557  23.872  1.00  0.00     0.081 A 
HETATM    4  C5  UNL     1      33.836   7.159  25.179  1.00  0.00     0.007 A 
HETATM    5  C6  UNL     1      34.669   6.089  25.524  1.00  0.00     0.052 A 
HETATM    6  C7  UNL     1      35.389   5.402  24.575  1.00  0.00     0.102 A 
HETATM    7  C9  UNL     1      33.096   7.852  26.235  1.00  0.00     0.157 C 
HETATM    8  C10 UNL     1      32.130   8.884  25.813  1.00  0.00     0.075 C 
HETATM    9  C11 UNL     1      32.445   9.539  24.495  1.00  0.00     0.070 C 
HETATM   10  C12 UNL     1      31.280  10.339  23.994  1.00  0.00     0.038 C 
HETATM   11  C13 UNL     1      31.061  11.608  24.751  1.00  0.00     0.003 C 
HETATM   12  C14 UNL     1      32.044  12.693  24.433  1.00  0.00     0.000 C 
HETATM   13  C15 UNL     1      32.889  12.412  23.235  1.00  0.00     0.000 C 
HETATM   14  C16 UNL     1      33.860  11.310  23.482  1.00  0.00     0.003 C 
HETATM   15  C17 UNL     1      33.617  10.502  24.719  1.00  0.00     0.038 C 
HETATM   16  O4  UNL     1      32.897   8.604  23.531  1.00  0.00    -0.339 OA
ENDROOT
BRANCH   7  17
HETATM   17  O3  UNL     1      32.489   6.865  27.034  1.00  0.00    -0.391 OA
ATOM     18  H3  UNL     1      32.085   6.236  26.447  1.00  0.00     0.210 HD
ENDBRANCH   7  17
BRANCH   1  19
HETATM   19  O1  UNL     1      36.001   5.095  22.309  1.00  0.00    -0.353 OA
HETATM   20  C1  UNL     1      35.323   4.664  21.145  1.00  0.00     0.210 C 
ENDBRANCH   1  19
BRANCH   6  21
HETATM   21  O2  UNL     1      36.223   4.326  24.942  1.00  0.00    -0.353 OA
HETATM   22  C8  UNL     1      35.611   3.094  25.275  1.00  0.00     0.210 C 
ENDBRANCH   6  21
TORSDOF 3
ENDMDL
MODEL 3
REMARK VINA RESULT: -6.954374013      2.312      6.331
REMARK  3 active torsions:
REMARK  status: ('A' for Active; 'I' for Inactive)
REMARK    1  A    between atoms: O1_2  and  C2_3 
REMARK    2  A    between atoms: C7_8  and  O2_9 
REMARK    3  A    between atoms: C9_11  and  O3_12 
ROOT
HETATM    1  C2  UNL     1      32.222  11.308  23.684  1.00  0.00     0.104 A 
HETATM    2  C3  UNL     1      33.266  10.420  23.834  1.00  0.00     0.077 A 
HETATM    3  C4  UNL     1      33.086   9.103  24.268  1.00  0.00     0.081 A 
HETATM    4  C5  UNL     1      31.800   8.716  24.547  1.00  0.00     0.007 A 
HETATM    5  C6  UNL     1      30.735   9.612  24.398  1.00  0.00     0.052 A 
HETATM    6  C7  UNL     1      30.935  10.903  23.969  1.00  0.00     0.102 A 
HETATM    7  C9  UNL     1      31.523   7.354  25.006  1.00  0.00     0.157 C 
HETATM    8  C10 UNL     1      32.685   6.486  25.277  1.00  0.00     0.075 C 
HETATM    9  C11 UNL     1      33.922   6.829  24.493  1.00  0.00     0.070 C 
HETATM   10  C12 UNL     1      35.124   6.116  25.035  1.00  0.00     0.038 C 
HETATM   11  C13 UNL     1      35.140   4.656  24.722  1.00  0.00     0.003 C 
HETATM   12  C14 UNL     1      35.494   4.334  23.302  1.00  0.00     0.000 C 
HETATM   13  C15 UNL     1      36.024   5.497  22.532  1.00  0.00     0.000 C 
HETATM   14  C16 UNL     1      34.973   6.518  22.264  1.00  0.00     0.003 C 
HETATM   15  C17 UNL     1      33.707   6.360  23.048  1.00  0.00     0.038 C 
HETATM   16  O4  UNL     1      34.130   8.229  24.412  1.00  0.00    -0.339 OA
ENDROOT
BRANCH   7  17
HETATM   17  O3  UNL     1      30.676   7.456  26.126  1.00  0.00    -0.391 OA
ATOM     18  H3  UNL     1      30.745   8.347  26.451  1.00  0.00     0.210 HD
ENDBRANCH   7  17
BRANCH   1  19
HETATM   19  O1  UNL     1      32.416  12.606  23.254  1.00  0.00    -0.353 OA
HETATM   20  C1  UNL     1      32.769  13.575  24.222  1.00  0.00     0.210 C 
ENDBRANCH   1  19
BRANCH   6  21
HETATM   21  O2  UNL     1      29.851  11.791  23.826  1.00  0.00    -0.353 OA
HETATM   22  C8  UNL     1      29.191  11.839  22.575  1.00  0.00     0.210 C 
ENDBRANCH   6  21
TORSDOF 3
ENDMDL
MODEL 4
REMARK VINA RESULT: -6.792951364      2.393      4.398
REMARK  3 active torsions:
REMARK  status: ('A' for Active; 'I' for Inactive)
REMARK    1  A    between atoms: O1_2  and  C2_3 
REMARK    2  A    between atoms: C7_8  and  O2_9 
REMARK    3  A    between atoms: C9_11  and  O3_12 
ROOT
HETATM    1  C2  UNL     1      35.272   5.457  22.427  1.00  0.00     0.104 A 
HETATM    2  C3  UNL     1      34.107   6.178  22.575  1.00  0.00     0.077 A 
HETATM    3  C4  UNL     1      33.679   6.688  23.804  1.00  0.00     0.081 A 
HETATM    4  C5  UNL     1      34.480   6.439  24.888  1.00  0.00     0.007 A 
HETATM    5  C6  UNL     1      35.665   5.706  24.748  1.00  0.00     0.052 A 
HETATM    6  C7  UNL     1      36.066   5.214  23.529  1.00  0.00     0.102 A 
HETATM    7  C9  UNL     1      34.107   6.937  26.212  1.00  0.00     0.157 C 
HETATM    8  C10 UNL     1      32.789   7.587  26.339  1.00  0.00     0.075 C 
HETATM    9  C11 UNL     1      32.273   8.216  25.073  1.00  0.00     0.070 C 
HETATM   10  C12 UNL     1      30.824   8.579  25.198  1.00  0.00     0.038 C 
HETATM   11  C13 UNL     1      30.582   9.766  26.072  1.00  0.00     0.003 C 
HETATM   12  C14 UNL     1      30.936  11.078  25.442  1.00  0.00     0.000 C 
HETATM   13  C15 UNL     1      31.209  10.992  23.978  1.00  0.00     0.000 C 
HETATM   14  C16 UNL     1      32.477  10.266  23.687  1.00  0.00     0.003 C 
HETATM   15  C17 UNL     1      33.065   9.509  24.837  1.00  0.00     0.038 C 
HETATM   16  O4  UNL     1      32.519   7.405  23.938  1.00  0.00    -0.339 OA
ENDROOT
BRANCH   7  17
HETATM   17  O3  UNL     1      34.251   5.867  27.116  1.00  0.00    -0.391 OA
ATOM     18  H3  UNL     1      33.444   5.367  27.090  1.00  0.00     0.210 HD
ENDBRANCH   7  17
BRANCH   1  19
HETATM   19  O1  UNL     1      35.681   4.959  21.207  1.00  0.00    -0.353 OA
HETATM   20  C1  UNL     1      34.683   4.521  20.305  1.00  0.00     0.210 C 
ENDBRANCH   1  19
BRANCH   6  21
HETATM   21  O2  UNL     1      37.262   4.478  23.406  1.00  0.00    -0.353 OA
HETATM   22  C8  UNL     1      37.755   3.813  24.554  1.00  0.00     0.210 C 
ENDBRANCH   6  21
TORSDOF 3
ENDMDL
MODEL 5
REMARK VINA RESULT: -6.573224419      1.466      3.146
REMARK  3 active torsions:
REMARK  status: ('A' for Active; 'I' for Inactive)
REMARK    1  A    between atoms: O1_2  and  C2_3 
REMARK    2  A    between atoms: C7_8  and  O2_9 
REMARK    3  A    between atoms: C9_11  and  O3_12 
ROOT
HETATM    1  C2  UNL     1      31.841   7.659  28.384  1.00  0.00     0.104 A 
HETATM    2  C3  UNL     1      31.464   8.830  27.761  1.00  0.00     0.077 A 
HETATM    3  C4  UNL     1      31.951   9.215  26.509  1.00  0.00     0.081 A 
HETATM    4  C5  UNL     1      32.840   8.364  25.905  1.00  0.00     0.007 A 
HETATM    5  C6  UNL     1      33.229   7.173  26.530  1.00  0.00     0.052 A 
HETATM    6  C7  UNL     1      32.737   6.815  27.762  1.00  0.00     0.102 A 
HETATM    7  C9  UNL     1      33.398   8.690  24.591  1.00  0.00     0.157 C 
HETATM    8  C10 UNL     1      33.067  10.013  24.030  1.00  0.00     0.075 C 
HETATM    9  C11 UNL     1      31.764  10.593  24.512  1.00  0.00     0.070 C 
HETATM   10  C12 UNL     1      31.646  12.042  24.146  1.00  0.00     0.038 C 
HETATM   11  C13 UNL     1      31.389  12.269  22.692  1.00  0.00     0.003 C 
HETATM   12  C14 UNL     1      29.987  11.965  22.259  1.00  0.00     0.000 C 
HETATM   13  C15 UNL     1      29.038  11.752  23.390  1.00  0.00     0.000 C 
HETATM   14  C16 UNL     1      29.314  10.485  24.123  1.00  0.00     0.003 C 
HETATM   15  C17 UNL     1      30.627   9.836  23.814  1.00  0.00     0.038 C 
HETATM   16  O4  UNL     1      31.569  10.380  25.899  1.00  0.00    -0.339 OA
ENDROOT
BRANCH   7  17
HETATM   17  O3  UNL     1      34.789   8.489  24.668  1.00  0.00    -0.391 OA
ATOM     18  H3  UNL     1      35.206   9.288  24.365  1.00  0.00     0.210 HD
ENDBRANCH   7  17
BRANCH   1  19
HETATM   19  O1  UNL     1      31.352   7.293  29.622  1.00  0.00    -0.353 OA
HETATM   20  C1  UNL     1      32.179   7.511  30.748  1.00  0.00     0.210 C 
ENDBRANCH   1  19
BRANCH   6  21
HETATM   21  O2  UNL     1      33.140   5.612  28.377  1.00  0.00    -0.353 OA
HETATM   22  C8  UNL     1      34.435   5.555  28.944  1.00  0.00     0.210 C 
ENDBRANCH   6  21
TORSDOF 3
ENDMDL
