MODEL 1
REMARK VINA RESULT: -7.855140913      0.000      0.000
REMARK  1 active torsions:
REMARK  status: ('A' for Active; 'I' for Inactive)
REMARK    1  A    between atoms: N3_8  and  C4_10 
ROOT
HETATM    1  C4  UNL     1     -21.348 -29.127 -18.643  1.00  0.00     0.098 A 
HETATM    2  S1  UNL     1     -21.070 -27.856 -17.542  1.00  0.00    -0.075 SA
HETATM    3  C5  UNL     1     -21.116 -26.551 -18.624  1.00  0.00    -0.007 A 
HETATM    4  C6  UNL     1     -21.351 -27.145 -19.840  1.00  0.00    -0.021 A 
HETATM    5  C7  UNL     1     -21.472 -28.490 -19.846  1.00  0.00     0.085 A 
HETATM    6  C8  UNL     1     -21.724 -29.297 -21.053  1.00  0.00     0.103 C 
HETATM    7  N4  UNL     1     -21.911 -29.933 -22.022  1.00  0.00    -0.191 NA
HETATM    8  C9  UNL     1     -21.444 -26.186 -21.025  1.00  0.00     0.041 C 
HETATM    9  C10 UNL     1     -22.214 -24.988 -20.666  1.00  0.00     0.005 C 
HETATM   10  C11 UNL     1     -22.237 -24.544 -19.257  1.00  0.00     0.005 C 
HETATM   11  C12 UNL     1     -20.972 -25.042 -18.552  1.00  0.00     0.047 C 
ENDROOT
BRANCH   1  12
HETATM   12  N3  UNL     1     -21.430 -30.535 -18.355  1.00  0.00    -0.328 N 
HETATM   13  C3  UNL     1     -20.330 -31.227 -18.180  1.00  0.00     0.166 A 
HETATM   14  N2  UNL     1     -19.064 -30.808 -18.230  1.00  0.00    -0.279 N 
HETATM   15  S2  UNL     1     -20.130 -32.885 -17.831  1.00  0.00    -0.038 SA
HETATM   16  N1  UNL     1     -18.134 -31.647 -18.030  1.00  0.00    -0.296 N 
ATOM     17  H2  UNL     1     -18.848 -29.830 -18.426  1.00  0.00     0.189 HD
HETATM   18  C2  UNL     1     -18.421 -32.916 -17.775  1.00  0.00     0.066 A 
ATOM     19  H1  UNL     1     -17.161 -31.345 -18.065  1.00  0.00     0.187 HD
HETATM   20  C1  UNL     1     -17.448 -34.022 -17.518  1.00  0.00     0.078 C 
ATOM     21  H3  UNL     1     -22.340 -30.993 -18.287  1.00  0.00     0.168 HD
ENDBRANCH   1  12
TORSDOF 1
ENDMDL
MODEL 2
REMARK VINA RESULT: -7.778401466      2.498      4.140
REMARK  1 active torsions:
REMARK  status: ('A' for Active; 'I' for Inactive)
REMARK    1  A    between atoms: N3_8  and  C4_10 
ROOT
HETATM    1  C4  UNL     1     -21.078 -29.269 -20.173  1.00  0.00     0.098 A 
HETATM    2  S1  UNL     1     -21.229 -27.844 -21.098  1.00  0.00    -0.075 SA
HETATM    3  C5  UNL     1     -21.494 -26.737 -19.841  1.00  0.00    -0.007 A 
HETATM    4  C6  UNL     1     -21.458 -27.515 -18.710  1.00  0.00    -0.021 A 
HETATM    5  C7  UNL     1     -21.240 -28.836 -18.886  1.00  0.00     0.085 A 
HETATM    6  C8  UNL     1     -21.170 -29.822 -17.793  1.00  0.00     0.103 C 
HETATM    7  N4  UNL     1     -21.130 -30.602 -16.916  1.00  0.00    -0.191 NA
HETATM    8  C9  UNL     1     -21.671 -26.764 -17.397  1.00  0.00     0.041 C 
HETATM    9  C10 UNL     1     -20.937 -25.492 -17.400  1.00  0.00     0.005 C 
HETATM   10  C11 UNL     1     -20.671 -24.819 -18.688  1.00  0.00     0.005 C 
HETATM   11  C12 UNL     1     -21.732 -25.244 -19.706  1.00  0.00     0.047 C 
ENDROOT
BRANCH   1  12
HETATM   12  N3  UNL     1     -20.836 -30.605 -20.652  1.00  0.00    -0.328 N 
HETATM   13  C3  UNL     1     -21.844 -31.344 -21.048  1.00  0.00     0.166 A 
HETATM   14  N2  UNL     1     -23.143 -31.038 -21.078  1.00  0.00    -0.279 N 
HETATM   15  S2  UNL     1     -21.852 -32.939 -21.655  1.00  0.00    -0.038 SA
HETATM   16  N1  UNL     1     -23.966 -31.907 -21.501  1.00  0.00    -0.296 N 
ATOM     17  H2  UNL     1     -23.468 -30.123 -20.767  1.00  0.00     0.189 HD
HETATM   18  C2  UNL     1     -23.537 -33.094 -21.905  1.00  0.00     0.066 A 
ATOM     19  H1  UNL     1     -24.962 -31.690 -21.532  1.00  0.00     0.187 HD
HETATM   20  C1  UNL     1     -24.372 -34.219 -22.427  1.00  0.00     0.078 C 
ATOM     21  H3  UNL     1     -19.885 -30.974 -20.684  1.00  0.00     0.168 HD
ENDBRANCH   1  12
TORSDOF 1
ENDMDL
MODEL 3
REMARK VINA RESULT: -7.487959446      2.860      4.943
REMARK  1 active torsions:
REMARK  status: ('A' for Active; 'I' for Inactive)
REMARK    1  A    between atoms: N3_8  and  C4_10 
ROOT
HETATM    1  C4  UNL     1     -21.518 -28.338 -20.059  1.00  0.00     0.098 A 
HETATM    2  S1  UNL     1     -21.533 -26.790 -20.773  1.00  0.00    -0.075 SA
HETATM    3  C5  UNL     1     -21.434 -25.847 -19.367  1.00  0.00    -0.007 A 
HETATM    4  C6  UNL     1     -21.390 -26.775 -18.356  1.00  0.00    -0.021 A 
HETATM    5  C7  UNL     1     -21.434 -28.075 -18.721  1.00  0.00     0.085 A 
HETATM    6  C8  UNL     1     -21.399 -29.206 -17.777  1.00  0.00     0.103 C 
HETATM    7  N4  UNL     1     -21.384 -30.101 -17.016  1.00  0.00    -0.191 NA
HETATM    8  C9  UNL     1     -21.297 -26.197 -16.945  1.00  0.00     0.041 C 
HETATM    9  C10 UNL     1     -20.357 -25.069 -16.907  1.00  0.00     0.005 C 
HETATM   10  C11 UNL     1     -20.144 -24.269 -18.130  1.00  0.00     0.005 C 
HETATM   11  C12 UNL     1     -21.386 -24.370 -19.020  1.00  0.00     0.047 C 
ENDROOT
BRANCH   1  12
HETATM   12  N3  UNL     1     -21.579 -29.612 -20.727  1.00  0.00    -0.328 N 
HETATM   13  C3  UNL     1     -22.538 -29.848 -21.588  1.00  0.00     0.166 A 
HETATM   14  N2  UNL     1     -23.534 -29.044 -21.970  1.00  0.00    -0.279 N 
HETATM   15  S2  UNL     1     -22.852 -31.247 -22.514  1.00  0.00    -0.038 SA
HETATM   16  N1  UNL     1     -24.369 -29.469 -22.825  1.00  0.00    -0.296 N 
ATOM     17  H2  UNL     1     -23.621 -28.105 -21.580  1.00  0.00     0.189 HD
HETATM   18  C2  UNL     1     -24.249 -30.690 -23.328  1.00  0.00     0.066 A 
ATOM     19  H1  UNL     1     -25.135 -28.869 -23.128  1.00  0.00     0.187 HD
HETATM   20  C1  UNL     1     -25.144 -31.335 -24.338  1.00  0.00     0.078 C 
ATOM     21  H3  UNL     1     -20.879 -30.328 -20.530  1.00  0.00     0.168 HD
ENDBRANCH   1  12
TORSDOF 1
ENDMDL
MODEL 4
REMARK VINA RESULT: -7.469140930      1.223      1.571
REMARK  1 active torsions:
REMARK  status: ('A' for Active; 'I' for Inactive)
REMARK    1  A    between atoms: N3_8  and  C4_10 
ROOT
HETATM    1  C4  UNL     1     -21.500 -28.882 -17.694  1.00  0.00     0.098 A 
HETATM    2  S1  UNL     1     -21.434 -28.089 -16.186  1.00  0.00    -0.075 SA
HETATM    3  C5  UNL     1     -21.202 -26.500 -16.730  1.00  0.00    -0.007 A 
HETATM    4  C6  UNL     1     -21.181 -26.625 -18.098  1.00  0.00    -0.021 A 
HETATM    5  C7  UNL     1     -21.338 -27.869 -18.598  1.00  0.00     0.085 A 
HETATM    6  C8  UNL     1     -21.342 -28.195 -20.035  1.00  0.00     0.103 C 
HETATM    7  N4  UNL     1     -21.330 -28.447 -21.182  1.00  0.00    -0.191 NA
HETATM    8  C9  UNL     1     -20.982 -25.320 -18.868  1.00  0.00     0.041 C 
HETATM    9  C10 UNL     1     -21.777 -24.238 -18.271  1.00  0.00     0.005 C 
HETATM   10  C11 UNL     1     -22.096 -24.292 -16.830  1.00  0.00     0.005 C 
HETATM   11  C12 UNL     1     -21.033 -25.125 -16.110  1.00  0.00     0.047 C 
ENDROOT
BRANCH   1  12
HETATM   12  N3  UNL     1     -21.686 -30.289 -17.938  1.00  0.00    -0.328 N 
HETATM   13  C3  UNL     1     -20.669 -31.107 -17.817  1.00  0.00     0.166 A 
HETATM   14  N2  UNL     1     -19.407 -30.828 -17.484  1.00  0.00    -0.279 N 
HETATM   15  S2  UNL     1     -20.599 -32.798 -18.041  1.00  0.00    -0.038 SA
HETATM   16  N1  UNL     1     -18.566 -31.776 -17.424  1.00  0.00    -0.296 N 
ATOM     17  H2  UNL     1     -19.124 -29.869 -17.282  1.00  0.00     0.189 HD
HETATM   18  C2  UNL     1     -18.940 -33.020 -17.687  1.00  0.00     0.066 A 
ATOM     19  H1  UNL     1     -17.598 -31.581 -17.171  1.00  0.00     0.187 HD
HETATM   20  C1  UNL     1     -18.077 -34.241 -17.660  1.00  0.00     0.078 C 
ATOM     21  H3  UNL     1     -22.604 -30.647 -18.204  1.00  0.00     0.168 HD
ENDBRANCH   1  12
TORSDOF 1
ENDMDL
MODEL 5
REMARK VINA RESULT: -7.405241899      3.136      6.463
REMARK  1 active torsions:
REMARK  status: ('A' for Active; 'I' for Inactive)
REMARK    1  A    between atoms: N3_8  and  C4_10 
ROOT
HETATM    1  C4  UNL     1     -20.953 -27.163 -18.505  1.00  0.00     0.098 A 
HETATM    2  S1  UNL     1     -20.949 -28.159 -17.120  1.00  0.00    -0.075 SA
HETATM    3  C5  UNL     1     -21.394 -29.626 -17.846  1.00  0.00    -0.007 A 
HETATM    4  C6  UNL     1     -21.537 -29.302 -19.173  1.00  0.00    -0.021 A 
HETATM    5  C7  UNL     1     -21.307 -28.015 -19.513  1.00  0.00     0.085 A 
HETATM    6  C8  UNL     1     -21.412 -27.485 -20.884  1.00  0.00     0.103 C 
HETATM    7  N4  UNL     1     -21.513 -27.069 -21.977  1.00  0.00    -0.191 NA
HETATM    8  C9  UNL     1     -21.943 -30.458 -20.085  1.00  0.00     0.041 C 
HETATM    9  C10 UNL     1     -21.207 -31.680 -19.735  1.00  0.00     0.005 C 
HETATM   10  C11 UNL     1     -20.741 -31.865 -18.345  1.00  0.00     0.005 C 
HETATM   11  C12 UNL     1     -21.638 -31.057 -17.403  1.00  0.00     0.047 C 
ENDROOT
BRANCH   1  12
HETATM   12  N3  UNL     1     -20.651 -25.757 -18.574  1.00  0.00    -0.328 N 
HETATM   13  C3  UNL     1     -21.091 -24.953 -17.638  1.00  0.00     0.166 A 
HETATM   14  N2  UNL     1     -21.822 -25.246 -16.560  1.00  0.00    -0.279 N 
HETATM   15  S2  UNL     1     -20.889 -23.267 -17.466  1.00  0.00    -0.038 SA
HETATM   16  N1  UNL     1     -22.147 -24.310 -15.768  1.00  0.00    -0.296 N 
ATOM     17  H2  UNL     1     -22.114 -26.206 -16.377  1.00  0.00     0.189 HD
HETATM   18  C2  UNL     1     -21.765 -23.064 -16.012  1.00  0.00     0.066 A 
ATOM     19  H1  UNL     1     -22.706 -24.516 -14.940  1.00  0.00     0.187 HD
HETATM   20  C1  UNL     1     -22.063 -21.856 -15.183  1.00  0.00     0.078 C 
ATOM     21  H3  UNL     1     -20.098 -25.389 -19.349  1.00  0.00     0.168 HD
ENDBRANCH   1  12
TORSDOF 1
ENDMDL
