MODEL 1
REMARK VINA RESULT: -8.561639545      0.000      0.000
REMARK  8 active torsions:
REMARK  status: ('A' for Active; 'I' for Inactive)
REMARK    1  A    between atoms: C2_2  and  N1_4 
REMARK       I    between atoms: N1_4  and  C4_6 
REMARK    2  A    between atoms: C4_6  and  C5_8 
REMARK    3  A    between atoms: C6_9  and  C7_10 
REMARK       I    between atoms: C7_10  and  N2_12 
REMARK    4  A    between atoms: N2_12  and  C8_13 
REMARK    5  A    between atoms: C8_13  and  C9_14 
REMARK    6  A    between atoms: C8_13  and  C10_17 
REMARK    7  A    between atoms: C10_17  and  C11_19 
REMARK    8  A    between atoms: C14_22  and  O6_23 
ROOT
HETATM    1  C8  UNL     1     -34.431 -45.094  10.922  1.00  0.00     0.341 C 
ENDROOT
BRANCH   1   2
HETATM    2  N2  UNL     1     -35.430 -45.441  11.791  1.00  0.00    -0.387 NA
HETATM    3  C7  UNL     1     -36.407 -45.788  12.642  1.00  0.00     0.312 C 
HETATM    4  O2  UNL     1     -36.686 -47.003  13.007  1.00  0.00    -0.252 OA
BRANCH   3   5
HETATM    5  C6  UNL     1     -37.341 -44.827  13.298  1.00  0.00     0.095 C 
HETATM    6  C5  UNL     1     -37.868 -45.130  14.441  1.00  0.00     0.080 C 
BRANCH   6   7
HETATM    7  C4  UNL     1     -38.829 -44.239  15.173  1.00  0.00     0.241 C 
HETATM    8  N1  UNL     1     -38.797 -44.326  16.558  1.00  0.00    -0.354 N 
ATOM      9  H1  UNL     1     -38.094 -44.943  16.965  1.00  0.00     0.163 HD
HETATM   10  O1  UNL     1     -39.569 -43.520  14.451  1.00  0.00    -0.269 OA
BRANCH   8  11
HETATM   11  C2  UNL     1     -39.645 -43.640  17.462  1.00  0.00     0.076 C 
HETATM   12  C1  UNL     1     -39.912 -44.363  18.724  1.00  0.00     0.032 C 
HETATM   13  C3  UNL     1     -39.109 -42.222  17.705  1.00  0.00     0.032 C 
ENDBRANCH   8  11
ENDBRANCH   6   7
ENDBRANCH   3   5
ENDBRANCH   1   2
BRANCH   1  14
HETATM   14  C9  UNL     1     -33.160 -44.896  11.715  1.00  0.00     0.218 C 
HETATM   15  O3  UNL     1     -32.391 -43.997  11.390  1.00  0.00    -0.645 OA
HETATM   16  O4  UNL     1     -32.915 -45.742  12.791  1.00  0.00    -0.645 OA
ENDBRANCH   1  14
BRANCH   1  17
HETATM   17  C10 UNL     1     -34.163 -46.122   9.857  1.00  0.00     0.205 C 
HETATM   18  O5  UNL     1     -33.551 -45.778   8.835  1.00  0.00    -0.288 OA
BRANCH  17  19
HETATM   19  C11 UNL     1     -34.602 -47.493  10.011  1.00  0.00     0.014 A 
HETATM   20  C12 UNL     1     -34.052 -48.422  10.853  1.00  0.00     0.018 A 
HETATM   21  C13 UNL     1     -34.507 -49.721  10.935  1.00  0.00     0.037 A 
HETATM   22  C14 UNL     1     -35.565 -50.166  10.152  1.00  0.00     0.065 A 
HETATM   23  C15 UNL     1     -36.125 -49.244   9.304  1.00  0.00     0.037 A 
HETATM   24  C16 UNL     1     -35.675 -47.952   9.221  1.00  0.00     0.018 A 
BRANCH  22  25
HETATM   25  O6  UNL     1     -36.015 -51.498  10.248  1.00  0.00    -0.361 OA
ATOM     26  H6  UNL     1     -36.825 -51.765   9.830  1.00  0.00     0.217 HD
ENDBRANCH  22  25
ENDBRANCH  17  19
ENDBRANCH   1  17
TORSDOF 8
ENDMDL
MODEL 2
REMARK VINA RESULT: -8.457728274      0.381      1.029
REMARK  8 active torsions:
REMARK  status: ('A' for Active; 'I' for Inactive)
REMARK    1  A    between atoms: C2_2  and  N1_4 
REMARK       I    between atoms: N1_4  and  C4_6 
REMARK    2  A    between atoms: C4_6  and  C5_8 
REMARK    3  A    between atoms: C6_9  and  C7_10 
REMARK       I    between atoms: C7_10  and  N2_12 
REMARK    4  A    between atoms: N2_12  and  C8_13 
REMARK    5  A    between atoms: C8_13  and  C9_14 
REMARK    6  A    between atoms: C8_13  and  C10_17 
REMARK    7  A    between atoms: C10_17  and  C11_19 
REMARK    8  A    between atoms: C14_22  and  O6_23 
ROOT
HETATM    1  C8  UNL     1     -34.251 -45.215  10.878  1.00  0.00     0.341 C 
ENDROOT
BRANCH   1   2
HETATM    2  N2  UNL     1     -35.287 -45.573  11.698  1.00  0.00    -0.387 NA
HETATM    3  C7  UNL     1     -36.301 -45.930  12.501  1.00  0.00     0.312 C 
HETATM    4  O2  UNL     1     -36.566 -47.145  12.876  1.00  0.00    -0.252 OA
BRANCH   3   5
HETATM    5  C6  UNL     1     -37.294 -44.983  13.085  1.00  0.00     0.095 C 
HETATM    6  C5  UNL     1     -37.689 -45.146  14.307  1.00  0.00     0.080 C 
BRANCH   6   7
HETATM    7  C4  UNL     1     -38.695 -44.257  14.980  1.00  0.00     0.241 C 
HETATM    8  N1  UNL     1     -38.622 -44.204  16.365  1.00  0.00    -0.354 N 
ATOM      9  H1  UNL     1     -37.866 -44.726  16.807  1.00  0.00     0.163 HD
HETATM   10  O1  UNL     1     -39.503 -43.668  14.215  1.00  0.00    -0.269 OA
BRANCH   8  11
HETATM   11  C2  UNL     1     -39.496 -43.494  17.225  1.00  0.00     0.076 C 
HETATM   12  C1  UNL     1     -39.930 -44.248  18.420  1.00  0.00     0.032 C 
HETATM   13  C3  UNL     1     -38.881 -42.134  17.585  1.00  0.00     0.032 C 
ENDBRANCH   8  11
ENDBRANCH   6   7
ENDBRANCH   3   5
ENDBRANCH   1   2
BRANCH   1  14
HETATM   14  C9  UNL     1     -33.145 -44.643  11.733  1.00  0.00     0.218 C 
HETATM   15  O3  UNL     1     -32.727 -43.515  11.489  1.00  0.00    -0.645 OA
HETATM   16  O4  UNL     1     -32.646 -45.420  12.773  1.00  0.00    -0.645 OA
ENDBRANCH   1  14
BRANCH   1  17
HETATM   17  C10 UNL     1     -33.683 -46.356  10.079  1.00  0.00     0.205 C 
HETATM   18  O5  UNL     1     -32.633 -46.176   9.445  1.00  0.00    -0.288 OA
BRANCH  17  19
HETATM   19  C11 UNL     1     -34.337 -47.647  10.046  1.00  0.00     0.014 A 
HETATM   20  C12 UNL     1     -35.357 -48.008   9.206  1.00  0.00     0.018 A 
HETATM   21  C13 UNL     1     -35.951 -49.252   9.243  1.00  0.00     0.037 A 
HETATM   22  C14 UNL     1     -35.541 -50.222  10.149  1.00  0.00     0.065 A 
HETATM   23  C15 UNL     1     -34.519 -49.872  10.995  1.00  0.00     0.037 A 
HETATM   24  C16 UNL     1     -33.926 -48.637  10.961  1.00  0.00     0.018 A 
BRANCH  22  25
HETATM   25  O6  UNL     1     -36.162 -51.487  10.173  1.00  0.00    -0.361 OA
ATOM     26  H6  UNL     1     -35.994 -52.120   9.484  1.00  0.00     0.217 HD
ENDBRANCH  22  25
ENDBRANCH  17  19
ENDBRANCH   1  17
TORSDOF 8
ENDMDL
MODEL 3
REMARK VINA RESULT: -8.303639553      1.399      2.023
REMARK  8 active torsions:
REMARK  status: ('A' for Active; 'I' for Inactive)
REMARK    1  A    between atoms: C2_2  and  N1_4 
REMARK       I    between atoms: N1_4  and  C4_6 
REMARK    2  A    between atoms: C4_6  and  C5_8 
REMARK    3  A    between atoms: C6_9  and  C7_10 
REMARK       I    between atoms: C7_10  and  N2_12 
REMARK    4  A    between atoms: N2_12  and  C8_13 
REMARK    5  A    between atoms: C8_13  and  C9_14 
REMARK    6  A    between atoms: C8_13  and  C10_17 
REMARK    7  A    between atoms: C10_17  and  C11_19 
REMARK    8  A    between atoms: C14_22  and  O6_23 
ROOT
HETATM    1  C8  UNL     1     -34.611 -46.285  10.776  1.00  0.00     0.341 C 
ENDROOT
BRANCH   1   2
HETATM    2  N2  UNL     1     -35.719 -45.917  11.490  1.00  0.00    -0.387 NA
HETATM    3  C7  UNL     1     -36.810 -45.559  12.185  1.00  0.00     0.312 C 
HETATM    4  O2  UNL     1     -38.036 -45.728  11.794  1.00  0.00    -0.252 OA
BRANCH   3   5
HETATM    5  C6  UNL     1     -36.783 -44.896  13.521  1.00  0.00     0.095 C 
HETATM    6  C5  UNL     1     -37.875 -44.809  14.212  1.00  0.00     0.080 C 
BRANCH   6   7
HETATM    7  C4  UNL     1     -37.955 -44.148  15.558  1.00  0.00     0.241 C 
HETATM    8  N1  UNL     1     -38.536 -44.903  16.567  1.00  0.00    -0.354 N 
ATOM      9  H1  UNL     1     -38.811 -45.856  16.329  1.00  0.00     0.163 HD
HETATM   10  O1  UNL     1     -37.499 -42.976  15.620  1.00  0.00    -0.269 OA
BRANCH   8  11
HETATM   11  C2  UNL     1     -38.783 -44.479  17.896  1.00  0.00     0.076 C 
HETATM   12  C1  UNL     1     -40.144 -43.950  18.129  1.00  0.00     0.032 C 
HETATM   13  C3  UNL     1     -38.419 -45.603  18.877  1.00  0.00     0.032 C 
ENDBRANCH   8  11
ENDBRANCH   6   7
ENDBRANCH   3   5
ENDBRANCH   1   2
BRANCH   1  14
HETATM   14  C9  UNL     1     -33.409 -45.593  11.376  1.00  0.00     0.218 C 
HETATM   15  O3  UNL     1     -33.407 -45.336  12.575  1.00  0.00    -0.645 OA
HETATM   16  O4  UNL     1     -32.343 -45.279  10.539  1.00  0.00    -0.645 OA
ENDBRANCH   1  14
BRANCH   1  17
HETATM   17  C10 UNL     1     -34.348 -47.767  10.778  1.00  0.00     0.205 C 
HETATM   18  O5  UNL     1     -33.346 -48.194  11.371  1.00  0.00    -0.288 OA
BRANCH  17  19
HETATM   19  C11 UNL     1     -35.241 -48.688  10.109  1.00  0.00     0.014 A 
HETATM   20  C12 UNL     1     -36.099 -48.375   9.088  1.00  0.00     0.018 A 
HETATM   21  C13 UNL     1     -36.941 -49.300   8.508  1.00  0.00     0.037 A 
HETATM   22  C14 UNL     1     -36.968 -50.621   8.936  1.00  0.00     0.065 A 
HETATM   23  C15 UNL     1     -36.113 -50.947   9.959  1.00  0.00     0.037 A 
HETATM   24  C16 UNL     1     -35.274 -50.030  10.537  1.00  0.00     0.018 A 
BRANCH  22  25
HETATM   25  O6  UNL     1     -37.837 -51.552   8.332  1.00  0.00    -0.361 OA
ATOM     26  H6  UNL     1     -37.832 -52.462   8.602  1.00  0.00     0.217 HD
ENDBRANCH  22  25
ENDBRANCH  17  19
ENDBRANCH   1  17
TORSDOF 8
ENDMDL
MODEL 4
REMARK VINA RESULT: -8.281061234      0.809      1.271
REMARK  8 active torsions:
REMARK  status: ('A' for Active; 'I' for Inactive)
REMARK    1  A    between atoms: C2_2  and  N1_4 
REMARK       I    between atoms: N1_4  and  C4_6 
REMARK    2  A    between atoms: C4_6  and  C5_8 
REMARK    3  A    between atoms: C6_9  and  C7_10 
REMARK       I    between atoms: C7_10  and  N2_12 
REMARK    4  A    between atoms: N2_12  and  C8_13 
REMARK    5  A    between atoms: C8_13  and  C9_14 
REMARK    6  A    between atoms: C8_13  and  C10_17 
REMARK    7  A    between atoms: C10_17  and  C11_19 
REMARK    8  A    between atoms: C14_22  and  O6_23 
ROOT
HETATM    1  C8  UNL     1     -34.152 -45.203  10.820  1.00  0.00     0.341 C 
ENDROOT
BRANCH   1   2
HETATM    2  N2  UNL     1     -35.379 -45.411  11.390  1.00  0.00    -0.387 NA
HETATM    3  C7  UNL     1     -36.584 -45.618  11.943  1.00  0.00     0.312 C 
HETATM    4  O2  UNL     1     -37.565 -46.259  11.383  1.00  0.00    -0.252 OA
BRANCH   3   5
HETATM    5  C6  UNL     1     -36.992 -45.131  13.293  1.00  0.00     0.095 C 
HETATM    6  C5  UNL     1     -38.167 -44.613  13.456  1.00  0.00     0.080 C 
BRANCH   6   7
HETATM    7  C4  UNL     1     -38.665 -44.081  14.769  1.00  0.00     0.241 C 
HETATM    8  N1  UNL     1     -37.757 -44.119  15.818  1.00  0.00    -0.354 N 
ATOM      9  H1  UNL     1     -36.818 -44.454  15.603  1.00  0.00     0.163 HD
HETATM   10  O1  UNL     1     -39.855 -43.671  14.778  1.00  0.00    -0.269 OA
BRANCH   8  11
HETATM   11  C2  UNL     1     -38.009 -43.739  17.160  1.00  0.00     0.076 C 
HETATM   12  C1  UNL     1     -38.456 -42.340  17.329  1.00  0.00     0.032 C 
HETATM   13  C3  UNL     1     -38.972 -44.741  17.812  1.00  0.00     0.032 C 
ENDBRANCH   8  11
ENDBRANCH   6   7
ENDBRANCH   3   5
ENDBRANCH   1   2
BRANCH   1  14
HETATM   14  C9  UNL     1     -33.166 -44.883  11.920  1.00  0.00     0.218 C 
HETATM   15  O3  UNL     1     -33.000 -45.694  12.825  1.00  0.00    -0.645 OA
HETATM   16  O4  UNL     1     -32.477 -43.676  11.857  1.00  0.00    -0.645 OA
ENDBRANCH   1  14
BRANCH   1  17
HETATM   17  C10 UNL     1     -33.628 -46.385  10.051  1.00  0.00     0.205 C 
HETATM   18  O5  UNL     1     -32.639 -46.230   9.320  1.00  0.00    -0.288 OA
BRANCH  17  19
HETATM   19  C11 UNL     1     -34.255 -47.686  10.156  1.00  0.00     0.014 A 
HETATM   20  C12 UNL     1     -33.969 -48.641  11.095  1.00  0.00     0.018 A 
HETATM   21  C13 UNL     1     -34.591 -49.871  11.125  1.00  0.00     0.037 A 
HETATM   22  C14 UNL     1     -35.557 -50.215  10.188  1.00  0.00     0.065 A 
HETATM   23  C15 UNL     1     -35.852 -49.266   9.241  1.00  0.00     0.037 A 
HETATM   24  C16 UNL     1     -35.237 -48.042   9.210  1.00  0.00     0.018 A 
BRANCH  22  25
HETATM   25  O6  UNL     1     -36.181 -51.478  10.233  1.00  0.00    -0.361 OA
ATOM     26  H6  UNL     1     -35.660 -52.272  10.268  1.00  0.00     0.217 HD
ENDBRANCH  22  25
ENDBRANCH  17  19
ENDBRANCH   1  17
TORSDOF 8
ENDMDL
MODEL 5
REMARK VINA RESULT: -8.015765194      1.524      2.374
REMARK  8 active torsions:
REMARK  status: ('A' for Active; 'I' for Inactive)
REMARK    1  A    between atoms: C2_2  and  N1_4 
REMARK       I    between atoms: N1_4  and  C4_6 
REMARK    2  A    between atoms: C4_6  and  C5_8 
REMARK    3  A    between atoms: C6_9  and  C7_10 
REMARK       I    between atoms: C7_10  and  N2_12 
REMARK    4  A    between atoms: N2_12  and  C8_13 
REMARK    5  A    between atoms: C8_13  and  C9_14 
REMARK    6  A    between atoms: C8_13  and  C10_17 
REMARK    7  A    between atoms: C10_17  and  C11_19 
REMARK    8  A    between atoms: C14_22  and  O6_23 
ROOT
HETATM    1  C8  UNL     1     -34.329 -46.428   9.951  1.00  0.00     0.341 C 
ENDROOT
BRANCH   1   2
HETATM    2  N2  UNL     1     -34.805 -45.394  10.712  1.00  0.00    -0.387 NA
HETATM    3  C7  UNL     1     -35.266 -44.377  11.456  1.00  0.00     0.312 C 
HETATM    4  O2  UNL     1     -34.626 -43.272  11.693  1.00  0.00    -0.252 OA
BRANCH   3   5
HETATM    5  C6  UNL     1     -36.591 -44.361  12.141  1.00  0.00     0.095 C 
HETATM    6  C5  UNL     1     -36.665 -44.677  13.394  1.00  0.00     0.080 C 
BRANCH   6   7
HETATM    7  C4  UNL     1     -37.951 -44.706  14.168  1.00  0.00     0.241 C 
HETATM    8  N1  UNL     1     -37.830 -44.574  15.544  1.00  0.00    -0.354 N 
ATOM      9  H1  UNL     1     -36.891 -44.417  15.911  1.00  0.00     0.163 HD
HETATM   10  O1  UNL     1     -38.998 -44.860  13.485  1.00  0.00    -0.269 OA
BRANCH   8  11
HETATM   11  C2  UNL     1     -38.884 -44.636  16.489  1.00  0.00     0.076 C 
HETATM   12  C1  UNL     1     -38.463 -45.014  17.856  1.00  0.00     0.032 C 
HETATM   13  C3  UNL     1     -39.681 -43.324  16.467  1.00  0.00     0.032 C 
ENDBRANCH   8  11
ENDBRANCH   6   7
ENDBRANCH   3   5
ENDBRANCH   1   2
BRANCH   1  14
HETATM   14  C9  UNL     1     -32.853 -46.205   9.718  1.00  0.00     0.218 C 
HETATM   15  O3  UNL     1     -32.356 -46.574   8.659  1.00  0.00    -0.645 OA
HETATM   16  O4  UNL     1     -32.114 -45.581  10.717  1.00  0.00    -0.645 OA
ENDBRANCH   1  14
BRANCH   1  17
HETATM   17  C10 UNL     1     -34.504 -47.782  10.584  1.00  0.00     0.205 C 
HETATM   18  O5  UNL     1     -33.897 -48.032  11.636  1.00  0.00    -0.288 OA
BRANCH  17  19
HETATM   19  C11 UNL     1     -35.365 -48.782   9.989  1.00  0.00     0.014 A 
HETATM   20  C12 UNL     1     -36.236 -48.576   8.953  1.00  0.00     0.018 A 
HETATM   21  C13 UNL     1     -37.045 -49.571   8.447  1.00  0.00     0.037 A 
HETATM   22  C14 UNL     1     -37.022 -50.857   8.971  1.00  0.00     0.065 A 
HETATM   23  C15 UNL     1     -36.153 -51.076  10.010  1.00  0.00     0.037 A 
HETATM   24  C16 UNL     1     -35.346 -50.089  10.515  1.00  0.00     0.018 A 
BRANCH  22  25
HETATM   25  O6  UNL     1     -37.859 -51.861   8.442  1.00  0.00    -0.361 OA
ATOM     26  H6  UNL     1     -38.309 -51.728   7.616  1.00  0.00     0.217 HD
ENDBRANCH  22  25
ENDBRANCH  17  19
ENDBRANCH   1  17
TORSDOF 8
ENDMDL
