MODEL 1
REMARK VINA RESULT: -8.547782171      0.000      0.000
REMARK  9 active torsions:
REMARK  status: ('A' for Active; 'I' for Inactive)
REMARK    1  A    between atoms: N2_4  and  C1_6 
REMARK    2  A    between atoms: C2_7  and  N3_8 
REMARK    3  A    between atoms: N3_8  and  O1_10 
REMARK    4  A    between atoms: O1_10  and  C3_11 
REMARK    5  A    between atoms: C3_11  and  C4_13 
REMARK    6  A    between atoms: C7_16  and  N4_17 
REMARK       I    between atoms: N4_17  and  C8_19 
REMARK    7  A    between atoms: C8_19  and  C9_21 
REMARK    8  A    between atoms: C9_21  and  O4_22 
REMARK    9  A    between atoms: O4_22  and  C10_23 
ROOT
HETATM    1  C4  UNL     1     -38.539 -44.383  14.389  1.00  0.00     0.041 A 
HETATM    2  C5  UNL     1     -37.786 -45.521  14.558  1.00  0.00     0.020 A 
HETATM    3  C6  UNL     1     -37.100 -46.062  13.509  1.00  0.00     0.030 A 
HETATM    4  C7  UNL     1     -37.136 -45.477  12.222  1.00  0.00     0.034 A 
HETATM    5  C16 UNL     1     -37.878 -44.349  12.043  1.00  0.00     0.030 A 
HETATM    6  C17 UNL     1     -38.566 -43.826  13.140  1.00  0.00     0.020 A 
ENDROOT
BRANCH   1   7
HETATM    7  C3  UNL     1     -39.257 -43.829  15.514  1.00  0.00     0.315 C 
HETATM    8  O2  UNL     1     -40.021 -42.834  15.424  1.00  0.00    -0.257 OA
BRANCH   7   9
HETATM    9  O1  UNL     1     -39.149 -44.375  16.806  1.00  0.00    -0.195 OA
BRANCH   9  10
HETATM   10  N3  UNL     1     -39.449 -43.636  17.927  1.00  0.00    -0.267 N 
ATOM     11  H3  UNL     1     -39.208 -42.645  17.936  1.00  0.00     0.194 HD
BRANCH  10  12
HETATM   12  C2  UNL     1     -40.082 -44.194  19.077  1.00  0.00     0.133 C 
HETATM   13  C1  UNL     1     -39.542 -45.238  19.652  1.00  0.00     0.125 C 
BRANCH  13  14
HETATM   14  N2  UNL     1     -38.351 -45.821  19.162  1.00  0.00    -0.317 N 
HETATM   15  N1  UNL     1     -37.281 -45.917  19.838  1.00  0.00    -0.345 N 
ATOM     16  H12 UNL     1     -37.299 -45.548  20.788  1.00  0.00     0.176 HD
ATOM     17  H11 UNL     1     -36.422 -46.338  19.484  1.00  0.00     0.176 HD
ATOM     18  H2  UNL     1     -38.352 -46.186  18.209  1.00  0.00     0.185 HD
ENDBRANCH  13  14
ENDBRANCH  10  12
ENDBRANCH   9  10
ENDBRANCH   7   9
ENDBRANCH   1   7
BRANCH   4  19
HETATM   19  N4  UNL     1     -36.427 -46.096  11.182  1.00  0.00    -0.325 N 
HETATM   20  C8  UNL     1     -35.086 -45.842  10.855  1.00  0.00     0.246 C 
HETATM   21  O3  UNL     1     -34.350 -45.034  11.458  1.00  0.00    -0.271 OA
ATOM     22  H4  UNL     1     -36.925 -46.786  10.620  1.00  0.00     0.169 HD
BRANCH  20  23
HETATM   23  C9  UNL     1     -34.434 -46.571   9.698  1.00  0.00     0.278 C 
BRANCH  23  24
HETATM   24  O4  UNL     1     -34.386 -47.921   9.974  1.00  0.00    -0.342 OA
BRANCH  24  25
HETATM   25  C10 UNL     1     -35.339 -48.814   9.551  1.00  0.00     0.069 A 
HETATM   26  C11 UNL     1     -35.317 -50.063  10.191  1.00  0.00     0.037 A 
HETATM   27  C12 UNL     1     -36.239 -51.000   9.812  1.00  0.00     0.003 A 
HETATM   28  C13 UNL     1     -37.173 -50.762   8.839  1.00  0.00     0.000 A 
HETATM   29  C14 UNL     1     -37.220 -49.546   8.192  1.00  0.00     0.003 A 
HETATM   30  C15 UNL     1     -36.281 -48.595   8.579  1.00  0.00     0.037 A 
ENDBRANCH  24  25
ENDBRANCH  23  24
ENDBRANCH  20  23
ENDBRANCH   4  19
TORSDOF 9
ENDMDL
MODEL 2
REMARK VINA RESULT: -8.514093591      1.032      1.465
REMARK  9 active torsions:
REMARK  status: ('A' for Active; 'I' for Inactive)
REMARK    1  A    between atoms: N2_4  and  C1_6 
REMARK    2  A    between atoms: C2_7  and  N3_8 
REMARK    3  A    between atoms: N3_8  and  O1_10 
REMARK    4  A    between atoms: O1_10  and  C3_11 
REMARK    5  A    between atoms: C3_11  and  C4_13 
REMARK    6  A    between atoms: C7_16  and  N4_17 
REMARK       I    between atoms: N4_17  and  C8_19 
REMARK    7  A    between atoms: C8_19  and  C9_21 
REMARK    8  A    between atoms: C9_21  and  O4_22 
REMARK    9  A    between atoms: O4_22  and  C10_23 
ROOT
HETATM    1  C4  UNL     1     -38.532 -44.362  14.468  1.00  0.00     0.041 A 
HETATM    2  C5  UNL     1     -37.772 -45.495  14.634  1.00  0.00     0.020 A 
HETATM    3  C6  UNL     1     -37.102 -46.044  13.579  1.00  0.00     0.030 A 
HETATM    4  C7  UNL     1     -37.163 -45.471  12.287  1.00  0.00     0.034 A 
HETATM    5  C16 UNL     1     -37.913 -44.349  12.110  1.00  0.00     0.030 A 
HETATM    6  C17 UNL     1     -38.584 -43.817  13.214  1.00  0.00     0.020 A 
ENDROOT
BRANCH   1   7
HETATM    7  C3  UNL     1     -39.233 -43.799  15.600  1.00  0.00     0.315 C 
HETATM    8  O2  UNL     1     -39.963 -42.778  15.522  1.00  0.00    -0.257 OA
BRANCH   7   9
HETATM    9  O1  UNL     1     -39.143 -44.365  16.884  1.00  0.00    -0.195 OA
BRANCH   9  10
HETATM   10  N3  UNL     1     -40.052 -44.060  17.870  1.00  0.00    -0.267 N 
ATOM     11  H3  UNL     1     -41.046 -44.141  17.658  1.00  0.00     0.194 HD
BRANCH  10  12
HETATM   12  C2  UNL     1     -39.667 -43.635  19.176  1.00  0.00     0.133 C 
HETATM   13  C1  UNL     1     -39.136 -42.449  19.325  1.00  0.00     0.125 C 
BRANCH  13  14
HETATM   14  N2  UNL     1     -38.938 -41.582  18.225  1.00  0.00    -0.317 N 
HETATM   15  N1  UNL     1     -37.826 -41.435  17.634  1.00  0.00    -0.345 N 
ATOM     16  H12 UNL     1     -37.038 -41.980  17.984  1.00  0.00     0.176 HD
ATOM     17  H11 UNL     1     -37.683 -40.810  16.840  1.00  0.00     0.176 HD
ATOM     18  H2  UNL     1     -39.737 -41.045  17.888  1.00  0.00     0.185 HD
ENDBRANCH  13  14
ENDBRANCH  10  12
ENDBRANCH   9  10
ENDBRANCH   7   9
ENDBRANCH   1   7
BRANCH   4  19
HETATM   19  N4  UNL     1     -36.471 -46.099  11.241  1.00  0.00    -0.325 N 
HETATM   20  C8  UNL     1     -35.144 -45.825  10.872  1.00  0.00     0.246 C 
HETATM   21  O3  UNL     1     -34.408 -44.992  11.438  1.00  0.00    -0.271 OA
ATOM     22  H4  UNL     1     -36.970 -46.809  10.706  1.00  0.00     0.169 HD
BRANCH  20  23
HETATM   23  C9  UNL     1     -34.510 -46.566   9.712  1.00  0.00     0.278 C 
BRANCH  23  24
HETATM   24  O4  UNL     1     -34.456 -47.914  10.002  1.00  0.00    -0.342 OA
BRANCH  24  25
HETATM   25  C10 UNL     1     -35.389 -48.819   9.563  1.00  0.00     0.069 A 
HETATM   26  C11 UNL     1     -35.352 -50.072  10.194  1.00  0.00     0.037 A 
HETATM   27  C12 UNL     1     -36.254 -51.021   9.800  1.00  0.00     0.003 A 
HETATM   28  C13 UNL     1     -37.182 -50.792   8.819  1.00  0.00     0.000 A 
HETATM   29  C14 UNL     1     -37.244 -49.573   8.181  1.00  0.00     0.003 A 
HETATM   30  C15 UNL     1     -36.325 -48.609   8.584  1.00  0.00     0.037 A 
ENDBRANCH  24  25
ENDBRANCH  23  24
ENDBRANCH  20  23
ENDBRANCH   4  19
TORSDOF 9
ENDMDL
MODEL 3
REMARK VINA RESULT: -8.462159615      0.776      1.265
REMARK  9 active torsions:
REMARK  status: ('A' for Active; 'I' for Inactive)
REMARK    1  A    between atoms: N2_4  and  C1_6 
REMARK    2  A    between atoms: C2_7  and  N3_8 
REMARK    3  A    between atoms: N3_8  and  O1_10 
REMARK    4  A    between atoms: O1_10  and  C3_11 
REMARK    5  A    between atoms: C3_11  and  C4_13 
REMARK    6  A    between atoms: C7_16  and  N4_17 
REMARK       I    between atoms: N4_17  and  C8_19 
REMARK    7  A    between atoms: C8_19  and  C9_21 
REMARK    8  A    between atoms: C9_21  and  O4_22 
REMARK    9  A    between atoms: O4_22  and  C10_23 
ROOT
HETATM    1  C4  UNL     1     -38.578 -44.345  14.401  1.00  0.00     0.041 A 
HETATM    2  C5  UNL     1     -37.845 -45.492  14.591  1.00  0.00     0.020 A 
HETATM    3  C6  UNL     1     -37.159 -46.058  13.556  1.00  0.00     0.030 A 
HETATM    4  C7  UNL     1     -37.175 -45.489  12.260  1.00  0.00     0.034 A 
HETATM    5  C16 UNL     1     -37.898 -44.353  12.060  1.00  0.00     0.030 A 
HETATM    6  C17 UNL     1     -38.586 -43.804  13.144  1.00  0.00     0.020 A 
ENDROOT
BRANCH   1   7
HETATM    7  C3  UNL     1     -39.297 -43.764  15.512  1.00  0.00     0.315 C 
HETATM    8  O2  UNL     1     -40.022 -42.742  15.408  1.00  0.00    -0.257 OA
BRANCH   7   9
HETATM    9  O1  UNL     1     -39.231 -44.312  16.806  1.00  0.00    -0.195 OA
BRANCH   9  10
HETATM   10  N3  UNL     1     -38.659 -43.625  17.851  1.00  0.00    -0.267 N 
ATOM     11  H3  UNL     1     -39.088 -42.750  18.151  1.00  0.00     0.194 HD
BRANCH  10  12
HETATM   12  C2  UNL     1     -37.493 -44.081  18.534  1.00  0.00     0.133 C 
HETATM   13  C1  UNL     1     -37.570 -45.167  19.260  1.00  0.00     0.125 C 
BRANCH  13  14
HETATM   14  N2  UNL     1     -38.776 -45.894  19.381  1.00  0.00    -0.317 N 
HETATM   15  N1  UNL     1     -39.491 -45.907  20.429  1.00  0.00    -0.345 N 
ATOM     16  H12 UNL     1     -39.161 -45.356  21.221  1.00  0.00     0.176 HD
ATOM     17  H11 UNL     1     -40.362 -46.431  20.516  1.00  0.00     0.176 HD
ATOM     18  H2  UNL     1     -39.091 -46.440  18.578  1.00  0.00     0.185 HD
ENDBRANCH  13  14
ENDBRANCH  10  12
ENDBRANCH   9  10
ENDBRANCH   7   9
ENDBRANCH   1   7
BRANCH   4  19
HETATM   19  N4  UNL     1     -36.468 -46.135  11.235  1.00  0.00    -0.325 N 
HETATM   20  C8  UNL     1     -35.106 -45.947  10.951  1.00  0.00     0.246 C 
HETATM   21  O3  UNL     1     -34.348 -45.186  11.585  1.00  0.00    -0.271 OA
ATOM     22  H4  UNL     1     -36.984 -46.791  10.649  1.00  0.00     0.169 HD
BRANCH  20  23
HETATM   23  C9  UNL     1     -34.459 -46.697   9.805  1.00  0.00     0.278 C 
BRANCH  23  24
HETATM   24  O4  UNL     1     -34.388 -48.039  10.116  1.00  0.00    -0.342 OA
BRANCH  24  25
HETATM   25  C10 UNL     1     -35.308 -48.964   9.687  1.00  0.00     0.069 A 
HETATM   26  C11 UNL     1     -36.163 -48.528   8.664  1.00  0.00     0.037 A 
HETATM   27  C12 UNL     1     -37.106 -49.401   8.193  1.00  0.00     0.003 A 
HETATM   28  C13 UNL     1     -37.241 -50.672   8.684  1.00  0.00     0.000 A 
HETATM   29  C14 UNL     1     -36.417 -51.129   9.689  1.00  0.00     0.003 A 
HETATM   30  C15 UNL     1     -35.459 -50.239  10.165  1.00  0.00     0.037 A 
ENDBRANCH  24  25
ENDBRANCH  23  24
ENDBRANCH  20  23
ENDBRANCH   4  19
TORSDOF 9
ENDMDL
MODEL 4
REMARK VINA RESULT: -8.375303810      0.855      1.334
REMARK  9 active torsions:
REMARK  status: ('A' for Active; 'I' for Inactive)
REMARK    1  A    between atoms: N2_4  and  C1_6 
REMARK    2  A    between atoms: C2_7  and  N3_8 
REMARK    3  A    between atoms: N3_8  and  O1_10 
REMARK    4  A    between atoms: O1_10  and  C3_11 
REMARK    5  A    between atoms: C3_11  and  C4_13 
REMARK    6  A    between atoms: C7_16  and  N4_17 
REMARK       I    between atoms: N4_17  and  C8_19 
REMARK    7  A    between atoms: C8_19  and  C9_21 
REMARK    8  A    between atoms: C9_21  and  O4_22 
REMARK    9  A    between atoms: O4_22  and  C10_23 
ROOT
HETATM    1  C4  UNL     1     -38.612 -44.337  14.337  1.00  0.00     0.041 A 
HETATM    2  C5  UNL     1     -38.549 -43.790  13.078  1.00  0.00     0.020 A 
HETATM    3  C6  UNL     1     -37.807 -44.383  12.098  1.00  0.00     0.030 A 
HETATM    4  C7  UNL     1     -37.081 -45.573  12.340  1.00  0.00     0.034 A 
HETATM    5  C16 UNL     1     -37.135 -46.124  13.584  1.00  0.00     0.030 A 
HETATM    6  C17 UNL     1     -37.906 -45.487  14.559  1.00  0.00     0.020 A 
ENDROOT
BRANCH   1   7
HETATM    7  C3  UNL     1     -39.405 -43.690  15.358  1.00  0.00     0.315 C 
HETATM    8  O2  UNL     1     -40.174 -42.722  15.126  1.00  0.00    -0.257 OA
BRANCH   7   9
HETATM    9  O1  UNL     1     -39.368 -44.107  16.701  1.00  0.00    -0.195 OA
BRANCH   9  10
HETATM   10  N3  UNL     1     -38.427 -43.622  17.580  1.00  0.00    -0.267 N 
ATOM     11  H3  UNL     1     -38.375 -42.615  17.730  1.00  0.00     0.194 HD
BRANCH  10  12
HETATM   12  C2  UNL     1     -37.521 -44.465  18.289  1.00  0.00     0.133 C 
HETATM   13  C1  UNL     1     -37.987 -45.234  19.240  1.00  0.00     0.125 C 
BRANCH  13  14
HETATM   14  N2  UNL     1     -39.360 -45.249  19.576  1.00  0.00    -0.317 N 
HETATM   15  N1  UNL     1     -39.885 -46.091  20.367  1.00  0.00    -0.345 N 
ATOM     16  H12 UNL     1     -39.266 -46.791  20.775  1.00  0.00     0.176 HD
ATOM     17  H11 UNL     1     -40.876 -46.101  20.609  1.00  0.00     0.176 HD
ATOM     18  H2  UNL     1     -39.964 -44.541  19.158  1.00  0.00     0.185 HD
ENDBRANCH  13  14
ENDBRANCH  10  12
ENDBRANCH   9  10
ENDBRANCH   7   9
ENDBRANCH   1   7
BRANCH   4  19
HETATM   19  N4  UNL     1     -36.318 -46.117  11.297  1.00  0.00    -0.325 N 
HETATM   20  C8  UNL     1     -34.917 -46.211  11.284  1.00  0.00     0.246 C 
HETATM   21  O3  UNL     1     -34.172 -45.827  12.209  1.00  0.00    -0.271 OA
ATOM     22  H4  UNL     1     -36.820 -46.473  10.483  1.00  0.00     0.169 HD
BRANCH  20  23
HETATM   23  C9  UNL     1     -34.206 -46.812  10.089  1.00  0.00     0.278 C 
BRANCH  23  24
HETATM   24  O4  UNL     1     -34.249 -48.188  10.173  1.00  0.00    -0.342 OA
BRANCH  24  25
HETATM   25  C10 UNL     1     -35.266 -48.946   9.650  1.00  0.00     0.069 A 
HETATM   26  C11 UNL     1     -35.377 -50.243  10.174  1.00  0.00     0.037 A 
HETATM   27  C12 UNL     1     -36.370 -51.052   9.692  1.00  0.00     0.003 A 
HETATM   28  C13 UNL     1     -37.249 -50.642   8.725  1.00  0.00     0.000 A 
HETATM   29  C14 UNL     1     -37.165 -49.375   8.191  1.00  0.00     0.003 A 
HETATM   30  C15 UNL     1     -36.155 -48.554   8.683  1.00  0.00     0.037 A 
ENDBRANCH  24  25
ENDBRANCH  23  24
ENDBRANCH  20  23
ENDBRANCH   4  19
TORSDOF 9
ENDMDL
MODEL 5
REMARK VINA RESULT: -8.232456065      2.338      8.900
REMARK  9 active torsions:
REMARK  status: ('A' for Active; 'I' for Inactive)
REMARK    1  A    between atoms: N2_4  and  C1_6 
REMARK    2  A    between atoms: C2_7  and  N3_8 
REMARK    3  A    between atoms: N3_8  and  O1_10 
REMARK    4  A    between atoms: O1_10  and  C3_11 
REMARK    5  A    between atoms: C3_11  and  C4_13 
REMARK    6  A    between atoms: C7_16  and  N4_17 
REMARK       I    between atoms: N4_17  and  C8_19 
REMARK    7  A    between atoms: C8_19  and  C9_21 
REMARK    8  A    between atoms: C9_21  and  O4_22 
REMARK    9  A    between atoms: O4_22  and  C10_23 
ROOT
HETATM    1  C4  UNL     1     -35.025 -46.330  11.047  1.00  0.00     0.041 A 
HETATM    2  C5  UNL     1     -35.099 -44.959  11.106  1.00  0.00     0.020 A 
HETATM    3  C6  UNL     1     -35.855 -44.344  12.061  1.00  0.00     0.030 A 
HETATM    4  C7  UNL     1     -36.584 -45.088  13.018  1.00  0.00     0.034 A 
HETATM    5  C16 UNL     1     -36.519 -46.447  12.969  1.00  0.00     0.030 A 
HETATM    6  C17 UNL     1     -35.734 -47.039  11.977  1.00  0.00     0.020 A 
ENDROOT
BRANCH   1   7
HETATM    7  C3  UNL     1     -34.218 -46.959  10.025  1.00  0.00     0.315 C 
HETATM    8  O2  UNL     1     -33.800 -46.353   9.005  1.00  0.00    -0.257 OA
BRANCH   7   9
HETATM    9  O1  UNL     1     -33.840 -48.311  10.106  1.00  0.00    -0.195 OA
BRANCH   9  10
HETATM   10  N3  UNL     1     -34.534 -49.293   9.438  1.00  0.00    -0.267 N 
ATOM     11  H3  UNL     1     -34.109 -50.216   9.352  1.00  0.00     0.194 HD
BRANCH  10  12
HETATM   12  C2  UNL     1     -35.820 -49.078   8.860  1.00  0.00     0.133 C 
HETATM   13  C1  UNL     1     -36.731 -50.010   8.978  1.00  0.00     0.125 C 
BRANCH  13  14
HETATM   14  N2  UNL     1     -36.469 -51.219   9.664  1.00  0.00    -0.317 N 
HETATM   15  N1  UNL     1     -37.247 -52.220   9.651  1.00  0.00    -0.345 N 
ATOM     16  H12 UNL     1     -38.107 -52.133   9.110  1.00  0.00     0.176 HD
ATOM     17  H11 UNL     1     -37.058 -53.092  10.146  1.00  0.00     0.176 HD
ATOM     18  H2  UNL     1     -35.604 -51.289  10.200  1.00  0.00     0.185 HD
ENDBRANCH  13  14
ENDBRANCH  10  12
ENDBRANCH   9  10
ENDBRANCH   7   9
ENDBRANCH   1   7
BRANCH   4  19
HETATM   19  N4  UNL     1     -37.361 -44.395  13.958  1.00  0.00    -0.325 N 
HETATM   20  C8  UNL     1     -38.757 -44.250  13.902  1.00  0.00     0.246 C 
HETATM   21  O3  UNL     1     -39.485 -44.730  13.010  1.00  0.00    -0.271 OA
ATOM     22  H4  UNL     1     -36.875 -43.962  14.742  1.00  0.00     0.169 HD
BRANCH  20  23
HETATM   23  C9  UNL     1     -39.482 -43.465  14.976  1.00  0.00     0.278 C 
BRANCH  23  24
HETATM   24  O4  UNL     1     -38.673 -43.348  16.086  1.00  0.00    -0.342 OA
BRANCH  24  25
HETATM   25  C10 UNL     1     -38.917 -43.995  17.272  1.00  0.00     0.069 A 
HETATM   26  C11 UNL     1     -40.128 -43.662  17.897  1.00  0.00     0.037 A 
HETATM   27  C12 UNL     1     -40.431 -44.270  19.085  1.00  0.00     0.003 A 
HETATM   28  C13 UNL     1     -39.599 -45.183  19.677  1.00  0.00     0.000 A 
HETATM   29  C14 UNL     1     -38.404 -45.531  19.088  1.00  0.00     0.003 A 
HETATM   30  C15 UNL     1     -38.099 -44.911  17.879  1.00  0.00     0.037 A 
ENDBRANCH  24  25
ENDBRANCH  23  24
ENDBRANCH  20  23
ENDBRANCH   4  19
TORSDOF 9
ENDMDL
