MODEL 1
REMARK VINA RESULT: -4.223380116      0.000      0.000
REMARK  2 active torsions:
REMARK  status: ('A' for Active; 'I' for Inactive)
REMARK    1  A    between atoms: C4_4  and  N1_5 
REMARK    2  A    between atoms: N1_5  and  C5_7 
ROOT
HETATM    1  C5  UNL     1      29.315  36.215  18.606  1.00  0.00     0.171 C 
HETATM    2  N2  UNL     1      28.927  37.441  18.693  1.00  0.00    -0.361 N 
ATOM      3  H2  UNL     1      28.529  37.862  19.532  1.00  0.00     0.162 HD
HETATM    4  C6  UNL     1      29.132  38.142  17.444  1.00  0.00     0.142 C 
HETATM    5  C7  UNL     1      30.114  37.260  16.723  1.00  0.00     0.142 C 
HETATM    6  N3  UNL     1      29.822  35.963  17.294  1.00  0.00    -0.361 N 
ATOM      7  H3  UNL     1      29.952  35.054  16.850  1.00  0.00     0.162 HD
ENDROOT
BRANCH   1   8
HETATM    8  N1  UNL     1      29.281  35.204  19.614  1.00  0.00    -0.358 N 
ATOM      9  H1  UNL     1      29.810  35.336  20.476  1.00  0.00     0.163 HD
BRANCH   8  10
HETATM   10  C4  UNL     1      28.504  33.990  19.431  1.00  0.00     0.084 C 
HETATM   11  C3  UNL     1      29.333  32.859  18.910  1.00  0.00     0.025 C 
HETATM   12  C2  UNL     1      29.192  31.749  19.938  1.00  0.00     0.002 C 
HETATM   13  C1  UNL     1      29.061  32.579  21.220  1.00  0.00     0.002 C 
HETATM   14  C8  UNL     1      27.966  33.559  20.778  1.00  0.00     0.025 C 
ENDBRANCH   8  10
ENDBRANCH   1   8
TORSDOF 2
ENDMDL
MODEL 2
REMARK VINA RESULT: -4.135242861      1.546      2.161
REMARK  2 active torsions:
REMARK  status: ('A' for Active; 'I' for Inactive)
REMARK    1  A    between atoms: C4_4  and  N1_5 
REMARK    2  A    between atoms: N1_5  and  C5_7 
ROOT
HETATM    1  C5  UNL     1      29.052  34.966  19.228  1.00  0.00     0.171 C 
HETATM    2  N2  UNL     1      29.430  36.167  18.946  1.00  0.00    -0.361 N 
ATOM      3  H2  UNL     1      29.494  36.926  19.624  1.00  0.00     0.162 HD
HETATM    4  C6  UNL     1      29.750  36.296  17.541  1.00  0.00     0.142 C 
HETATM    5  C7  UNL     1      29.927  34.866  17.107  1.00  0.00     0.142 C 
HETATM    6  N3  UNL     1      29.080  34.164  18.047  1.00  0.00    -0.361 N 
ATOM      7  H3  UNL     1      28.601  33.276  17.896  1.00  0.00     0.162 HD
ENDROOT
BRANCH   1   8
HETATM    8  N1  UNL     1      28.654  34.441  20.495  1.00  0.00    -0.358 N 
ATOM      9  H1  UNL     1      28.793  34.999  21.337  1.00  0.00     0.163 HD
BRANCH   8  10
HETATM   10  C4  UNL     1      28.054  33.122  20.603  1.00  0.00     0.084 C 
HETATM   11  C3  UNL     1      28.619  32.334  21.742  1.00  0.00     0.025 C 
HETATM   12  C2  UNL     1      27.428  31.985  22.620  1.00  0.00     0.002 C 
HETATM   13  C1  UNL     1      26.557  33.229  22.405  1.00  0.00     0.002 C 
HETATM   14  C8  UNL     1      26.575  33.290  20.872  1.00  0.00     0.025 C 
ENDBRANCH   8  10
ENDBRANCH   1   8
TORSDOF 2
ENDMDL
MODEL 3
REMARK VINA RESULT: -4.098026837      2.072      2.945
REMARK  2 active torsions:
REMARK  status: ('A' for Active; 'I' for Inactive)
REMARK    1  A    between atoms: C4_4  and  N1_5 
REMARK    2  A    between atoms: N1_5  and  C5_7 
ROOT
HETATM    1  C5  UNL     1      29.856  36.274  17.410  1.00  0.00     0.171 C 
HETATM    2  N2  UNL     1      29.851  37.431  16.840  1.00  0.00    -0.361 N 
ATOM      3  H2  UNL     1      30.255  37.623  15.923  1.00  0.00     0.162 HD
HETATM    4  C6  UNL     1      29.199  38.419  17.670  1.00  0.00     0.142 C 
HETATM    5  C7  UNL     1      28.419  37.576  18.642  1.00  0.00     0.142 C 
HETATM    6  N3  UNL     1      29.207  36.363  18.679  1.00  0.00    -0.361 N 
ATOM      7  H3  UNL     1      29.282  35.704  19.455  1.00  0.00     0.162 HD
ENDROOT
BRANCH   1   8
HETATM    8  N1  UNL     1      30.400  35.049  16.918  1.00  0.00    -0.358 N 
ATOM      9  H1  UNL     1      31.370  35.020  16.605  1.00  0.00     0.163 HD
BRANCH   8  10
HETATM   10  C4  UNL     1      29.593  33.843  16.858  1.00  0.00     0.084 C 
HETATM   11  C3  UNL     1      29.713  33.145  15.540  1.00  0.00     0.025 C 
HETATM   12  C2  UNL     1      30.207  31.746  15.867  1.00  0.00     0.002 C 
HETATM   13  C1  UNL     1      31.082  32.045  17.091  1.00  0.00     0.002 C 
HETATM   14  C8  UNL     1      30.091  32.880  17.914  1.00  0.00     0.025 C 
ENDBRANCH   8  10
ENDBRANCH   1   8
TORSDOF 2
ENDMDL
MODEL 4
REMARK VINA RESULT: -4.093553515      0.888      1.410
REMARK  2 active torsions:
REMARK  status: ('A' for Active; 'I' for Inactive)
REMARK    1  A    between atoms: C4_4  and  N1_5 
REMARK    2  A    between atoms: N1_5  and  C5_7 
ROOT
HETATM    1  C5  UNL     1      29.507  35.788  18.095  1.00  0.00     0.171 C 
HETATM    2  N2  UNL     1      29.990  36.197  16.972  1.00  0.00    -0.361 N 
ATOM      3  H2  UNL     1      30.361  35.584  16.246  1.00  0.00     0.162 HD
HETATM    4  C6  UNL     1      29.937  37.639  16.876  1.00  0.00     0.142 C 
HETATM    5  C7  UNL     1      28.939  38.008  17.940  1.00  0.00     0.142 C 
HETATM    6  N3  UNL     1      29.078  36.909  18.870  1.00  0.00    -0.361 N 
ATOM      7  H3  UNL     1      28.904  36.930  19.875  1.00  0.00     0.162 HD
ENDROOT
BRANCH   1   8
HETATM    8  N1  UNL     1      29.382  34.445  18.566  1.00  0.00    -0.358 N 
ATOM      9  H1  UNL     1      30.160  33.797  18.449  1.00  0.00     0.163 HD
BRANCH   8  10
HETATM   10  C4  UNL     1      28.162  33.989  19.210  1.00  0.00     0.084 C 
HETATM   11  C3  UNL     1      27.761  32.619  18.761  1.00  0.00     0.025 C 
HETATM   12  C2  UNL     1      27.703  31.780  20.027  1.00  0.00     0.002 C 
HETATM   13  C1  UNL     1      28.824  32.438  20.841  1.00  0.00     0.002 C 
HETATM   14  C8  UNL     1      28.410  33.910  20.701  1.00  0.00     0.025 C 
ENDBRANCH   8  10
ENDBRANCH   1   8
TORSDOF 2
ENDMDL
MODEL 5
REMARK VINA RESULT: -4.050169459      0.816      1.784
REMARK  2 active torsions:
REMARK  status: ('A' for Active; 'I' for Inactive)
REMARK    1  A    between atoms: C4_4  and  N1_5 
REMARK    2  A    between atoms: N1_5  and  C5_7 
ROOT
HETATM    1  C5  UNL     1      29.470  36.255  18.373  1.00  0.00     0.171 C 
HETATM    2  N2  UNL     1      30.083  35.968  17.275  1.00  0.00    -0.361 N 
ATOM      3  H2  UNL     1      30.445  35.044  17.041  1.00  0.00     0.162 HD
HETATM    4  C6  UNL     1      30.190  37.129  16.419  1.00  0.00     0.142 C 
HETATM    5  C7  UNL     1      29.152  38.059  16.987  1.00  0.00     0.142 C 
HETATM    6  N3  UNL     1      29.099  37.634  18.369  1.00  0.00    -0.361 N 
ATOM      7  H3  UNL     1      28.847  38.205  19.176  1.00  0.00     0.162 HD
ENDROOT
BRANCH   1   8
HETATM    8  N1  UNL     1      29.167  35.389  19.467  1.00  0.00    -0.358 N 
ATOM      9  H1  UNL     1      29.048  35.782  20.400  1.00  0.00     0.163 HD
BRANCH   8  10
HETATM   10  C4  UNL     1      29.026  33.956  19.271  1.00  0.00     0.084 C 
HETATM   11  C3  UNL     1      28.941  33.212  20.566  1.00  0.00     0.025 C 
HETATM   12  C2  UNL     1      27.620  32.463  20.515  1.00  0.00     0.002 C 
HETATM   13  C1  UNL     1      26.776  33.454  19.705  1.00  0.00     0.002 C 
HETATM   14  C8  UNL     1      27.731  33.701  18.529  1.00  0.00     0.025 C 
ENDBRANCH   8  10
ENDBRANCH   1   8
TORSDOF 2
ENDMDL
