MODEL 1
REMARK VINA RESULT: -8.365265502      0.000      0.000
REMARK  8 active torsions:
REMARK  status: ('A' for Active; 'I' for Inactive)
REMARK    1  A    between atoms: C2_2  and  O2_4 
REMARK    2  A    between atoms: O2_4  and  C3_5 
REMARK    3  A    between atoms: C5_7  and  C6_8 
REMARK    4  A    between atoms: C6_8  and  O3_9 
REMARK    5  A    between atoms: C13_18  and  C14_19 
REMARK    6  A    between atoms: C16_21  and  C17_22 
REMARK    7  A    between atoms: C17_22  and  O5_24 
REMARK    8  A    between atoms: C17_22  and  C19_26 
ROOT
HETATM    1  C3  UNL     1       8.206  55.851   0.970  1.00  0.00     0.164 C 
HETATM    2  C4  UNL     1       8.384  57.144   0.248  1.00  0.00     0.012 C 
HETATM    3  C5  UNL     1       7.597  58.204   0.352  1.00  0.00    -0.046 C 
HETATM    4  C7  UNL     1       6.448  58.182   1.223  1.00  0.00     0.099 C 
HETATM    5  C8  UNL     1       5.182  58.753   0.767  1.00  0.00     0.164 C 
HETATM    6  O4  UNL     1       4.863  59.639  -0.042  1.00  0.00    -0.292 OA
HETATM    7  C9  UNL     1       4.192  57.976   1.559  1.00  0.00    -0.019 C 
HETATM    8  C10 UNL     1       2.835  58.504   1.947  1.00  0.00     0.052 C 
HETATM    9  C11 UNL     1       4.705  56.791   1.837  1.00  0.00    -0.010 C 
HETATM   10  C12 UNL     1       6.017  56.702   1.273  1.00  0.00     0.035 C 
HETATM   11  C13 UNL     1       7.116  56.039   2.022  1.00  0.00     0.056 C 
ENDROOT
BRANCH  11  12
HETATM   12  C14 UNL     1       6.754  54.803   2.704  1.00  0.00    -0.077 C 
HETATM   13  C15 UNL     1       6.555  54.758   4.200  1.00  0.00     0.044 C 
HETATM   14  C16 UNL     1       6.595  53.686   2.002  1.00  0.00     0.013 C 
BRANCH  14  15
HETATM   15  C17 UNL     1       6.232  52.384   2.575  1.00  0.00     0.075 C 
HETATM   16  C18 UNL     1       5.024  51.755   1.932  1.00  0.00     0.051 C 
BRANCH  15  17
HETATM   17  O5  UNL     1       6.030  52.411   3.961  1.00  0.00    -0.386 OA
ATOM     18  H5  UNL     1       5.367  51.802   4.264  1.00  0.00     0.211 HD
ENDBRANCH  15  17
BRANCH  15  19
HETATM   19  C19 UNL     1       7.390  51.429   2.363  1.00  0.00     0.015 C 
HETATM   20  C20 UNL     1       8.495  51.688   3.368  1.00  0.00     0.013 C 
HETATM   21  C21 UNL     1       6.937  49.994   2.373  1.00  0.00     0.013 C 
ENDBRANCH  15  19
ENDBRANCH  14  15
ENDBRANCH  11  12
BRANCH   1  22
HETATM   22  O2  UNL     1       9.422  55.425   1.536  1.00  0.00    -0.312 OA
BRANCH  22  23
HETATM   23  C2  UNL     1      10.329  54.726   0.751  1.00  0.00     0.255 C 
HETATM   24  C1  UNL     1      10.925  53.430   1.184  1.00  0.00     0.126 C 
HETATM   25  O1  UNL     1      10.695  55.151  -0.376  1.00  0.00    -0.266 OA
ENDBRANCH  22  23
ENDBRANCH   1  22
BRANCH   3  26
HETATM   26  C6  UNL     1       7.927  59.407  -0.443  1.00  0.00     0.199 C 
BRANCH  26  27
HETATM   27  O3  UNL     1       7.560  60.586   0.242  1.00  0.00    -0.397 OA
ATOM     28  H3  UNL     1       7.131  61.201  -0.341  1.00  0.00     0.209 HD
ENDBRANCH  26  27
ENDBRANCH   3  26
TORSDOF 8
ENDMDL
MODEL 2
REMARK VINA RESULT: -8.290802314      1.987      5.302
REMARK  8 active torsions:
REMARK  status: ('A' for Active; 'I' for Inactive)
REMARK    1  A    between atoms: C2_2  and  O2_4 
REMARK    2  A    between atoms: O2_4  and  C3_5 
REMARK    3  A    between atoms: C5_7  and  C6_8 
REMARK    4  A    between atoms: C6_8  and  O3_9 
REMARK    5  A    between atoms: C13_18  and  C14_19 
REMARK    6  A    between atoms: C16_21  and  C17_22 
REMARK    7  A    between atoms: C17_22  and  O5_24 
REMARK    8  A    between atoms: C17_22  and  C19_26 
ROOT
HETATM    1  C3  UNL     1       6.417  54.930   1.981  1.00  0.00     0.164 C 
HETATM    2  C4  UNL     1       4.954  55.076   2.235  1.00  0.00     0.012 C 
HETATM    3  C5  UNL     1       4.192  56.076   1.822  1.00  0.00    -0.046 C 
HETATM    4  C7  UNL     1       4.755  57.157   1.050  1.00  0.00     0.099 C 
HETATM    5  C8  UNL     1       4.367  58.535   1.343  1.00  0.00     0.164 C 
HETATM    6  O4  UNL     1       3.361  59.077   1.832  1.00  0.00    -0.292 OA
HETATM    7  C9  UNL     1       5.562  59.295   0.887  1.00  0.00    -0.019 C 
HETATM    8  C10 UNL     1       5.509  60.720   0.400  1.00  0.00     0.052 C 
HETATM    9  C11 UNL     1       6.624  58.518   0.990  1.00  0.00    -0.010 C 
HETATM   10  C12 UNL     1       6.228  57.242   1.502  1.00  0.00     0.035 C 
HETATM   11  C13 UNL     1       6.833  55.994   0.968  1.00  0.00     0.056 C 
ENDROOT
BRANCH  11  12
HETATM   12  C14 UNL     1       8.272  56.042   0.741  1.00  0.00    -0.077 C 
HETATM   13  C15 UNL     1       9.248  55.519   1.766  1.00  0.00     0.044 C 
HETATM   14  C16 UNL     1       8.743  56.559  -0.390  1.00  0.00     0.013 C 
BRANCH  14  15
HETATM   15  C17 UNL     1      10.167  56.662  -0.730  1.00  0.00     0.075 C 
HETATM   16  C18 UNL     1      10.758  55.378  -1.252  1.00  0.00     0.051 C 
BRANCH  15  17
HETATM   17  O5  UNL     1      10.970  57.122   0.322  1.00  0.00    -0.386 OA
ATOM     18  H5  UNL     1      10.715  56.787   1.173  1.00  0.00     0.211 HD
ENDBRANCH  15  17
BRANCH  15  19
HETATM   19  C19 UNL     1      10.322  57.696  -1.828  1.00  0.00     0.015 C 
HETATM   20  C20 UNL     1       9.501  58.934  -1.524  1.00  0.00     0.013 C 
HETATM   21  C21 UNL     1      11.769  58.021  -2.085  1.00  0.00     0.013 C 
ENDBRANCH  15  19
ENDBRANCH  14  15
ENDBRANCH  11  12
BRANCH   1  22
HETATM   22  O2  UNL     1       6.719  53.629   1.538  1.00  0.00    -0.312 OA
BRANCH  22  23
HETATM   23  C2  UNL     1       6.860  52.610   2.471  1.00  0.00     0.255 C 
HETATM   24  C1  UNL     1       5.835  51.540   2.643  1.00  0.00     0.126 C 
HETATM   25  O1  UNL     1       7.866  52.535   3.224  1.00  0.00    -0.266 OA
ENDBRANCH  22  23
ENDBRANCH   1  22
BRANCH   3  26
HETATM   26  C6  UNL     1       2.754  56.057   2.168  1.00  0.00     0.199 C 
BRANCH  26  27
HETATM   27  O3  UNL     1       2.510  55.224   3.281  1.00  0.00    -0.397 OA
ATOM     28  H3  UNL     1       1.616  55.318   3.589  1.00  0.00     0.209 HD
ENDBRANCH  26  27
ENDBRANCH   3  26
TORSDOF 8
ENDMDL
MODEL 3
REMARK VINA RESULT: -7.913999085      1.626      2.415
REMARK  8 active torsions:
REMARK  status: ('A' for Active; 'I' for Inactive)
REMARK    1  A    between atoms: C2_2  and  O2_4 
REMARK    2  A    between atoms: O2_4  and  C3_5 
REMARK    3  A    between atoms: C5_7  and  C6_8 
REMARK    4  A    between atoms: C6_8  and  O3_9 
REMARK    5  A    between atoms: C13_18  and  C14_19 
REMARK    6  A    between atoms: C16_21  and  C17_22 
REMARK    7  A    between atoms: C17_22  and  O5_24 
REMARK    8  A    between atoms: C17_22  and  C19_26 
ROOT
HETATM    1  C3  UNL     1       9.347  55.012   0.935  1.00  0.00     0.164 C 
HETATM    2  C4  UNL     1      10.193  55.877   0.061  1.00  0.00     0.012 C 
HETATM    3  C5  UNL     1       9.994  57.163  -0.182  1.00  0.00    -0.046 C 
HETATM    4  C7  UNL     1       8.882  57.860   0.417  1.00  0.00     0.099 C 
HETATM    5  C8  UNL     1       8.096  58.794  -0.385  1.00  0.00     0.164 C 
HETATM    6  O4  UNL     1       8.324  59.501  -1.380  1.00  0.00    -0.292 OA
HETATM    7  C9  UNL     1       6.774  58.748   0.297  1.00  0.00    -0.019 C 
HETATM    8  C10 UNL     1       5.794  59.893   0.295  1.00  0.00     0.052 C 
HETATM    9  C11 UNL     1       6.633  57.568   0.871  1.00  0.00    -0.010 C 
HETATM   10  C12 UNL     1       7.800  56.779   0.621  1.00  0.00     0.035 C 
HETATM   11  C13 UNL     1       8.366  55.910   1.686  1.00  0.00     0.056 C 
ENDROOT
BRANCH  11  12
HETATM   12  C14 UNL     1       7.390  55.166   2.472  1.00  0.00    -0.077 C 
HETATM   13  C15 UNL     1       7.028  55.584   3.877  1.00  0.00     0.044 C 
HETATM   14  C16 UNL     1       6.803  54.094   1.949  1.00  0.00     0.013 C 
BRANCH  14  15
HETATM   15  C17 UNL     1       5.808  53.266   2.642  1.00  0.00     0.075 C 
HETATM   16  C18 UNL     1       4.405  53.810   2.559  1.00  0.00     0.051 C 
BRANCH  15  17
HETATM   17  O5  UNL     1       6.109  53.027   3.989  1.00  0.00    -0.386 OA
ATOM     18  H5  UNL     1       5.343  52.925   4.541  1.00  0.00     0.211 HD
ENDBRANCH  15  17
BRANCH  15  19
HETATM   19  C19 UNL     1       5.789  51.898   1.991  1.00  0.00     0.015 C 
HETATM   20  C20 UNL     1       6.919  51.034   2.515  1.00  0.00     0.013 C 
HETATM   21  C21 UNL     1       4.448  51.230   2.138  1.00  0.00     0.013 C 
ENDBRANCH  15  19
ENDBRANCH  14  15
ENDBRANCH  11  12
BRANCH   1  22
HETATM   22  O2  UNL     1      10.146  54.252   1.809  1.00  0.00    -0.312 OA
BRANCH  22  23
HETATM   23  C2  UNL     1      10.638  53.025   1.385  1.00  0.00     0.255 C 
HETATM   24  C1  UNL     1      10.360  51.758   2.121  1.00  0.00     0.126 C 
HETATM   25  O1  UNL     1      11.347  52.917   0.351  1.00  0.00    -0.266 OA
ENDBRANCH  22  23
ENDBRANCH   1  22
BRANCH   3  26
HETATM   26  C6  UNL     1      10.938  57.865  -1.078  1.00  0.00     0.199 C 
BRANCH  26  27
HETATM   27  O3  UNL     1      10.596  57.668  -2.433  1.00  0.00    -0.397 OA
ATOM     28  H3  UNL     1      11.360  57.442  -2.950  1.00  0.00     0.209 HD
ENDBRANCH  26  27
ENDBRANCH   3  26
TORSDOF 8
ENDMDL
MODEL 4
REMARK VINA RESULT: -7.908245264      0.877      1.409
REMARK  8 active torsions:
REMARK  status: ('A' for Active; 'I' for Inactive)
REMARK    1  A    between atoms: C2_2  and  O2_4 
REMARK    2  A    between atoms: O2_4  and  C3_5 
REMARK    3  A    between atoms: C5_7  and  C6_8 
REMARK    4  A    between atoms: C6_8  and  O3_9 
REMARK    5  A    between atoms: C13_18  and  C14_19 
REMARK    6  A    between atoms: C16_21  and  C17_22 
REMARK    7  A    between atoms: C17_22  and  O5_24 
REMARK    8  A    between atoms: C17_22  and  C19_26 
ROOT
HETATM    1  C3  UNL     1       8.642  55.869   0.944  1.00  0.00     0.164 C 
HETATM    2  C4  UNL     1       8.663  57.183   0.236  1.00  0.00     0.012 C 
HETATM    3  C5  UNL     1       7.753  58.137   0.348  1.00  0.00    -0.046 C 
HETATM    4  C7  UNL     1       6.613  57.967   1.215  1.00  0.00     0.099 C 
HETATM    5  C8  UNL     1       5.288  58.385   0.760  1.00  0.00     0.164 C 
HETATM    6  O4  UNL     1       4.865  59.234  -0.041  1.00  0.00    -0.292 OA
HETATM    7  C9  UNL     1       4.397  57.484   1.540  1.00  0.00    -0.019 C 
HETATM    8  C10 UNL     1       2.985  57.839   1.929  1.00  0.00     0.052 C 
HETATM    9  C11 UNL     1       5.050  56.368   1.808  1.00  0.00    -0.010 C 
HETATM   10  C12 UNL     1       6.364  56.444   1.247  1.00  0.00     0.035 C 
HETATM   11  C13 UNL     1       7.534  55.912   1.994  1.00  0.00     0.056 C 
ENDROOT
BRANCH  11  12
HETATM   12  C14 UNL     1       7.323  54.634   2.661  1.00  0.00    -0.077 C 
HETATM   13  C15 UNL     1       6.956  54.561   4.123  1.00  0.00     0.044 C 
HETATM   14  C16 UNL     1       7.458  53.503   1.976  1.00  0.00     0.013 C 
BRANCH  14  15
HETATM   15  C17 UNL     1       7.272  52.160   2.537  1.00  0.00     0.075 C 
HETATM   16  C18 UNL     1       8.205  51.846   3.677  1.00  0.00     0.051 C 
BRANCH  15  17
HETATM   17  O5  UNL     1       7.372  51.131   1.591  1.00  0.00    -0.386 OA
ATOM     18  H5  UNL     1       6.842  51.270   0.815  1.00  0.00     0.211 HD
ENDBRANCH  15  17
BRANCH  15  19
HETATM   19  C19 UNL     1       5.862  52.060   3.083  1.00  0.00     0.015 C 
HETATM   20  C20 UNL     1       4.840  52.253   1.979  1.00  0.00     0.013 C 
HETATM   21  C21 UNL     1       5.647  50.777   3.838  1.00  0.00     0.013 C 
ENDBRANCH  15  19
ENDBRANCH  14  15
ENDBRANCH  11  12
BRANCH   1  22
HETATM   22  O2  UNL     1       9.900  55.588   1.510  1.00  0.00    -0.312 OA
BRANCH  22  23
HETATM   23  C2  UNL     1      10.655  54.542   0.999  1.00  0.00     0.255 C 
HETATM   24  C1  UNL     1      11.131  53.413   1.849  1.00  0.00     0.126 C 
HETATM   25  O1  UNL     1      10.979  54.490  -0.216  1.00  0.00    -0.266 OA
ENDBRANCH  22  23
ENDBRANCH   1  22
BRANCH   3  26
HETATM   26  C6  UNL     1       7.935  59.380  -0.432  1.00  0.00     0.199 C 
BRANCH  26  27
HETATM   27  O3  UNL     1       7.546  60.513   0.315  1.00  0.00    -0.397 OA
ATOM     28  H3  UNL     1       6.680  60.809   0.061  1.00  0.00     0.209 HD
ENDBRANCH  26  27
ENDBRANCH   3  26
TORSDOF 8
ENDMDL
MODEL 5
REMARK VINA RESULT: -7.621420877      1.560      4.417
REMARK  8 active torsions:
REMARK  status: ('A' for Active; 'I' for Inactive)
REMARK    1  A    between atoms: C2_2  and  O2_4 
REMARK    2  A    between atoms: O2_4  and  C3_5 
REMARK    3  A    between atoms: C5_7  and  C6_8 
REMARK    4  A    between atoms: C6_8  and  O3_9 
REMARK    5  A    between atoms: C13_18  and  C14_19 
REMARK    6  A    between atoms: C16_21  and  C17_22 
REMARK    7  A    between atoms: C17_22  and  O5_24 
REMARK    8  A    between atoms: C17_22  and  C19_26 
ROOT
HETATM    1  C3  UNL     1       5.657  56.608   1.589  1.00  0.00     0.164 C 
HETATM    2  C4  UNL     1       6.396  57.663   0.835  1.00  0.00     0.012 C 
HETATM    3  C5  UNL     1       7.593  57.527   0.286  1.00  0.00    -0.046 C 
HETATM    4  C7  UNL     1       8.307  56.278   0.381  1.00  0.00     0.099 C 
HETATM    5  C8  UNL     1       9.739  56.281   0.673  1.00  0.00     0.164 C 
HETATM    6  O4  UNL     1      10.668  57.084   0.486  1.00  0.00    -0.292 OA
HETATM    7  C9  UNL     1       9.922  54.960   1.330  1.00  0.00    -0.019 C 
HETATM    8  C10 UNL     1      11.216  54.187   1.304  1.00  0.00     0.052 C 
HETATM    9  C11 UNL     1       8.789  54.614   1.915  1.00  0.00    -0.010 C 
HETATM   10  C12 UNL     1       7.815  55.640   1.697  1.00  0.00     0.035 C 
HETATM   11  C13 UNL     1       6.400  55.287   1.411  1.00  0.00     0.056 C 
ENDROOT
BRANCH  11  12
HETATM   12  C14 UNL     1       5.849  54.203   2.216  1.00  0.00    -0.077 C 
HETATM   13  C15 UNL     1       5.160  54.473   3.531  1.00  0.00     0.044 C 
HETATM   14  C16 UNL     1       5.954  52.949   1.791  1.00  0.00     0.013 C 
BRANCH  14  15
HETATM   15  C17 UNL     1       5.441  51.778   2.511  1.00  0.00     0.075 C 
HETATM   16  C18 UNL     1       4.145  51.246   1.956  1.00  0.00     0.051 C 
BRANCH  15  17
HETATM   17  O5  UNL     1       5.278  51.985   3.887  1.00  0.00    -0.386 OA
ATOM     18  H5  UNL     1       4.392  51.838   4.196  1.00  0.00     0.211 HD
ENDBRANCH  15  17
BRANCH  15  19
HETATM   19  C19 UNL     1       6.459  50.661   2.396  1.00  0.00     0.015 C 
HETATM   20  C20 UNL     1       7.771  51.058   3.043  1.00  0.00     0.013 C 
HETATM   21  C21 UNL     1       5.926  49.363   2.941  1.00  0.00     0.013 C 
ENDBRANCH  15  19
ENDBRANCH  14  15
ENDBRANCH  11  12
BRANCH   1  22
HETATM   22  O2  UNL     1       4.320  56.528   1.153  1.00  0.00    -0.312 OA
BRANCH  22  23
HETATM   23  C2  UNL     1       3.310  57.018   1.970  1.00  0.00     0.255 C 
HETATM   24  C1  UNL     1       3.155  58.472   2.260  1.00  0.00     0.126 C 
HETATM   25  O1  UNL     1       2.467  56.255   2.510  1.00  0.00    -0.266 OA
ENDBRANCH  22  23
ENDBRANCH   1  22
BRANCH   3  26
HETATM   26  C6  UNL     1       8.177  58.684  -0.427  1.00  0.00     0.199 C 
BRANCH  26  27
HETATM   27  O3  UNL     1       8.078  59.861   0.346  1.00  0.00    -0.397 OA
ATOM     28  H3  UNL     1       7.778  60.593  -0.180  1.00  0.00     0.209 HD
ENDBRANCH  26  27
ENDBRANCH   3  26
TORSDOF 8
ENDMDL
