MODEL 1
REMARK VINA RESULT: -8.312708400      0.000      0.000
REMARK  14 active torsions:
REMARK  status: ('A' for Active; 'I' for Inactive)
REMARK    1  A    between atoms: C3_5  and  N2_6 
REMARK    2  A    between atoms: N2_6  and  C4_8 
REMARK    3  A    between atoms: C4_8  and  C5_9 
REMARK    4  A    between atoms: C4_8  and  C6_12 
REMARK    5  A    between atoms: C5_9  and  O1_10 
REMARK    6  A    between atoms: C6_12  and  O2_13 
REMARK    7  A    between atoms: C7_17  and  N4_18 
REMARK    8  A    between atoms: N4_18  and  C8_20 
REMARK    9  A    between atoms: C11_23  and  N5_24 
REMARK       I    between atoms: N5_24  and  C12_26 
REMARK   10  A    between atoms: C12_26  and  C13_28 
REMARK   11  A    between atoms: C13_28  and  C14_29 
REMARK   12  A    between atoms: C13_28  and  N9_39 
REMARK   13  A    between atoms: C15_32  and  N7_33 
REMARK   14  A    between atoms: C18_45  and  O5_46 
ROOT
HETATM    1  C8  UNL     1       3.044 -10.728  -3.976  1.00  0.00     0.052 A 
HETATM    2  C9  UNL     1       3.921 -11.783  -3.918  1.00  0.00     0.032 A 
HETATM    3  C10 UNL     1       5.243 -11.562  -4.269  1.00  0.00     0.035 A 
HETATM    4  C11 UNL     1       5.696 -10.332  -4.667  1.00  0.00     0.068 A 
HETATM    5  C18 UNL     1       4.771  -9.279  -4.713  1.00  0.00     0.094 A 
HETATM    6  C19 UNL     1       3.449  -9.468  -4.370  1.00  0.00     0.069 A 
ENDROOT
BRANCH   1   7
HETATM    7  N4  UNL     1       1.704 -10.932  -3.624  1.00  0.00    -0.191 N 
ATOM      8  H4  UNL     1       1.479 -10.987  -2.631  1.00  0.00     0.184 HD
BRANCH   7   9
HETATM    9  C7  UNL     1       0.740 -11.056  -4.461  1.00  0.00     0.698 A 
HETATM   10  N3  UNL     1       0.073  -9.982  -4.916  1.00  0.00    -0.022 N 
HETATM   11  C3  UNL     1      -0.942 -10.073  -5.791  1.00  0.00     0.694 A 
ATOM     12  H3  UNL     1       0.348  -9.059  -4.583  1.00  0.00     0.203 HD
HETATM   13  N1  UNL     1      -1.274 -11.339  -6.208  1.00  0.00    -0.180 N 
HETATM   14  C2  UNL     1      -0.628 -12.425  -5.773  1.00  0.00     0.109 A 
ATOM     15  H1  UNL     1      -2.039 -11.455  -6.873  1.00  0.00     0.185 HD
HETATM   16  C1  UNL     1      -0.995 -13.804  -6.231  1.00  0.00     0.090 C 
HETATM   17  N12 UNL     1       0.382 -12.266  -4.894  1.00  0.00    -0.180 N 
ATOM     18  H12 UNL     1       0.882 -13.087  -4.553  1.00  0.00     0.185 HD
BRANCH  11  19
HETATM   19  N2  UNL     1      -1.594  -9.071  -6.242  1.00  0.00    -0.217 N 
ATOM     20  H2  UNL     1      -1.617  -8.920  -7.249  1.00  0.00     0.178 HD
BRANCH  19  21
HETATM   21  C4  UNL     1      -2.287  -8.156  -5.404  1.00  0.00     0.146 C 
BRANCH  21  22
HETATM   22  C5  UNL     1      -1.725  -6.739  -5.520  1.00  0.00     0.192 C 
BRANCH  22  23
HETATM   23  O1  UNL     1      -0.370  -6.822  -5.208  1.00  0.00    -0.399 OA
ATOM     24  H1  UNL     1      -0.028  -5.937  -5.250  1.00  0.00     0.209 HD
ENDBRANCH  22  23
ENDBRANCH  21  22
BRANCH  21  25
HETATM   25  C6  UNL     1      -3.755  -8.169  -5.778  1.00  0.00     0.192 C 
BRANCH  25  26
HETATM   26  O2  UNL     1      -4.376  -9.172  -5.072  1.00  0.00    -0.399 OA
ATOM     27  H2  UNL     1      -5.235  -8.865  -4.805  1.00  0.00     0.209 HD
ENDBRANCH  25  26
ENDBRANCH  21  25
ENDBRANCH  19  21
ENDBRANCH  11  19
ENDBRANCH   7   9
ENDBRANCH   1   7
BRANCH   5  28
HETATM   28  O5  UNL     1       5.221  -8.044  -5.112  1.00  0.00    -0.358 OA
ATOM     29  H5  UNL     1       5.212  -7.846  -6.042  1.00  0.00     0.217 HD
ENDBRANCH   5  28
BRANCH   4  30
HETATM   30  N5  UNL     1       7.032 -10.068  -5.031  1.00  0.00    -0.323 N 
HETATM   31  C12 UNL     1       7.748 -10.575  -6.111  1.00  0.00     0.255 C 
HETATM   32  O3  UNL     1       7.314 -11.369  -6.960  1.00  0.00    -0.270 OA
ATOM     33  H5  UNL     1       7.540  -9.423  -4.426  1.00  0.00     0.169 HD
BRANCH  31  34
HETATM   34  C13 UNL     1       9.186 -10.139  -6.296  1.00  0.00     0.275 C 
BRANCH  34  35
HETATM   35  C14 UNL     1       9.269  -8.705  -5.961  1.00  0.00     0.196 A 
HETATM   36  N6  UNL     1      10.177  -8.094  -5.171  1.00  0.00    -0.168 N 
HETATM   37  C15 UNL     1       9.912  -6.789  -5.120  1.00  0.00     0.698 A 
ATOM     38  H6  UNL     1      10.946  -8.558  -4.688  1.00  0.00     0.186 HD
HETATM   39  N8  UNL     1       8.824  -6.604  -5.894  1.00  0.00    -0.090 N 
HETATM   40  O4  UNL     1       8.464  -7.748  -6.380  1.00  0.00    -0.206 OA
ATOM     41  H8  UNL     1       8.362  -5.711  -6.068  1.00  0.00     0.213 HD
BRANCH  37  42
HETATM   42  N7  UNL     1      10.557  -5.869  -4.466  1.00  0.00    -0.233 N 
ATOM     43  H72 UNL     1      11.557  -5.860  -4.263  1.00  0.00     0.174 HD
ATOM     44  H71 UNL     1      10.181  -5.017  -4.051  1.00  0.00     0.174 HD
ENDBRANCH  37  42
ENDBRANCH  34  35
BRANCH  34  45
HETATM   45  N9  UNL     1      10.057 -10.955  -5.510  1.00  0.00    -0.264 N 
HETATM   46  C16 UNL     1       9.896 -12.224  -5.070  1.00  0.00     0.127 A 
HETATM   47  C17 UNL     1      11.005 -12.575  -4.355  1.00  0.00     0.123 A 
HETATM   48  N10 UNL     1      11.823 -11.508  -4.373  1.00  0.00    -0.294 N 
HETATM   49  N11 UNL     1      11.240 -10.549  -5.069  1.00  0.00    -0.020 NA
ATOM     50  H10 UNL     1      12.738 -11.449  -3.925  1.00  0.00     0.183 HD
ENDBRANCH  34  45
ENDBRANCH  31  34
ENDBRANCH   4  30
TORSDOF 14
ENDMDL
MODEL 2
REMARK VINA RESULT: -8.109402065      2.402     10.624
REMARK  14 active torsions:
REMARK  status: ('A' for Active; 'I' for Inactive)
REMARK    1  A    between atoms: C3_5  and  N2_6 
REMARK    2  A    between atoms: N2_6  and  C4_8 
REMARK    3  A    between atoms: C4_8  and  C5_9 
REMARK    4  A    between atoms: C4_8  and  C6_12 
REMARK    5  A    between atoms: C5_9  and  O1_10 
REMARK    6  A    between atoms: C6_12  and  O2_13 
REMARK    7  A    between atoms: C7_17  and  N4_18 
REMARK    8  A    between atoms: N4_18  and  C8_20 
REMARK    9  A    between atoms: C11_23  and  N5_24 
REMARK       I    between atoms: N5_24  and  C12_26 
REMARK   10  A    between atoms: C12_26  and  C13_28 
REMARK   11  A    between atoms: C13_28  and  C14_29 
REMARK   12  A    between atoms: C13_28  and  N9_39 
REMARK   13  A    between atoms: C15_32  and  N7_33 
REMARK   14  A    between atoms: C18_45  and  O5_46 
ROOT
HETATM    1  C8  UNL     1       6.554 -10.996  -6.429  1.00  0.00     0.052 A 
HETATM    2  C9  UNL     1       6.147 -10.146  -5.429  1.00  0.00     0.032 A 
HETATM    3  C10 UNL     1       4.836 -10.225  -4.988  1.00  0.00     0.035 A 
HETATM    4  C11 UNL     1       3.941 -11.118  -5.516  1.00  0.00     0.068 A 
HETATM    5  C18 UNL     1       4.393 -11.969  -6.535  1.00  0.00     0.094 A 
HETATM    6  C19 UNL     1       5.692 -11.915  -6.994  1.00  0.00     0.069 A 
ENDROOT
BRANCH   1   7
HETATM    7  N4  UNL     1       7.875 -10.931  -6.886  1.00  0.00    -0.191 N 
ATOM      8  H4  UNL     1       8.040 -11.095  -7.880  1.00  0.00     0.184 HD
BRANCH   7   9
HETATM    9  C7  UNL     1       8.893 -10.681  -6.147  1.00  0.00     0.698 A 
HETATM   10  N3  UNL     1       9.610 -11.673  -5.593  1.00  0.00    -0.022 N 
HETATM   11  C3  UNL     1      10.681 -11.450  -4.814  1.00  0.00     0.694 A 
ATOM     12  H3  UNL     1       9.329 -12.637  -5.772  1.00  0.00     0.203 HD
HETATM   13  N1  UNL     1      11.017 -10.134  -4.605  1.00  0.00    -0.180 N 
HETATM   14  C2  UNL     1      10.323  -9.127  -5.143  1.00  0.00     0.109 A 
ATOM     15  H1  UNL     1      11.824  -9.918  -4.019  1.00  0.00     0.185 HD
HETATM   16  C1  UNL     1      10.694  -7.694  -4.911  1.00  0.00     0.090 C 
HETATM   17  N12 UNL     1       9.257  -9.419  -5.915  1.00  0.00    -0.180 N 
ATOM     18  H12 UNL     1       8.718  -8.659  -6.331  1.00  0.00     0.185 HD
BRANCH  11  19
HETATM   19  N2  UNL     1      11.381 -12.372  -4.275  1.00  0.00    -0.217 N 
ATOM     20  H2  UNL     1      11.999 -12.124  -3.503  1.00  0.00     0.178 HD
BRANCH  19  21
HETATM   21  C4  UNL     1      11.340 -13.727  -4.701  1.00  0.00     0.146 C 
BRANCH  21  22
HETATM   22  C5  UNL     1      12.724 -14.243  -5.092  1.00  0.00     0.192 C 
BRANCH  22  23
HETATM   23  O1  UNL     1      13.572 -13.138  -5.104  1.00  0.00    -0.399 OA
ATOM     24  H1  UNL     1      14.382 -13.413  -4.690  1.00  0.00     0.209 HD
ENDBRANCH  22  23
ENDBRANCH  21  22
BRANCH  21  25
HETATM   25  C6  UNL     1      10.764 -14.572  -3.583  1.00  0.00     0.192 C 
BRANCH  25  26
HETATM   26  O2  UNL     1      11.698 -14.663  -2.578  1.00  0.00    -0.399 OA
ATOM     27  H2  UNL     1      11.362 -14.213  -1.812  1.00  0.00     0.209 HD
ENDBRANCH  25  26
ENDBRANCH  21  25
ENDBRANCH  19  21
ENDBRANCH  11  19
ENDBRANCH   7   9
ENDBRANCH   1   7
BRANCH   5  28
HETATM   28  O5  UNL     1       3.500 -12.866  -7.068  1.00  0.00    -0.358 OA
ATOM     29  H5  UNL     1       3.650 -13.791  -6.909  1.00  0.00     0.217 HD
ENDBRANCH   5  28
BRANCH   4  30
HETATM   30  N5  UNL     1       2.601 -11.228  -5.094  1.00  0.00    -0.323 N 
HETATM   31  C12 UNL     1       1.510 -10.453  -5.476  1.00  0.00     0.255 C 
HETATM   32  O3  UNL     1       1.539  -9.507  -6.278  1.00  0.00    -0.270 OA
ATOM     33  H5  UNL     1       2.405 -11.971  -4.423  1.00  0.00     0.169 HD
BRANCH  31  34
HETATM   34  C13 UNL     1       0.155 -10.767  -4.880  1.00  0.00     0.275 C 
BRANCH  34  35
HETATM   35  C14 UNL     1      -0.781  -9.709  -5.301  1.00  0.00     0.196 A 
HETATM   36  N6  UNL     1      -0.927  -8.477  -4.768  1.00  0.00    -0.168 N 
HETATM   37  C15 UNL     1      -1.877  -7.818  -5.431  1.00  0.00     0.698 A 
ATOM     38  H6  UNL     1      -0.394  -8.108  -3.980  1.00  0.00     0.186 HD
HETATM   39  N8  UNL     1      -2.315  -8.664  -6.384  1.00  0.00    -0.090 N 
HETATM   40  O4  UNL     1      -1.653  -9.772  -6.288  1.00  0.00    -0.206 OA
ATOM     41  H8  UNL     1      -3.046  -8.465  -7.067  1.00  0.00     0.213 HD
BRANCH  37  42
HETATM   42  N7  UNL     1      -2.306  -6.610  -5.217  1.00  0.00    -0.233 N 
ATOM     43  H72 UNL     1      -2.398  -5.868  -5.912  1.00  0.00     0.174 HD
ATOM     44  H71 UNL     1      -2.618  -6.204  -4.334  1.00  0.00     0.174 HD
ENDBRANCH  37  42
ENDBRANCH  34  35
BRANCH  34  45
HETATM   45  N9  UNL     1      -0.264 -12.079  -5.263  1.00  0.00    -0.264 N 
HETATM   46  C16 UNL     1      -1.309 -12.819  -4.825  1.00  0.00     0.127 A 
HETATM   47  C17 UNL     1      -1.299 -14.011  -5.490  1.00  0.00     0.123 A 
HETATM   48  N10 UNL     1      -0.243 -13.974  -6.323  1.00  0.00    -0.294 N 
HETATM   49  N11 UNL     1       0.363 -12.811  -6.173  1.00  0.00    -0.020 NA
ATOM     50  H10 UNL     1       0.041 -14.718  -6.961  1.00  0.00     0.183 HD
ENDBRANCH  34  45
ENDBRANCH  31  34
ENDBRANCH   4  30
TORSDOF 14
ENDMDL
MODEL 3
REMARK VINA RESULT: -8.037778892      2.716     10.494
REMARK  14 active torsions:
REMARK  status: ('A' for Active; 'I' for Inactive)
REMARK    1  A    between atoms: C3_5  and  N2_6 
REMARK    2  A    between atoms: N2_6  and  C4_8 
REMARK    3  A    between atoms: C4_8  and  C5_9 
REMARK    4  A    between atoms: C4_8  and  C6_12 
REMARK    5  A    between atoms: C5_9  and  O1_10 
REMARK    6  A    between atoms: C6_12  and  O2_13 
REMARK    7  A    between atoms: C7_17  and  N4_18 
REMARK    8  A    between atoms: N4_18  and  C8_20 
REMARK    9  A    between atoms: C11_23  and  N5_24 
REMARK       I    between atoms: N5_24  and  C12_26 
REMARK   10  A    between atoms: C12_26  and  C13_28 
REMARK   11  A    between atoms: C13_28  and  C14_29 
REMARK   12  A    between atoms: C13_28  and  N9_39 
REMARK   13  A    between atoms: C15_32  and  N7_33 
REMARK   14  A    between atoms: C18_45  and  O5_46 
ROOT
HETATM    1  C8  UNL     1       5.617 -11.261  -7.053  1.00  0.00     0.052 A 
HETATM    2  C9  UNL     1       4.776 -12.339  -6.919  1.00  0.00     0.032 A 
HETATM    3  C10 UNL     1       3.444 -12.103  -6.619  1.00  0.00     0.035 A 
HETATM    4  C11 UNL     1       2.946 -10.838  -6.453  1.00  0.00     0.068 A 
HETATM    5  C18 UNL     1       3.835  -9.763  -6.598  1.00  0.00     0.094 A 
HETATM    6  C19 UNL     1       5.166  -9.965  -6.897  1.00  0.00     0.069 A 
ENDROOT
BRANCH   1   7
HETATM    7  N4  UNL     1       6.966 -11.479  -7.357  1.00  0.00    -0.191 N 
ATOM      8  H4  UNL     1       7.213 -11.619  -8.336  1.00  0.00     0.184 HD
BRANCH   7   9
HETATM    9  C7  UNL     1       7.913 -11.517  -6.493  1.00  0.00     0.698 A 
HETATM   10  N3  UNL     1       8.233 -12.658  -5.861  1.00  0.00    -0.022 N 
HETATM   11  C3  UNL     1       9.218 -12.735  -4.951  1.00  0.00     0.694 A 
ATOM     12  H3  UNL     1       7.706 -13.503  -6.082  1.00  0.00     0.203 HD
HETATM   13  N1  UNL     1       9.896 -11.570  -4.689  1.00  0.00    -0.180 N 
HETATM   14  C2  UNL     1       9.600 -10.420  -5.302  1.00  0.00     0.109 A 
ATOM     15  H1  UNL     1      10.652 -11.583  -4.005  1.00  0.00     0.185 HD
HETATM   16  C1  UNL     1      10.344  -9.151  -5.012  1.00  0.00     0.090 C 
HETATM   17  N12 UNL     1       8.600 -10.409  -6.205  1.00  0.00    -0.180 N 
ATOM     18  H12 UNL     1       8.363  -9.538  -6.680  1.00  0.00     0.185 HD
BRANCH  11  19
HETATM   19  N2  UNL     1       9.545 -13.807  -4.336  1.00  0.00    -0.217 N 
ATOM     20  H2  UNL     1       8.816 -14.489  -4.129  1.00  0.00     0.178 HD
BRANCH  19  21
HETATM   21  C4  UNL     1      10.875 -14.091  -3.926  1.00  0.00     0.146 C 
BRANCH  21  22
HETATM   22  C5  UNL     1      10.927 -15.239  -2.918  1.00  0.00     0.192 C 
BRANCH  22  23
HETATM   23  O1  UNL     1      12.143 -15.126  -2.249  1.00  0.00    -0.399 OA
ATOM     24  H1  UNL     1      12.722 -15.778  -2.627  1.00  0.00     0.209 HD
ENDBRANCH  22  23
ENDBRANCH  21  22
BRANCH  21  25
HETATM   25  C6  UNL     1      11.699 -14.432  -5.150  1.00  0.00     0.192 C 
BRANCH  25  26
HETATM   26  O2  UNL     1      13.012 -14.110  -4.896  1.00  0.00    -0.399 OA
ATOM     27  H2  UNL     1      13.468 -14.897  -4.621  1.00  0.00     0.209 HD
ENDBRANCH  25  26
ENDBRANCH  21  25
ENDBRANCH  19  21
ENDBRANCH  11  19
ENDBRANCH   7   9
ENDBRANCH   1   7
BRANCH   5  28
HETATM   28  O5  UNL     1       3.340  -8.492  -6.433  1.00  0.00    -0.358 OA
ATOM     29  H5  UNL     1       3.961  -7.774  -6.396  1.00  0.00     0.217 HD
ENDBRANCH   5  28
BRANCH   4  30
HETATM   30  N5  UNL     1       1.598 -10.559  -6.148  1.00  0.00    -0.323 N 
HETATM   31  C12 UNL     1       0.978 -10.560  -4.902  1.00  0.00     0.255 C 
HETATM   32  O3  UNL     1       1.527 -10.816  -3.820  1.00  0.00    -0.270 OA
ATOM     33  H5  UNL     1       1.001 -10.326  -6.941  1.00  0.00     0.169 HD
BRANCH  31  34
HETATM   34  C13 UNL     1      -0.496 -10.224  -4.828  1.00  0.00     0.275 C 
BRANCH  34  35
HETATM   35  C14 UNL     1      -0.673  -8.852  -5.338  1.00  0.00     0.196 A 
HETATM   36  N6  UNL     1      -1.362  -7.842  -4.767  1.00  0.00    -0.168 N 
HETATM   37  C15 UNL     1      -1.282  -6.759  -5.541  1.00  0.00     0.698 A 
ATOM     38  H6  UNL     1      -1.865  -7.897  -3.882  1.00  0.00     0.186 HD
HETATM   39  N8  UNL     1      -0.530  -7.118  -6.600  1.00  0.00    -0.090 N 
HETATM   40  O4  UNL     1      -0.182  -8.357  -6.458  1.00  0.00    -0.206 OA
ATOM     41  H8  UNL     1      -0.278  -6.515  -7.383  1.00  0.00     0.213 HD
BRANCH  37  42
HETATM   42  N7  UNL     1      -1.813  -5.591  -5.333  1.00  0.00    -0.233 N 
ATOM     43  H72 UNL     1      -1.983  -5.156  -4.425  1.00  0.00     0.174 HD
ATOM     44  H71 UNL     1      -2.143  -4.922  -6.028  1.00  0.00     0.174 HD
ENDBRANCH  37  42
ENDBRANCH  34  35
BRANCH  34  45
HETATM   45  N9  UNL     1      -1.264 -11.196  -5.539  1.00  0.00    -0.264 N 
HETATM   46  C16 UNL     1      -2.486 -11.090  -6.110  1.00  0.00     0.127 A 
HETATM   47  C17 UNL     1      -2.802 -12.292  -6.675  1.00  0.00     0.123 A 
HETATM   48  N10 UNL     1      -1.762 -13.111  -6.436  1.00  0.00    -0.294 N 
HETATM   49  N11 UNL     1      -0.852 -12.438  -5.756  1.00  0.00    -0.020 NA
ATOM     50  H10 UNL     1      -1.689 -14.085  -6.730  1.00  0.00     0.183 HD
ENDBRANCH  34  45
ENDBRANCH  31  34
ENDBRANCH   4  30
TORSDOF 14
ENDMDL
MODEL 4
REMARK VINA RESULT: -8.007453494      3.973     10.267
REMARK  14 active torsions:
REMARK  status: ('A' for Active; 'I' for Inactive)
REMARK    1  A    between atoms: C3_5  and  N2_6 
REMARK    2  A    between atoms: N2_6  and  C4_8 
REMARK    3  A    between atoms: C4_8  and  C5_9 
REMARK    4  A    between atoms: C4_8  and  C6_12 
REMARK    5  A    between atoms: C5_9  and  O1_10 
REMARK    6  A    between atoms: C6_12  and  O2_13 
REMARK    7  A    between atoms: C7_17  and  N4_18 
REMARK    8  A    between atoms: N4_18  and  C8_20 
REMARK    9  A    between atoms: C11_23  and  N5_24 
REMARK       I    between atoms: N5_24  and  C12_26 
REMARK   10  A    between atoms: C12_26  and  C13_28 
REMARK   11  A    between atoms: C13_28  and  C14_29 
REMARK   12  A    between atoms: C13_28  and  N9_39 
REMARK   13  A    between atoms: C15_32  and  N7_33 
REMARK   14  A    between atoms: C18_45  and  O5_46 
ROOT
HETATM    1  C8  UNL     1      11.126 -13.247  -4.760  1.00  0.00     0.052 A 
HETATM    2  C9  UNL     1       9.930 -13.895  -4.950  1.00  0.00     0.032 A 
HETATM    3  C10 UNL     1       8.789 -13.133  -5.143  1.00  0.00     0.035 A 
HETATM    4  C11 UNL     1       8.819 -11.764  -5.148  1.00  0.00     0.068 A 
HETATM    5  C18 UNL     1      10.058 -11.137  -4.951  1.00  0.00     0.094 A 
HETATM    6  C19 UNL     1      11.211 -11.868  -4.757  1.00  0.00     0.069 A 
ENDROOT
BRANCH   1   7
HETATM    7  N4  UNL     1      12.289 -14.000  -4.565  1.00  0.00    -0.191 N 
ATOM      8  H4  UNL     1      13.145 -13.674  -5.014  1.00  0.00     0.184 HD
BRANCH   7   9
HETATM    9  C7  UNL     1      12.357 -15.072  -3.862  1.00  0.00     0.698 A 
HETATM   10  N3  UNL     1      11.604 -15.230  -2.762  1.00  0.00    -0.022 N 
HETATM   11  C3  UNL     1      11.649 -16.337  -2.002  1.00  0.00     0.694 A 
ATOM     12  H3  UNL     1      10.970 -14.478  -2.491  1.00  0.00     0.203 HD
HETATM   13  N1  UNL     1      12.518 -17.319  -2.410  1.00  0.00    -0.180 N 
HETATM   14  C2  UNL     1      13.279 -17.189  -3.500  1.00  0.00     0.109 A 
ATOM     15  H1  UNL     1      12.584 -18.177  -1.862  1.00  0.00     0.185 HD
HETATM   16  C1  UNL     1      14.226 -18.265  -3.940  1.00  0.00     0.090 C 
HETATM   17  N12 UNL     1      13.188 -16.053  -4.219  1.00  0.00    -0.180 N 
ATOM     18  H12 UNL     1      13.764 -15.941  -5.054  1.00  0.00     0.185 HD
BRANCH  11  19
HETATM   19  N2  UNL     1      10.944 -16.515  -0.951  1.00  0.00    -0.217 N 
ATOM     20  H2  UNL     1      11.423 -16.683  -0.068  1.00  0.00     0.178 HD
BRANCH  19  21
HETATM   21  C4  UNL     1       9.523 -16.490  -0.957  1.00  0.00     0.146 C 
BRANCH  21  22
HETATM   22  C5  UNL     1       8.938 -17.602  -1.827  1.00  0.00     0.192 C 
BRANCH  22  23
HETATM   23  O1  UNL     1       8.153 -18.391  -0.990  1.00  0.00    -0.399 OA
ATOM     24  H1  UNL     1       8.670 -19.159  -0.777  1.00  0.00     0.209 HD
ENDBRANCH  22  23
ENDBRANCH  21  22
BRANCH  21  25
HETATM   25  C6  UNL     1       9.028 -16.626   0.468  1.00  0.00     0.192 C 
BRANCH  25  26
HETATM   26  O2  UNL     1       8.579 -15.398   0.893  1.00  0.00    -0.399 OA
ATOM     27  H2  UNL     1       8.454 -15.432   1.835  1.00  0.00     0.209 HD
ENDBRANCH  25  26
ENDBRANCH  21  25
ENDBRANCH  19  21
ENDBRANCH  11  19
ENDBRANCH   7   9
ENDBRANCH   1   7
BRANCH   5  28
HETATM   28  O5  UNL     1      10.093  -9.764  -4.956  1.00  0.00    -0.358 OA
ATOM     29  H5  UNL     1       9.431  -9.301  -4.456  1.00  0.00     0.217 HD
ENDBRANCH   5  28
BRANCH   4  30
HETATM   30  N5  UNL     1       7.680 -10.955  -5.341  1.00  0.00    -0.323 N 
HETATM   31  C12 UNL     1       6.838 -10.900  -6.447  1.00  0.00     0.255 C 
HETATM   32  O3  UNL     1       6.955 -11.576  -7.480  1.00  0.00    -0.270 OA
ATOM     33  H5  UNL     1       7.443 -10.330  -4.570  1.00  0.00     0.169 HD
BRANCH  31  34
HETATM   34  C13 UNL     1       5.667  -9.942  -6.418  1.00  0.00     0.275 C 
BRANCH  34  35
HETATM   35  C14 UNL     1       4.767 -10.361  -5.328  1.00  0.00     0.196 A 
HETATM   36  N6  UNL     1       3.417 -10.350  -5.323  1.00  0.00    -0.168 N 
HETATM   37  C15 UNL     1       2.975 -10.807  -4.151  1.00  0.00     0.698 A 
ATOM     38  H6  UNL     1       2.827 -10.041  -6.095  1.00  0.00     0.186 HD
HETATM   39  N8  UNL     1       4.077 -11.102  -3.432  1.00  0.00    -0.090 N 
HETATM   40  O4  UNL     1       5.121 -10.831  -4.147  1.00  0.00    -0.206 OA
ATOM     41  H8  UNL     1       4.086 -11.475  -2.483  1.00  0.00     0.213 HD
BRANCH  37  42
HETATM   42  N7  UNL     1       1.742 -10.947  -3.764  1.00  0.00    -0.233 N 
ATOM     43  H72 UNL     1       0.962 -10.334  -3.998  1.00  0.00     0.174 HD
ATOM     44  H71 UNL     1       1.353 -11.679  -3.171  1.00  0.00     0.174 HD
ENDBRANCH  37  42
ENDBRANCH  34  35
BRANCH  34  45
HETATM   45  N9  UNL     1       6.130  -8.596  -6.284  1.00  0.00    -0.264 N 
HETATM   46  C16 UNL     1       5.431  -7.451  -6.109  1.00  0.00     0.127 A 
HETATM   47  C17 UNL     1       6.317  -6.415  -6.035  1.00  0.00     0.123 A 
HETATM   48  N10 UNL     1       7.543  -6.951  -6.168  1.00  0.00    -0.294 N 
HETATM   49  N11 UNL     1       7.411  -8.256  -6.315  1.00  0.00    -0.020 NA
ATOM     50  H10 UNL     1       8.424  -6.437  -6.157  1.00  0.00     0.183 HD
ENDBRANCH  34  45
ENDBRANCH  31  34
ENDBRANCH   4  30
TORSDOF 14
ENDMDL
MODEL 5
REMARK VINA RESULT: -7.981582970      0.842      1.299
REMARK  14 active torsions:
REMARK  status: ('A' for Active; 'I' for Inactive)
REMARK    1  A    between atoms: C3_5  and  N2_6 
REMARK    2  A    between atoms: N2_6  and  C4_8 
REMARK    3  A    between atoms: C4_8  and  C5_9 
REMARK    4  A    between atoms: C4_8  and  C6_12 
REMARK    5  A    between atoms: C5_9  and  O1_10 
REMARK    6  A    between atoms: C6_12  and  O2_13 
REMARK    7  A    between atoms: C7_17  and  N4_18 
REMARK    8  A    between atoms: N4_18  and  C8_20 
REMARK    9  A    between atoms: C11_23  and  N5_24 
REMARK       I    between atoms: N5_24  and  C12_26 
REMARK   10  A    between atoms: C12_26  and  C13_28 
REMARK   11  A    between atoms: C13_28  and  C14_29 
REMARK   12  A    between atoms: C13_28  and  N9_39 
REMARK   13  A    between atoms: C15_32  and  N7_33 
REMARK   14  A    between atoms: C18_45  and  O5_46 
ROOT
HETATM    1  C8  UNL     1       3.119 -11.232  -3.993  1.00  0.00     0.052 A 
HETATM    2  C9  UNL     1       3.441  -9.909  -4.179  1.00  0.00     0.032 A 
HETATM    3  C10 UNL     1       4.746  -9.590  -4.519  1.00  0.00     0.035 A 
HETATM    4  C11 UNL     1       5.715 -10.546  -4.674  1.00  0.00     0.068 A 
HETATM    5  C18 UNL     1       5.347 -11.885  -4.476  1.00  0.00     0.094 A 
HETATM    6  C19 UNL     1       4.057 -12.234  -4.138  1.00  0.00     0.069 A 
ENDROOT
BRANCH   1   7
HETATM    7  N4  UNL     1       1.805 -11.574  -3.650  1.00  0.00    -0.191 N 
ATOM      8  H4  UNL     1       1.594 -11.706  -2.660  1.00  0.00     0.184 HD
BRANCH   7   9
HETATM    9  C7  UNL     1       0.848 -11.734  -4.489  1.00  0.00     0.698 A 
HETATM   10  N3  UNL     1       0.166 -10.683  -4.974  1.00  0.00    -0.022 N 
HETATM   11  C3  UNL     1      -0.841 -10.812  -5.852  1.00  0.00     0.694 A 
ATOM     12  H3  UNL     1       0.424  -9.747  -4.661  1.00  0.00     0.203 HD
HETATM   13  N1  UNL     1      -1.149 -12.093  -6.241  1.00  0.00    -0.180 N 
HETATM   14  C2  UNL     1      -0.488 -13.157  -5.776  1.00  0.00     0.109 A 
ATOM     15  H1  UNL     1      -1.907 -12.237  -6.908  1.00  0.00     0.185 HD
HETATM   16  C1  UNL     1      -0.829 -14.553  -6.203  1.00  0.00     0.090 C 
HETATM   17  N12 UNL     1       0.513 -12.960  -4.895  1.00  0.00    -0.180 N 
ATOM     18  H12 UNL     1       1.025 -13.764  -4.531  1.00  0.00     0.185 HD
BRANCH  11  19
HETATM   19  N2  UNL     1      -1.506  -9.831  -6.331  1.00  0.00    -0.217 N 
ATOM     20  H2  UNL     1      -1.933  -9.937  -7.251  1.00  0.00     0.178 HD
BRANCH  19  21
HETATM   21  C4  UNL     1      -1.679  -8.601  -5.641  1.00  0.00     0.146 C 
BRANCH  21  22
HETATM   22  C5  UNL     1      -0.910  -7.462  -6.308  1.00  0.00     0.192 C 
BRANCH  22  23
HETATM   23  O1  UNL     1      -0.423  -6.655  -5.282  1.00  0.00    -0.399 OA
ATOM     24  H1  UNL     1      -0.147  -5.841  -5.685  1.00  0.00     0.209 HD
ENDBRANCH  22  23
ENDBRANCH  21  22
BRANCH  21  25
HETATM   25  C6  UNL     1      -3.157  -8.274  -5.591  1.00  0.00     0.192 C 
BRANCH  25  26
HETATM   26  O2  UNL     1      -3.351  -7.271  -4.671  1.00  0.00    -0.399 OA
ATOM     27  H2  UNL     1      -4.247  -7.320  -4.355  1.00  0.00     0.209 HD
ENDBRANCH  25  26
ENDBRANCH  21  25
ENDBRANCH  19  21
ENDBRANCH  11  19
ENDBRANCH   7   9
ENDBRANCH   1   7
BRANCH   5  28
HETATM   28  O5  UNL     1       6.315 -12.847  -4.630  1.00  0.00    -0.358 OA
ATOM     29  H5  UNL     1       6.566 -13.352  -3.866  1.00  0.00     0.217 HD
ENDBRANCH   5  28
BRANCH   4  30
HETATM   30  N5  UNL     1       7.051 -10.260  -5.019  1.00  0.00    -0.323 N 
HETATM   31  C12 UNL     1       7.746 -10.637  -6.164  1.00  0.00     0.255 C 
HETATM   32  O3  UNL     1       7.289 -11.309  -7.100  1.00  0.00    -0.270 OA
ATOM     33  H5  UNL     1       7.576  -9.705  -4.343  1.00  0.00     0.169 HD
BRANCH  31  34
HETATM   34  C13 UNL     1       9.189 -10.204  -6.310  1.00  0.00     0.275 C 
BRANCH  34  35
HETATM   35  C14 UNL     1       9.266  -8.769  -5.978  1.00  0.00     0.196 A 
HETATM   36  N6  UNL     1      10.210  -8.141  -5.245  1.00  0.00    -0.168 N 
HETATM   37  C15 UNL     1       9.923  -6.842  -5.174  1.00  0.00     0.698 A 
ATOM     38  H6  UNL     1      11.016  -8.591  -4.812  1.00  0.00     0.186 HD
HETATM   39  N8  UNL     1       8.786  -6.677  -5.878  1.00  0.00    -0.090 N 
HETATM   40  O4  UNL     1       8.417  -7.827  -6.343  1.00  0.00    -0.206 OA
ATOM     41  H8  UNL     1       8.296  -5.793  -6.020  1.00  0.00     0.213 HD
BRANCH  37  42
HETATM   42  N7  UNL     1      10.591  -5.911  -4.560  1.00  0.00    -0.233 N 
ATOM     43  H72 UNL     1      10.669  -4.934  -4.844  1.00  0.00     0.174 HD
ATOM     44  H71 UNL     1      11.141  -5.996  -3.705  1.00  0.00     0.174 HD
ENDBRANCH  37  42
ENDBRANCH  34  35
BRANCH  34  45
HETATM   45  N9  UNL     1      10.037 -11.019  -5.498  1.00  0.00    -0.264 N 
HETATM   46  C16 UNL     1       9.853 -12.280  -5.043  1.00  0.00     0.127 A 
HETATM   47  C17 UNL     1      10.945 -12.633  -4.304  1.00  0.00     0.123 A 
HETATM   48  N10 UNL     1      11.776 -11.576  -4.323  1.00  0.00    -0.294 N 
HETATM   49  N11 UNL     1      11.217 -10.621  -5.042  1.00  0.00    -0.020 NA
ATOM     50  H10 UNL     1      12.684 -11.522  -3.860  1.00  0.00     0.183 HD
ENDBRANCH  34  45
ENDBRANCH  31  34
ENDBRANCH   4  30
TORSDOF 14
ENDMDL
