MODEL 1
REMARK VINA RESULT: -7.822092099      0.000      0.000
REMARK  5 active torsions:
REMARK  status: ('A' for Active; 'I' for Inactive)
REMARK    1  A    between atoms: C1_2  and  C2_3 
REMARK       I    between atoms: C1_2  and  N1_5 
REMARK    2  A    between atoms: N1_5  and  C3_7 
REMARK    3  A    between atoms: C3_7  and  C4_8 
REMARK    4  A    between atoms: C4_8  and  C5_9 
REMARK       I    between atoms: C5_9  and  N2_11 
REMARK       I    between atoms: N3_14  and  C8_15 
REMARK    5  A    between atoms: C8_15  and  C9_17 
ROOT
HETATM    1  C5  UNL     1      20.167  34.818  43.773  1.00  0.00     0.233 C 
HETATM    2  O2  UNL     1      20.471  35.096  44.995  1.00  0.00    -0.272 OA
HETATM    3  N2  UNL     1      20.734  35.583  42.761  1.00  0.00    -0.348 N 
HETATM    4  C6  UNL     1      21.668  36.655  43.211  1.00  0.00     0.145 C 
HETATM    5  C7  UNL     1      23.049  36.128  42.795  1.00  0.00     0.145 C 
HETATM    6  N3  UNL     1      23.024  36.013  41.349  1.00  0.00    -0.349 N 
HETATM    7  C8  UNL     1      24.181  36.375  40.591  1.00  0.00     0.224 C 
HETATM    8  O3  UNL     1      24.218  36.305  39.335  1.00  0.00    -0.273 OA
HETATM    9  C15 UNL     1      21.891  35.546  40.599  1.00  0.00     0.145 C 
HETATM   10  C16 UNL     1      20.584  35.547  41.351  1.00  0.00     0.145 C 
ENDROOT
BRANCH   1  11
HETATM   11  C4  UNL     1      19.209  33.669  43.630  1.00  0.00     0.073 C 
HETATM   12  C17 UNL     1      18.569  33.504  45.017  1.00  0.00     0.025 C 
HETATM   13  C18 UNL     1      17.071  33.541  44.907  1.00  0.00     0.002 C 
HETATM   14  C19 UNL     1      16.466  34.726  44.282  1.00  0.00     0.000 C 
HETATM   15  C20 UNL     1      17.293  35.180  43.113  1.00  0.00     0.002 C 
HETATM   16  C21 UNL     1      18.158  34.011  42.660  1.00  0.00     0.025 C 
BRANCH  11  17
HETATM   17  C3  UNL     1      19.979  32.458  43.277  1.00  0.00     0.083 C 
BRANCH  17  18
HETATM   18  N1  UNL     1      21.386  32.492  43.196  1.00  0.00    -0.339 N 
HETATM   19  C1  UNL     1      22.366  32.184  44.153  1.00  0.00     0.231 C 
HETATM   20  O1  UNL     1      22.208  31.773  45.315  1.00  0.00    -0.272 OA
ATOM     21  H1  UNL     1      21.752  32.789  42.293  1.00  0.00     0.167 HD
BRANCH  19  22
HETATM   22  C2  UNL     1      23.825  32.363  43.751  1.00  0.00     0.188 C 
HETATM   23 BR1  UNL     1      24.703  33.595  44.946  1.00  0.00    -0.087 Br
ENDBRANCH  19  22
ENDBRANCH  17  18
ENDBRANCH  11  17
ENDBRANCH   1  11
BRANCH   7  24
HETATM   24  C9  UNL     1      25.427  36.861  41.256  1.00  0.00     0.078 C 
HETATM   25  C10 UNL     1      26.265  37.698  40.314  1.00  0.00     0.014 C 
HETATM   26  C11 UNL     1      27.579  37.970  41.040  1.00  0.00     0.001 C 
HETATM   27  C12 UNL     1      28.424  36.727  40.873  1.00  0.00     0.000 C 
HETATM   28  C13 UNL     1      27.525  35.537  40.822  1.00  0.00     0.001 C 
HETATM   29  C14 UNL     1      26.286  35.658  41.671  1.00  0.00     0.014 C 
ENDBRANCH   7  24
TORSDOF 5
ENDMDL
MODEL 2
REMARK VINA RESULT: -7.652351494      2.080      7.786
REMARK  5 active torsions:
REMARK  status: ('A' for Active; 'I' for Inactive)
REMARK    1  A    between atoms: C1_2  and  C2_3 
REMARK       I    between atoms: C1_2  and  N1_5 
REMARK    2  A    between atoms: N1_5  and  C3_7 
REMARK    3  A    between atoms: C3_7  and  C4_8 
REMARK    4  A    between atoms: C4_8  and  C5_9 
REMARK       I    between atoms: C5_9  and  N2_11 
REMARK       I    between atoms: N3_14  and  C8_15 
REMARK    5  A    between atoms: C8_15  and  C9_17 
ROOT
HETATM    1  C5  UNL     1      24.757  36.754  42.407  1.00  0.00     0.233 C 
HETATM    2  O2  UNL     1      24.576  38.009  42.644  1.00  0.00    -0.272 OA
HETATM    3  N2  UNL     1      24.211  35.829  43.289  1.00  0.00    -0.348 N 
HETATM    4  C6  UNL     1      23.440  36.404  44.429  1.00  0.00     0.145 C 
HETATM    5  C7  UNL     1      21.982  36.070  44.083  1.00  0.00     0.145 C 
HETATM    6  N3  UNL     1      21.891  34.622  44.052  1.00  0.00    -0.349 N 
HETATM    7  C8  UNL     1      20.732  33.976  44.584  1.00  0.00     0.224 C 
HETATM    8  O3  UNL     1      20.598  32.725  44.593  1.00  0.00    -0.273 OA
HETATM    9  C15 UNL     1      22.907  33.764  43.509  1.00  0.00     0.145 C 
HETATM   10  C16 UNL     1      24.255  34.412  43.320  1.00  0.00     0.145 C 
ENDROOT
BRANCH   1  11
HETATM   11  C4  UNL     1      25.564  36.479  41.169  1.00  0.00     0.073 C 
HETATM   12  C17 UNL     1      26.392  37.753  40.938  1.00  0.00     0.025 C 
HETATM   13  C18 UNL     1      27.851  37.414  40.827  1.00  0.00     0.002 C 
HETATM   14  C19 UNL     1      28.466  36.689  41.949  1.00  0.00     0.000 C 
HETATM   15  C20 UNL     1      27.517  35.656  42.486  1.00  0.00     0.002 C 
HETATM   16  C21 UNL     1      26.482  35.356  41.410  1.00  0.00     0.025 C 
BRANCH  11  17
HETATM   17  C3  UNL     1      24.634  36.262  40.042  1.00  0.00     0.083 C 
BRANCH  17  18
HETATM   18  N1  UNL     1      23.247  36.452  40.200  1.00  0.00    -0.339 N 
HETATM   19  C1  UNL     1      22.200  35.523  40.303  1.00  0.00     0.231 C 
HETATM   20  O1  UNL     1      22.267  34.282  40.305  1.00  0.00    -0.272 OA
ATOM     21  H1  UNL     1      22.955  37.428  40.248  1.00  0.00     0.167 HD
BRANCH  19  22
HETATM   22  C2  UNL     1      20.783  36.068  40.430  1.00  0.00     0.188 C 
HETATM   23 BR1  UNL     1      20.815  37.872  41.106  1.00  0.00    -0.087 Br
ENDBRANCH  19  22
ENDBRANCH  17  18
ENDBRANCH  11  17
ENDBRANCH   1  11
BRANCH   7  24
HETATM   24  C9  UNL     1      19.601  34.759  45.165  1.00  0.00     0.078 C 
HETATM   25  C10 UNL     1      18.904  33.990  46.266  1.00  0.00     0.014 C 
HETATM   26  C11 UNL     1      17.669  34.805  46.641  1.00  0.00     0.001 C 
HETATM   27  C12 UNL     1      16.619  34.492  45.598  1.00  0.00     0.000 C 
HETATM   28  C13 UNL     1      17.298  34.224  44.296  1.00  0.00     0.001 C 
HETATM   29  C14 UNL     1      18.554  35.028  44.074  1.00  0.00     0.014 C 
ENDBRANCH   7  24
TORSDOF 5
ENDMDL
MODEL 3
REMARK VINA RESULT: -7.570725881      3.065      4.140
REMARK  5 active torsions:
REMARK  status: ('A' for Active; 'I' for Inactive)
REMARK    1  A    between atoms: C1_2  and  C2_3 
REMARK       I    between atoms: C1_2  and  N1_5 
REMARK    2  A    between atoms: N1_5  and  C3_7 
REMARK    3  A    between atoms: C3_7  and  C4_8 
REMARK    4  A    between atoms: C4_8  and  C5_9 
REMARK       I    between atoms: C5_9  and  N2_11 
REMARK       I    between atoms: N3_14  and  C8_15 
REMARK    5  A    between atoms: C8_15  and  C9_17 
ROOT
HETATM    1  C5  UNL     1      19.494  35.145  43.668  1.00  0.00     0.233 C 
HETATM    2  O2  UNL     1      18.904  35.811  42.734  1.00  0.00    -0.272 OA
HETATM    3  N2  UNL     1      20.830  34.804  43.493  1.00  0.00    -0.348 N 
HETATM    4  C6  UNL     1      21.453  35.273  42.222  1.00  0.00     0.145 C 
HETATM    5  C7  UNL     1      22.398  36.394  42.676  1.00  0.00     0.145 C 
HETATM    6  N3  UNL     1      23.374  35.775  43.554  1.00  0.00    -0.349 N 
HETATM    7  C8  UNL     1      24.742  36.183  43.487  1.00  0.00     0.224 C 
HETATM    8  O3  UNL     1      25.636  35.679  44.216  1.00  0.00    -0.273 OA
HETATM    9  C15 UNL     1      23.058  34.754  44.513  1.00  0.00     0.145 C 
HETATM   10  C16 UNL     1      21.731  34.070  44.304  1.00  0.00     0.145 C 
ENDROOT
BRANCH   1  11
HETATM   11  C4  UNL     1      18.610  34.829  44.842  1.00  0.00     0.073 C 
HETATM   12  C17 UNL     1      17.205  35.293  44.424  1.00  0.00     0.025 C 
HETATM   13  C18 UNL     1      16.218  34.172  44.578  1.00  0.00     0.002 C 
HETATM   14  C19 UNL     1      16.498  32.919  43.861  1.00  0.00     0.000 C 
HETATM   15  C20 UNL     1      17.967  32.608  43.906  1.00  0.00     0.002 C 
HETATM   16  C21 UNL     1      18.580  33.377  45.069  1.00  0.00     0.025 C 
BRANCH  11  17
HETATM   17  C3  UNL     1      19.080  35.608  46.006  1.00  0.00     0.083 C 
BRANCH  17  18
HETATM   18  N1  UNL     1      18.552  36.885  46.285  1.00  0.00    -0.339 N 
HETATM   19  C1  UNL     1      18.659  37.691  47.429  1.00  0.00     0.231 C 
HETATM   20  O1  UNL     1      19.287  37.463  48.477  1.00  0.00    -0.272 OA
ATOM     21  H1  UNL     1      18.001  37.290  45.529  1.00  0.00     0.167 HD
BRANCH  19  22
HETATM   22  C2  UNL     1      17.925  39.026  47.423  1.00  0.00     0.188 C 
HETATM   23 BR1  UNL     1      16.804  39.168  45.861  1.00  0.00    -0.087 Br
ENDBRANCH  19  22
ENDBRANCH  17  18
ENDBRANCH  11  17
ENDBRANCH   1  11
BRANCH   7  24
HETATM   24  C9  UNL     1      25.194  37.246  42.540  1.00  0.00     0.078 C 
HETATM   25  C10 UNL     1      25.556  36.665  41.191  1.00  0.00     0.014 C 
HETATM   26  C11 UNL     1      26.173  37.806  40.386  1.00  0.00     0.001 C 
HETATM   27  C12 UNL     1      27.608  37.927  40.850  1.00  0.00     0.000 C 
HETATM   28  C13 UNL     1      27.682  37.551  42.292  1.00  0.00     0.001 C 
HETATM   29  C14 UNL     1      26.459  37.918  43.093  1.00  0.00     0.014 C 
ENDBRANCH   7  24
TORSDOF 5
ENDMDL
MODEL 4
REMARK VINA RESULT: -7.459878415      2.321      3.047
REMARK  5 active torsions:
REMARK  status: ('A' for Active; 'I' for Inactive)
REMARK    1  A    between atoms: C1_2  and  C2_3 
REMARK       I    between atoms: C1_2  and  N1_5 
REMARK    2  A    between atoms: N1_5  and  C3_7 
REMARK    3  A    between atoms: C3_7  and  C4_8 
REMARK    4  A    between atoms: C4_8  and  C5_9 
REMARK       I    between atoms: C5_9  and  N2_11 
REMARK       I    between atoms: N3_14  and  C8_15 
REMARK    5  A    between atoms: C8_15  and  C9_17 
ROOT
HETATM    1  C5  UNL     1      19.515  35.102  43.512  1.00  0.00     0.233 C 
HETATM    2  O2  UNL     1      18.888  36.037  42.881  1.00  0.00    -0.272 OA
HETATM    3  N2  UNL     1      20.757  34.701  43.034  1.00  0.00    -0.348 N 
HETATM    4  C6  UNL     1      21.248  35.427  41.827  1.00  0.00     0.145 C 
HETATM    5  C7  UNL     1      22.385  36.304  42.371  1.00  0.00     0.145 C 
HETATM    6  N3  UNL     1      23.388  35.395  42.893  1.00  0.00    -0.349 N 
HETATM    7  C8  UNL     1      24.774  35.684  42.695  1.00  0.00     0.224 C 
HETATM    8  O3  UNL     1      25.690  34.932  43.116  1.00  0.00    -0.273 OA
HETATM    9  C15 UNL     1      23.084  34.192  43.616  1.00  0.00     0.145 C 
HETATM   10  C16 UNL     1      21.664  33.705  43.477  1.00  0.00     0.145 C 
ENDROOT
BRANCH   1  11
HETATM   11  C4  UNL     1      18.775  34.572  44.707  1.00  0.00     0.073 C 
HETATM   12  C17 UNL     1      17.399  35.255  44.663  1.00  0.00     0.025 C 
HETATM   13  C18 UNL     1      16.305  34.227  44.707  1.00  0.00     0.002 C 
HETATM   14  C19 UNL     1      16.311  33.186  43.669  1.00  0.00     0.000 C 
HETATM   15  C20 UNL     1      17.716  32.741  43.382  1.00  0.00     0.002 C 
HETATM   16  C21 UNL     1      18.587  33.120  44.575  1.00  0.00     0.025 C 
BRANCH  11  17
HETATM   17  C3  UNL     1      19.505  34.972  45.926  1.00  0.00     0.083 C 
BRANCH  17  18
HETATM   18  N1  UNL     1      19.854  34.023  46.907  1.00  0.00    -0.339 N 
HETATM   19  C1  UNL     1      19.453  33.898  48.247  1.00  0.00     0.231 C 
HETATM   20  O1  UNL     1      18.652  34.606  48.881  1.00  0.00    -0.272 OA
ATOM     21  H1  UNL     1      20.507  33.306  46.591  1.00  0.00     0.167 HD
BRANCH  19  22
HETATM   22  C2  UNL     1      20.055  32.760  49.061  1.00  0.00     0.188 C 
HETATM   23 BR1  UNL     1      21.873  32.430  48.512  1.00  0.00    -0.087 Br
ENDBRANCH  19  22
ENDBRANCH  17  18
ENDBRANCH  11  17
ENDBRANCH   1  11
BRANCH   7  24
HETATM   24  C9  UNL     1      25.218  36.912  41.969  1.00  0.00     0.078 C 
HETATM   25  C10 UNL     1      25.962  36.564  40.699  1.00  0.00     0.014 C 
HETATM   26  C11 UNL     1      26.520  37.878  40.158  1.00  0.00     0.001 C 
HETATM   27  C12 UNL     1      27.775  38.167  40.951  1.00  0.00     0.000 C 
HETATM   28  C13 UNL     1      27.603  37.634  42.335  1.00  0.00     0.001 C 
HETATM   29  C14 UNL     1      26.191  37.703  42.856  1.00  0.00     0.014 C 
ENDBRANCH   7  24
TORSDOF 5
ENDMDL
MODEL 5
REMARK VINA RESULT: -7.449905059      2.472      3.584
REMARK  5 active torsions:
REMARK  status: ('A' for Active; 'I' for Inactive)
REMARK    1  A    between atoms: C1_2  and  C2_3 
REMARK       I    between atoms: C1_2  and  N1_5 
REMARK    2  A    between atoms: N1_5  and  C3_7 
REMARK    3  A    between atoms: C3_7  and  C4_8 
REMARK    4  A    between atoms: C4_8  and  C5_9 
REMARK       I    between atoms: C5_9  and  N2_11 
REMARK       I    between atoms: N3_14  and  C8_15 
REMARK    5  A    between atoms: C8_15  and  C9_17 
ROOT
HETATM    1  C5  UNL     1      20.540  33.997  43.513  1.00  0.00     0.233 C 
HETATM    2  O2  UNL     1      20.738  32.749  43.251  1.00  0.00    -0.272 OA
HETATM    3  N2  UNL     1      21.500  34.677  44.253  1.00  0.00    -0.348 N 
HETATM    4  C6  UNL     1      22.691  33.874  44.655  1.00  0.00     0.145 C 
HETATM    5  C7  UNL     1      23.815  34.429  43.769  1.00  0.00     0.145 C 
HETATM    6  N3  UNL     1      23.966  35.826  44.127  1.00  0.00    -0.349 N 
HETATM    7  C8  UNL     1      25.274  36.399  44.201  1.00  0.00     0.224 C 
HETATM    8  O3  UNL     1      25.471  37.602  44.514  1.00  0.00    -0.273 OA
HETATM    9  C15 UNL     1      22.868  36.705  44.419  1.00  0.00     0.145 C 
HETATM   10  C16 UNL     1      21.562  36.014  44.719  1.00  0.00     0.145 C 
ENDROOT
BRANCH   1  11
HETATM   11  C4  UNL     1      19.252  34.538  42.960  1.00  0.00     0.073 C 
HETATM   12  C17 UNL     1      18.422  33.299  42.589  1.00  0.00     0.025 C 
HETATM   13  C18 UNL     1      17.072  33.360  43.245  1.00  0.00     0.002 C 
HETATM   14  C19 UNL     1      17.035  33.490  44.709  1.00  0.00     0.000 C 
HETATM   15  C20 UNL     1      18.116  34.422  45.178  1.00  0.00     0.002 C 
HETATM   16  C21 UNL     1      18.538  35.292  44.000  1.00  0.00     0.025 C 
BRANCH  11  17
HETATM   17  C3  UNL     1      19.557  35.329  41.750  1.00  0.00     0.083 C 
BRANCH  17  18
HETATM   18  N1  UNL     1      20.779  35.166  41.067  1.00  0.00    -0.339 N 
HETATM   19  C1  UNL     1      21.790  36.092  40.762  1.00  0.00     0.231 C 
HETATM   20  O1  UNL     1      21.847  37.297  41.059  1.00  0.00    -0.272 OA
ATOM     21  H1  UNL     1      20.960  34.217  40.740  1.00  0.00     0.167 HD
BRANCH  19  22
HETATM   22  C2  UNL     1      22.987  35.592  39.964  1.00  0.00     0.188 C 
HETATM   23 BR1  UNL     1      24.375  36.929  39.928  1.00  0.00    -0.087 Br
ENDBRANCH  19  22
ENDBRANCH  17  18
ENDBRANCH  11  17
ENDBRANCH   1  11
BRANCH   7  24
HETATM   24  C9  UNL     1      26.496  35.592  43.907  1.00  0.00     0.078 C 
HETATM   25  C10 UNL     1      27.637  35.960  44.829  1.00  0.00     0.014 C 
HETATM   26  C11 UNL     1      28.864  35.215  44.310  1.00  0.00     0.001 C 
HETATM   27  C12 UNL     1      29.391  36.022  43.145  1.00  0.00     0.000 C 
HETATM   28  C13 UNL     1      28.243  36.683  42.457  1.00  0.00     0.001 C 
HETATM   29  C14 UNL     1      26.966  35.883  42.474  1.00  0.00     0.014 C 
ENDBRANCH   7  24
TORSDOF 5
ENDMDL
