MODEL 1
REMARK VINA RESULT: -6.600082370      0.000      0.000
REMARK  1 active torsions:
REMARK  status: ('A' for Active; 'I' for Inactive)
REMARK    1  A    between atoms: C1_2  and  C2_3 
ROOT
HETATM    1  C2  UNL     1     -22.415 -23.937 -22.465  1.00  0.00     0.402 C 
HETATM    2  F2  UNL     1     -21.169 -24.366 -22.031  1.00  0.00    -0.176 F 
HETATM    3  N1  UNL     1     -22.747 -22.736 -21.725  1.00  0.00    -0.005 N 
ATOM      4  H11 UNL     1     -22.551 -22.816 -20.726  1.00  0.00     0.284 HD
ATOM      5  H12 UNL     1     -23.752 -22.579 -21.649  1.00  0.00     0.284 HD
HETATM    6  C3  UNL     1     -22.045 -21.632 -22.354  1.00  0.00     0.327 C 
HETATM    7  C4  UNL     1     -22.804 -21.388 -23.665  1.00  0.00     0.358 C 
HETATM    8  F3  UNL     1     -24.014 -20.809 -23.266  1.00  0.00    -0.195 F 
HETATM    9  F4  UNL     1     -22.133 -20.510 -24.480  1.00  0.00    -0.195 F 
HETATM   10  C5  UNL     1     -23.089 -22.710 -24.311  1.00  0.00     0.426 C 
HETATM   11  F5  UNL     1     -22.731 -22.574 -25.661  1.00  0.00    -0.169 F 
HETATM   12  F6  UNL     1     -24.460 -22.958 -24.326  1.00  0.00    -0.169 F 
HETATM   13  O1  UNL     1     -22.358 -23.758 -23.812  1.00  0.00    -0.254 OA
ENDROOT
BRANCH   1  14
HETATM   14  C1  UNL     1     -23.403 -25.004 -22.029  1.00  0.00     0.328 C 
HETATM   15  F1  UNL     1     -23.554 -25.929 -23.049  1.00  0.00    -0.247 F 
ENDBRANCH   1  14
TORSDOF 1
ENDMDL
MODEL 2
REMARK VINA RESULT: -6.551899922      1.196      1.276
REMARK  1 active torsions:
REMARK  status: ('A' for Active; 'I' for Inactive)
REMARK    1  A    between atoms: C1_2  and  C2_3 
ROOT
HETATM    1  C2  UNL     1     -22.931 -24.189 -22.769  1.00  0.00     0.402 C 
HETATM    2  F2  UNL     1     -21.568 -24.438 -22.700  1.00  0.00    -0.176 F 
HETATM    3  N1  UNL     1     -23.292 -23.409 -21.602  1.00  0.00    -0.005 N 
ATOM      4  H11 UNL     1     -22.878 -23.766 -20.740  1.00  0.00     0.284 HD
ATOM      5  H12 UNL     1     -24.270 -23.521 -21.334  1.00  0.00     0.284 HD
HETATM    6  C3  UNL     1     -22.932 -22.029 -21.876  1.00  0.00     0.327 C 
HETATM    7  C4  UNL     1     -23.982 -21.549 -22.887  1.00  0.00     0.358 C 
HETATM    8  F3  UNL     1     -25.158 -21.429 -22.139  1.00  0.00    -0.195 F 
HETATM    9  F4  UNL     1     -23.654 -20.323 -23.410  1.00  0.00    -0.195 F 
HETATM   10  C5  UNL     1     -24.175 -22.613 -23.925  1.00  0.00     0.426 C 
HETATM   11  F5  UNL     1     -24.139 -21.963 -25.167  1.00  0.00    -0.169 F 
HETATM   12  F6  UNL     1     -25.457 -23.150 -23.838  1.00  0.00    -0.169 F 
HETATM   13  O1  UNL     1     -23.192 -23.569 -23.951  1.00  0.00    -0.254 OA
ENDROOT
BRANCH   1  14
HETATM   14  C1  UNL     1     -23.613 -25.537 -22.620  1.00  0.00     0.328 C 
HETATM   15  F1  UNL     1     -24.820 -25.368 -21.963  1.00  0.00    -0.247 F 
ENDBRANCH   1  14
TORSDOF 1
ENDMDL
MODEL 3
REMARK VINA RESULT: -6.448541745      1.740      3.414
REMARK  1 active torsions:
REMARK  status: ('A' for Active; 'I' for Inactive)
REMARK    1  A    between atoms: C1_2  and  C2_3 
ROOT
HETATM    1  C2  UNL     1     -23.114 -22.853 -24.215  1.00  0.00     0.402 C 
HETATM    2  F2  UNL     1     -22.882 -23.512 -25.414  1.00  0.00    -0.176 F 
HETATM    3  N1  UNL     1     -23.560 -23.841 -23.254  1.00  0.00    -0.005 N 
ATOM      4  H11 UNL     1     -24.260 -24.480 -23.632  1.00  0.00     0.284 HD
ATOM      5  H12 UNL     1     -24.134 -23.443 -22.509  1.00  0.00     0.284 HD
HETATM    6  C3  UNL     1     -22.379 -24.524 -22.756  1.00  0.00     0.327 C 
HETATM    7  C4  UNL     1     -21.700 -23.503 -21.835  1.00  0.00     0.358 C 
HETATM    8  F3  UNL     1     -22.530 -23.441 -20.709  1.00  0.00    -0.195 F 
HETATM    9  F4  UNL     1     -20.451 -23.923 -21.450  1.00  0.00    -0.195 F 
HETATM   10  C5  UNL     1     -21.703 -22.165 -22.512  1.00  0.00     0.426 C 
HETATM   11  F5  UNL     1     -20.404 -21.653 -22.377  1.00  0.00    -0.169 F 
HETATM   12  F6  UNL     1     -22.515 -21.271 -21.819  1.00  0.00    -0.169 F 
HETATM   13  O1  UNL     1     -21.972 -22.208 -23.856  1.00  0.00    -0.254 OA
ENDROOT
BRANCH   1  14
HETATM   14  C1  UNL     1     -24.290 -21.927 -24.466  1.00  0.00     0.328 C 
HETATM   15  F1  UNL     1     -25.458 -22.670 -24.497  1.00  0.00    -0.247 F 
ENDBRANCH   1  14
TORSDOF 1
ENDMDL
MODEL 4
REMARK VINA RESULT: -6.434784611      1.519      2.364
REMARK  1 active torsions:
REMARK  status: ('A' for Active; 'I' for Inactive)
REMARK    1  A    between atoms: C1_2  and  C2_3 
ROOT
HETATM    1  C2  UNL     1     -21.755 -22.489 -22.317  1.00  0.00     0.402 C 
HETATM    2  F2  UNL     1     -21.080 -21.276 -22.300  1.00  0.00    -0.176 F 
HETATM    3  N1  UNL     1     -23.028 -22.290 -21.654  1.00  0.00    -0.005 N 
ATOM      4  H11 UNL     1     -22.948 -21.758 -20.787  1.00  0.00     0.284 HD
ATOM      5  H12 UNL     1     -23.406 -23.147 -21.249  1.00  0.00     0.284 HD
HETATM    6  C3  UNL     1     -23.924 -21.673 -22.617  1.00  0.00     0.327 C 
HETATM    7  C4  UNL     1     -24.275 -22.801 -23.596  1.00  0.00     0.358 C 
HETATM    8  F3  UNL     1     -25.122 -23.645 -22.868  1.00  0.00    -0.195 F 
HETATM    9  F4  UNL     1     -24.950 -22.325 -24.692  1.00  0.00    -0.195 F 
HETATM   10  C5  UNL     1     -23.023 -23.550 -23.939  1.00  0.00     0.426 C 
HETATM   11  F5  UNL     1     -23.021 -23.696 -25.334  1.00  0.00    -0.169 F 
HETATM   12  F6  UNL     1     -23.082 -24.849 -23.442  1.00  0.00    -0.169 F 
HETATM   13  O1  UNL     1     -21.861 -22.899 -23.608  1.00  0.00    -0.254 OA
ENDROOT
BRANCH   1  14
HETATM   14  C1  UNL     1     -20.949 -23.429 -21.438  1.00  0.00     0.328 C 
HETATM   15  F1  UNL     1     -20.354 -24.396 -22.231  1.00  0.00    -0.247 F 
ENDBRANCH   1  14
TORSDOF 1
ENDMDL
MODEL 5
REMARK VINA RESULT: -6.391610656      1.431      1.636
REMARK  1 active torsions:
REMARK  status: ('A' for Active; 'I' for Inactive)
REMARK    1  A    between atoms: C1_2  and  C2_3 
ROOT
HETATM    1  C2  UNL     1     -23.345 -24.059 -22.168  1.00  0.00     0.402 C 
HETATM    2  F2  UNL     1     -23.014 -24.007 -20.822  1.00  0.00    -0.176 F 
HETATM    3  N1  UNL     1     -24.686 -23.530 -22.310  1.00  0.00    -0.005 N 
ATOM      4  H11 UNL     1     -25.334 -23.890 -21.608  1.00  0.00     0.284 HD
ATOM      5  H12 UNL     1     -25.172 -23.888 -23.132  1.00  0.00     0.284 HD
HETATM    6  C3  UNL     1     -24.584 -22.082 -22.296  1.00  0.00     0.327 C 
HETATM    7  C4  UNL     1     -23.982 -21.724 -23.662  1.00  0.00     0.358 C 
HETATM    8  F3  UNL     1     -25.016 -21.961 -24.573  1.00  0.00    -0.195 F 
HETATM    9  F4  UNL     1     -23.623 -20.400 -23.723  1.00  0.00    -0.195 F 
HETATM   10  C5  UNL     1     -22.854 -22.666 -23.953  1.00  0.00     0.426 C 
HETATM   11  F5  UNL     1     -21.783 -21.874 -24.394  1.00  0.00    -0.169 F 
HETATM   12  F6  UNL     1     -23.169 -23.481 -25.038  1.00  0.00    -0.169 F 
HETATM   13  O1  UNL     1     -22.403 -23.369 -22.866  1.00  0.00    -0.254 OA
ENDROOT
BRANCH   1  14
HETATM   14  C1  UNL     1     -23.417 -25.532 -22.526  1.00  0.00     0.328 C 
HETATM   15  F1  UNL     1     -24.693 -26.003 -22.266  1.00  0.00    -0.247 F 
ENDBRANCH   1  14
TORSDOF 1
ENDMDL
