MODEL 1
REMARK VINA RESULT: -7.147498131      0.000      0.000
REMARK  3 active torsions:
REMARK  status: ('A' for Active; 'I' for Inactive)
REMARK    1  A    between atoms: C2_2  and  C3_3 
REMARK    2  A    between atoms: C3_3  and  O1_4 
REMARK    3  A    between atoms: C13_15  and  C14_16 
ROOT
HETATM    1  C3  UNL     1      22.827  12.190  24.499  1.00  0.00     0.066 C 
HETATM    2  C4  UNL     1      23.433  13.575  24.798  1.00  0.00     0.039 C 
HETATM    3  C5  UNL     1      23.980  14.007  23.501  1.00  0.00     0.009 C 
HETATM    4  C6  UNL     1      23.729  12.853  22.496  1.00  0.00     0.002 C 
HETATM    5  C7  UNL     1      23.989  13.312  21.175  1.00  0.00    -0.005 C 
HETATM    6  C8  UNL     1      25.333  12.742  20.679  1.00  0.00     0.007 C 
HETATM    7  C9  UNL     1      25.422  11.251  20.669  1.00  0.00     0.027 C 
HETATM    8  C10 UNL     1      24.451  10.497  19.902  1.00  0.00     0.097 C 
HETATM    9  C11 UNL     1      23.336   9.756  20.599  1.00  0.00     0.048 C 
HETATM   10  C12 UNL     1      23.082  10.038  22.004  1.00  0.00     0.028 C 
HETATM   11  C13 UNL     1      22.016  10.999  22.408  1.00  0.00     0.099 C 
HETATM   12  C15 UNL     1      22.474  12.288  23.043  1.00  0.00     0.004 C 
HETATM   13  C16 UNL     1      21.396  13.363  22.942  1.00  0.00     0.020 C 
HETATM   14  C17 UNL     1      22.456  10.252  19.492  1.00  0.00     0.070 C 
HETATM   15  N1  UNL     1      23.480  11.150  19.151  1.00  0.00    -0.368 N 
HETATM   16  C18 UNL     1      23.387  12.460  18.867  1.00  0.00     0.064 C 
HETATM   17  C19 UNL     1      23.039  13.366  20.053  1.00  0.00     0.049 C 
ENDROOT
BRANCH   1  18
HETATM   18  C2  UNL     1      21.779  12.015  25.512  1.00  0.00     0.034 C 
HETATM   19  C1  UNL     1      22.059  12.885  26.773  1.00  0.00     0.008 C 
ENDBRANCH   1  18
BRANCH   1  20
HETATM   20  O1  UNL     1      23.883  11.310  24.770  1.00  0.00    -0.389 OA
ATOM     21  H1  UNL     1      24.627  11.804  25.093  1.00  0.00     0.210 HD
ENDBRANCH   1  20
BRANCH  11  22
HETATM   22  C14 UNL     1      20.920  10.306  23.148  1.00  0.00     0.177 C 
HETATM   23  O2  UNL     1      21.153   9.233  23.771  1.00  0.00    -0.648 OA
HETATM   24  O3  UNL     1      19.608  10.720  23.235  1.00  0.00    -0.648 OA
ENDBRANCH  11  22
TORSDOF 3
ENDMDL
MODEL 2
REMARK VINA RESULT: -7.114067063      2.858      5.200
REMARK  3 active torsions:
REMARK  status: ('A' for Active; 'I' for Inactive)
REMARK    1  A    between atoms: C2_2  and  C3_3 
REMARK    2  A    between atoms: C3_3  and  O1_4 
REMARK    3  A    between atoms: C13_15  and  C14_16 
ROOT
HETATM    1  C3  UNL     1      23.670  10.845  20.559  1.00  0.00     0.066 C 
HETATM    2  C4  UNL     1      22.169  10.897  20.905  1.00  0.00     0.039 C 
HETATM    3  C5  UNL     1      22.000  12.211  21.547  1.00  0.00     0.009 C 
HETATM    4  C6  UNL     1      23.404  12.869  21.608  1.00  0.00     0.002 C 
HETATM    5  C7  UNL     1      23.268  14.238  21.968  1.00  0.00    -0.005 C 
HETATM    6  C8  UNL     1      23.695  14.437  23.436  1.00  0.00     0.007 C 
HETATM    7  C9  UNL     1      25.095  14.020  23.749  1.00  0.00     0.027 C 
HETATM    8  C10 UNL     1      26.187  14.624  23.012  1.00  0.00     0.097 C 
HETATM    9  C11 UNL     1      26.908  13.846  21.939  1.00  0.00     0.048 C 
HETATM   10  C12 UNL     1      26.318  12.603  21.462  1.00  0.00     0.028 C 
HETATM   11  C13 UNL     1      25.495  12.579  20.220  1.00  0.00     0.099 C 
HETATM   12  C15 UNL     1      24.023  12.294  20.391  1.00  0.00     0.004 C 
HETATM   13  C16 UNL     1      23.225  12.785  19.186  1.00  0.00     0.020 C 
HETATM   14  C17 UNL     1      26.888  15.118  21.149  1.00  0.00     0.070 C 
HETATM   15  N1  UNL     1      25.940  15.609  22.062  1.00  0.00    -0.368 N 
HETATM   16  C18 UNL     1      24.790  16.257  21.810  1.00  0.00     0.064 C 
HETATM   17  C19 UNL     1      23.683  15.407  21.177  1.00  0.00     0.049 C 
ENDROOT
BRANCH   1  18
HETATM   18  C2  UNL     1      23.760   9.917  19.425  1.00  0.00     0.034 C 
HETATM   19  C1  UNL     1      22.427   9.136  19.226  1.00  0.00     0.008 C 
ENDBRANCH   1  18
BRANCH   1  20
HETATM   20  O1  UNL     1      24.242  10.248  21.690  1.00  0.00    -0.389 OA
ATOM     21  H1  UNL     1      23.561   9.819  22.195  1.00  0.00     0.210 HD
ENDBRANCH   1  20
BRANCH  11  22
HETATM   22  C14 UNL     1      26.156  11.771  19.153  1.00  0.00     0.177 C 
HETATM   23  O2  UNL     1      26.944  10.834  19.461  1.00  0.00    -0.648 OA
HETATM   24  O3  UNL     1      26.000  11.936  17.793  1.00  0.00    -0.648 OA
ENDBRANCH  11  22
TORSDOF 3
ENDMDL
MODEL 3
REMARK VINA RESULT: -6.989222176      2.835      5.799
REMARK  3 active torsions:
REMARK  status: ('A' for Active; 'I' for Inactive)
REMARK    1  A    between atoms: C2_2  and  C3_3 
REMARK    2  A    between atoms: C3_3  and  O1_4 
REMARK    3  A    between atoms: C13_15  and  C14_16 
ROOT
HETATM    1  C3  UNL     1      26.033  10.946  19.982  1.00  0.00     0.066 C 
HETATM    2  C4  UNL     1      25.034  10.314  18.995  1.00  0.00     0.039 C 
HETATM    3  C5  UNL     1      23.788  11.064  19.227  1.00  0.00     0.009 C 
HETATM    4  C6  UNL     1      24.073  12.073  20.370  1.00  0.00     0.002 C 
HETATM    5  C7  UNL     1      23.001  13.004  20.456  1.00  0.00    -0.005 C 
HETATM    6  C8  UNL     1      22.123  12.677  21.680  1.00  0.00     0.007 C 
HETATM    7  C9  UNL     1      22.839  12.683  22.991  1.00  0.00     0.027 C 
HETATM    8  C10 UNL     1      23.531  13.887  23.405  1.00  0.00     0.097 C 
HETATM    9  C11 UNL     1      25.037  13.962  23.344  1.00  0.00     0.048 C 
HETATM   10  C12 UNL     1      25.757  12.934  22.607  1.00  0.00     0.028 C 
HETATM   11  C13 UNL     1      26.192  13.168  21.201  1.00  0.00     0.099 C 
HETATM   12  C15 UNL     1      25.511  12.344  20.137  1.00  0.00     0.004 C 
HETATM   13  C16 UNL     1      25.645  12.999  18.765  1.00  0.00     0.020 C 
HETATM   14  C17 UNL     1      24.842  15.355  22.829  1.00  0.00     0.070 C 
HETATM   15  N1  UNL     1      23.492  15.033  22.618  1.00  0.00    -0.368 N 
HETATM   16  C18 UNL     1      22.730  15.278  21.538  1.00  0.00     0.064 C 
HETATM   17  C19 UNL     1      23.080  14.463  20.288  1.00  0.00     0.049 C 
ENDROOT
BRANCH   1  18
HETATM   18  C2  UNL     1      27.353  10.703  19.384  1.00  0.00     0.034 C 
HETATM   19  C1  UNL     1      28.125   9.588  20.150  1.00  0.00     0.008 C 
ENDBRANCH   1  18
BRANCH   1  20
HETATM   20  O1  UNL     1      25.896  10.156  21.132  1.00  0.00    -0.389 OA
ATOM     21  H1  UNL     1      24.974  10.003  21.297  1.00  0.00     0.210 HD
ENDBRANCH   1  20
BRANCH  11  22
HETATM   22  C14 UNL     1      27.681  13.195  21.096  1.00  0.00     0.177 C 
HETATM   23  O2  UNL     1      28.390  12.600  21.955  1.00  0.00    -0.648 OA
HETATM   24  O3  UNL     1      28.417  13.829  20.118  1.00  0.00    -0.648 OA
ENDBRANCH  11  22
TORSDOF 3
ENDMDL
MODEL 4
REMARK VINA RESULT: -6.882245343      2.932      5.614
REMARK  3 active torsions:
REMARK  status: ('A' for Active; 'I' for Inactive)
REMARK    1  A    between atoms: C2_2  and  C3_3 
REMARK    2  A    between atoms: C3_3  and  O1_4 
REMARK    3  A    between atoms: C13_15  and  C14_16 
ROOT
HETATM    1  C3  UNL     1      24.211  11.361  20.277  1.00  0.00     0.066 C 
HETATM    2  C4  UNL     1      22.737  10.912  20.289  1.00  0.00     0.039 C 
HETATM    3  C5  UNL     1      22.059  11.949  21.085  1.00  0.00     0.009 C 
HETATM    4  C6  UNL     1      23.152  12.943  21.558  1.00  0.00     0.002 C 
HETATM    5  C7  UNL     1      22.531  14.103  22.098  1.00  0.00    -0.005 C 
HETATM    6  C8  UNL     1      22.634  14.083  23.636  1.00  0.00     0.007 C 
HETATM    7  C9  UNL     1      24.025  14.016  24.175  1.00  0.00     0.027 C 
HETATM    8  C10 UNL     1      24.970  15.051  23.805  1.00  0.00     0.097 C 
HETATM    9  C11 UNL     1      26.062  14.765  22.804  1.00  0.00     0.048 C 
HETATM   10  C12 UNL     1      25.982  13.545  22.013  1.00  0.00     0.028 C 
HETATM   11  C13 UNL     1      25.418  13.567  20.634  1.00  0.00     0.099 C 
HETATM   12  C15 UNL     1      24.107  12.851  20.429  1.00  0.00     0.004 C 
HETATM   13  C16 UNL     1      23.396  13.353  19.175  1.00  0.00     0.020 C 
HETATM   14  C17 UNL     1      25.763  16.123  22.247  1.00  0.00     0.070 C 
HETATM   15  N1  UNL     1      24.577  16.113  22.998  1.00  0.00    -0.368 N 
HETATM   16  C18 UNL     1      23.335  16.451  22.609  1.00  0.00     0.064 C 
HETATM   17  C19 UNL     1      22.672  15.487  21.618  1.00  0.00     0.049 C 
ENDROOT
BRANCH   1  18
HETATM   18  C2  UNL     1      24.771  10.772  19.055  1.00  0.00     0.034 C 
HETATM   19  C1  UNL     1      23.844   9.657  18.487  1.00  0.00     0.008 C 
ENDBRANCH   1  18
BRANCH   1  20
HETATM   20  O1  UNL     1      24.756  10.713  21.394  1.00  0.00    -0.389 OA
ATOM     21  H1  UNL     1      25.692  10.609  21.268  1.00  0.00     0.210 HD
ENDBRANCH   1  20
BRANCH  11  22
HETATM   22  C14 UNL     1      26.463  13.235  19.621  1.00  0.00     0.177 C 
HETATM   23  O2  UNL     1      27.457  12.526  19.941  1.00  0.00    -0.648 OA
HETATM   24  O3  UNL     1      26.473  13.635  18.302  1.00  0.00    -0.648 OA
ENDBRANCH  11  22
TORSDOF 3
ENDMDL
MODEL 5
REMARK VINA RESULT: -6.742123499      3.407      5.213
REMARK  3 active torsions:
REMARK  status: ('A' for Active; 'I' for Inactive)
REMARK    1  A    between atoms: C2_2  and  C3_3 
REMARK    2  A    between atoms: C3_3  and  O1_4 
REMARK    3  A    between atoms: C13_15  and  C14_16 
ROOT
HETATM    1  C3  UNL     1      23.209  15.621  22.326  1.00  0.00     0.066 C 
HETATM    2  C4  UNL     1      22.126  14.593  22.709  1.00  0.00     0.039 C 
HETATM    3  C5  UNL     1      22.338  13.488  21.759  1.00  0.00     0.009 C 
HETATM    4  C6  UNL     1      23.496  13.915  20.819  1.00  0.00     0.002 C 
HETATM    5  C7  UNL     1      23.925  12.791  20.060  1.00  0.00    -0.005 C 
HETATM    6  C8  UNL     1      23.413  12.913  18.611  1.00  0.00     0.007 C 
HETATM    7  C9  UNL     1      23.848  14.146  17.888  1.00  0.00     0.027 C 
HETATM    8  C10 UNL     1      25.266  14.413  17.750  1.00  0.00     0.097 C 
HETATM    9  C11 UNL     1      25.927  15.480  18.587  1.00  0.00     0.048 C 
HETATM   10  C12 UNL     1      25.197  16.031  19.720  1.00  0.00     0.028 C 
HETATM   11  C13 UNL     1      25.429  15.516  21.099  1.00  0.00     0.099 C 
HETATM   12  C15 UNL     1      24.290  14.762  21.739  1.00  0.00     0.004 C 
HETATM   13  C16 UNL     1      24.789  13.875  22.876  1.00  0.00     0.020 C 
HETATM   14  C17 UNL     1      27.061  14.513  18.736  1.00  0.00     0.070 C 
HETATM   15  N1  UNL     1      26.206  13.514  18.241  1.00  0.00    -0.368 N 
HETATM   16  C18 UNL     1      26.007  12.271  18.713  1.00  0.00     0.064 C 
HETATM   17  C19 UNL     1      25.267  12.188  20.053  1.00  0.00     0.049 C 
ENDROOT
BRANCH   1  18
HETATM   18  C2  UNL     1      23.448  16.386  23.556  1.00  0.00     0.034 C 
HETATM   19  C1  UNL     1      22.393  16.044  24.650  1.00  0.00     0.008 C 
ENDBRANCH   1  18
BRANCH   1  20
HETATM   20  O1  UNL     1      22.562  16.440  21.392  1.00  0.00    -0.389 OA
ATOM     21  H1  UNL     1      22.574  16.015  20.542  1.00  0.00     0.210 HD
ENDBRANCH   1  20
BRANCH  11  22
HETATM   22  C14 UNL     1      26.036  16.566  21.969  1.00  0.00     0.177 C 
HETATM   23  O2  UNL     1      25.855  17.789  21.711  1.00  0.00    -0.648 OA
HETATM   24  O3  UNL     1      26.816  16.348  23.085  1.00  0.00    -0.648 OA
ENDBRANCH  11  22
TORSDOF 3
ENDMDL
