MODEL 1
REMARK VINA RESULT: -7.469217455      0.000      0.000
REMARK  7 active torsions:
REMARK  status: ('A' for Active; 'I' for Inactive)
REMARK    1  A    between atoms: N1_1  and  C1_4 
REMARK    2  A    between atoms: C2_7  and  C3_8 
REMARK    3  A    between atoms: C6_13  and  C7_14 
REMARK    4  A    between atoms: C8_17  and  C9_18 
REMARK    5  A    between atoms: C9_18  and  C10_19 
REMARK    6  A    between atoms: C11_20  and  C12_21 
REMARK    7  A    between atoms: C15_26  and  N4_27 
ROOT
HETATM    1  C3  UNL     1      -3.320  16.801  30.395  1.00  0.00     0.045 C 
HETATM    2  C4  UNL     1      -4.535  17.080  30.758  1.00  0.00     0.040 A 
HETATM    3  C5  UNL     1      -5.811  17.187  30.062  1.00  0.00     0.258 A 
HETATM    4  O1  UNL     1      -6.203  17.096  28.841  1.00  0.00    -0.267 OA
HETATM    5  N3  UNL     1      -6.447  17.434  31.295  1.00  0.00    -0.293 N 
HETATM    6  C6  UNL     1      -7.649  17.657  32.072  1.00  0.00     0.126 C 
HETATM    7  C8  UNL     1      -7.738  17.206  33.303  1.00  0.00     0.030 C 
HETATM    8  C13 UNL     1      -6.564  16.484  33.856  1.00  0.00     0.191 C 
HETATM    9  O4  UNL     1      -6.559  16.021  35.032  1.00  0.00    -0.287 OA
HETATM   10  C14 UNL     1      -5.390  16.316  33.013  1.00  0.00     0.036 C 
HETATM   11  C15 UNL     1      -4.615  15.292  33.115  1.00  0.00     0.099 C 
HETATM   12  C19 UNL     1      -5.181  17.421  32.022  1.00  0.00     0.171 A 
ENDROOT
BRANCH   1  13
HETATM   13  C2  UNL     1      -2.903  16.488  28.992  1.00  0.00     0.041 A 
HETATM   14  N2  UNL     1      -3.703  16.739  27.983  1.00  0.00    -0.337 N 
HETATM   15  C1  UNL     1      -3.307  16.419  26.752  1.00  0.00     0.142 A 
ATOM     16  H2  UNL     1      -4.613  17.172  28.139  1.00  0.00     0.168 HD
HETATM   17  S1  UNL     1      -1.765  15.744  27.010  1.00  0.00    -0.064 SA
HETATM   18  C20 UNL     1      -1.697  15.904  28.705  1.00  0.00     0.082 A 
BRANCH  15  19
HETATM   19  N1  UNL     1      -3.983  16.601  25.647  1.00  0.00    -0.380 N 
ATOM     20  H12 UNL     1      -4.795  16.107  25.276  1.00  0.00     0.158 HD
ATOM     21  H11 UNL     1      -3.801  17.309  24.935  1.00  0.00     0.158 HD
ENDBRANCH  15  19
ENDBRANCH   1  13
BRANCH   6  22
HETATM   22  C7  UNL     1      -8.669  18.401  31.364  1.00  0.00     0.227 C 
HETATM   23  O2  UNL     1      -9.398  17.925  30.501  1.00  0.00    -0.643 OA
HETATM   24  O3  UNL     1      -8.881  19.752  31.635  1.00  0.00    -0.643 OA
ENDBRANCH   6  22
BRANCH  11  25
HETATM   25  N4  UNL     1      -4.808  14.221  34.048  1.00  0.00    -0.389 N 
HETATM   26  C16 UNL     1      -4.331  13.967  35.388  1.00  0.00     0.123 A 
HETATM   27  C17 UNL     1      -5.137  12.712  35.452  1.00  0.00     0.040 A 
HETATM   28  C18 UNL     1      -5.517  12.964  34.049  1.00  0.00     0.123 A 
ENDBRANCH  11  25
BRANCH   7  29
HETATM   29  C9  UNL     1      -8.888  17.355  34.201  1.00  0.00     0.072 C 
BRANCH  29  30
HETATM   30  C10 UNL     1     -10.034  16.493  33.805  1.00  0.00    -0.025 C 
HETATM   31  C11 UNL     1     -10.887  15.886  34.545  1.00  0.00    -0.020 C 
BRANCH  31  32
HETATM   32  C12 UNL     1     -10.931  15.896  36.011  1.00  0.00     0.112 C 
HETATM   33 BR1  UNL     1     -11.690  14.224  36.670  1.00  0.00    -0.092 Br
ENDBRANCH  31  32
ENDBRANCH  29  30
ENDBRANCH   7  29
TORSDOF 7
ENDMDL
MODEL 2
REMARK VINA RESULT: -7.067295465      6.332     10.108
REMARK  7 active torsions:
REMARK  status: ('A' for Active; 'I' for Inactive)
REMARK    1  A    between atoms: N1_1  and  C1_4 
REMARK    2  A    between atoms: C2_7  and  C3_8 
REMARK    3  A    between atoms: C6_13  and  C7_14 
REMARK    4  A    between atoms: C8_17  and  C9_18 
REMARK    5  A    between atoms: C9_18  and  C10_19 
REMARK    6  A    between atoms: C11_20  and  C12_21 
REMARK    7  A    between atoms: C15_26  and  N4_27 
ROOT
HETATM    1  C3  UNL     1      -1.646  16.462  29.506  1.00  0.00     0.045 C 
HETATM    2  C4  UNL     1      -0.938  15.564  30.122  1.00  0.00     0.040 A 
HETATM    3  C5  UNL     1      -1.148  14.726  31.295  1.00  0.00     0.258 A 
HETATM    4  O1  UNL     1      -2.073  14.593  32.177  1.00  0.00    -0.267 OA
HETATM    5  N3  UNL     1       0.099  14.110  31.061  1.00  0.00    -0.293 N 
HETATM    6  C6  UNL     1       1.094  13.112  31.392  1.00  0.00     0.126 C 
HETATM    7  C8  UNL     1       1.814  12.552  30.446  1.00  0.00     0.030 C 
HETATM    8  C13 UNL     1       1.575  12.994  29.048  1.00  0.00     0.191 C 
HETATM    9  O4  UNL     1       2.224  12.514  28.076  1.00  0.00    -0.287 OA
HETATM   10  C14 UNL     1       0.565  14.013  28.805  1.00  0.00     0.036 C 
HETATM   11  C15 UNL     1      -0.118  14.052  27.713  1.00  0.00     0.099 C 
HETATM   12  C19 UNL     1       0.390  14.986  29.930  1.00  0.00     0.171 A 
ENDROOT
BRANCH   1  13
HETATM   13  C2  UNL     1      -3.016  16.897  29.922  1.00  0.00     0.041 A 
HETATM   14  N2  UNL     1      -3.311  17.064  31.189  1.00  0.00    -0.337 N 
HETATM   15  C1  UNL     1      -4.550  17.423  31.520  1.00  0.00     0.142 A 
ATOM     16  H2  UNL     1      -2.602  16.923  31.909  1.00  0.00     0.168 HD
HETATM   17  S1  UNL     1      -5.333  17.530  30.012  1.00  0.00    -0.064 SA
HETATM   18  C20 UNL     1      -4.020  17.105  29.013  1.00  0.00     0.082 A 
BRANCH  15  19
HETATM   19  N1  UNL     1      -5.001  17.628  32.731  1.00  0.00    -0.380 N 
ATOM     20  H12 UNL     1      -4.659  17.295  33.633  1.00  0.00     0.158 HD
ATOM     21  H11 UNL     1      -5.815  18.187  32.987  1.00  0.00     0.158 HD
ENDBRANCH  15  19
ENDBRANCH   1  13
BRANCH   6  22
HETATM   22  C7  UNL     1       1.192  12.837  32.810  1.00  0.00     0.227 C 
HETATM   23  O2  UNL     1       1.776  13.554  33.614  1.00  0.00    -0.643 OA
HETATM   24  O3  UNL     1       0.607  11.695  33.355  1.00  0.00    -0.643 OA
ENDBRANCH   6  22
BRANCH  11  25
HETATM   25  N4  UNL     1       0.029  13.122  26.633  1.00  0.00    -0.389 N 
HETATM   26  C16 UNL     1       0.601  13.212  25.309  1.00  0.00     0.123 A 
HETATM   27  C17 UNL     1       0.324  11.764  25.076  1.00  0.00     0.040 A 
HETATM   28  C18 UNL     1      -0.338  11.747  26.395  1.00  0.00     0.123 A 
ENDBRANCH  11  25
BRANCH   7  29
HETATM   29  C9  UNL     1       2.850  11.531  30.633  1.00  0.00     0.072 C 
BRANCH  29  30
HETATM   30  C10 UNL     1       2.316  10.149  30.505  1.00  0.00    -0.025 C 
HETATM   31  C11 UNL     1       2.651   9.222  29.686  1.00  0.00    -0.020 C 
BRANCH  31  32
HETATM   32  C12 UNL     1       3.673   9.313  28.638  1.00  0.00     0.112 C 
HETATM   33 BR1  UNL     1       5.429   8.889  29.375  1.00  0.00    -0.092 Br
ENDBRANCH  31  32
ENDBRANCH  29  30
ENDBRANCH   7  29
TORSDOF 7
ENDMDL
MODEL 3
REMARK VINA RESULT: -7.028944465      7.592      9.890
REMARK  7 active torsions:
REMARK  status: ('A' for Active; 'I' for Inactive)
REMARK    1  A    between atoms: N1_1  and  C1_4 
REMARK    2  A    between atoms: C2_7  and  C3_8 
REMARK    3  A    between atoms: C6_13  and  C7_14 
REMARK    4  A    between atoms: C8_17  and  C9_18 
REMARK    5  A    between atoms: C9_18  and  C10_19 
REMARK    6  A    between atoms: C11_20  and  C12_21 
REMARK    7  A    between atoms: C15_26  and  N4_27 
ROOT
HETATM    1  C3  UNL     1       4.186  12.173  29.379  1.00  0.00     0.045 C 
HETATM    2  C4  UNL     1       3.093  11.947  30.043  1.00  0.00     0.040 A 
HETATM    3  C5  UNL     1       2.042  12.790  30.600  1.00  0.00     0.258 A 
HETATM    4  O1  UNL     1       1.827  14.054  30.686  1.00  0.00    -0.267 OA
HETATM    5  N3  UNL     1       1.349  11.632  31.009  1.00  0.00    -0.293 N 
HETATM    6  C6  UNL     1       0.189  11.001  31.602  1.00  0.00     0.126 C 
HETATM    7  C8  UNL     1      -0.226   9.832  31.169  1.00  0.00     0.030 C 
HETATM    8  C13 UNL     1       0.547   9.192  30.073  1.00  0.00     0.191 C 
HETATM    9  O4  UNL     1       0.224   8.066  29.598  1.00  0.00    -0.287 OA
HETATM   10  C14 UNL     1       1.709   9.888  29.543  1.00  0.00     0.036 C 
HETATM   11  C15 UNL     1       2.076   9.770  28.314  1.00  0.00     0.099 C 
HETATM   12  C19 UNL     1       2.417  10.752  30.542  1.00  0.00     0.171 A 
ENDROOT
BRANCH   1  13
HETATM   13  C2  UNL     1       4.678  13.531  28.988  1.00  0.00     0.041 A 
HETATM   14  N2  UNL     1       4.044  14.239  28.083  1.00  0.00    -0.337 N 
HETATM   15  C1  UNL     1       4.531  15.431  27.741  1.00  0.00     0.142 A 
ATOM     16  H2  UNL     1       3.193  13.882  27.649  1.00  0.00     0.168 HD
HETATM   17  S1  UNL     1       5.920  15.570  28.715  1.00  0.00    -0.064 SA
HETATM   18  C20 UNL     1       5.814  14.075  29.526  1.00  0.00     0.082 A 
BRANCH  15  19
HETATM   19  N1  UNL     1       4.022  16.253  26.861  1.00  0.00    -0.380 N 
ATOM     20  H12 UNL     1       3.050  16.458  26.626  1.00  0.00     0.158 HD
ATOM     21  H11 UNL     1       4.542  16.862  26.229  1.00  0.00     0.158 HD
ENDBRANCH  15  19
ENDBRANCH   1  13
BRANCH   6  22
HETATM   22  C7  UNL     1      -0.409  11.772  32.671  1.00  0.00     0.227 C 
HETATM   23  O2  UNL     1      -0.201  11.578  33.863  1.00  0.00    -0.643 OA
HETATM   24  O3  UNL     1      -1.290  12.814  32.389  1.00  0.00    -0.643 OA
ENDBRANCH   6  22
BRANCH  11  25
HETATM   25  N4  UNL     1       1.404   8.958  27.343  1.00  0.00    -0.389 N 
HETATM   26  C16 UNL     1       1.642   7.637  26.809  1.00  0.00     0.123 A 
HETATM   27  C17 UNL     1       0.397   7.727  25.992  1.00  0.00     0.040 A 
HETATM   28  C18 UNL     1       0.250   9.109  26.489  1.00  0.00     0.123 A 
ENDBRANCH  11  25
BRANCH   7  29
HETATM   29  C9  UNL     1      -1.380   9.079  31.671  1.00  0.00     0.072 C 
BRANCH  29  30
HETATM   30  C10 UNL     1      -2.672   9.620  31.171  1.00  0.00    -0.025 C 
HETATM   31  C11 UNL     1      -3.640  10.145  31.825  1.00  0.00    -0.020 C 
BRANCH  31  32
HETATM   32  C12 UNL     1      -3.706  10.339  33.277  1.00  0.00     0.112 C 
HETATM   33 BR1  UNL     1      -5.132  11.594  33.723  1.00  0.00    -0.092 Br
ENDBRANCH  31  32
ENDBRANCH  29  30
ENDBRANCH   7  29
TORSDOF 7
ENDMDL
MODEL 4
REMARK VINA RESULT: -6.957650073      1.733      2.022
REMARK  7 active torsions:
REMARK  status: ('A' for Active; 'I' for Inactive)
REMARK    1  A    between atoms: N1_1  and  C1_4 
REMARK    2  A    between atoms: C2_7  and  C3_8 
REMARK    3  A    between atoms: C6_13  and  C7_14 
REMARK    4  A    between atoms: C8_17  and  C9_18 
REMARK    5  A    between atoms: C9_18  and  C10_19 
REMARK    6  A    between atoms: C11_20  and  C12_21 
REMARK    7  A    between atoms: C15_26  and  N4_27 
ROOT
HETATM    1  C3  UNL     1      -5.302  18.029  30.251  1.00  0.00     0.045 C 
HETATM    2  C4  UNL     1      -6.447  17.879  30.844  1.00  0.00     0.040 A 
HETATM    3  C5  UNL     1      -7.805  17.606  30.391  1.00  0.00     0.258 A 
HETATM    4  O1  UNL     1      -8.383  17.461  29.253  1.00  0.00    -0.267 OA
HETATM    5  N3  UNL     1      -8.230  17.565  31.735  1.00  0.00    -0.293 N 
HETATM    6  C6  UNL     1      -9.264  17.344  32.725  1.00  0.00     0.126 C 
HETATM    7  C8  UNL     1      -8.966  16.821  33.892  1.00  0.00     0.030 C 
HETATM    8  C13 UNL     1      -7.541  16.488  34.151  1.00  0.00     0.191 C 
HETATM    9  O4  UNL     1      -7.163  15.987  35.248  1.00  0.00    -0.287 OA
HETATM   10  C14 UNL     1      -6.563  16.756  33.109  1.00  0.00     0.036 C 
HETATM   11  C15 UNL     1      -5.507  16.034  32.959  1.00  0.00     0.099 C 
HETATM   12  C19 UNL     1      -6.904  17.922  32.231  1.00  0.00     0.171 A 
ENDROOT
BRANCH   1  13
HETATM   13  C2  UNL     1      -5.094  17.947  28.771  1.00  0.00     0.041 A 
HETATM   14  N2  UNL     1      -5.740  18.748  27.958  1.00  0.00    -0.337 N 
HETATM   15  C1  UNL     1      -5.550  18.624  26.645  1.00  0.00     0.142 A 
ATOM     16  H2  UNL     1      -6.377  19.455  28.325  1.00  0.00     0.168 HD
HETATM   17  S1  UNL     1      -4.432  17.345  26.541  1.00  0.00    -0.064 SA
HETATM   18  C20 UNL     1      -4.256  17.023  28.205  1.00  0.00     0.082 A 
BRANCH  15  19
HETATM   19  N1  UNL     1      -6.116  19.339  25.708  1.00  0.00    -0.380 N 
ATOM     20  H12 UNL     1      -5.820  20.210  25.267  1.00  0.00     0.158 HD
ATOM     21  H11 UNL     1      -6.997  19.131  25.235  1.00  0.00     0.158 HD
ENDBRANCH  15  19
ENDBRANCH   1  13
BRANCH   6  22
HETATM   22  C7  UNL     1     -10.582  17.756  32.290  1.00  0.00     0.227 C 
HETATM   23  O2  UNL     1     -11.530  16.994  32.140  1.00  0.00    -0.643 OA
HETATM   24  O3  UNL     1     -10.851  19.094  32.006  1.00  0.00    -0.643 OA
ENDBRANCH   6  22
BRANCH  11  25
HETATM   25  N4  UNL     1      -5.173  14.908  33.781  1.00  0.00    -0.389 N 
HETATM   26  C16 UNL     1      -4.349  14.740  34.956  1.00  0.00     0.123 A 
HETATM   27  C17 UNL     1      -4.736  13.301  35.038  1.00  0.00     0.040 A 
HETATM   28  C18 UNL     1      -5.483  13.499  33.781  1.00  0.00     0.123 A 
ENDBRANCH  11  25
BRANCH   7  29
HETATM   29  C9  UNL     1      -9.905  16.540  34.983  1.00  0.00     0.072 C 
BRANCH  29  30
HETATM   30  C10 UNL     1     -10.870  15.461  34.639  1.00  0.00    -0.025 C 
HETATM   31  C11 UNL     1     -11.561  14.712  35.415  1.00  0.00    -0.020 C 
BRANCH  31  32
HETATM   32  C12 UNL     1     -11.559  14.740  36.882  1.00  0.00     0.112 C 
HETATM   33 BR1  UNL     1     -12.011  12.979  37.587  1.00  0.00    -0.092 Br
ENDBRANCH  31  32
ENDBRANCH  29  30
ENDBRANCH   7  29
TORSDOF 7
ENDMDL
MODEL 5
REMARK VINA RESULT: -6.860667384      7.775      9.709
REMARK  7 active torsions:
REMARK  status: ('A' for Active; 'I' for Inactive)
REMARK    1  A    between atoms: N1_1  and  C1_4 
REMARK    2  A    between atoms: C2_7  and  C3_8 
REMARK    3  A    between atoms: C6_13  and  C7_14 
REMARK    4  A    between atoms: C8_17  and  C9_18 
REMARK    5  A    between atoms: C9_18  and  C10_19 
REMARK    6  A    between atoms: C11_20  and  C12_21 
REMARK    7  A    between atoms: C15_26  and  N4_27 
ROOT
HETATM    1  C3  UNL     1       4.241  13.253  27.740  1.00  0.00     0.045 C 
HETATM    2  C4  UNL     1       3.424  13.165  28.745  1.00  0.00     0.040 A 
HETATM    3  C5  UNL     1       2.621  14.121  29.497  1.00  0.00     0.258 A 
HETATM    4  O1  UNL     1       2.457  15.396  29.483  1.00  0.00    -0.267 OA
HETATM    5  N3  UNL     1       2.091  13.058  30.256  1.00  0.00    -0.293 N 
HETATM    6  C6  UNL     1       1.183  12.562  31.270  1.00  0.00     0.126 C 
HETATM    7  C8  UNL     1       0.639  11.372  31.151  1.00  0.00     0.030 C 
HETATM    8  C13 UNL     1       1.005  10.567  29.957  1.00  0.00     0.191 C 
HETATM    9  O4  UNL     1       0.535   9.410  29.764  1.00  0.00    -0.287 OA
HETATM   10  C14 UNL     1       1.935  11.134  28.994  1.00  0.00     0.036 C 
HETATM   11  C15 UNL     1       1.878  10.850  27.738  1.00  0.00     0.099 C 
HETATM   12  C19 UNL     1       2.939  12.075  29.588  1.00  0.00     0.171 A 
ENDROOT
BRANCH   1  13
HETATM   13  C2  UNL     1       4.590  14.527  27.037  1.00  0.00     0.041 A 
HETATM   14  N2  UNL     1       3.650  15.326  26.591  1.00  0.00    -0.337 N 
HETATM   15  C1  UNL     1       4.000  16.436  25.944  1.00  0.00     0.142 A 
ATOM     16  H2  UNL     1       2.665  15.100  26.738  1.00  0.00     0.168 HD
HETATM   17  S1  UNL     1       5.701  16.364  25.958  1.00  0.00    -0.064 SA
HETATM   18  C20 UNL     1       5.888  14.896  26.802  1.00  0.00     0.082 A 
BRANCH  15  19
HETATM   19  N1  UNL     1       3.189  17.330  25.440  1.00  0.00    -0.380 N 
ATOM     20  H12 UNL     1       2.595  18.022  25.898  1.00  0.00     0.158 HD
ATOM     21  H11 UNL     1       3.008  17.493  24.449  1.00  0.00     0.158 HD
ENDBRANCH  15  19
ENDBRANCH   1  13
BRANCH   6  22
HETATM   22  C7  UNL     1       0.975  13.486  32.364  1.00  0.00     0.227 C 
HETATM   23  O2  UNL     1       0.147  14.390  32.358  1.00  0.00    -0.643 OA
HETATM   24  O3  UNL     1       1.736  13.393  33.528  1.00  0.00    -0.643 OA
ENDBRANCH   6  22
BRANCH  11  25
HETATM   25  N4  UNL     1       0.918   9.962  27.152  1.00  0.00    -0.389 N 
HETATM   26  C16 UNL     1       0.958   8.576  26.745  1.00  0.00     0.123 A 
HETATM   27  C17 UNL     1      -0.486   8.630  26.372  1.00  0.00     0.040 A 
HETATM   28  C18 UNL     1      -0.451  10.067  26.707  1.00  0.00     0.123 A 
ENDBRANCH  11  25
BRANCH   7  29
HETATM   29  C9  UNL     1      -0.293  10.745  32.093  1.00  0.00     0.072 C 
BRANCH  29  30
HETATM   30  C10 UNL     1      -1.713  11.066  31.786  1.00  0.00    -0.025 C 
HETATM   31  C11 UNL     1      -2.780  10.678  32.380  1.00  0.00    -0.020 C 
BRANCH  31  32
HETATM   32  C12 UNL     1      -2.854   9.786  33.542  1.00  0.00     0.112 C 
HETATM   33 BR1  UNL     1      -3.157  10.824  35.166  1.00  0.00    -0.092 Br
ENDBRANCH  31  32
ENDBRANCH  29  30
ENDBRANCH   7  29
TORSDOF 7
ENDMDL
