MODEL 1
REMARK VINA RESULT: -6.583080274      0.000      0.000
REMARK  6 active torsions:
REMARK  status: ('A' for Active; 'I' for Inactive)
REMARK    1  A    between atoms: N1_2  and  C2_4 
REMARK    2  A    between atoms: C3_7  and  N3_8 
REMARK       I    between atoms: N3_8  and  C5_10 
REMARK    3  A    between atoms: C6_15  and  N6_16 
REMARK    4  A    between atoms: C7_19  and  O3_20 
REMARK    5  A    between atoms: O3_20  and  N7_21 
REMARK    6  A    between atoms: N7_21  and  C8_23 
ROOT
HETATM    1  C2  UNL     1      35.844  -2.448  11.315  1.00  0.00     0.681 A 
HETATM    2  N2  UNL     1      36.914  -2.724  12.059  1.00  0.00    -0.174 N 
ATOM      3  H2  UNL     1      37.654  -2.022  12.098  1.00  0.00     0.186 HD
HETATM    4  C3  UNL     1      37.099  -3.872  12.773  1.00  0.00     0.163 A 
HETATM    5  C6  UNL     1      36.095  -4.797  12.709  1.00  0.00     0.201 A 
HETATM    6  C7  UNL     1      34.960  -4.520  11.926  1.00  0.00     0.222 A 
HETATM    7  N12 UNL     1      34.860  -3.349  11.245  1.00  0.00    -0.166 N 
ATOM      8  H12 UNL     1      34.033  -3.157  10.678  1.00  0.00     0.186 HD
ENDROOT
BRANCH   6   9
HETATM    9  O3  UNL     1      33.948  -5.449  11.857  1.00  0.00    -0.202 OA
BRANCH   9  10
HETATM   10  N7  UNL     1      34.035  -6.608  11.146  1.00  0.00    -0.086 N 
ATOM     11  H7  UNL     1      34.455  -6.587  10.217  1.00  0.00     0.214 HD
BRANCH  10  12
HETATM   12  C8  UNL     1      33.597  -7.739  11.614  1.00  0.00     0.734 A 
HETATM   13  N8  UNL     1      33.083  -8.771  10.954  1.00  0.00    -0.113 N 
HETATM   14  N9  UNL     1      32.773  -9.711  11.844  1.00  0.00    -0.213 N 
ATOM     15  H8  UNL     1      32.949  -8.833   9.945  1.00  0.00     0.207 HD
HETATM   16  N10 UNL     1      33.078  -9.304  13.054  1.00  0.00    -0.213 N 
ATOM     17  H9  UNL     1      32.359 -10.616  11.619  1.00  0.00     0.210 HD
HETATM   18  N11 UNL     1      33.592  -8.073  12.904  1.00  0.00    -0.113 N 
ATOM     19  H10 UNL     1      32.951  -9.816  13.927  1.00  0.00     0.210 HD
ATOM     20  H11 UNL     1      33.928  -7.481  13.664  1.00  0.00     0.207 HD
ENDBRANCH  10  12
ENDBRANCH   9  10
ENDBRANCH   6   9
BRANCH   5  21
HETATM   21  N6  UNL     1      36.107  -6.040  13.421  1.00  0.00    -0.107 N 
HETATM   22  O1  UNL     1      35.585  -6.141  14.562  1.00  0.00    -0.531 OA
HETATM   23  O2  UNL     1      36.644  -7.184  12.893  1.00  0.00    -0.531 OA
ENDBRANCH   5  21
BRANCH   4  24
HETATM   24  N3  UNL     1      38.324  -4.055  13.466  1.00  0.00    -0.309 N 
HETATM   25  C4  UNL     1      39.373  -4.839  12.797  1.00  0.00     0.160 C 
HETATM   26  C5  UNL     1      38.607  -3.611  14.760  1.00  0.00     0.189 C 
HETATM   27  N4  UNL     1      37.986  -4.145  15.788  1.00  0.00    -0.373 N 
HETATM   28  N5  UNL     1      39.554  -2.621  15.078  1.00  0.00    -0.064 NA
ATOM     29  H42 UNL     1      37.299  -4.862  15.557  1.00  0.00     0.158 HD
ATOM     30  H41 UNL     1      38.193  -3.821  16.732  1.00  0.00     0.158 HD
ENDBRANCH   4  24
BRANCH   1  31
HETATM   31  N1  UNL     1      35.800  -1.344  10.695  1.00  0.00    -0.230 N 
HETATM   32  C1  UNL     1      36.390  -0.093  11.006  1.00  0.00     0.165 C 
ATOM     33  H1  UNL     1      35.252  -1.357   9.834  1.00  0.00     0.177 HD
ENDBRANCH   1  31
TORSDOF 6
ENDMDL
MODEL 2
REMARK VINA RESULT: -6.557089658      5.851      9.333
REMARK  6 active torsions:
REMARK  status: ('A' for Active; 'I' for Inactive)
REMARK    1  A    between atoms: N1_2  and  C2_4 
REMARK    2  A    between atoms: C3_7  and  N3_8 
REMARK       I    between atoms: N3_8  and  C5_10 
REMARK    3  A    between atoms: C6_15  and  N6_16 
REMARK    4  A    between atoms: C7_19  and  O3_20 
REMARK    5  A    between atoms: O3_20  and  N7_21 
REMARK    6  A    between atoms: N7_21  and  C8_23 
ROOT
HETATM    1  C2  UNL     1      37.196   0.939  16.938  1.00  0.00     0.681 A 
HETATM    2  N2  UNL     1      37.520  -0.088  16.154  1.00  0.00    -0.174 N 
ATOM      3  H2  UNL     1      37.678  -0.991  16.602  1.00  0.00     0.186 HD
HETATM    4  C3  UNL     1      37.658  -0.027  14.798  1.00  0.00     0.163 A 
HETATM    5  C6  UNL     1      37.439   1.191  14.217  1.00  0.00     0.201 A 
HETATM    6  C7  UNL     1      37.098   2.285  15.033  1.00  0.00     0.222 A 
HETATM    7  N12 UNL     1      36.983   2.134  16.378  1.00  0.00    -0.166 N 
ATOM      8  H12 UNL     1      36.735   2.933  16.962  1.00  0.00     0.186 HD
ENDROOT
BRANCH   6   9
HETATM    9  O3  UNL     1      36.878   3.511  14.453  1.00  0.00    -0.202 OA
BRANCH   9  10
HETATM   10  N7  UNL     1      35.761   3.819  13.736  1.00  0.00    -0.086 N 
ATOM     11  H7  UNL     1      35.139   3.065  13.444  1.00  0.00     0.214 HD
BRANCH  10  12
HETATM   12  C8  UNL     1      35.464   5.042  13.411  1.00  0.00     0.734 A 
HETATM   13  N8  UNL     1      34.273   5.567  13.141  1.00  0.00    -0.113 N 
HETATM   14  N9  UNL     1      34.450   6.855  12.859  1.00  0.00    -0.213 N 
ATOM     15  H8  UNL     1      33.382   5.071  13.149  1.00  0.00     0.207 HD
HETATM   16  N10 UNL     1      35.723   7.165  12.943  1.00  0.00    -0.213 N 
ATOM     17  H9  UNL     1      33.706   7.508  12.613  1.00  0.00     0.210 HD
HETATM   18  N11 UNL     1      36.350   6.029  13.288  1.00  0.00    -0.113 N 
ATOM     19  H10 UNL     1      36.147   8.078  12.781  1.00  0.00     0.210 HD
ATOM     20  H11 UNL     1      37.356   5.936  13.434  1.00  0.00     0.207 HD
ENDBRANCH  10  12
ENDBRANCH   9  10
ENDBRANCH   6   9
BRANCH   5  21
HETATM   21  N6  UNL     1      37.507   1.427  12.806  1.00  0.00    -0.107 N 
HETATM   22  O1  UNL     1      38.593   1.735  12.250  1.00  0.00    -0.531 OA
HETATM   23  O2  UNL     1      36.419   1.294  11.986  1.00  0.00    -0.531 OA
ENDBRANCH   5  21
BRANCH   4  24
HETATM   24  N3  UNL     1      38.077  -1.191  14.102  1.00  0.00    -0.309 N 
HETATM   25  C4  UNL     1      39.520  -1.369  13.882  1.00  0.00     0.160 C 
HETATM   26  C5  UNL     1      37.237  -2.159  13.546  1.00  0.00     0.189 C 
HETATM   27  N4  UNL     1      36.480  -1.858  12.516  1.00  0.00    -0.373 N 
HETATM   28  N5  UNL     1      37.144  -3.490  13.992  1.00  0.00    -0.064 NA
ATOM     29  H42 UNL     1      36.547  -0.893  12.193  1.00  0.00     0.158 HD
ATOM     30  H41 UNL     1      35.867  -2.565  12.110  1.00  0.00     0.158 HD
ENDBRANCH   4  24
BRANCH   1  31
HETATM   31  N1  UNL     1      37.105   0.749  18.188  1.00  0.00    -0.230 N 
HETATM   32  C1  UNL     1      37.139   1.675  19.261  1.00  0.00     0.165 C 
ATOM     33  H1  UNL     1      36.990  -0.226  18.466  1.00  0.00     0.177 HD
ENDBRANCH   1  31
TORSDOF 6
ENDMDL
MODEL 3
REMARK VINA RESULT: -6.481571455      5.390      8.751
REMARK  6 active torsions:
REMARK  status: ('A' for Active; 'I' for Inactive)
REMARK    1  A    between atoms: N1_2  and  C2_4 
REMARK    2  A    between atoms: C3_7  and  N3_8 
REMARK       I    between atoms: N3_8  and  C5_10 
REMARK    3  A    between atoms: C6_15  and  N6_16 
REMARK    4  A    between atoms: C7_19  and  O3_20 
REMARK    5  A    between atoms: O3_20  and  N7_21 
REMARK    6  A    between atoms: N7_21  and  C8_23 
ROOT
HETATM    1  C2  UNL     1      36.797  -0.898  12.042  1.00  0.00     0.681 A 
HETATM    2  N2  UNL     1      37.498  -1.151  13.146  1.00  0.00    -0.174 N 
ATOM      3  H2  UNL     1      37.771  -2.119  13.318  1.00  0.00     0.186 HD
HETATM    4  C3  UNL     1      37.880  -0.217  14.065  1.00  0.00     0.163 A 
HETATM    5  C6  UNL     1      37.506   1.073  13.814  1.00  0.00     0.201 A 
HETATM    6  C7  UNL     1      36.764   1.355  12.652  1.00  0.00     0.222 A 
HETATM    7  N12 UNL     1      36.425   0.361  11.791  1.00  0.00    -0.166 N 
ATOM      8  H12 UNL     1      35.886   0.575  10.951  1.00  0.00     0.186 HD
ENDROOT
BRANCH   6   9
HETATM    9  O3  UNL     1      36.385   2.651  12.396  1.00  0.00    -0.202 OA
BRANCH   9  10
HETATM   10  N7  UNL     1      35.690   3.423  13.279  1.00  0.00    -0.086 N 
ATOM     11  H7  UNL     1      35.102   2.968  13.977  1.00  0.00     0.214 HD
BRANCH  10  12
HETATM   12  C8  UNL     1      35.753   4.722  13.259  1.00  0.00     0.734 A 
HETATM   13  N8  UNL     1      34.760   5.605  13.263  1.00  0.00    -0.113 N 
HETATM   14  N9  UNL     1      35.297   6.822  13.236  1.00  0.00    -0.213 N 
ATOM     15  H8  UNL     1      33.764   5.388  13.283  1.00  0.00     0.207 HD
HETATM   16  N10 UNL     1      36.607   6.737  13.217  1.00  0.00    -0.213 N 
ATOM     17  H9  UNL     1      34.768   7.694  13.231  1.00  0.00     0.210 HD
HETATM   18  N11 UNL     1      36.885   5.424  13.231  1.00  0.00    -0.113 N 
ATOM     19  H10 UNL     1      37.274   7.508  13.195  1.00  0.00     0.210 HD
ATOM     20  H11 UNL     1      37.823   5.024  13.222  1.00  0.00     0.207 HD
ENDBRANCH  10  12
ENDBRANCH   9  10
ENDBRANCH   6   9
BRANCH   5  21
HETATM   21  N6  UNL     1      37.849   2.183  14.652  1.00  0.00    -0.107 N 
HETATM   22  O1  UNL     1      38.801   2.951  14.357  1.00  0.00    -0.531 OA
HETATM   23  O2  UNL     1      37.148   2.490  15.788  1.00  0.00    -0.531 OA
ENDBRANCH   5  21
BRANCH   4  24
HETATM   24  N3  UNL     1      38.566  -0.648  15.230  1.00  0.00    -0.309 N 
HETATM   25  C4  UNL     1      39.985  -1.006  15.090  1.00  0.00     0.160 C 
HETATM   26  C5  UNL     1      38.000  -0.826  16.495  1.00  0.00     0.189 C 
HETATM   27  N4  UNL     1      37.129  -1.790  16.694  1.00  0.00    -0.373 N 
HETATM   28  N5  UNL     1      38.310  -0.052  17.628  1.00  0.00    -0.064 NA
ATOM     29  H42 UNL     1      36.904  -2.350  15.873  1.00  0.00     0.158 HD
ATOM     30  H41 UNL     1      36.716  -1.920  17.617  1.00  0.00     0.158 HD
ENDBRANCH   4  24
BRANCH   1  31
HETATM   31  N1  UNL     1      36.502  -1.860  11.272  1.00  0.00    -0.230 N 
HETATM   32  C1  UNL     1      35.272  -2.540  11.084  1.00  0.00     0.165 C 
ATOM     33  H1  UNL     1      37.272  -2.199  10.695  1.00  0.00     0.177 HD
ENDBRANCH   1  31
TORSDOF 6
ENDMDL
MODEL 4
REMARK VINA RESULT: -6.455642170      5.989      9.316
REMARK  6 active torsions:
REMARK  status: ('A' for Active; 'I' for Inactive)
REMARK    1  A    between atoms: N1_2  and  C2_4 
REMARK    2  A    between atoms: C3_7  and  N3_8 
REMARK       I    between atoms: N3_8  and  C5_10 
REMARK    3  A    between atoms: C6_15  and  N6_16 
REMARK    4  A    between atoms: C7_19  and  O3_20 
REMARK    5  A    between atoms: O3_20  and  N7_21 
REMARK    6  A    between atoms: N7_21  and  C8_23 
ROOT
HETATM    1  C2  UNL     1      36.840  -0.605  12.910  1.00  0.00     0.681 A 
HETATM    2  N2  UNL     1      38.156  -0.527  13.103  1.00  0.00    -0.174 N 
ATOM      3  H2  UNL     1      38.662  -1.401  13.250  1.00  0.00     0.186 HD
HETATM    4  C3  UNL     1      38.880   0.629  13.120  1.00  0.00     0.163 A 
HETATM    5  C6  UNL     1      38.183   1.788  12.918  1.00  0.00     0.201 A 
HETATM    6  C7  UNL     1      36.792   1.721  12.715  1.00  0.00     0.222 A 
HETATM    7  N12 UNL     1      36.151   0.524  12.715  1.00  0.00    -0.166 N 
ATOM      8  H12 UNL     1      35.142   0.485  12.567  1.00  0.00     0.186 HD
ENDROOT
BRANCH   6   9
HETATM    9  O3  UNL     1      36.087   2.884  12.513  1.00  0.00    -0.202 OA
BRANCH   9  10
HETATM   10  N7  UNL     1      35.686   3.708  13.521  1.00  0.00    -0.086 N 
ATOM     11  H7  UNL     1      35.537   3.315  14.450  1.00  0.00     0.214 HD
BRANCH  10  12
HETATM   12  C8  UNL     1      35.485   4.979  13.336  1.00  0.00     0.734 A 
HETATM   13  N8  UNL     1      34.338   5.623  13.146  1.00  0.00    -0.113 N 
HETATM   14  N9  UNL     1      34.617   6.916  13.002  1.00  0.00    -0.213 N 
ATOM     15  H8  UNL     1      33.410   5.201  13.116  1.00  0.00     0.207 HD
HETATM   16  N10 UNL     1      35.911   7.113  13.096  1.00  0.00    -0.213 N 
ATOM     17  H9  UNL     1      33.925   7.649  12.841  1.00  0.00     0.210 HD
HETATM   18  N11 UNL     1      36.448   5.900  13.305  1.00  0.00    -0.113 N 
ATOM     19  H10 UNL     1      36.406   8.002  13.026  1.00  0.00     0.210 HD
ATOM     20  H11 UNL     1      37.443   5.712  13.422  1.00  0.00     0.207 HD
ENDBRANCH  10  12
ENDBRANCH   9  10
ENDBRANCH   6   9
BRANCH   5  21
HETATM   21  N6  UNL     1      38.787   3.086  12.870  1.00  0.00    -0.107 N 
HETATM   22  O1  UNL     1      39.298   3.526  11.808  1.00  0.00    -0.531 OA
HETATM   23  O2  UNL     1      38.807   3.926  13.951  1.00  0.00    -0.531 OA
ENDBRANCH   5  21
BRANCH   4  24
HETATM   24  N3  UNL     1      40.268   0.560  13.407  1.00  0.00    -0.309 N 
HETATM   25  C4  UNL     1      40.684   0.752  14.804  1.00  0.00     0.160 C 
HETATM   26  C5  UNL     1      41.290   0.391  12.470  1.00  0.00     0.189 C 
HETATM   27  N4  UNL     1      41.552   1.343  11.604  1.00  0.00    -0.373 N 
HETATM   28  N5  UNL     1      42.116  -0.745  12.383  1.00  0.00    -0.064 NA
ATOM     29  H42 UNL     1      40.953   2.166  11.667  1.00  0.00     0.158 HD
ATOM     30  H41 UNL     1      42.298   1.219  10.920  1.00  0.00     0.158 HD
ENDBRANCH   4  24
BRANCH   1  31
HETATM   31  N1  UNL     1      36.286  -1.745  12.923  1.00  0.00    -0.230 N 
HETATM   32  C1  UNL     1      35.694  -2.489  11.872  1.00  0.00     0.165 C 
ATOM     33  H1  UNL     1      36.263  -2.199  13.836  1.00  0.00     0.177 HD
ENDBRANCH   1  31
TORSDOF 6
ENDMDL
MODEL 5
REMARK VINA RESULT: -6.418126565      6.255      9.664
REMARK  6 active torsions:
REMARK  status: ('A' for Active; 'I' for Inactive)
REMARK    1  A    between atoms: N1_2  and  C2_4 
REMARK    2  A    between atoms: C3_7  and  N3_8 
REMARK       I    between atoms: N3_8  and  C5_10 
REMARK    3  A    between atoms: C6_15  and  N6_16 
REMARK    4  A    between atoms: C7_19  and  O3_20 
REMARK    5  A    between atoms: O3_20  and  N7_21 
REMARK    6  A    between atoms: N7_21  and  C8_23 
ROOT
HETATM    1  C2  UNL     1      40.143   2.509  12.479  1.00  0.00     0.681 A 
HETATM    2  N2  UNL     1      39.471   1.359  12.450  1.00  0.00    -0.174 N 
ATOM      3  H2  UNL     1      39.921   0.563  11.997  1.00  0.00     0.186 HD
HETATM    4  C3  UNL     1      38.229   1.162  12.979  1.00  0.00     0.163 A 
HETATM    5  C6  UNL     1      37.646   2.241  13.583  1.00  0.00     0.201 A 
HETATM    6  C7  UNL     1      38.343   3.463  13.619  1.00  0.00     0.222 A 
HETATM    7  N12 UNL     1      39.579   3.570  13.065  1.00  0.00    -0.166 N 
ATOM      8  H12 UNL     1      40.077   4.460  13.095  1.00  0.00     0.186 HD
ENDROOT
BRANCH   6   9
HETATM    9  O3  UNL     1      37.760   4.550  14.224  1.00  0.00    -0.202 OA
BRANCH   9  10
HETATM   10  N7  UNL     1      37.402   5.684  13.558  1.00  0.00    -0.086 N 
ATOM     11  H7  UNL     1      38.134   6.306  13.213  1.00  0.00     0.214 HD
BRANCH  10  12
HETATM   12  C8  UNL     1      36.159   5.998  13.347  1.00  0.00     0.734 A 
HETATM   13  N8  UNL     1      35.105   5.197  13.230  1.00  0.00    -0.113 N 
HETATM   14  N9  UNL     1      34.035   5.961  13.021  1.00  0.00    -0.213 N 
ATOM     15  H8  UNL     1      35.114   4.180  13.289  1.00  0.00     0.207 HD
HETATM   16  N10 UNL     1      34.380   7.227  13.003  1.00  0.00    -0.213 N 
ATOM     17  H9  UNL     1      33.085   5.612  12.893  1.00  0.00     0.210 HD
HETATM   18  N11 UNL     1      35.706   7.244  13.207  1.00  0.00    -0.113 N 
ATOM     19  H10 UNL     1      33.768   8.031  12.863  1.00  0.00     0.210 HD
ATOM     20  H11 UNL     1      36.282   8.085  13.249  1.00  0.00     0.207 HD
ENDBRANCH  10  12
ENDBRANCH   9  10
ENDBRANCH   6   9
BRANCH   5  21
HETATM   21  N6  UNL     1      36.363   2.204  14.219  1.00  0.00    -0.107 N 
HETATM   22  O1  UNL     1      35.307   2.407  13.565  1.00  0.00    -0.531 OA
HETATM   23  O2  UNL     1      36.210   1.911  15.548  1.00  0.00    -0.531 OA
ENDBRANCH   5  21
BRANCH   4  24
HETATM   24  N3  UNL     1      37.609  -0.103  12.811  1.00  0.00    -0.309 N 
HETATM   25  C4  UNL     1      36.707  -0.271  11.662  1.00  0.00     0.160 C 
HETATM   26  C5  UNL     1      37.726  -1.193  13.677  1.00  0.00     0.189 C 
HETATM   27  N4  UNL     1      37.202  -1.135  14.880  1.00  0.00    -0.373 N 
HETATM   28  N5  UNL     1      38.358  -2.408  13.354  1.00  0.00    -0.064 NA
ATOM     29  H42 UNL     1      36.744  -0.254  15.114  1.00  0.00     0.158 HD
ATOM     30  H41 UNL     1      37.287  -1.931  15.511  1.00  0.00     0.158 HD
ENDBRANCH   4  24
BRANCH   1  31
HETATM   31  N1  UNL     1      41.291   2.560  11.944  1.00  0.00    -0.230 N 
HETATM   32  C1  UNL     1      42.580   2.470  12.528  1.00  0.00     0.165 C 
ATOM     33  H1  UNL     1      41.287   2.686  10.932  1.00  0.00     0.177 HD
ENDBRANCH   1  31
TORSDOF 6
ENDMDL
