MODEL 1
REMARK VINA RESULT: -5.679055873      0.000      0.000
REMARK  8 active torsions:
REMARK  status: ('A' for Active; 'I' for Inactive)
REMARK    1  A    between atoms: C2_2  and  O1_3 
REMARK    2  A    between atoms: O1_3  and  C3_4 
REMARK    3  A    between atoms: C3_4  and  N1_5 
REMARK    4  A    between atoms: C3_4  and  N2_9 
REMARK    5  A    between atoms: N2_9  and  C4_11 
REMARK    6  A    between atoms: C5_12  and  C6_13 
REMARK    7  A    between atoms: C6_13  and  O3_15 
REMARK    8  A    between atoms: C10_24  and  N5_25 
ROOT
HETATM    1  C4  UNL     1      36.907  -4.617  13.131  1.00  0.00     0.152 A 
HETATM    2  C5  UNL     1      36.841  -3.343  12.645  1.00  0.00     0.123 A 
HETATM    3  C8  UNL     1      35.799  -3.013  11.771  1.00  0.00     0.139 A 
HETATM    4 CL1  UNL     1      35.759  -1.347  11.166  1.00  0.00    -0.063 Cl
HETATM    5  N3  UNL     1      34.867  -3.869  11.388  1.00  0.00    -0.179 N 
ATOM      6  H3  UNL     1      34.122  -3.590  10.749  1.00  0.00     0.185 HD
HETATM    7  C9  UNL     1      34.939  -5.142  11.880  1.00  0.00     0.710 A 
HETATM    8  N4  UNL     1      33.993  -6.020  11.494  1.00  0.00    -0.022 N 
ATOM      9  H4  UNL     1      33.254  -5.726  10.855  1.00  0.00     0.203 HD
HETATM   10  C10 UNL     1      34.024  -7.276  11.949  1.00  0.00     0.694 A 
HETATM   11  N6  UNL     1      34.996  -7.661  12.788  1.00  0.00    -0.140 N 
ATOM     12  H6  UNL     1      35.023  -8.619  13.136  1.00  0.00     0.189 HD
HETATM   13  C11 UNL     1      35.941  -6.772  13.170  1.00  0.00     0.361 A 
HETATM   14  O4  UNL     1      36.842  -7.116  13.944  1.00  0.00    -0.245 OA
HETATM   15  N7  UNL     1      35.916  -5.490  12.712  1.00  0.00    -0.079 N 
ENDROOT
BRANCH   1  16
HETATM   16  N2  UNL     1      37.765  -5.075  13.884  1.00  0.00    -0.326 N 
ATOM     17  H2  UNL     1      37.812  -6.082  13.728  1.00  0.00     0.165 HD
BRANCH  16  18
HETATM   18  C3  UNL     1      38.691  -4.752  14.862  1.00  0.00     0.427 C 
BRANCH  18  19
HETATM   19  O1  UNL     1      38.129  -4.204  16.032  1.00  0.00    -0.344 OA
BRANCH  19  20
HETATM   20  C2  UNL     1      38.923  -3.254  16.620  1.00  0.00     0.167 C 
HETATM   21  C1  UNL     1      38.100  -2.229  17.359  1.00  0.00     0.033 C 
ENDBRANCH  19  20
ENDBRANCH  18  19
BRANCH  18  22
HETATM   22  N1  UNL     1      39.488  -5.932  15.209  1.00  0.00    -0.035 N 
ATOM     23  H13 UNL     1      40.360  -5.685  15.677  1.00  0.00     0.279 HD
ATOM     24  H12 UNL     1      39.067  -6.474  15.963  1.00  0.00     0.279 HD
ATOM     25  H11 UNL     1      39.646  -6.494  14.373  1.00  0.00     0.279 HD
ENDBRANCH  18  22
ENDBRANCH  16  18
ENDBRANCH   1  16
BRANCH   2  26
HETATM   26  C6  UNL     1      37.794  -2.287  13.006  1.00  0.00     0.299 C 
HETATM   27  O2  UNL     1      38.875  -2.230  12.401  1.00  0.00    -0.259 OA
BRANCH  26  28
HETATM   28  O3  UNL     1      37.506  -1.369  13.990  1.00  0.00    -0.322 OA
HETATM   29  C7  UNL     1      37.820   0.007  13.895  1.00  0.00     0.213 C 
ENDBRANCH  26  28
ENDBRANCH   2  26
BRANCH  10  30
HETATM   30  N5  UNL     1      33.122  -8.128  11.585  1.00  0.00    -0.234 N 
ATOM     31  H52 UNL     1      32.244  -8.182  12.102  1.00  0.00     0.174 HD
ATOM     32  H51 UNL     1      33.284  -8.745  10.789  1.00  0.00     0.174 HD
ENDBRANCH  10  30
TORSDOF 8
ENDMDL
MODEL 2
REMARK VINA RESULT: -5.608744174      0.592      1.090
REMARK  8 active torsions:
REMARK  status: ('A' for Active; 'I' for Inactive)
REMARK    1  A    between atoms: C2_2  and  O1_3 
REMARK    2  A    between atoms: O1_3  and  C3_4 
REMARK    3  A    between atoms: C3_4  and  N1_5 
REMARK    4  A    between atoms: C3_4  and  N2_9 
REMARK    5  A    between atoms: N2_9  and  C4_11 
REMARK    6  A    between atoms: C5_12  and  C6_13 
REMARK    7  A    between atoms: C6_13  and  O3_15 
REMARK    8  A    between atoms: C10_24  and  N5_25 
ROOT
HETATM    1  C4  UNL     1      36.971  -4.527  13.085  1.00  0.00     0.152 A 
HETATM    2  C5  UNL     1      36.939  -3.265  12.563  1.00  0.00     0.123 A 
HETATM    3  C8  UNL     1      35.873  -2.914  11.727  1.00  0.00     0.139 A 
HETATM    4 CL1  UNL     1      35.878  -1.266  11.074  1.00  0.00    -0.063 Cl
HETATM    5  N3  UNL     1      34.888  -3.738  11.413  1.00  0.00    -0.179 N 
ATOM      6  H3  UNL     1      34.127  -3.444  10.800  1.00  0.00     0.185 HD
HETATM    7  C9  UNL     1      34.927  -4.998  11.940  1.00  0.00     0.710 A 
HETATM    8  N4  UNL     1      33.926  -5.844  11.624  1.00  0.00    -0.022 N 
ATOM      9  H4  UNL     1      33.172  -5.535  11.010  1.00  0.00     0.203 HD
HETATM   10  C10 UNL     1      33.924  -7.086  12.116  1.00  0.00     0.694 A 
HETATM   11  N6  UNL     1      34.915  -7.490  12.921  1.00  0.00    -0.140 N 
ATOM     12  H6  UNL     1      34.917  -8.438  13.297  1.00  0.00     0.189 HD
HETATM   13  C11 UNL     1      35.915  -6.634  13.234  1.00  0.00     0.361 A 
HETATM   14  O4  UNL     1      36.835  -6.996  13.977  1.00  0.00    -0.245 OA
HETATM   15  N7  UNL     1      35.926  -5.366  12.738  1.00  0.00    -0.079 N 
ENDROOT
BRANCH   1  16
HETATM   16  N2  UNL     1      37.842  -5.001  13.812  1.00  0.00    -0.326 N 
ATOM     17  H2  UNL     1      37.957  -5.984  13.563  1.00  0.00     0.165 HD
BRANCH  16  18
HETATM   18  C3  UNL     1      38.728  -4.716  14.839  1.00  0.00     0.427 C 
BRANCH  18  19
HETATM   19  O1  UNL     1      38.122  -4.179  15.992  1.00  0.00    -0.344 OA
BRANCH  19  20
HETATM   20  C2  UNL     1      38.966  -3.387  16.727  1.00  0.00     0.167 C 
HETATM   21  C1  UNL     1      38.212  -2.303  17.454  1.00  0.00     0.033 C 
ENDBRANCH  19  20
ENDBRANCH  18  19
BRANCH  18  22
HETATM   22  N1  UNL     1      39.483  -5.920  15.200  1.00  0.00    -0.035 N 
ATOM     23  H13 UNL     1      39.979  -5.814  16.084  1.00  0.00     0.279 HD
ATOM     24  H12 UNL     1      38.873  -6.692  15.466  1.00  0.00     0.279 HD
ATOM     25  H11 UNL     1      40.109  -6.171  14.434  1.00  0.00     0.279 HD
ENDBRANCH  18  22
ENDBRANCH  16  18
ENDBRANCH   1  16
BRANCH   2  26
HETATM   26  C6  UNL     1      37.953  -2.243  12.849  1.00  0.00     0.299 C 
HETATM   27  O2  UNL     1      37.851  -1.583  13.894  1.00  0.00    -0.259 OA
BRANCH  26  28
HETATM   28  O3  UNL     1      39.002  -2.014  11.988  1.00  0.00    -0.322 OA
HETATM   29  C7  UNL     1      40.250  -2.671  12.081  1.00  0.00     0.213 C 
ENDBRANCH  26  28
ENDBRANCH   2  26
BRANCH  10  30
HETATM   30  N5  UNL     1      32.970  -7.907  11.819  1.00  0.00    -0.234 N 
ATOM     31  H52 UNL     1      32.883  -8.253  10.863  1.00  0.00     0.174 HD
ATOM     32  H51 UNL     1      32.306  -8.208  12.532  1.00  0.00     0.174 HD
ENDBRANCH  10  30
TORSDOF 8
ENDMDL
MODEL 3
REMARK VINA RESULT: -5.590058645      2.965      6.131
REMARK  8 active torsions:
REMARK  status: ('A' for Active; 'I' for Inactive)
REMARK    1  A    between atoms: C2_2  and  O1_3 
REMARK    2  A    between atoms: O1_3  and  C3_4 
REMARK    3  A    between atoms: C3_4  and  N1_5 
REMARK    4  A    between atoms: C3_4  and  N2_9 
REMARK    5  A    between atoms: N2_9  and  C4_11 
REMARK    6  A    between atoms: C5_12  and  C6_13 
REMARK    7  A    between atoms: C6_13  and  O3_15 
REMARK    8  A    between atoms: C10_24  and  N5_25 
ROOT
HETATM    1  C4  UNL     1      35.984  -6.193  12.562  1.00  0.00     0.152 A 
HETATM    2  C5  UNL     1      36.973  -7.096  12.293  1.00  0.00     0.123 A 
HETATM    3  C8  UNL     1      38.279  -6.796  12.696  1.00  0.00     0.139 A 
HETATM    4 CL1  UNL     1      39.528  -7.999  12.323  1.00  0.00    -0.063 Cl
HETATM    5  N3  UNL     1      38.614  -5.684  13.327  1.00  0.00    -0.179 N 
ATOM      6  H3  UNL     1      39.578  -5.502  13.605  1.00  0.00     0.185 HD
HETATM    7  C9  UNL     1      37.617  -4.786  13.593  1.00  0.00     0.710 A 
HETATM    8  N4  UNL     1      37.950  -3.650  14.236  1.00  0.00    -0.022 N 
ATOM      9  H4  UNL     1      38.919  -3.482  14.508  1.00  0.00     0.203 HD
HETATM   10  C10 UNL     1      37.010  -2.743  14.516  1.00  0.00     0.694 A 
HETATM   11  N6  UNL     1      35.738  -2.964  14.157  1.00  0.00    -0.140 N 
ATOM     12  H6  UNL     1      35.018  -2.274  14.368  1.00  0.00     0.189 HD
HETATM   13  C11 UNL     1      35.413  -4.109  13.513  1.00  0.00     0.361 A 
HETATM   14  O4  UNL     1      34.243  -4.323  13.178  1.00  0.00    -0.245 OA
HETATM   15  N7  UNL     1      36.365  -5.038  13.224  1.00  0.00    -0.079 N 
ENDROOT
BRANCH   1  16
HETATM   16  N2  UNL     1      34.796  -6.290  12.258  1.00  0.00    -0.326 N 
ATOM     17  H2  UNL     1      34.526  -5.433  11.776  1.00  0.00     0.165 HD
BRANCH  16  18
HETATM   18  C3  UNL     1      33.684  -7.113  12.317  1.00  0.00     0.427 C 
BRANCH  18  19
HETATM   19  O1  UNL     1      33.396  -7.603  13.606  1.00  0.00    -0.344 OA
BRANCH  19  20
HETATM   20  C2  UNL     1      33.819  -8.892  13.802  1.00  0.00     0.167 C 
HETATM   21  C1  UNL     1      34.563  -9.036  15.107  1.00  0.00     0.033 C 
ENDBRANCH  19  20
ENDBRANCH  18  19
BRANCH  18  22
HETATM   22  N1  UNL     1      32.511  -6.412  11.787  1.00  0.00    -0.035 N 
ATOM     23  H13 UNL     1      32.719  -5.910  10.924  1.00  0.00     0.279 HD
ATOM     24  H12 UNL     1      31.812  -7.055  11.416  1.00  0.00     0.279 HD
ATOM     25  H11 UNL     1      32.126  -5.800  12.507  1.00  0.00     0.279 HD
ENDBRANCH  18  22
ENDBRANCH  16  18
ENDBRANCH   1  16
BRANCH   2  26
HETATM   26  C6  UNL     1      36.739  -8.381  11.622  1.00  0.00     0.299 C 
HETATM   27  O2  UNL     1      36.933  -9.426  12.260  1.00  0.00    -0.259 OA
BRANCH  26  28
HETATM   28  O3  UNL     1      36.309  -8.439  10.316  1.00  0.00    -0.322 OA
HETATM   29  C7  UNL     1      35.240  -9.254   9.879  1.00  0.00     0.213 C 
ENDBRANCH  26  28
ENDBRANCH   2  26
BRANCH  10  30
HETATM   30  N5  UNL     1      37.317  -1.648  15.132  1.00  0.00    -0.234 N 
ATOM     31  H52 UNL     1      37.241  -1.605  16.148  1.00  0.00     0.174 HD
ATOM     32  H51 UNL     1      37.631  -0.831  14.608  1.00  0.00     0.174 HD
ENDBRANCH  10  30
TORSDOF 8
ENDMDL
MODEL 4
REMARK VINA RESULT: -5.542404716      2.920      4.309
REMARK  8 active torsions:
REMARK  status: ('A' for Active; 'I' for Inactive)
REMARK    1  A    between atoms: C2_2  and  O1_3 
REMARK    2  A    between atoms: O1_3  and  C3_4 
REMARK    3  A    between atoms: C3_4  and  N1_5 
REMARK    4  A    between atoms: C3_4  and  N2_9 
REMARK    5  A    between atoms: N2_9  and  C4_11 
REMARK    6  A    between atoms: C5_12  and  C6_13 
REMARK    7  A    between atoms: C6_13  and  O3_15 
REMARK    8  A    between atoms: C10_24  and  N5_25 
ROOT
HETATM    1  C4  UNL     1      35.870  -6.138  12.811  1.00  0.00     0.152 A 
HETATM    2  C5  UNL     1      37.127  -6.448  13.246  1.00  0.00     0.123 A 
HETATM    3  C8  UNL     1      37.521  -7.790  13.249  1.00  0.00     0.139 A 
HETATM    4 CL1  UNL     1      39.162  -8.141  13.824  1.00  0.00    -0.063 Cl
HETATM    5  N3  UNL     1      36.743  -8.783  12.853  1.00  0.00    -0.179 N 
ATOM      6  H3  UNL     1      37.067  -9.750  12.871  1.00  0.00     0.185 HD
HETATM    7  C9  UNL     1      35.487  -8.464  12.419  1.00  0.00     0.710 A 
HETATM    8  N4  UNL     1      34.688  -9.470  12.013  1.00  0.00    -0.022 N 
ATOM      9  H4  UNL     1      35.027 -10.432  12.036  1.00  0.00     0.203 HD
HETATM   10  C10 UNL     1      33.451  -9.206  11.582  1.00  0.00     0.694 A 
HETATM   11  N6  UNL     1      33.007  -7.942  11.553  1.00  0.00    -0.140 N 
ATOM     12  H6  UNL     1      32.063  -7.737  11.226  1.00  0.00     0.189 HD
HETATM   13  C11 UNL     1      33.817  -6.939  11.961  1.00  0.00     0.361 A 
HETATM   14  O4  UNL     1      33.418  -5.769  11.939  1.00  0.00    -0.245 OA
HETATM   15  N7  UNL     1      35.078  -7.199  12.402  1.00  0.00    -0.079 N 
ENDROOT
BRANCH   1  16
HETATM   16  N2  UNL     1      35.361  -5.019  12.766  1.00  0.00    -0.326 N 
ATOM     17  H2  UNL     1      34.350  -5.132  12.844  1.00  0.00     0.165 HD
BRANCH  16  18
HETATM   18  C3  UNL     1      35.629  -3.665  12.651  1.00  0.00     0.427 C 
BRANCH  18  19
HETATM   19  O1  UNL     1      34.878  -3.010  11.655  1.00  0.00    -0.344 OA
BRANCH  19  20
HETATM   20  C2  UNL     1      34.997  -1.645  11.698  1.00  0.00     0.167 C 
HETATM   21  C1  UNL     1      36.331  -1.191  11.161  1.00  0.00     0.033 C 
ENDBRANCH  19  20
ENDBRANCH  18  19
BRANCH  18  22
HETATM   22  N1  UNL     1      35.419  -2.999  13.940  1.00  0.00    -0.035 N 
ATOM     23  H13 UNL     1      35.287  -1.993  13.837  1.00  0.00     0.279 HD
ATOM     24  H12 UNL     1      34.511  -3.224  14.346  1.00  0.00     0.279 HD
ATOM     25  H11 UNL     1      36.189  -3.225  14.569  1.00  0.00     0.279 HD
ENDBRANCH  18  22
ENDBRANCH  16  18
ENDBRANCH   1  16
BRANCH   2  26
HETATM   26  C6  UNL     1      38.102  -5.444  13.690  1.00  0.00     0.299 C 
HETATM   27  O2  UNL     1      37.990  -4.973  14.832  1.00  0.00    -0.259 OA
BRANCH  26  28
HETATM   28  O3  UNL     1      39.125  -5.028  12.869  1.00  0.00    -0.322 OA
HETATM   29  C7  UNL     1      39.400  -3.671  12.585  1.00  0.00     0.213 C 
ENDBRANCH  26  28
ENDBRANCH   2  26
BRANCH  10  30
HETATM   30  N5  UNL     1      32.674 -10.163  11.191  1.00  0.00    -0.234 N 
ATOM     31  H52 UNL     1      31.962  -9.976  10.485  1.00  0.00     0.174 HD
ATOM     32  H51 UNL     1      32.768 -11.100  11.584  1.00  0.00     0.174 HD
ENDBRANCH  10  30
TORSDOF 8
ENDMDL
MODEL 5
REMARK VINA RESULT: -5.442234994      2.609      4.347
REMARK  8 active torsions:
REMARK  status: ('A' for Active; 'I' for Inactive)
REMARK    1  A    between atoms: C2_2  and  O1_3 
REMARK    2  A    between atoms: O1_3  and  C3_4 
REMARK    3  A    between atoms: C3_4  and  N1_5 
REMARK    4  A    between atoms: C3_4  and  N2_9 
REMARK    5  A    between atoms: N2_9  and  C4_11 
REMARK    6  A    between atoms: C5_12  and  C6_13 
REMARK    7  A    between atoms: C6_13  and  O3_15 
REMARK    8  A    between atoms: C10_24  and  N5_25 
ROOT
HETATM    1  C4  UNL     1      36.783  -1.886  13.333  1.00  0.00     0.152 A 
HETATM    2  C5  UNL     1      37.510  -1.987  14.484  1.00  0.00     0.123 A 
HETATM    3  C8  UNL     1      37.610  -3.238  15.104  1.00  0.00     0.139 A 
HETATM    4 CL1  UNL     1      38.564  -3.318  16.597  1.00  0.00    -0.063 Cl
HETATM    5  N3  UNL     1      37.037  -4.334  14.636  1.00  0.00    -0.179 N 
ATOM      6  H3  UNL     1      37.134  -5.229  15.118  1.00  0.00     0.185 HD
HETATM    7  C9  UNL     1      36.312  -4.224  13.483  1.00  0.00     0.710 A 
HETATM    8  N4  UNL     1      35.726  -5.337  13.000  1.00  0.00    -0.022 N 
ATOM      9  H4  UNL     1      35.832  -6.224  13.492  1.00  0.00     0.203 HD
HETATM   10  C10 UNL     1      35.005  -5.276  11.877  1.00  0.00     0.694 A 
HETATM   11  N6  UNL     1      34.867  -4.110  11.232  1.00  0.00    -0.140 N 
ATOM     12  H6  UNL     1      34.317  -4.060  10.374  1.00  0.00     0.189 HD
HETATM   13  C11 UNL     1      35.460  -2.999  11.724  1.00  0.00     0.361 A 
HETATM   14  O4  UNL     1      35.339  -1.917  11.136  1.00  0.00    -0.245 OA
HETATM   15  N7  UNL     1      36.196  -3.051  12.868  1.00  0.00    -0.079 N 
ENDROOT
BRANCH   1  16
HETATM   16  N2  UNL     1      36.577  -0.864  12.680  1.00  0.00    -0.326 N 
ATOM     17  H2  UNL     1      35.585  -0.638  12.758  1.00  0.00     0.165 HD
BRANCH  16  18
HETATM   18  C3  UNL     1      37.171   0.098  11.879  1.00  0.00     0.427 C 
BRANCH  18  19
HETATM   19  O1  UNL     1      37.257   1.371  12.474  1.00  0.00    -0.344 OA
BRANCH  19  20
HETATM   20  C2  UNL     1      36.225   1.636  13.336  1.00  0.00     0.167 C 
HETATM   21  C1  UNL     1      36.649   2.586  14.429  1.00  0.00     0.033 C 
ENDBRANCH  19  20
ENDBRANCH  18  19
BRANCH  18  22
HETATM   22  N1  UNL     1      38.508  -0.344  11.471  1.00  0.00    -0.035 N 
ATOM     23  H13 UNL     1      38.490  -0.870  10.598  1.00  0.00     0.279 HD
ATOM     24  H12 UNL     1      39.092   0.432  11.161  1.00  0.00     0.279 HD
ATOM     25  H11 UNL     1      38.938  -0.871  12.230  1.00  0.00     0.279 HD
ENDBRANCH  18  22
ENDBRANCH  16  18
ENDBRANCH   1  16
BRANCH   2  26
HETATM   26  C6  UNL     1      38.217  -0.858  15.099  1.00  0.00     0.299 C 
HETATM   27  O2  UNL     1      39.272  -0.465  14.579  1.00  0.00    -0.259 OA
BRANCH  26  28
HETATM   28  O3  UNL     1      37.731  -0.236  16.226  1.00  0.00    -0.322 OA
HETATM   29  C7  UNL     1      38.553   0.373  17.203  1.00  0.00     0.213 C 
ENDBRANCH  26  28
ENDBRANCH   2  26
BRANCH  10  30
HETATM   30  N5  UNL     1      34.437  -6.337  11.404  1.00  0.00    -0.234 N 
ATOM     31  H52 UNL     1      34.067  -7.038  12.046  1.00  0.00     0.174 HD
ATOM     32  H51 UNL     1      34.359  -6.477  10.396  1.00  0.00     0.174 HD
ENDBRANCH  10  30
TORSDOF 8
ENDMDL
