MODEL 1
REMARK VINA RESULT: -5.373551191      0.000      0.000
REMARK  1 active torsions:
REMARK  status: ('A' for Active; 'I' for Inactive)
REMARK    1  A    between atoms: C2_2  and  N1_3 
REMARK       I    between atoms: C3_5  and  N3_7 
ROOT
HETATM    1  N1  UNL     1       8.140   7.268  48.541  1.00  0.00    -0.365 N 
ATOM      2  H1  UNL     1       7.817   6.899  49.435  1.00  0.00     0.162 HD
HETATM    3  C3  UNL     1       7.756   6.673  47.473  1.00  0.00     0.186 C 
HETATM    4  N2  UNL     1       8.142   7.101  46.188  1.00  0.00    -0.064 NA
HETATM    5  N3  UNL     1       6.916   5.550  47.601  1.00  0.00    -0.356 N 
HETATM    6  C4  UNL     1       5.572   5.637  47.033  1.00  0.00     0.125 C 
HETATM    7  C5  UNL     1       5.474   4.484  46.034  1.00  0.00     0.020 C 
HETATM    8  C6  UNL     1       5.651   3.207  46.819  1.00  0.00     0.003 C 
HETATM    9  C7  UNL     1       6.023   3.445  48.256  1.00  0.00     0.020 C 
HETATM   10  C8  UNL     1       7.281   4.319  48.250  1.00  0.00     0.125 C 
ENDROOT
BRANCH   1  11
HETATM   11  C2  UNL     1       8.990   8.417  48.559  1.00  0.00     0.118 C 
HETATM   12  C1  UNL     1      10.371   7.987  48.991  1.00  0.00     0.026 C 
ENDBRANCH   1  11
TORSDOF 1
ENDMDL
MODEL 2
REMARK VINA RESULT: -5.314717787      2.322      3.206
REMARK  1 active torsions:
REMARK  status: ('A' for Active; 'I' for Inactive)
REMARK    1  A    between atoms: C2_2  and  N1_3 
REMARK       I    between atoms: C3_5  and  N3_7 
ROOT
HETATM    1  N1  UNL     1       5.982   5.410  48.903  1.00  0.00    -0.365 N 
ATOM      2  H1  UNL     1       5.051   5.415  49.320  1.00  0.00     0.162 HD
HETATM    3  C3  UNL     1       6.389   4.325  48.356  1.00  0.00     0.186 C 
HETATM    4  N2  UNL     1       7.655   4.212  47.751  1.00  0.00    -0.064 NA
HETATM    5  N3  UNL     1       5.528   3.211  48.366  1.00  0.00    -0.356 N 
HETATM    6  C4  UNL     1       5.063   2.700  47.077  1.00  0.00     0.125 C 
HETATM    7  C5  UNL     1       5.505   1.237  47.034  1.00  0.00     0.020 C 
HETATM    8  C6  UNL     1       4.816   0.536  48.178  1.00  0.00     0.003 C 
HETATM    9  C7  UNL     1       4.067   1.476  49.080  1.00  0.00     0.020 C 
HETATM   10  C8  UNL     1       5.070   2.534  49.549  1.00  0.00     0.125 C 
ENDROOT
BRANCH   1  11
HETATM   11  C2  UNL     1       6.748   6.615  48.966  1.00  0.00     0.118 C 
HETATM   12  C1  UNL     1       5.800   7.787  49.021  1.00  0.00     0.026 C 
ENDBRANCH   1  11
TORSDOF 1
ENDMDL
MODEL 3
REMARK VINA RESULT: -5.290943688      2.050      5.616
REMARK  1 active torsions:
REMARK  status: ('A' for Active; 'I' for Inactive)
REMARK    1  A    between atoms: C2_2  and  N1_3 
REMARK       I    between atoms: C3_5  and  N3_7 
ROOT
HETATM    1  N1  UNL     1       6.820   7.892  47.770  1.00  0.00    -0.365 N 
ATOM      2  H1  UNL     1       7.551   7.808  47.064  1.00  0.00     0.162 HD
HETATM    3  C3  UNL     1       7.139   8.391  48.907  1.00  0.00     0.186 C 
HETATM    4  N2  UNL     1       6.207   8.553  49.950  1.00  0.00    -0.064 NA
HETATM    5  N3  UNL     1       8.474   8.790  49.107  1.00  0.00    -0.356 N 
HETATM    6  C4  UNL     1       8.731  10.209  49.354  1.00  0.00     0.125 C 
HETATM    7  C5  UNL     1       9.446  10.266  50.703  1.00  0.00     0.020 C 
HETATM    8  C6  UNL     1      10.736   9.499  50.551  1.00  0.00     0.003 C 
HETATM    9  C7  UNL     1      10.850   8.795  49.227  1.00  0.00     0.020 C 
HETATM   10  C8  UNL     1       9.609   7.907  49.089  1.00  0.00     0.125 C 
ENDROOT
BRANCH   1  11
HETATM   11  C2  UNL     1       5.505   7.446  47.429  1.00  0.00     0.118 C 
HETATM   12  C1  UNL     1       5.567   5.975  47.096  1.00  0.00     0.026 C 
ENDBRANCH   1  11
TORSDOF 1
ENDMDL
MODEL 4
REMARK VINA RESULT: -5.210308364      2.866      3.696
REMARK  1 active torsions:
REMARK  status: ('A' for Active; 'I' for Inactive)
REMARK    1  A    between atoms: C2_2  and  N1_3 
REMARK       I    between atoms: C3_5  and  N3_7 
ROOT
HETATM    1  N1  UNL     1       7.321   9.481  45.555  1.00  0.00    -0.365 N 
ATOM      2  H1  UNL     1       6.469   9.935  45.886  1.00  0.00     0.162 HD
HETATM    3  C3  UNL     1       7.645   8.358  46.082  1.00  0.00     0.186 C 
HETATM    4  N2  UNL     1       8.798   7.648  45.699  1.00  0.00    -0.064 NA
HETATM    5  N3  UNL     1       6.807   7.825  47.081  1.00  0.00    -0.356 N 
HETATM    6  C4  UNL     1       6.145   6.550  46.805  1.00  0.00     0.125 C 
HETATM    7  C5  UNL     1       6.589   5.609  47.923  1.00  0.00     0.020 C 
HETATM    8  C6  UNL     1       6.100   6.205  49.220  1.00  0.00     0.003 C 
HETATM    9  C7  UNL     1       5.497   7.572  49.050  1.00  0.00     0.020 C 
HETATM   10  C8  UNL     1       6.553   8.439  48.357  1.00  0.00     0.125 C 
ENDROOT
BRANCH   1  11
HETATM   11  C2  UNL     1       8.076  10.137  44.535  1.00  0.00     0.118 C 
HETATM   12  C1  UNL     1       7.165  11.088  43.798  1.00  0.00     0.026 C 
ENDBRANCH   1  11
TORSDOF 1
ENDMDL
MODEL 5
REMARK VINA RESULT: -5.136326519      2.285      2.647
REMARK  1 active torsions:
REMARK  status: ('A' for Active; 'I' for Inactive)
REMARK    1  A    between atoms: C2_2  and  N1_3 
REMARK       I    between atoms: C3_5  and  N3_7 
ROOT
HETATM    1  N1  UNL     1       6.967   9.658  49.597  1.00  0.00    -0.365 N 
ATOM      2  H1  UNL     1       6.376   9.315  50.354  1.00  0.00     0.162 HD
HETATM    3  C3  UNL     1       7.124   8.905  48.572  1.00  0.00     0.186 C 
HETATM    4  N2  UNL     1       7.918   9.282  47.472  1.00  0.00    -0.064 NA
HETATM    5  N3  UNL     1       6.473   7.657  48.556  1.00  0.00    -0.356 N 
HETATM    6  C4  UNL     1       5.462   7.429  47.524  1.00  0.00     0.125 C 
HETATM    7  C5  UNL     1       5.933   6.194  46.756  1.00  0.00     0.020 C 
HETATM    8  C6  UNL     1       5.970   5.052  47.741  1.00  0.00     0.003 C 
HETATM    9  C7  UNL     1       5.708   5.486  49.156  1.00  0.00     0.020 C 
HETATM   10  C8  UNL     1       6.727   6.583  49.479  1.00  0.00     0.125 C 
ENDROOT
BRANCH   1  11
HETATM   11  C2  UNL     1       7.567  10.946  49.748  1.00  0.00     0.118 C 
HETATM   12  C1  UNL     1       8.376  10.955  51.021  1.00  0.00     0.026 C 
ENDBRANCH   1  11
TORSDOF 1
ENDMDL
