MODEL 1
REMARK VINA RESULT: -7.283349189      0.000      0.000
REMARK  2 active torsions:
REMARK  status: ('A' for Active; 'I' for Inactive)
REMARK    1  A    between atoms: N1_2  and  C2_5 
REMARK    2  A    between atoms: C2_5  and  C3_6 
ROOT
HETATM    1  C3  UNL     1       6.166   3.627  46.978  1.00  0.00     0.034 C 
HETATM    2  C4  UNL     1       5.875   3.670  48.357  1.00  0.00    -0.020 C 
HETATM    3  C5  UNL     1       5.505   3.350  49.268  1.00  0.00    -0.004 C 
HETATM    4  C6  UNL     1       4.947   2.515  49.959  1.00  0.00    -0.004 C 
HETATM    5  C7  UNL     1       4.496   1.608  50.068  1.00  0.00    -0.027 C 
HETATM    6  C8  UNL     1       3.975   0.342  49.678  1.00  0.00     0.027 C 
HETATM    7  C9  UNL     1       4.067   0.533  48.067  1.00  0.00     0.004 C 
HETATM    8  C10 UNL     1       5.297   1.191  47.546  1.00  0.00     0.001 C 
HETATM    9  C11 UNL     1       5.207   2.340  46.607  1.00  0.00     0.010 C 
ENDROOT
BRANCH   1  10
HETATM   10  C2  UNL     1       5.539   4.726  46.220  1.00  0.00     0.240 C 
BRANCH  10  11
HETATM   11  N1  UNL     1       5.515   5.994  46.869  1.00  0.00    -0.078 N 
HETATM   12  C1  UNL     1       6.632   6.844  46.534  1.00  0.00     0.267 C 
ATOM     13  H12 UNL     1       5.444   5.878  47.879  1.00  0.00     0.276 HD
ATOM     14  H11 UNL     1       4.633   6.473  46.688  1.00  0.00     0.276 HD
ENDBRANCH  10  11
ENDBRANCH   1  10
TORSDOF 2
ENDMDL
MODEL 2
REMARK VINA RESULT: -6.867636592      2.061      3.281
REMARK  2 active torsions:
REMARK  status: ('A' for Active; 'I' for Inactive)
REMARK    1  A    between atoms: N1_2  and  C2_5 
REMARK    2  A    between atoms: C2_5  and  C3_6 
ROOT
HETATM    1  C3  UNL     1       6.401   6.536  48.707  1.00  0.00     0.034 C 
HETATM    2  C4  UNL     1       6.127   5.306  49.340  1.00  0.00    -0.020 C 
HETATM    3  C5  UNL     1       5.879   4.305  49.422  1.00  0.00    -0.004 C 
HETATM    4  C6  UNL     1       5.601   3.230  48.919  1.00  0.00    -0.004 C 
HETATM    5  C7  UNL     1       5.439   2.647  48.099  1.00  0.00    -0.027 C 
HETATM    6  C8  UNL     1       5.311   2.324  46.719  1.00  0.00     0.027 C 
HETATM    7  C9  UNL     1       5.322   3.834  46.119  1.00  0.00     0.004 C 
HETATM    8  C10 UNL     1       6.296   4.782  46.727  1.00  0.00     0.001 C 
HETATM    9  C11 UNL     1       5.860   6.119  47.208  1.00  0.00     0.010 C 
ENDROOT
BRANCH   1  10
HETATM   10  C2  UNL     1       5.469   7.610  49.100  1.00  0.00     0.240 C 
BRANCH  10  11
HETATM   11  N1  UNL     1       6.063   8.769  49.676  1.00  0.00    -0.078 N 
HETATM   12  C1  UNL     1       7.308   9.156  49.058  1.00  0.00     0.267 C 
ATOM     13  H12 UNL     1       6.185   8.648  50.681  1.00  0.00     0.276 HD
ATOM     14  H11 UNL     1       5.404   9.548  49.675  1.00  0.00     0.276 HD
ENDBRANCH  10  11
ENDBRANCH   1  10
TORSDOF 2
ENDMDL
MODEL 3
REMARK VINA RESULT: -6.807796274      1.000      2.210
REMARK  2 active torsions:
REMARK  status: ('A' for Active; 'I' for Inactive)
REMARK    1  A    between atoms: N1_2  and  C2_5 
REMARK    2  A    between atoms: C2_5  and  C3_6 
ROOT
HETATM    1  C3  UNL     1       5.984   4.190  48.016  1.00  0.00     0.034 C 
HETATM    2  C4  UNL     1       5.633   3.037  47.283  1.00  0.00    -0.020 C 
HETATM    3  C5  UNL     1       5.275   2.082  47.114  1.00  0.00    -0.004 C 
HETATM    4  C6  UNL     1       4.773   1.044  47.512  1.00  0.00    -0.004 C 
HETATM    5  C7  UNL     1       4.394   0.471  48.264  1.00  0.00    -0.027 C 
HETATM    6  C8  UNL     1       4.018   0.123  49.592  1.00  0.00     0.027 C 
HETATM    7  C9  UNL     1       4.745   1.349  50.374  1.00  0.00     0.004 C 
HETATM    8  C10 UNL     1       4.644   2.692  49.740  1.00  0.00     0.001 C 
HETATM    9  C11 UNL     1       5.856   3.523  49.517  1.00  0.00     0.010 C 
ENDROOT
BRANCH   1  10
HETATM   10  C2  UNL     1       7.421   4.515  47.929  1.00  0.00     0.240 C 
BRANCH  10  11
HETATM   11  N1  UNL     1       7.733   5.876  47.648  1.00  0.00    -0.078 N 
HETATM   12  C1  UNL     1       6.812   6.512  46.736  1.00  0.00     0.267 C 
ATOM     13  H12 UNL     1       8.690   5.962  47.308  1.00  0.00     0.276 HD
ATOM     14  H11 UNL     1       7.808   6.413  48.513  1.00  0.00     0.276 HD
ENDBRANCH  10  11
ENDBRANCH   1  10
TORSDOF 2
ENDMDL
MODEL 4
REMARK VINA RESULT: -6.726448344      2.610      4.420
REMARK  2 active torsions:
REMARK  status: ('A' for Active; 'I' for Inactive)
REMARK    1  A    between atoms: N1_2  and  C2_5 
REMARK    2  A    between atoms: C2_5  and  C3_6 
ROOT
HETATM    1  C3  UNL     1       5.811   7.679  48.799  1.00  0.00     0.034 C 
HETATM    2  C4  UNL     1       5.637   7.076  47.535  1.00  0.00    -0.020 C 
HETATM    3  C5  UNL     1       5.577   6.316  46.837  1.00  0.00    -0.004 C 
HETATM    4  C6  UNL     1       5.603   5.133  46.543  1.00  0.00    -0.004 C 
HETATM    5  C7  UNL     1       5.700   4.154  46.804  1.00  0.00    -0.027 C 
HETATM    6  C8  UNL     1       5.913   3.034  47.657  1.00  0.00     0.027 C 
HETATM    7  C9  UNL     1       6.412   3.836  48.980  1.00  0.00     0.004 C 
HETATM    8  C10 UNL     1       5.675   5.085  49.315  1.00  0.00     0.001 C 
HETATM    9  C11 UNL     1       6.405   6.354  49.576  1.00  0.00     0.010 C 
ENDROOT
BRANCH   1  10
HETATM   10  C2  UNL     1       6.949   8.616  48.842  1.00  0.00     0.240 C 
BRANCH  10  11
HETATM   11  N1  UNL     1       6.787   9.753  49.684  1.00  0.00    -0.078 N 
HETATM   12  C1  UNL     1       7.675  10.846  49.371  1.00  0.00     0.267 C 
ATOM     13  H12 UNL     1       6.877   9.488  50.665  1.00  0.00     0.276 HD
ATOM     14  H11 UNL     1       5.816  10.067  49.679  1.00  0.00     0.276 HD
ENDBRANCH  10  11
ENDBRANCH   1  10
TORSDOF 2
ENDMDL
MODEL 5
REMARK VINA RESULT: -6.672130010      2.049      4.641
REMARK  2 active torsions:
REMARK  status: ('A' for Active; 'I' for Inactive)
REMARK    1  A    between atoms: N1_2  and  C2_5 
REMARK    2  A    between atoms: C2_5  and  C3_6 
ROOT
HETATM    1  C3  UNL     1       5.322   1.695  47.605  1.00  0.00     0.034 C 
HETATM    2  C4  UNL     1       5.307   2.751  46.670  1.00  0.00    -0.020 C 
HETATM    3  C5  UNL     1       5.371   3.722  46.321  1.00  0.00    -0.004 C 
HETATM    4  C6  UNL     1       5.565   4.911  46.506  1.00  0.00    -0.004 C 
HETATM    5  C7  UNL     1       5.785   5.691  47.124  1.00  0.00    -0.027 C 
HETATM    6  C8  UNL     1       6.083   6.359  48.345  1.00  0.00     0.027 C 
HETATM    7  C9  UNL     1       5.760   5.138  49.369  1.00  0.00     0.004 C 
HETATM    8  C10 UNL     1       6.225   3.786  48.955  1.00  0.00     0.001 C 
HETATM    9  C11 UNL     1       5.296   2.625  48.963  1.00  0.00     0.010 C 
ENDROOT
BRANCH   1  10
HETATM   10  C2  UNL     1       4.037   0.973  47.683  1.00  0.00     0.240 C 
BRANCH  10  11
HETATM   11  N1  UNL     1       3.363   0.770  46.445  1.00  0.00    -0.078 N 
HETATM   12  C1  UNL     1       3.765  -0.429  45.749  1.00  0.00     0.267 C 
ATOM     13  H12 UNL     1       3.467   1.586  45.842  1.00  0.00     0.276 HD
ATOM     14  H11 UNL     1       2.352   0.784  46.580  1.00  0.00     0.276 HD
ENDBRANCH  10  11
ENDBRANCH   1  10
TORSDOF 2
ENDMDL
