MODEL 1
REMARK VINA RESULT: -5.250035312      0.000      0.000
REMARK  2 active torsions:
REMARK  status: ('A' for Active; 'I' for Inactive)
REMARK    1  A    between atoms: O1_2  and  N1_3 
REMARK    2  A    between atoms: C2_5  and  C3_6 
ROOT
HETATM    1  C3  UNL     1      14.885 -10.078  26.922  1.00  0.00     0.051 A 
HETATM    2  C4  UNL     1      14.308 -10.634  25.798  1.00  0.00     0.053 A 
HETATM    3  C5  UNL     1      14.213 -12.001  25.941  1.00  0.00     0.047 A 
HETATM    4 BR1  UNL     1      13.495 -13.271  24.692  1.00  0.00    -0.048 Br
HETATM    5  C6  UNL     1      14.753 -12.255  27.190  1.00  0.00     0.097 A 
HETATM    6 BR2  UNL     1      14.926 -13.969  28.009  1.00  0.00    -0.030 Br
HETATM    7  N2  UNL     1      15.146 -11.099  27.757  1.00  0.00    -0.348 N 
ATOM      8  H2  UNL     1      15.576 -11.012  28.677  1.00  0.00     0.166 HD
ENDROOT
BRANCH   1   9
HETATM    9  C2  UNL     1      15.162  -8.647  27.162  1.00  0.00     0.143 C 
HETATM   10  N1  UNL     1      15.343  -8.197  28.346  1.00  0.00    -0.276 N 
ATOM     11  H1  UNL     1      15.289  -8.866  29.114  1.00  0.00     0.193 HD
BRANCH  10  12
HETATM   12  O1  UNL     1      15.602  -6.910  28.664  1.00  0.00    -0.286 OA
HETATM   13  C1  UNL     1      15.724  -5.971  27.609  1.00  0.00     0.237 C 
ENDBRANCH  10  12
ENDBRANCH   1   9
TORSDOF 2
ENDMDL
MODEL 2
REMARK VINA RESULT: -5.233261015      5.064      5.896
REMARK  2 active torsions:
REMARK  status: ('A' for Active; 'I' for Inactive)
REMARK    1  A    between atoms: O1_2  and  N1_3 
REMARK    2  A    between atoms: C2_5  and  C3_6 
ROOT
HETATM    1  C3  UNL     1      13.187 -13.126  23.879  1.00  0.00     0.051 A 
HETATM    2  C4  UNL     1      13.514 -12.132  24.778  1.00  0.00     0.053 A 
HETATM    3  C5  UNL     1      13.946 -12.688  25.963  1.00  0.00     0.047 A 
HETATM    4 BR1  UNL     1      14.523 -11.778  27.553  1.00  0.00    -0.048 Br
HETATM    5  C6  UNL     1      13.869 -14.054  25.750  1.00  0.00     0.097 A 
HETATM    6 BR2  UNL     1      14.328 -15.412  27.009  1.00  0.00    -0.030 Br
HETATM    7  N2  UNL     1      13.416 -14.293  24.506  1.00  0.00    -0.348 N 
ATOM      8  H2  UNL     1      13.270 -15.217  24.100  1.00  0.00     0.166 HD
ENDROOT
BRANCH   1   9
HETATM    9  C2  UNL     1      12.686 -12.946  22.501  1.00  0.00     0.143 C 
HETATM   10  N1  UNL     1      11.710 -12.157  22.249  1.00  0.00    -0.276 N 
ATOM     11  H1  UNL     1      11.295 -11.660  23.037  1.00  0.00     0.193 HD
BRANCH  10  12
HETATM   12  O1  UNL     1      11.184 -11.928  21.026  1.00  0.00    -0.286 OA
HETATM   13  C1  UNL     1      11.880 -11.057  20.149  1.00  0.00     0.237 C 
ENDBRANCH  10  12
ENDBRANCH   1   9
TORSDOF 2
ENDMDL
MODEL 3
REMARK VINA RESULT: -5.195184611      5.033      6.532
REMARK  2 active torsions:
REMARK  status: ('A' for Active; 'I' for Inactive)
REMARK    1  A    between atoms: O1_2  and  N1_3 
REMARK    2  A    between atoms: C2_5  and  C3_6 
ROOT
HETATM    1  C3  UNL     1      13.458 -13.285  24.207  1.00  0.00     0.051 A 
HETATM    2  C4  UNL     1      13.775 -11.970  24.477  1.00  0.00     0.053 A 
HETATM    3  C5  UNL     1      14.237 -11.851  25.770  1.00  0.00     0.047 A 
HETATM    4 BR1  UNL     1      14.817 -10.258  26.674  1.00  0.00    -0.048 Br
HETATM    5  C6  UNL     1      14.188 -13.139  26.274  1.00  0.00     0.097 A 
HETATM    6 BR2  UNL     1      14.697 -13.675  28.032  1.00  0.00    -0.030 Br
HETATM    7  N2  UNL     1      13.723 -13.977  25.329  1.00  0.00    -0.348 N 
ATOM      8  H2  UNL     1      13.591 -14.981  25.446  1.00  0.00     0.166 HD
ENDROOT
BRANCH   1   9
HETATM    9  C2  UNL     1      12.932 -13.829  22.938  1.00  0.00     0.143 C 
HETATM   10  N1  UNL     1      13.159 -15.040  22.591  1.00  0.00    -0.276 N 
ATOM     11  H1  UNL     1      13.716 -15.611  23.226  1.00  0.00     0.193 HD
BRANCH  10  12
HETATM   12  O1  UNL     1      12.722 -15.624  21.454  1.00  0.00    -0.286 OA
HETATM   13  C1  UNL     1      12.084 -14.810  20.484  1.00  0.00     0.237 C 
ENDBRANCH  10  12
ENDBRANCH   1   9
TORSDOF 2
ENDMDL
MODEL 4
REMARK VINA RESULT: -5.178073951      5.021      6.669
REMARK  2 active torsions:
REMARK  status: ('A' for Active; 'I' for Inactive)
REMARK    1  A    between atoms: O1_2  and  N1_3 
REMARK    2  A    between atoms: C2_5  and  C3_6 
ROOT
HETATM    1  C3  UNL     1      13.532 -13.215  24.144  1.00  0.00     0.051 A 
HETATM    2  C4  UNL     1      13.726 -13.921  25.313  1.00  0.00     0.053 A 
HETATM    3  C5  UNL     1      14.174 -13.079  26.307  1.00  0.00     0.047 A 
HETATM    4 BR1  UNL     1      14.605 -13.523  28.125  1.00  0.00    -0.048 Br
HETATM    5  C6  UNL     1      14.247 -11.837  25.699  1.00  0.00     0.097 A 
HETATM    6 BR2  UNL     1      14.805 -10.214  26.531  1.00  0.00    -0.030 Br
HETATM    7  N2  UNL     1      13.861 -11.939  24.414  1.00  0.00    -0.348 N 
ATOM      8  H2  UNL     1      13.823 -11.168  23.748  1.00  0.00     0.166 HD
ENDROOT
BRANCH   1   9
HETATM    9  C2  UNL     1      13.058 -13.750  22.851  1.00  0.00     0.143 C 
HETATM   10  N1  UNL     1      13.063 -15.008  22.613  1.00  0.00    -0.276 N 
ATOM     11  H1  UNL     1      13.407 -15.622  23.352  1.00  0.00     0.193 HD
BRANCH  10  12
HETATM   12  O1  UNL     1      12.650 -15.590  21.466  1.00  0.00    -0.286 OA
HETATM   13  C1  UNL     1      11.946 -14.794  20.527  1.00  0.00     0.237 C 
ENDBRANCH  10  12
ENDBRANCH   1   9
TORSDOF 2
ENDMDL
MODEL 5
REMARK VINA RESULT: -5.158460890      5.822      7.661
REMARK  2 active torsions:
REMARK  status: ('A' for Active; 'I' for Inactive)
REMARK    1  A    between atoms: O1_2  and  N1_3 
REMARK    2  A    between atoms: C2_5  and  C3_6 
ROOT
HETATM    1  C3  UNL     1      13.393 -15.142  24.561  1.00  0.00     0.051 A 
HETATM    2  C4  UNL     1      13.360 -13.799  24.244  1.00  0.00     0.053 A 
HETATM    3  C5  UNL     1      13.779 -13.048  25.320  1.00  0.00     0.047 A 
HETATM    4 BR1  UNL     1      13.930 -11.136  25.438  1.00  0.00    -0.048 Br
HETATM    5  C6  UNL     1      14.065 -13.981  26.301  1.00  0.00     0.097 A 
HETATM    6 BR2  UNL     1      14.698 -13.600  28.060  1.00  0.00    -0.030 Br
HETATM    7  N2  UNL     1      13.830 -15.220  25.831  1.00  0.00    -0.348 N 
ATOM      8  H2  UNL     1      13.962 -16.084  26.355  1.00  0.00     0.166 HD
ENDROOT
BRANCH   1   9
HETATM    9  C2  UNL     1      13.023 -16.270  23.683  1.00  0.00     0.143 C 
HETATM   10  N1  UNL     1      13.636 -17.392  23.751  1.00  0.00    -0.276 N 
ATOM     11  H1  UNL     1      14.388 -17.472  24.436  1.00  0.00     0.193 HD
BRANCH  10  12
HETATM   12  O1  UNL     1      13.369 -18.478  22.994  1.00  0.00    -0.286 OA
HETATM   13  C1  UNL     1      13.763 -19.749  23.482  1.00  0.00     0.237 C 
ENDBRANCH  10  12
ENDBRANCH   1   9
TORSDOF 2
ENDMDL
