MODEL 1
REMARK VINA RESULT: -8.066955449      0.000      0.000
REMARK  6 active torsions:
REMARK  status: ('A' for Active; 'I' for Inactive)
REMARK    1  A    between atoms: O1_2  and  C2_3 
REMARK    2  A    between atoms: C2_3  and  C3_5 
REMARK    3  A    between atoms: C7_17  and  N3_18 
REMARK    4  A    between atoms: N3_18  and  C8_20 
REMARK    5  A    between atoms: C10_22  and  O4_23 
REMARK    6  A    between atoms: C13_26  and  O5_27 
ROOT
HETATM    1  C3  UNL     1      -8.346  -5.127 -16.789  1.00  0.00     0.168 C 
HETATM    2  C4  UNL     1      -8.585  -6.565 -17.113  1.00  0.00     0.126 C 
HETATM    3  N1  UNL     1      -8.276  -7.070 -18.258  1.00  0.00    -0.383 N 
ATOM      4  H11 UNL     1      -8.440  -8.052 -18.479  1.00  0.00     0.158 HD
ATOM      5  H12 UNL     1      -7.853  -6.539 -19.019  1.00  0.00     0.158 HD
HETATM    6  O3  UNL     1      -9.161  -7.288 -16.077  1.00  0.00    -0.328 OA
HETATM    7  C5  UNL     1     -10.126  -6.769 -15.235  1.00  0.00     0.200 C 
HETATM    8  C6  UNL     1     -11.465  -7.368 -15.623  1.00  0.00     0.400 C 
HETATM    9  F1  UNL     1     -11.356  -8.202 -16.725  1.00  0.00    -0.216 F 
HETATM   10  N2  UNL     1     -12.379  -6.285 -15.818  1.00  0.00    -0.020 N 
ATOM     11  H21 UNL     1     -13.328  -6.494 -15.509  1.00  0.00     0.283 HD
ATOM     12  H22 UNL     1     -12.603  -6.114 -16.798  1.00  0.00     0.283 HD
HETATM   13  C7  UNL     1     -11.796  -5.147 -15.154  1.00  0.00     0.295 C 
HETATM   14  C16 UNL     1     -10.304  -5.291 -15.265  1.00  0.00     0.080 C 
HETATM   15  C17 UNL     1      -9.679  -4.564 -16.382  1.00  0.00    -0.011 C 
HETATM   16  C18 UNL     1     -10.574  -4.571 -17.603  1.00  0.00     0.011 C 
HETATM   17  C19 UNL     1      -9.969  -3.814 -18.769  1.00  0.00     0.001 C 
HETATM   18  C20 UNL     1      -9.566  -2.407 -18.382  1.00  0.00     0.000 C 
HETATM   19  C21 UNL     1     -10.115  -2.163 -16.992  1.00  0.00     0.001 C 
HETATM   20  C22 UNL     1      -9.450  -3.107 -16.009  1.00  0.00     0.011 C 
ENDROOT
BRANCH  13  21
HETATM   21  N3  UNL     1     -12.175  -5.247 -13.741  1.00  0.00    -0.362 N 
ATOM     22  H3  UNL     1     -12.544  -6.137 -13.407  1.00  0.00     0.161 HD
BRANCH  21  23
HETATM   23  C8  UNL     1     -12.063  -4.205 -12.831  1.00  0.00     0.034 A 
HETATM   24  C9  UNL     1     -13.160  -3.757 -12.142  1.00  0.00     0.066 A 
HETATM   25  C10 UNL     1     -13.118  -2.727 -11.219  1.00  0.00     0.073 A 
HETATM   26  C12 UNL     1     -11.901  -2.124 -10.984  1.00  0.00     0.073 A 
HETATM   27  C13 UNL     1     -10.779  -2.546 -11.656  1.00  0.00     0.073 A 
HETATM   28  C15 UNL     1     -10.854  -3.592 -12.586  1.00  0.00     0.066 A 
BRANCH  25  29
HETATM   29  O4  UNL     1     -14.281  -2.347 -10.574  1.00  0.00    -0.356 OA
HETATM   30  C11 UNL     1     -14.936  -3.156  -9.641  1.00  0.00     0.210 C 
ENDBRANCH  25  29
BRANCH  27  31
HETATM   31  O5  UNL     1      -9.548  -1.965 -11.446  1.00  0.00    -0.356 OA
HETATM   32  C14 UNL     1      -8.528  -2.170 -12.380  1.00  0.00     0.210 C 
ENDBRANCH  27  31
ENDBRANCH  21  23
ENDBRANCH  13  21
BRANCH   1  33
HETATM   33  C2  UNL     1      -7.338  -5.108 -15.705  1.00  0.00     0.271 C 
HETATM   34  O2  UNL     1      -7.222  -4.267 -14.810  1.00  0.00    -0.264 OA
BRANCH  33  35
HETATM   35  O1  UNL     1      -6.404  -6.163 -15.687  1.00  0.00    -0.326 OA
HETATM   36  C1  UNL     1      -5.009  -5.883 -15.669  1.00  0.00     0.213 C 
ENDBRANCH  33  35
ENDBRANCH   1  33
TORSDOF 6
ENDMDL
MODEL 2
REMARK VINA RESULT: -7.980304400      0.066      2.333
REMARK  6 active torsions:
REMARK  status: ('A' for Active; 'I' for Inactive)
REMARK    1  A    between atoms: O1_2  and  C2_3 
REMARK    2  A    between atoms: C2_3  and  C3_5 
REMARK    3  A    between atoms: C7_17  and  N3_18 
REMARK    4  A    between atoms: N3_18  and  C8_20 
REMARK    5  A    between atoms: C10_22  and  O4_23 
REMARK    6  A    between atoms: C13_26  and  O5_27 
ROOT
HETATM    1  C3  UNL     1      -8.365  -5.151 -16.816  1.00  0.00     0.168 C 
HETATM    2  C4  UNL     1      -8.612  -6.586 -17.148  1.00  0.00     0.126 C 
HETATM    3  N1  UNL     1      -8.316  -7.085 -18.299  1.00  0.00    -0.383 N 
ATOM      4  H11 UNL     1      -8.485  -8.065 -18.526  1.00  0.00     0.158 HD
ATOM      5  H12 UNL     1      -7.899  -6.550 -19.061  1.00  0.00     0.158 HD
HETATM    6  O3  UNL     1      -9.181  -7.315 -16.111  1.00  0.00    -0.328 OA
HETATM    7  C5  UNL     1     -10.135  -6.798 -15.256  1.00  0.00     0.200 C 
HETATM    8  C6  UNL     1     -11.480  -7.389 -15.635  1.00  0.00     0.400 C 
HETATM    9  F1  UNL     1     -11.385  -8.217 -16.744  1.00  0.00    -0.216 F 
HETATM   10  N2  UNL     1     -12.392  -6.303 -15.814  1.00  0.00    -0.020 N 
ATOM     11  H21 UNL     1     -13.339  -6.511 -15.497  1.00  0.00     0.283 HD
ATOM     12  H22 UNL     1     -12.625  -6.125 -16.790  1.00  0.00     0.283 HD
HETATM   13  C7  UNL     1     -11.799  -5.171 -15.148  1.00  0.00     0.295 C 
HETATM   14  C16 UNL     1     -10.309  -5.320 -15.274  1.00  0.00     0.080 C 
HETATM   15  C17 UNL     1      -9.693  -4.587 -16.392  1.00  0.00    -0.011 C 
HETATM   16  C18 UNL     1     -10.599  -4.583 -17.604  1.00  0.00     0.011 C 
HETATM   17  C19 UNL     1     -10.003  -3.819 -18.771  1.00  0.00     0.001 C 
HETATM   18  C20 UNL     1      -9.592  -2.417 -18.379  1.00  0.00     0.000 C 
HETATM   19  C21 UNL     1     -10.126  -2.180 -16.982  1.00  0.00     0.001 C 
HETATM   20  C22 UNL     1      -9.455  -3.133 -16.012  1.00  0.00     0.011 C 
ENDROOT
BRANCH  13  21
HETATM   21  N3  UNL     1     -12.165  -5.280 -13.732  1.00  0.00    -0.362 N 
ATOM     22  H3  UNL     1     -12.509  -6.178 -13.395  1.00  0.00     0.161 HD
BRANCH  21  23
HETATM   23  C8  UNL     1     -12.071  -4.235 -12.824  1.00  0.00     0.034 A 
HETATM   24  C9  UNL     1     -10.871  -3.613 -12.593  1.00  0.00     0.066 A 
HETATM   25  C10 UNL     1     -10.708  -2.564 -11.706  1.00  0.00     0.073 A 
HETATM   26  C12 UNL     1     -11.820  -2.125 -11.019  1.00  0.00     0.073 A 
HETATM   27  C13 UNL     1     -13.039  -2.723 -11.224  1.00  0.00     0.073 A 
HETATM   28  C15 UNL     1     -13.172  -3.785 -12.130  1.00  0.00     0.066 A 
BRANCH  25  29
HETATM   29  O4  UNL     1      -9.455  -2.002 -11.543  1.00  0.00    -0.356 OA
HETATM   30  C11 UNL     1      -8.438  -2.115 -12.496  1.00  0.00     0.210 C 
ENDBRANCH  25  29
BRANCH  27  31
HETATM   31  O5  UNL     1     -14.171  -2.310 -10.554  1.00  0.00    -0.356 OA
HETATM   32  C14 UNL     1     -14.853  -3.220  -9.741  1.00  0.00     0.210 C 
ENDBRANCH  27  31
ENDBRANCH  21  23
ENDBRANCH  13  21
BRANCH   1  33
HETATM   33  C2  UNL     1      -7.347  -5.142 -15.742  1.00  0.00     0.271 C 
HETATM   34  O2  UNL     1      -7.228  -4.317 -14.834  1.00  0.00    -0.264 OA
BRANCH  33  35
HETATM   35  O1  UNL     1      -6.405  -6.190 -15.751  1.00  0.00    -0.326 OA
HETATM   36  C1  UNL     1      -5.014  -5.904 -15.652  1.00  0.00     0.213 C 
ENDBRANCH  33  35
ENDBRANCH   1  33
TORSDOF 6
ENDMDL
MODEL 3
REMARK VINA RESULT: -7.948982697      2.780      4.375
REMARK  6 active torsions:
REMARK  status: ('A' for Active; 'I' for Inactive)
REMARK    1  A    between atoms: O1_2  and  C2_3 
REMARK    2  A    between atoms: C2_3  and  C3_5 
REMARK    3  A    between atoms: C7_17  and  N3_18 
REMARK    4  A    between atoms: N3_18  and  C8_20 
REMARK    5  A    between atoms: C10_22  and  O4_23 
REMARK    6  A    between atoms: C13_26  and  O5_27 
ROOT
HETATM    1  C3  UNL     1      -9.519  -5.269 -18.819  1.00  0.00     0.168 C 
HETATM    2  C4  UNL     1      -8.222  -4.755 -19.351  1.00  0.00     0.126 C 
HETATM    3  N1  UNL     1      -7.606  -5.327 -20.327  1.00  0.00    -0.383 N 
ATOM      4  H11 UNL     1      -6.719  -4.976 -20.690  1.00  0.00     0.158 HD
ATOM      5  H12 UNL     1      -7.947  -6.161 -20.805  1.00  0.00     0.158 HD
HETATM    6  O3  UNL     1      -7.756  -3.619 -18.701  1.00  0.00    -0.328 OA
HETATM    7  C5  UNL     1      -7.887  -3.417 -17.340  1.00  0.00     0.200 C 
HETATM    8  C6  UNL     1      -6.530  -3.634 -16.697  1.00  0.00     0.400 C 
HETATM    9  F1  UNL     1      -5.576  -4.022 -17.626  1.00  0.00    -0.216 F 
HETATM   10  N2  UNL     1      -6.703  -4.575 -15.635  1.00  0.00    -0.020 N 
ATOM     11  H21 UNL     1      -6.117  -4.383 -14.823  1.00  0.00     0.283 HD
ATOM     12  H22 UNL     1      -6.326  -5.499 -15.844  1.00  0.00     0.283 HD
HETATM   13  C7  UNL     1      -8.113  -4.583 -15.337  1.00  0.00     0.295 C 
HETATM   14  C16 UNL     1      -8.836  -4.315 -16.627  1.00  0.00     0.080 C 
HETATM   15  C17 UNL     1      -9.301  -5.509 -17.351  1.00  0.00    -0.011 C 
HETATM   16  C18 UNL     1      -8.315  -6.648 -17.212  1.00  0.00     0.011 C 
HETATM   17  C19 UNL     1      -8.772  -7.902 -17.931  1.00  0.00     0.001 C 
HETATM   18  C20 UNL     1     -10.165  -8.318 -17.513  1.00  0.00     0.000 C 
HETATM   19  C21 UNL     1     -10.546  -7.444 -16.336  1.00  0.00     0.001 C 
HETATM   20  C22 UNL     1     -10.625  -5.997 -16.781  1.00  0.00     0.011 C 
ENDROOT
BRANCH  13  21
HETATM   21  N3  UNL     1      -8.353  -3.464 -14.420  1.00  0.00    -0.362 N 
ATOM     22  H3  UNL     1      -7.675  -2.703 -14.407  1.00  0.00     0.161 HD
BRANCH  21  23
HETATM   23  C8  UNL     1      -9.447  -3.377 -13.571  1.00  0.00     0.034 A 
HETATM   24  C9  UNL     1     -10.640  -3.968 -13.902  1.00  0.00     0.066 A 
HETATM   25  C10 UNL     1     -11.766  -3.924 -13.101  1.00  0.00     0.073 A 
HETATM   26  C12 UNL     1     -11.678  -3.247 -11.903  1.00  0.00     0.073 A 
HETATM   27  C13 UNL     1     -10.500  -2.641 -11.538  1.00  0.00     0.073 A 
HETATM   28  C15 UNL     1      -9.375  -2.704 -12.372  1.00  0.00     0.066 A 
BRANCH  25  29
HETATM   29  O4  UNL     1     -12.923  -4.553 -13.523  1.00  0.00    -0.356 OA
HETATM   30  C11 UNL     1     -12.961  -5.890 -13.930  1.00  0.00     0.210 C 
ENDBRANCH  25  29
BRANCH  27  31
HETATM   31  O5  UNL     1     -10.376  -1.956 -10.349  1.00  0.00    -0.356 OA
HETATM   32  C14 UNL     1     -11.116  -0.786 -10.156  1.00  0.00     0.210 C 
ENDBRANCH  27  31
ENDBRANCH  21  23
ENDBRANCH  13  21
BRANCH   1  33
HETATM   33  C2  UNL     1     -10.529  -4.226 -19.106  1.00  0.00     0.271 C 
HETATM   34  O2  UNL     1     -11.480  -3.892 -18.396  1.00  0.00    -0.264 OA
BRANCH  33  35
HETATM   35  O1  UNL     1     -10.395  -3.531 -20.325  1.00  0.00    -0.326 OA
HETATM   36  C1  UNL     1     -10.847  -4.121 -21.539  1.00  0.00     0.213 C 
ENDBRANCH  33  35
ENDBRANCH   1  33
TORSDOF 6
ENDMDL
MODEL 4
REMARK VINA RESULT: -7.908038901      2.778      4.539
REMARK  6 active torsions:
REMARK  status: ('A' for Active; 'I' for Inactive)
REMARK    1  A    between atoms: O1_2  and  C2_3 
REMARK    2  A    between atoms: C2_3  and  C3_5 
REMARK    3  A    between atoms: C7_17  and  N3_18 
REMARK    4  A    between atoms: N3_18  and  C8_20 
REMARK    5  A    between atoms: C10_22  and  O4_23 
REMARK    6  A    between atoms: C13_26  and  O5_27 
ROOT
HETATM    1  C3  UNL     1      -9.524  -5.327 -18.863  1.00  0.00     0.168 C 
HETATM    2  C4  UNL     1      -8.225  -4.828 -19.405  1.00  0.00     0.126 C 
HETATM    3  N1  UNL     1      -7.620  -5.411 -20.381  1.00  0.00    -0.383 N 
ATOM      4  H11 UNL     1      -6.733  -5.070 -20.751  1.00  0.00     0.158 HD
ATOM      5  H12 UNL     1      -7.971  -6.245 -20.852  1.00  0.00     0.158 HD
HETATM    6  O3  UNL     1      -7.746  -3.692 -18.764  1.00  0.00    -0.328 OA
HETATM    7  C5  UNL     1      -7.867  -3.481 -17.404  1.00  0.00     0.200 C 
HETATM    8  C6  UNL     1      -6.509  -3.707 -16.767  1.00  0.00     0.400 C 
HETATM    9  F1  UNL     1      -5.563  -4.108 -17.699  1.00  0.00    -0.216 F 
HETATM   10  N2  UNL     1      -6.684  -4.639 -15.698  1.00  0.00    -0.020 N 
ATOM     11  H21 UNL     1      -6.092  -4.448 -14.891  1.00  0.00     0.283 HD
ATOM     12  H22 UNL     1      -6.317  -5.568 -15.905  1.00  0.00     0.283 HD
HETATM   13  C7  UNL     1      -8.092  -4.634 -15.393  1.00  0.00     0.295 C 
HETATM   14  C16 UNL     1      -8.820  -4.367 -16.680  1.00  0.00     0.080 C 
HETATM   15  C17 UNL     1      -9.300  -5.560 -17.395  1.00  0.00    -0.011 C 
HETATM   16  C18 UNL     1      -8.323  -6.707 -17.254  1.00  0.00     0.011 C 
HETATM   17  C19 UNL     1      -8.795  -7.962 -17.964  1.00  0.00     0.001 C 
HETATM   18  C20 UNL     1     -10.190  -8.363 -17.535  1.00  0.00     0.000 C 
HETATM   19  C21 UNL     1     -10.556  -7.479 -16.362  1.00  0.00     0.001 C 
HETATM   20  C22 UNL     1     -10.625  -6.034 -16.814  1.00  0.00     0.011 C 
ENDROOT
BRANCH  13  21
HETATM   21  N3  UNL     1      -8.318  -3.507 -14.481  1.00  0.00    -0.362 N 
ATOM     22  H3  UNL     1      -7.632  -2.753 -14.475  1.00  0.00     0.161 HD
BRANCH  21  23
HETATM   23  C8  UNL     1      -9.407  -3.405 -13.628  1.00  0.00     0.034 A 
HETATM   24  C9  UNL     1      -9.313  -2.704 -12.453  1.00  0.00     0.066 A 
HETATM   25  C10 UNL     1     -10.358  -2.559 -11.560  1.00  0.00     0.073 A 
HETATM   26  C12 UNL     1     -11.561  -3.154 -11.875  1.00  0.00     0.073 A 
HETATM   27  C13 UNL     1     -11.694  -3.865 -13.044  1.00  0.00     0.073 A 
HETATM   28  C15 UNL     1     -10.615  -3.995 -13.929  1.00  0.00     0.066 A 
BRANCH  25  29
HETATM   29  O4  UNL     1     -10.163  -1.831 -10.400  1.00  0.00    -0.356 OA
HETATM   30  C11 UNL     1     -11.095  -0.912  -9.909  1.00  0.00     0.210 C 
ENDBRANCH  25  29
BRANCH  27  31
HETATM   31  O5  UNL     1     -12.881  -4.473 -13.390  1.00  0.00    -0.356 OA
HETATM   32  C14 UNL     1     -12.852  -5.744 -13.971  1.00  0.00     0.210 C 
ENDBRANCH  27  31
ENDBRANCH  21  23
ENDBRANCH  13  21
BRANCH   1  33
HETATM   33  C2  UNL     1     -10.526  -4.277 -19.151  1.00  0.00     0.271 C 
HETATM   34  O2  UNL     1     -11.492  -3.956 -18.453  1.00  0.00    -0.264 OA
BRANCH  33  35
HETATM   35  O1  UNL     1     -10.367  -3.559 -20.353  1.00  0.00    -0.326 OA
HETATM   36  C1  UNL     1     -10.847  -4.100 -21.578  1.00  0.00     0.213 C 
ENDBRANCH  33  35
ENDBRANCH   1  33
TORSDOF 6
ENDMDL
MODEL 5
REMARK VINA RESULT: -7.717715014      2.790      4.520
REMARK  6 active torsions:
REMARK  status: ('A' for Active; 'I' for Inactive)
REMARK    1  A    between atoms: O1_2  and  C2_3 
REMARK    2  A    between atoms: C2_3  and  C3_5 
REMARK    3  A    between atoms: C7_17  and  N3_18 
REMARK    4  A    between atoms: N3_18  and  C8_20 
REMARK    5  A    between atoms: C10_22  and  O4_23 
REMARK    6  A    between atoms: C13_26  and  O5_27 
ROOT
HETATM    1  C3  UNL     1      -9.306  -4.943 -18.679  1.00  0.00     0.168 C 
HETATM    2  C4  UNL     1      -8.106  -4.092 -18.938  1.00  0.00     0.126 C 
HETATM    3  N1  UNL     1      -7.263  -4.363 -19.874  1.00  0.00    -0.383 N 
ATOM      4  H11 UNL     1      -6.443  -3.782 -20.051  1.00  0.00     0.158 HD
ATOM      5  H12 UNL     1      -7.344  -5.165 -20.499  1.00  0.00     0.158 HD
HETATM    6  O3  UNL     1      -7.994  -3.001 -18.087  1.00  0.00    -0.328 OA
HETATM    7  C5  UNL     1      -8.330  -3.046 -16.747  1.00  0.00     0.200 C 
HETATM    8  C6  UNL     1      -7.046  -3.073 -15.938  1.00  0.00     0.400 C 
HETATM    9  F1  UNL     1      -5.924  -3.103 -16.753  1.00  0.00    -0.216 F 
HETATM   10  N2  UNL     1      -7.126  -4.184 -15.042  1.00  0.00    -0.020 N 
ATOM     11  H21 UNL     1      -6.701  -4.004 -14.133  1.00  0.00     0.283 HD
ATOM     12  H22 UNL     1      -6.525  -4.964 -15.307  1.00  0.00     0.283 HD
HETATM   13  C7  UNL     1      -8.522  -4.534 -14.965  1.00  0.00     0.295 C 
HETATM   14  C16 UNL     1      -9.127  -4.224 -16.305  1.00  0.00     0.080 C 
HETATM   15  C17 UNL     1      -9.216  -5.360 -17.236  1.00  0.00    -0.011 C 
HETATM   16  C18 UNL     1      -8.019  -6.275 -17.094  1.00  0.00     0.011 C 
HETATM   17  C19 UNL     1      -8.088  -7.468 -18.028  1.00  0.00     0.001 C 
HETATM   18  C20 UNL     1      -9.389  -8.227 -17.881  1.00  0.00     0.000 C 
HETATM   19  C21 UNL     1     -10.098  -7.648 -16.675  1.00  0.00     0.001 C 
HETATM   20  C22 UNL     1     -10.451  -6.197 -16.940  1.00  0.00     0.011 C 
ENDROOT
BRANCH  13  21
HETATM   21  N3  UNL     1      -9.120  -3.648 -13.961  1.00  0.00    -0.362 N 
ATOM     22  H3  UNL     1      -8.548  -2.889 -13.592  1.00  0.00     0.161 HD
BRANCH  21  23
HETATM   23  C8  UNL     1     -10.417  -3.779 -13.484  1.00  0.00     0.034 A 
HETATM   24  C9  UNL     1     -11.320  -4.588 -14.124  1.00  0.00     0.066 A 
HETATM   25  C10 UNL     1     -12.624  -4.767 -13.700  1.00  0.00     0.073 A 
HETATM   26  C12 UNL     1     -13.032  -4.091 -12.570  1.00  0.00     0.073 A 
HETATM   27  C13 UNL     1     -12.155  -3.271 -11.902  1.00  0.00     0.073 A 
HETATM   28  C15 UNL     1     -10.839  -3.110 -12.357  1.00  0.00     0.066 A 
BRANCH  25  29
HETATM   29  O4  UNL     1     -13.460  -5.606 -14.415  1.00  0.00    -0.356 OA
HETATM   30  C11 UNL     1     -13.271  -6.989 -14.490  1.00  0.00     0.210 C 
ENDBRANCH  25  29
BRANCH  27  31
HETATM   31  O5  UNL     1     -12.529  -2.580 -10.770  1.00  0.00    -0.356 OA
HETATM   32  C14 UNL     1     -13.845  -2.681 -10.312  1.00  0.00     0.210 C 
ENDBRANCH  27  31
ENDBRANCH  21  23
ENDBRANCH  13  21
BRANCH   1  33
HETATM   33  C2  UNL     1     -10.485  -4.103 -18.981  1.00  0.00     0.271 C 
HETATM   34  O2  UNL     1     -11.471  -3.914 -18.264  1.00  0.00    -0.264 OA
BRANCH  33  35
HETATM   35  O1  UNL     1     -10.490  -3.440 -20.225  1.00  0.00    -0.326 OA
HETATM   36  C1  UNL     1     -10.793  -4.156 -21.417  1.00  0.00     0.213 C 
ENDBRANCH  33  35
ENDBRANCH   1  33
TORSDOF 6
ENDMDL
