MODEL 1
REMARK VINA RESULT: -8.190516620      0.000      0.000
REMARK  5 active torsions:
REMARK  status: ('A' for Active; 'I' for Inactive)
REMARK    1  A    between atoms: C2_2  and  C4_4 
REMARK    2  A    between atoms: C2_2  and  C5_6 
REMARK    3  A    between atoms: N1_10  and  O2_12 
REMARK    4  A    between atoms: C9_15  and  C10_16 
REMARK    5  A    between atoms: C13_19  and  N2_20 
ROOT
HETATM    1  C5  UNL     1      -6.275  -2.520 -16.245  1.00  0.00     0.271 C 
HETATM    2  O1  UNL     1      -7.282  -1.881 -16.932  1.00  0.00    -0.347 OA
HETATM    3  C6  UNL     1      -8.123  -2.918 -17.365  1.00  0.00     0.201 C 
HETATM    4  C7  UNL     1      -9.520  -2.518 -17.264  1.00  0.00     0.044 C 
HETATM    5  N1  UNL     1      -9.852  -1.278 -17.381  1.00  0.00    -0.275 N 
ATOM      6  H1  UNL     1     -10.833  -1.010 -17.309  1.00  0.00     0.193 HD
HETATM    7  C8  UNL     1     -10.538  -3.518 -17.045  1.00  0.00     0.093 C 
HETATM    8  C9  UNL     1     -10.192  -4.665 -16.114  1.00  0.00     0.071 C 
HETATM    9  N3  UNL     1     -11.116  -5.715 -16.488  1.00  0.00    -0.357 N 
ATOM     10  H3  UNL     1     -11.978  -5.411 -16.941  1.00  0.00     0.162 HD
HETATM   11  C16 UNL     1     -10.974  -7.102 -16.307  1.00  0.00     0.134 C 
HETATM   12  N4  UNL     1     -11.872  -7.979 -16.506  1.00  0.00    -0.380 N 
ATOM     13  H41 UNL     1     -11.768  -8.985 -16.374  1.00  0.00     0.158 HD
ATOM     14  H42 UNL     1     -12.795  -7.683 -16.825  1.00  0.00     0.158 HD
HETATM   15  S1  UNL     1      -9.353  -7.621 -15.746  1.00  0.00    -0.094 SA
HETATM   16  C17 UNL     1      -8.357  -6.361 -16.647  1.00  0.00     0.092 C 
HETATM   17  C18 UNL     1      -8.774  -5.017 -16.062  1.00  0.00     0.060 C 
HETATM   18  C19 UNL     1      -7.734  -4.064 -16.528  1.00  0.00     0.167 C 
HETATM   19  O5  UNL     1      -6.977  -3.472 -15.505  1.00  0.00    -0.352 OA
ENDROOT
BRANCH   8  20
HETATM   20  C10 UNL     1     -10.707  -4.192 -14.762  1.00  0.00    -0.029 A 
HETATM   21  C11 UNL     1      -9.887  -3.629 -13.806  1.00  0.00     0.012 A 
HETATM   22  C12 UNL     1     -10.330  -3.188 -12.577  1.00  0.00     0.037 A 
HETATM   23  C13 UNL     1     -11.661  -3.311 -12.272  1.00  0.00     0.102 A 
HETATM   24  C14 UNL     1     -12.529  -3.864 -13.181  1.00  0.00     0.037 A 
HETATM   25  C15 UNL     1     -12.035  -4.297 -14.414  1.00  0.00     0.012 A 
BRANCH  23  26
HETATM   26  N2  UNL     1     -12.112  -2.852 -11.007  1.00  0.00    -0.116 N 
HETATM   27  O3  UNL     1     -13.214  -3.179 -10.534  1.00  0.00    -0.532 OA
HETATM   28  O4  UNL     1     -11.313  -2.018 -10.270  1.00  0.00    -0.532 OA
ENDBRANCH  23  26
ENDBRANCH   8  20
BRANCH   5  29
HETATM   29  O2  UNL     1      -8.909  -0.325 -17.600  1.00  0.00    -0.290 OA
ATOM     30  H2  UNL     1      -9.141   0.503 -18.003  1.00  0.00     0.244 HD
ENDBRANCH   5  29
BRANCH   1  31
HETATM   31  C2  UNL     1      -5.427  -1.604 -15.423  1.00  0.00     0.028 C 
HETATM   32  C1  UNL     1      -6.151  -0.992 -14.262  1.00  0.00     0.022 C 
HETATM   33  C3  UNL     1      -4.891  -0.525 -16.348  1.00  0.00     0.022 C 
BRANCH  31  34
HETATM   34  C4  UNL     1      -4.228  -2.367 -14.885  1.00  0.00     0.235 C 
HETATM   35  F1  UNL     1      -3.767  -1.647 -13.789  1.00  0.00    -0.255 F 
ENDBRANCH  31  34
ENDBRANCH   1  31
TORSDOF 5
ENDMDL
MODEL 2
REMARK VINA RESULT: -8.114346048      0.773      1.404
REMARK  5 active torsions:
REMARK  status: ('A' for Active; 'I' for Inactive)
REMARK    1  A    between atoms: C2_2  and  C4_4 
REMARK    2  A    between atoms: C2_2  and  C5_6 
REMARK    3  A    between atoms: N1_10  and  O2_12 
REMARK    4  A    between atoms: C9_15  and  C10_16 
REMARK    5  A    between atoms: C13_19  and  N2_20 
ROOT
HETATM    1  C5  UNL     1      -6.116  -2.654 -16.988  1.00  0.00     0.271 C 
HETATM    2  O1  UNL     1      -7.176  -1.930 -17.483  1.00  0.00    -0.347 OA
HETATM    3  C6  UNL     1      -8.173  -2.889 -17.722  1.00  0.00     0.201 C 
HETATM    4  C7  UNL     1      -9.483  -2.363 -17.363  1.00  0.00     0.044 C 
HETATM    5  N1  UNL     1      -9.721  -1.099 -17.443  1.00  0.00    -0.275 N 
ATOM      6  H1  UNL     1     -10.641  -0.742 -17.189  1.00  0.00     0.193 HD
HETATM    7  C8  UNL     1     -10.523  -3.265 -16.931  1.00  0.00     0.093 C 
HETATM    8  C9  UNL     1     -10.107  -4.434 -16.057  1.00  0.00     0.071 C 
HETATM    9  N3  UNL     1     -11.174  -5.398 -16.223  1.00  0.00    -0.357 N 
ATOM     10  H3  UNL     1     -12.077  -5.019 -16.508  1.00  0.00     0.162 HD
HETATM   11  C16 UNL     1     -11.122  -6.791 -16.041  1.00  0.00     0.134 C 
HETATM   12  N4  UNL     1     -12.115  -7.584 -16.043  1.00  0.00    -0.380 N 
ATOM     13  H41 UNL     1     -12.077  -8.594 -15.911  1.00  0.00     0.158 HD
ATOM     14  H42 UNL     1     -13.053  -7.207 -16.186  1.00  0.00     0.158 HD
HETATM   15  S1  UNL     1      -9.476  -7.452 -15.791  1.00  0.00    -0.094 SA
HETATM   16  C17 UNL     1      -8.566  -6.292 -16.895  1.00  0.00     0.092 C 
HETATM   17  C18 UNL     1      -8.741  -4.913 -16.271  1.00  0.00     0.060 C 
HETATM   18  C19 UNL     1      -7.731  -4.061 -16.950  1.00  0.00     0.167 C 
HETATM   19  O5  UNL     1      -6.742  -3.535 -16.106  1.00  0.00    -0.352 OA
ENDROOT
BRANCH   8  20
HETATM   20  C10 UNL     1     -10.306  -3.910 -14.643  1.00  0.00    -0.029 A 
HETATM   21  C11 UNL     1     -11.520  -3.966 -13.989  1.00  0.00     0.012 A 
HETATM   22  C12 UNL     1     -11.724  -3.501 -12.707  1.00  0.00     0.037 A 
HETATM   23  C13 UNL     1     -10.668  -2.949 -12.028  1.00  0.00     0.102 A 
HETATM   24  C14 UNL     1      -9.434  -2.864 -12.624  1.00  0.00     0.037 A 
HETATM   25  C15 UNL     1      -9.273  -3.347 -13.926  1.00  0.00     0.012 A 
BRANCH  23  26
HETATM   26  N2  UNL     1     -10.884  -2.477 -10.708  1.00  0.00    -0.116 N 
HETATM   27  O3  UNL     1     -11.381  -3.189  -9.818  1.00  0.00    -0.532 OA
HETATM   28  O4  UNL     1     -10.536  -1.191 -10.387  1.00  0.00    -0.532 OA
ENDBRANCH  23  26
ENDBRANCH   8  20
BRANCH   5  29
HETATM   29  O2  UNL     1      -8.758  -0.237 -17.860  1.00  0.00    -0.290 OA
ATOM     30  H2  UNL     1      -8.802   0.159 -18.723  1.00  0.00     0.244 HD
ENDBRANCH   5  29
BRANCH   1  31
HETATM   31  C2  UNL     1      -5.047  -1.815 -16.366  1.00  0.00     0.028 C 
HETATM   32  C1  UNL     1      -4.547  -0.717 -17.255  1.00  0.00     0.022 C 
HETATM   33  C3  UNL     1      -3.912  -2.743 -15.969  1.00  0.00     0.022 C 
BRANCH  31  34
HETATM   34  C4  UNL     1      -5.575  -1.185 -15.087  1.00  0.00     0.235 C 
HETATM   35  F1  UNL     1      -4.870  -1.771 -14.042  1.00  0.00    -0.255 F 
ENDBRANCH  31  34
ENDBRANCH   1  31
TORSDOF 5
ENDMDL
MODEL 3
REMARK VINA RESULT: -7.744532587      3.306      4.473
REMARK  5 active torsions:
REMARK  status: ('A' for Active; 'I' for Inactive)
REMARK    1  A    between atoms: C2_2  and  C4_4 
REMARK    2  A    between atoms: C2_2  and  C5_6 
REMARK    3  A    between atoms: N1_10  and  O2_12 
REMARK    4  A    between atoms: C9_15  and  C10_16 
REMARK    5  A    between atoms: C13_19  and  N2_20 
ROOT
HETATM    1  C5  UNL     1      -5.014  -5.053 -17.101  1.00  0.00     0.271 C 
HETATM    2  O1  UNL     1      -5.498  -3.880 -16.567  1.00  0.00    -0.347 OA
HETATM    3  C6  UNL     1      -6.350  -3.370 -17.560  1.00  0.00     0.201 C 
HETATM    4  C7  UNL     1      -7.535  -2.775 -16.958  1.00  0.00     0.044 C 
HETATM    5  N1  UNL     1      -7.476  -2.258 -15.779  1.00  0.00    -0.275 N 
ATOM      6  H1  UNL     1      -8.312  -1.844 -15.368  1.00  0.00     0.193 HD
HETATM    7  C8  UNL     1      -8.777  -2.753 -17.693  1.00  0.00     0.093 C 
HETATM    8  C9  UNL     1      -9.103  -3.970 -18.539  1.00  0.00     0.071 C 
HETATM    9  N3  UNL     1     -10.054  -3.479 -19.514  1.00  0.00    -0.357 N 
ATOM     10  H3  UNL     1     -10.580  -2.648 -19.245  1.00  0.00     0.162 HD
HETATM   11  C16 UNL     1     -10.343  -4.004 -20.785  1.00  0.00     0.134 C 
HETATM   12  N4  UNL     1     -11.292  -3.640 -21.548  1.00  0.00    -0.380 N 
ATOM     13  H41 UNL     1     -11.501  -4.021 -22.470  1.00  0.00     0.158 HD
ATOM     14  H42 UNL     1     -11.924  -2.901 -21.238  1.00  0.00     0.158 HD
HETATM   15  S1  UNL     1      -9.233  -5.302 -21.330  1.00  0.00    -0.094 SA
HETATM   16  C17 UNL     1      -7.692  -4.658 -20.554  1.00  0.00     0.092 C 
HETATM   17  C18 UNL     1      -7.943  -4.698 -19.052  1.00  0.00     0.060 C 
HETATM   18  C19 UNL     1      -6.601  -4.523 -18.440  1.00  0.00     0.167 C 
HETATM   19  O5  UNL     1      -6.155  -5.613 -17.676  1.00  0.00    -0.352 OA
ENDROOT
BRANCH   8  20
HETATM   20  C10 UNL     1      -9.946  -4.832 -17.611  1.00  0.00    -0.029 A 
HETATM   21  C11 UNL     1      -9.816  -6.205 -17.542  1.00  0.00     0.012 A 
HETATM   22  C12 UNL     1     -10.564  -7.007 -16.707  1.00  0.00     0.037 A 
HETATM   23  C13 UNL     1     -11.496  -6.421 -15.889  1.00  0.00     0.102 A 
HETATM   24  C14 UNL     1     -11.674  -5.059 -15.910  1.00  0.00     0.037 A 
HETATM   25  C15 UNL     1     -10.893  -4.286 -16.774  1.00  0.00     0.012 A 
BRANCH  23  26
HETATM   26  N2  UNL     1     -12.259  -7.251 -15.028  1.00  0.00    -0.116 N 
HETATM   27  O3  UNL     1     -12.818  -8.288 -15.426  1.00  0.00    -0.532 OA
HETATM   28  O4  UNL     1     -12.395  -6.909 -13.708  1.00  0.00    -0.532 OA
ENDBRANCH  23  26
ENDBRANCH   8  20
BRANCH   5  29
HETATM   29  O2  UNL     1      -6.313  -2.258 -15.079  1.00  0.00    -0.290 OA
ATOM     30  H2  UNL     1      -6.300  -2.501 -14.160  1.00  0.00     0.244 HD
ENDBRANCH   5  29
BRANCH   1  31
HETATM   31  C2  UNL     1      -4.331  -5.934 -16.106  1.00  0.00     0.028 C 
HETATM   32  C1  UNL     1      -3.144  -5.296 -15.449  1.00  0.00     0.022 C 
HETATM   33  C3  UNL     1      -3.923  -7.207 -16.828  1.00  0.00     0.022 C 
BRANCH  31  34
HETATM   34  C4  UNL     1      -5.315  -6.334 -15.019  1.00  0.00     0.235 C 
HETATM   35  F1  UNL     1      -4.704  -7.348 -14.291  1.00  0.00    -0.255 F 
ENDBRANCH  31  34
ENDBRANCH   1  31
TORSDOF 5
ENDMDL
MODEL 4
REMARK VINA RESULT: -7.711355752      3.291      4.456
REMARK  5 active torsions:
REMARK  status: ('A' for Active; 'I' for Inactive)
REMARK    1  A    between atoms: C2_2  and  C4_4 
REMARK    2  A    between atoms: C2_2  and  C5_6 
REMARK    3  A    between atoms: N1_10  and  O2_12 
REMARK    4  A    between atoms: C9_15  and  C10_16 
REMARK    5  A    between atoms: C13_19  and  N2_20 
ROOT
HETATM    1  C5  UNL     1      -4.975  -4.832 -17.103  1.00  0.00     0.271 C 
HETATM    2  O1  UNL     1      -5.502  -3.674 -16.578  1.00  0.00    -0.347 OA
HETATM    3  C6  UNL     1      -6.374  -3.204 -17.573  1.00  0.00     0.201 C 
HETATM    4  C7  UNL     1      -7.580  -2.649 -16.973  1.00  0.00     0.044 C 
HETATM    5  N1  UNL     1      -7.538  -2.120 -15.799  1.00  0.00    -0.275 N 
ATOM      6  H1  UNL     1      -8.388  -1.735 -15.389  1.00  0.00     0.193 HD
HETATM    7  C8  UNL     1      -8.823  -2.680 -17.706  1.00  0.00     0.093 C 
HETATM    8  C9  UNL     1      -9.105  -3.915 -18.541  1.00  0.00     0.071 C 
HETATM    9  N3  UNL     1     -10.075  -3.468 -19.518  1.00  0.00    -0.357 N 
ATOM     10  H3  UNL     1     -10.631  -2.654 -19.255  1.00  0.00     0.162 HD
HETATM   11  C16 UNL     1     -10.346  -4.014 -20.784  1.00  0.00     0.134 C 
HETATM   12  N4  UNL     1     -11.310  -3.692 -21.548  1.00  0.00    -0.380 N 
ATOM     13  H41 UNL     1     -11.506  -4.088 -22.467  1.00  0.00     0.158 HD
ATOM     14  H42 UNL     1     -11.969  -2.975 -21.243  1.00  0.00     0.158 HD
HETATM   15  S1  UNL     1      -9.190  -5.273 -21.321  1.00  0.00    -0.094 SA
HETATM   16  C17 UNL     1      -7.672  -4.567 -20.553  1.00  0.00     0.092 C 
HETATM   17  C18 UNL     1      -7.919  -4.603 -19.050  1.00  0.00     0.060 C 
HETATM   18  C19 UNL     1      -6.583  -4.373 -18.443  1.00  0.00     0.167 C 
HETATM   19  O5  UNL     1      -6.096  -5.439 -17.671  1.00  0.00    -0.352 OA
ENDROOT
BRANCH   8  20
HETATM   20  C10 UNL     1      -9.913  -4.800 -17.604  1.00  0.00    -0.029 A 
HETATM   21  C11 UNL     1     -10.880  -4.303 -16.754  1.00  0.00     0.012 A 
HETATM   22  C12 UNL     1     -11.628  -5.085 -15.900  1.00  0.00     0.037 A 
HETATM   23  C13 UNL     1     -11.410  -6.439 -15.883  1.00  0.00     0.102 A 
HETATM   24  C14 UNL     1     -10.461  -6.996 -16.704  1.00  0.00     0.037 A 
HETATM   25  C15 UNL     1      -9.726  -6.164 -17.553  1.00  0.00     0.012 A 
BRANCH  23  26
HETATM   26  N2  UNL     1     -12.186  -7.239 -15.004  1.00  0.00    -0.116 N 
HETATM   27  O3  UNL     1     -12.356  -6.942 -13.809  1.00  0.00    -0.532 OA
HETATM   28  O4  UNL     1     -12.774  -8.383 -15.477  1.00  0.00    -0.532 OA
ENDBRANCH  23  26
ENDBRANCH   8  20
BRANCH   5  29
HETATM   29  O2  UNL     1      -6.374  -2.071 -15.101  1.00  0.00    -0.290 OA
ATOM     30  H2  UNL     1      -6.369  -1.831 -14.182  1.00  0.00     0.244 HD
ENDBRANCH   5  29
BRANCH   1  31
HETATM   31  C2  UNL     1      -4.258  -5.679 -16.102  1.00  0.00     0.028 C 
HETATM   32  C1  UNL     1      -3.165  -4.956 -15.373  1.00  0.00     0.022 C 
HETATM   33  C3  UNL     1      -3.703  -6.885 -16.839  1.00  0.00     0.022 C 
BRANCH  31  34
HETATM   34  C4  UNL     1      -5.248  -6.202 -15.074  1.00  0.00     0.235 C 
HETATM   35  F1  UNL     1      -4.625  -7.270 -14.439  1.00  0.00    -0.255 F 
ENDBRANCH  31  34
ENDBRANCH   1  31
TORSDOF 5
ENDMDL
MODEL 5
REMARK VINA RESULT: -7.298393425      3.493      5.238
REMARK  5 active torsions:
REMARK  status: ('A' for Active; 'I' for Inactive)
REMARK    1  A    between atoms: C2_2  and  C4_4 
REMARK    2  A    between atoms: C2_2  and  C5_6 
REMARK    3  A    between atoms: N1_10  and  O2_12 
REMARK    4  A    between atoms: C9_15  and  C10_16 
REMARK    5  A    between atoms: C13_19  and  N2_20 
ROOT
HETATM    1  C5  UNL     1      -8.223  -7.344 -18.896  1.00  0.00     0.271 C 
HETATM    2  O1  UNL     1      -8.674  -6.254 -19.605  1.00  0.00    -0.347 OA
HETATM    3  C6  UNL     1      -9.860  -5.880 -18.954  1.00  0.00     0.201 C 
HETATM    4  C7  UNL     1      -9.975  -4.429 -18.896  1.00  0.00     0.044 C 
HETATM    5  N1  UNL     1      -9.441  -3.698 -19.813  1.00  0.00    -0.275 N 
ATOM      6  H1  UNL     1      -9.528  -2.683 -19.762  1.00  0.00     0.193 HD
HETATM    7  C8  UNL     1     -10.703  -3.811 -17.814  1.00  0.00     0.093 C 
HETATM    8  C9  UNL     1     -10.566  -4.439 -16.439  1.00  0.00     0.071 C 
HETATM    9  N3  UNL     1     -11.741  -3.986 -15.725  1.00  0.00    -0.357 N 
ATOM     10  H3  UNL     1     -12.166  -3.124 -16.066  1.00  0.00     0.162 HD
HETATM   11  C16 UNL     1     -12.370  -4.587 -14.621  1.00  0.00     0.134 C 
HETATM   12  N4  UNL     1     -13.305  -4.080 -13.924  1.00  0.00    -0.380 N 
ATOM     13  H41 UNL     1     -13.761  -4.516 -13.123  1.00  0.00     0.158 HD
ATOM     14  H42 UNL     1     -13.653  -3.150 -14.160  1.00  0.00     0.158 HD
HETATM   15  S1  UNL     1     -11.759  -6.220 -14.207  1.00  0.00    -0.094 SA
HETATM   16  C17 UNL     1     -11.399  -6.797 -15.919  1.00  0.00     0.092 C 
HETATM   17  C18 UNL     1     -10.301  -5.877 -16.438  1.00  0.00     0.060 C 
HETATM   18  C19 UNL     1      -9.780  -6.559 -17.650  1.00  0.00     0.167 C 
HETATM   19  O5  UNL     1      -8.435  -6.949 -17.574  1.00  0.00    -0.352 OA
ENDROOT
BRANCH   8  20
HETATM   20  C10 UNL     1      -9.428  -3.654 -15.803  1.00  0.00    -0.029 A 
HETATM   21  C11 UNL     1      -8.597  -2.824 -16.526  1.00  0.00     0.012 A 
HETATM   22  C12 UNL     1      -7.563  -2.100 -15.971  1.00  0.00     0.037 A 
HETATM   23  C13 UNL     1      -7.335  -2.200 -14.623  1.00  0.00     0.102 A 
HETATM   24  C14 UNL     1      -8.127  -3.010 -13.847  1.00  0.00     0.037 A 
HETATM   25  C15 UNL     1      -9.163  -3.726 -14.453  1.00  0.00     0.012 A 
BRANCH  23  26
HETATM   26  N2  UNL     1      -6.272  -1.449 -14.058  1.00  0.00    -0.116 N 
HETATM   27  O3  UNL     1      -5.078  -1.748 -14.234  1.00  0.00    -0.532 OA
HETATM   28  O4  UNL     1      -6.557  -0.352 -13.288  1.00  0.00    -0.532 OA
ENDBRANCH  23  26
ENDBRANCH   8  20
BRANCH   5  29
HETATM   29  O2  UNL     1      -8.763  -4.263 -20.845  1.00  0.00    -0.290 OA
ATOM     30  H2  UNL     1      -8.003  -3.834 -21.219  1.00  0.00     0.244 HD
ENDBRANCH   5  29
BRANCH   1  31
HETATM   31  C2  UNL     1      -6.812  -7.727 -19.205  1.00  0.00     0.028 C 
HETATM   32  C1  UNL     1      -5.831  -7.322 -18.147  1.00  0.00     0.022 C 
HETATM   33  C3  UNL     1      -6.451  -7.097 -20.540  1.00  0.00     0.022 C 
BRANCH  31  34
HETATM   34  C4  UNL     1      -6.721  -9.234 -19.384  1.00  0.00     0.235 C 
HETATM   35  F1  UNL     1      -8.017  -9.721 -19.265  1.00  0.00    -0.255 F 
ENDBRANCH  31  34
ENDBRANCH   1  31
TORSDOF 5
ENDMDL
