MODEL 1
REMARK VINA RESULT: -7.682224039      0.000      0.000
REMARK  7 active torsions:
REMARK  status: ('A' for Active; 'I' for Inactive)
REMARK    1  A    between atoms: N1_5  and  O1_6 
REMARK    2  A    between atoms: C5_8  and  C6_9 
REMARK    3  A    between atoms: C9_13  and  N2_14 
REMARK       I    between atoms: N2_14  and  C10_16 
REMARK       I    between atoms: C10_16  and  N3_18 
REMARK    4  A    between atoms: C13_21  and  C15_23 
REMARK    5  A    between atoms: C15_23  and  O3_24 
REMARK    6  A    between atoms: N4_26  and  O4_28 
REMARK       I    between atoms: N5_30  and  C16_31 
REMARK       I    between atoms: C16_31  and  N6_33 
REMARK    7  A    between atoms: N6_33  and  O6_35 
ROOT
HETATM    1  N2  UNL     1     -10.166  -5.268 -17.683  1.00  0.00    -0.299 N 
ATOM      2  H2  UNL     1     -10.376  -4.454 -18.262  1.00  0.00     0.171 HD
HETATM    3  C10 UNL     1      -9.405  -6.228 -18.314  1.00  0.00     0.342 C 
HETATM    4  O2  UNL     1      -9.046  -7.295 -17.712  1.00  0.00    -0.245 OA
HETATM    5  N3  UNL     1      -8.959  -6.127 -19.646  1.00  0.00    -0.235 N 
HETATM    6  C11 UNL     1      -8.026  -7.070 -20.304  1.00  0.00     0.157 C 
HETATM    7  C12 UNL     1      -7.166  -6.175 -21.128  1.00  0.00     0.063 C 
HETATM    8  C13 UNL     1      -7.967  -4.902 -21.318  1.00  0.00     0.123 C 
HETATM    9  C14 UNL     1      -7.269  -3.797 -20.594  1.00  0.00     0.050 C 
HETATM   10  N5  UNL     1      -9.255  -5.219 -20.674  1.00  0.00    -0.217 N 
HETATM   11  C16 UNL     1     -10.503  -4.741 -21.059  1.00  0.00     0.362 C 
HETATM   12  O5  UNL     1     -11.578  -5.111 -20.561  1.00  0.00    -0.243 OA
HETATM   13  N6  UNL     1     -10.585  -3.761 -22.088  1.00  0.00    -0.217 N 
ATOM     14  H6  UNL     1     -10.274  -3.968 -23.037  1.00  0.00     0.199 HD
ENDROOT
BRANCH   1  15
HETATM   15  C9  UNL     1     -10.710  -5.205 -16.372  1.00  0.00     0.117 A 
HETATM   16  C8  UNL     1     -11.467  -6.008 -15.592  1.00  0.00     0.151 A 
HETATM   17  C7  UNL     1     -11.790  -5.572 -14.351  1.00  0.00     0.066 A 
HETATM   18  F1  UNL     1     -11.907  -7.253 -16.050  1.00  0.00    -0.203 F 
HETATM   19  C6  UNL     1     -11.355  -4.376 -13.943  1.00  0.00     0.039 A 
HETATM   20  S1  UNL     1     -10.470  -3.837 -15.320  1.00  0.00    -0.067 SA
BRANCH  19  21
HETATM   21  C5  UNL     1     -11.499  -3.592 -12.700  1.00  0.00     0.079 A 
HETATM   22  N1  UNL     1     -10.500  -2.947 -12.157  1.00  0.00    -0.235 N 
HETATM   23  C4  UNL     1     -10.665  -2.224 -10.996  1.00  0.00     0.124 A 
HETATM   24  C3  UNL     1     -11.905  -2.179 -10.392  1.00  0.00     0.026 A 
HETATM   25  C2  UNL     1     -12.965  -2.858 -10.959  1.00  0.00    -0.058 A 
HETATM   26  C1  UNL     1     -14.290  -2.793 -10.289  1.00  0.00     0.048 C 
HETATM   27  C17 UNL     1     -12.784  -3.575 -12.118  1.00  0.00     0.040 A 
BRANCH  22  28
HETATM   28  O1  UNL     1      -9.250  -2.951 -12.703  1.00  0.00    -0.283 OA
ATOM     29  H1  UNL     1      -8.872  -3.800 -12.897  1.00  0.00     0.245 HD
ENDBRANCH  22  28
ENDBRANCH  19  21
ENDBRANCH   1  15
BRANCH   8  30
HETATM   30  C15 UNL     1      -8.121  -4.695 -22.752  1.00  0.00     0.166 C 
HETATM   31  N4  UNL     1      -8.451  -5.563 -23.583  1.00  0.00    -0.249 N 
ATOM     32  H4  UNL     1      -8.511  -5.245 -24.550  1.00  0.00     0.196 HD
BRANCH  30  33
HETATM   33  O3  UNL     1      -7.875  -3.396 -23.248  1.00  0.00    -0.346 OA
ATOM     34  H3  UNL     1      -6.997  -3.207 -23.557  1.00  0.00     0.219 HD
ENDBRANCH  30  33
BRANCH  31  35
HETATM   35  O4  UNL     1      -8.736  -6.846 -23.385  1.00  0.00    -0.288 OA
ATOM     36  H4  UNL     1      -9.070  -7.487 -24.002  1.00  0.00     0.244 HD
ENDBRANCH  31  35
ENDBRANCH   8  30
BRANCH  13  37
HETATM   37  O6  UNL     1     -11.053  -2.636 -21.793  1.00  0.00    -0.286 OA
ATOM     38  H6  UNL     1     -10.443  -1.916 -21.676  1.00  0.00     0.244 HD
ENDBRANCH  13  37
TORSDOF 7
ENDMDL
MODEL 2
REMARK VINA RESULT: -7.644657832      5.076      6.183
REMARK  7 active torsions:
REMARK  status: ('A' for Active; 'I' for Inactive)
REMARK    1  A    between atoms: N1_5  and  O1_6 
REMARK    2  A    between atoms: C5_8  and  C6_9 
REMARK    3  A    between atoms: C9_13  and  N2_14 
REMARK       I    between atoms: N2_14  and  C10_16 
REMARK       I    between atoms: C10_16  and  N3_18 
REMARK    4  A    between atoms: C13_21  and  C15_23 
REMARK    5  A    between atoms: C15_23  and  O3_24 
REMARK    6  A    between atoms: N4_26  and  O4_28 
REMARK       I    between atoms: N5_30  and  C16_31 
REMARK       I    between atoms: C16_31  and  N6_33 
REMARK    7  A    between atoms: N6_33  and  O6_35 
ROOT
HETATM    1  N2  UNL     1      -6.735  -4.833 -15.720  1.00  0.00    -0.299 N 
ATOM      2  H2  UNL     1      -6.025  -4.253 -15.274  1.00  0.00     0.171 HD
HETATM    3  C10 UNL     1      -6.228  -5.786 -16.576  1.00  0.00     0.342 C 
HETATM    4  O2  UNL     1      -6.993  -6.601 -17.194  1.00  0.00    -0.245 OA
HETATM    5  N3  UNL     1      -4.856  -5.953 -16.843  1.00  0.00    -0.235 N 
HETATM    6  C11 UNL     1      -4.273  -7.054 -17.643  1.00  0.00     0.157 C 
HETATM    7  C12 UNL     1      -3.024  -7.387 -16.901  1.00  0.00     0.063 C 
HETATM    8  C13 UNL     1      -2.697  -6.155 -16.081  1.00  0.00     0.123 C 
HETATM    9  C14 UNL     1      -2.852  -6.501 -14.635  1.00  0.00     0.050 C 
HETATM   10  N5  UNL     1      -3.729  -5.190 -16.502  1.00  0.00    -0.217 N 
HETATM   11  C16 UNL     1      -3.574  -3.810 -16.586  1.00  0.00     0.362 C 
HETATM   12  O5  UNL     1      -4.429  -3.037 -17.046  1.00  0.00    -0.243 OA
HETATM   13  N6  UNL     1      -2.367  -3.216 -16.119  1.00  0.00    -0.217 N 
ATOM     14  H6  UNL     1      -1.472  -3.432 -16.558  1.00  0.00     0.199 HD
ENDROOT
BRANCH   1  15
HETATM   15  C9  UNL     1      -8.068  -4.513 -15.345  1.00  0.00     0.117 A 
HETATM   16  C8  UNL     1      -9.260  -4.415 -15.973  1.00  0.00     0.151 A 
HETATM   17  C7  UNL     1     -10.343  -4.069 -15.237  1.00  0.00     0.066 A 
HETATM   18  F1  UNL     1      -9.375  -4.663 -17.344  1.00  0.00    -0.203 F 
HETATM   19  C6  UNL     1     -10.199  -3.837 -13.929  1.00  0.00     0.039 A 
HETATM   20  S1  UNL     1      -8.511  -4.107 -13.709  1.00  0.00    -0.067 SA
BRANCH  19  21
HETATM   21  C5  UNL     1     -11.119  -3.452 -12.840  1.00  0.00     0.079 A 
HETATM   22  N1  UNL     1     -12.340  -3.912 -12.758  1.00  0.00    -0.235 N 
HETATM   23  C4  UNL     1     -13.176  -3.534 -11.730  1.00  0.00     0.124 A 
HETATM   24  C3  UNL     1     -12.720  -2.654 -10.769  1.00  0.00     0.026 A 
HETATM   25  C2  UNL     1     -11.432  -2.163 -10.850  1.00  0.00    -0.058 A 
HETATM   26  C1  UNL     1     -10.965  -1.219  -9.803  1.00  0.00     0.048 C 
HETATM   27  C17 UNL     1     -10.610  -2.551 -11.881  1.00  0.00     0.040 A 
BRANCH  22  28
HETATM   28  O1  UNL     1     -12.852  -4.784 -13.673  1.00  0.00    -0.283 OA
ATOM     29  H1  UNL     1     -12.392  -5.608 -13.779  1.00  0.00     0.245 HD
ENDBRANCH  22  28
ENDBRANCH  19  21
ENDBRANCH   1  15
BRANCH   8  30
HETATM   30  C15 UNL     1      -1.362  -5.717 -16.466  1.00  0.00     0.166 C 
HETATM   31  N4  UNL     1      -0.505  -5.235 -15.701  1.00  0.00    -0.249 N 
ATOM     32  H4  UNL     1       0.381  -4.980 -16.139  1.00  0.00     0.196 HD
BRANCH  30  33
HETATM   33  O3  UNL     1      -1.005  -5.848 -17.826  1.00  0.00    -0.346 OA
ATOM     34  H3  UNL     1      -0.087  -5.990 -18.023  1.00  0.00     0.219 HD
ENDBRANCH  30  33
BRANCH  31  35
HETATM   35  O4  UNL     1      -0.582  -5.007 -14.394  1.00  0.00    -0.288 OA
ATOM     36  H4  UNL     1      -0.960  -5.551 -13.712  1.00  0.00     0.244 HD
ENDBRANCH  31  35
ENDBRANCH   8  30
BRANCH  13  37
HETATM   37  O6  UNL     1      -2.438  -2.419 -15.154  1.00  0.00    -0.286 OA
ATOM     38  H6  UNL     1      -1.961  -1.600 -15.216  1.00  0.00     0.244 HD
ENDBRANCH  13  37
TORSDOF 7
ENDMDL
MODEL 3
REMARK VINA RESULT: -7.632430177      5.501      6.804
REMARK  7 active torsions:
REMARK  status: ('A' for Active; 'I' for Inactive)
REMARK    1  A    between atoms: N1_5  and  O1_6 
REMARK    2  A    between atoms: C5_8  and  C6_9 
REMARK    3  A    between atoms: C9_13  and  N2_14 
REMARK       I    between atoms: N2_14  and  C10_16 
REMARK       I    between atoms: C10_16  and  N3_18 
REMARK    4  A    between atoms: C13_21  and  C15_23 
REMARK    5  A    between atoms: C15_23  and  O3_24 
REMARK    6  A    between atoms: N4_26  and  O4_28 
REMARK       I    between atoms: N5_30  and  C16_31 
REMARK       I    between atoms: C16_31  and  N6_33 
REMARK    7  A    between atoms: N6_33  and  O6_35 
ROOT
HETATM    1  N2  UNL     1      -5.734  -4.616 -15.607  1.00  0.00    -0.299 N 
ATOM      2  H2  UNL     1      -5.058  -4.989 -14.941  1.00  0.00     0.171 HD
HETATM    3  C10 UNL     1      -5.359  -4.744 -16.926  1.00  0.00     0.342 C 
HETATM    4  O2  UNL     1      -6.111  -4.340 -17.875  1.00  0.00    -0.245 OA
HETATM    5  N3  UNL     1      -4.144  -5.320 -17.344  1.00  0.00    -0.235 N 
HETATM    6  C11 UNL     1      -3.776  -5.600 -18.752  1.00  0.00     0.157 C 
HETATM    7  C12 UNL     1      -3.074  -6.912 -18.662  1.00  0.00     0.063 C 
HETATM    8  C13 UNL     1      -2.614  -7.031 -17.223  1.00  0.00     0.123 C 
HETATM    9  C14 UNL     1      -3.370  -8.150 -16.582  1.00  0.00     0.050 C 
HETATM   10  N5  UNL     1      -3.004  -5.734 -16.640  1.00  0.00    -0.217 N 
HETATM   11  C16 UNL     1      -2.329  -5.054 -15.630  1.00  0.00     0.362 C 
HETATM   12  O5  UNL     1      -2.624  -3.915 -15.237  1.00  0.00    -0.243 OA
HETATM   13  N6  UNL     1      -1.226  -5.682 -14.987  1.00  0.00    -0.217 N 
ATOM     14  H6  UNL     1      -0.383  -5.925 -15.507  1.00  0.00     0.199 HD
ENDROOT
BRANCH   1  15
HETATM   15  C9  UNL     1      -6.895  -4.058 -15.005  1.00  0.00     0.117 A 
HETATM   16  C8  UNL     1      -7.198  -2.919 -14.344  1.00  0.00     0.151 A 
HETATM   17  C7  UNL     1      -8.469  -2.752 -13.908  1.00  0.00     0.066 A 
HETATM   18  F1  UNL     1      -6.228  -1.940 -14.113  1.00  0.00    -0.203 F 
HETATM   19  C6  UNL     1      -9.373  -3.708 -14.144  1.00  0.00     0.039 A 
HETATM   20  S1  UNL     1      -8.433  -4.875 -14.996  1.00  0.00    -0.067 SA
BRANCH  19  21
HETATM   21  C5  UNL     1     -10.807  -3.874 -13.833  1.00  0.00     0.079 A 
HETATM   22  N1  UNL     1     -11.658  -4.373 -14.692  1.00  0.00    -0.235 N 
HETATM   23  C4  UNL     1     -12.990  -4.515 -14.375  1.00  0.00     0.124 A 
HETATM   24  C3  UNL     1     -13.439  -4.126 -13.128  1.00  0.00     0.026 A 
HETATM   25  C2  UNL     1     -12.547  -3.598 -12.216  1.00  0.00    -0.058 A 
HETATM   26  C1  UNL     1     -13.055  -3.187 -10.882  1.00  0.00     0.048 C 
HETATM   27  C17 UNL     1     -11.219  -3.463 -12.549  1.00  0.00     0.040 A 
BRANCH  22  28
HETATM   28  O1  UNL     1     -11.279  -4.777 -15.939  1.00  0.00    -0.283 OA
ATOM     29  H1  UNL     1     -11.905  -4.637 -16.640  1.00  0.00     0.245 HD
ENDBRANCH  22  28
ENDBRANCH  19  21
ENDBRANCH   1  15
BRANCH   8  30
HETATM   30  C15 UNL     1      -1.167  -7.199 -17.241  1.00  0.00     0.166 C 
HETATM   31  N4  UNL     1      -0.541  -8.168 -16.768  1.00  0.00    -0.249 N 
ATOM     32  H4  UNL     1       0.473  -8.124 -16.867  1.00  0.00     0.196 HD
BRANCH  30  33
HETATM   33  O3  UNL     1      -0.404  -6.177 -17.845  1.00  0.00    -0.346 OA
ATOM     34  H3  UNL     1       0.058  -5.580 -17.268  1.00  0.00     0.219 HD
ENDBRANCH  30  33
BRANCH  31  35
HETATM   35  O4  UNL     1      -1.010  -9.249 -16.154  1.00  0.00    -0.288 OA
ATOM     36  H4  UNL     1      -0.961  -9.484 -15.235  1.00  0.00     0.244 HD
ENDBRANCH  31  35
ENDBRANCH   8  30
BRANCH  13  37
HETATM   37  O6  UNL     1      -1.321  -5.926 -13.761  1.00  0.00    -0.286 OA
ATOM     38  H6  UNL     1      -0.524  -6.124 -13.283  1.00  0.00     0.244 HD
ENDBRANCH  13  37
TORSDOF 7
ENDMDL
MODEL 4
REMARK VINA RESULT: -7.619091200      1.599      1.929
REMARK  7 active torsions:
REMARK  status: ('A' for Active; 'I' for Inactive)
REMARK    1  A    between atoms: N1_5  and  O1_6 
REMARK    2  A    between atoms: C5_8  and  C6_9 
REMARK    3  A    between atoms: C9_13  and  N2_14 
REMARK       I    between atoms: N2_14  and  C10_16 
REMARK       I    between atoms: C10_16  and  N3_18 
REMARK    4  A    between atoms: C13_21  and  C15_23 
REMARK    5  A    between atoms: C15_23  and  O3_24 
REMARK    6  A    between atoms: N4_26  and  O4_28 
REMARK       I    between atoms: N5_30  and  C16_31 
REMARK       I    between atoms: C16_31  and  N6_33 
REMARK    7  A    between atoms: N6_33  and  O6_35 
ROOT
HETATM    1  N2  UNL     1      -9.253  -4.921 -17.634  1.00  0.00    -0.299 N 
ATOM      2  H2  UNL     1      -9.531  -4.149 -18.239  1.00  0.00     0.171 HD
HETATM    3  C10 UNL     1      -8.837  -6.047 -18.310  1.00  0.00     0.342 C 
HETATM    4  O2  UNL     1      -8.439  -7.089 -17.687  1.00  0.00    -0.245 OA
HETATM    5  N3  UNL     1      -8.805  -6.153 -19.713  1.00  0.00    -0.235 N 
HETATM    6  C11 UNL     1      -8.232  -7.292 -20.467  1.00  0.00     0.157 C 
HETATM    7  C12 UNL     1      -7.562  -6.630 -21.622  1.00  0.00     0.063 C 
HETATM    8  C13 UNL     1      -8.228  -5.276 -21.757  1.00  0.00     0.123 C 
HETATM    9  C14 UNL     1      -7.219  -4.223 -21.429  1.00  0.00     0.050 C 
HETATM   10  N5  UNL     1      -9.289  -5.321 -20.734  1.00  0.00    -0.217 N 
HETATM   11  C16 UNL     1     -10.530  -4.698 -20.813  1.00  0.00     0.362 C 
HETATM   12  O5  UNL     1     -11.440  -4.845 -19.981  1.00  0.00    -0.243 OA
HETATM   13  N6  UNL     1     -10.804  -3.828 -21.906  1.00  0.00    -0.217 N 
ATOM     14  H6  UNL     1     -10.820  -4.178 -22.864  1.00  0.00     0.199 HD
ENDROOT
BRANCH   1  15
HETATM   15  C9  UNL     1      -9.364  -4.640 -16.245  1.00  0.00     0.117 A 
HETATM   16  C8  UNL     1      -8.543  -4.682 -15.173  1.00  0.00     0.151 A 
HETATM   17  C7  UNL     1      -9.046  -4.324 -13.968  1.00  0.00     0.066 A 
HETATM   18  F1  UNL     1      -7.210  -5.084 -15.301  1.00  0.00    -0.203 F 
HETATM   19  C6  UNL     1     -10.325  -3.945 -13.879  1.00  0.00     0.039 A 
HETATM   20  S1  UNL     1     -10.847  -4.089 -15.515  1.00  0.00    -0.067 SA
BRANCH  19  21
HETATM   21  C5  UNL     1     -11.196  -3.500 -12.773  1.00  0.00     0.079 A 
HETATM   22  N1  UNL     1     -12.419  -3.938 -12.623  1.00  0.00    -0.235 N 
HETATM   23  C4  UNL     1     -13.209  -3.505 -11.581  1.00  0.00     0.124 A 
HETATM   24  C3  UNL     1     -12.704  -2.590 -10.679  1.00  0.00     0.026 A 
HETATM   25  C2  UNL     1     -11.414  -2.121 -10.831  1.00  0.00    -0.058 A 
HETATM   26  C1  UNL     1     -10.895  -1.137  -9.846  1.00  0.00     0.048 C 
HETATM   27  C17 UNL     1     -10.639  -2.565 -11.876  1.00  0.00     0.040 A 
BRANCH  22  28
HETATM   28  O1  UNL     1     -12.977  -4.843 -13.478  1.00  0.00    -0.283 OA
ATOM     29  H1  UNL     1     -12.377  -5.357 -14.004  1.00  0.00     0.245 HD
ENDBRANCH  22  28
ENDBRANCH  19  21
ENDBRANCH   1  15
BRANCH   8  30
HETATM   30  C15 UNL     1      -8.783  -5.196 -23.102  1.00  0.00     0.166 C 
HETATM   31  N4  UNL     1      -9.468  -6.074 -23.661  1.00  0.00    -0.249 N 
ATOM     32  H4  UNL     1      -9.776  -5.853 -24.608  1.00  0.00     0.196 HD
BRANCH  30  33
HETATM   33  O3  UNL     1      -8.522  -4.021 -23.840  1.00  0.00    -0.346 OA
ATOM     34  H3  UNL     1      -8.835  -3.201 -23.477  1.00  0.00     0.219 HD
ENDBRANCH  30  33
BRANCH  31  35
HETATM   35  O4  UNL     1      -9.854  -7.257 -23.196  1.00  0.00    -0.288 OA
ATOM     36  H4  UNL     1     -10.207  -8.001 -23.671  1.00  0.00     0.244 HD
ENDBRANCH  31  35
ENDBRANCH   8  30
BRANCH  13  37
HETATM   37  O6  UNL     1     -11.025  -2.620 -21.655  1.00  0.00    -0.286 OA
ATOM     38  H6  UNL     1     -10.550  -1.967 -22.156  1.00  0.00     0.244 HD
ENDBRANCH  13  37
TORSDOF 7
ENDMDL
MODEL 5
REMARK VINA RESULT: -7.617023194      5.532      6.830
REMARK  7 active torsions:
REMARK  status: ('A' for Active; 'I' for Inactive)
REMARK    1  A    between atoms: N1_5  and  O1_6 
REMARK    2  A    between atoms: C5_8  and  C6_9 
REMARK    3  A    between atoms: C9_13  and  N2_14 
REMARK       I    between atoms: N2_14  and  C10_16 
REMARK       I    between atoms: C10_16  and  N3_18 
REMARK    4  A    between atoms: C13_21  and  C15_23 
REMARK    5  A    between atoms: C15_23  and  O3_24 
REMARK    6  A    between atoms: N4_26  and  O4_28 
REMARK       I    between atoms: N5_30  and  C16_31 
REMARK       I    between atoms: C16_31  and  N6_33 
REMARK    7  A    between atoms: N6_33  and  O6_35 
ROOT
HETATM    1  N2  UNL     1      -5.541  -4.075 -15.442  1.00  0.00    -0.299 N 
ATOM      2  H2  UNL     1      -4.894  -4.585 -14.841  1.00  0.00     0.171 HD
HETATM    3  C10 UNL     1      -5.183  -4.057 -16.772  1.00  0.00     0.342 C 
HETATM    4  O2  UNL     1      -5.904  -3.474 -17.649  1.00  0.00    -0.245 OA
HETATM    5  N3  UNL     1      -4.020  -4.668 -17.280  1.00  0.00    -0.235 N 
HETATM    6  C11 UNL     1      -3.682  -4.789 -18.717  1.00  0.00     0.157 C 
HETATM    7  C12 UNL     1      -3.087  -6.152 -18.811  1.00  0.00     0.063 C 
HETATM    8  C13 UNL     1      -2.632  -6.495 -17.406  1.00  0.00     0.123 C 
HETATM    9  C14 UNL     1      -3.472  -7.626 -16.905  1.00  0.00     0.050 C 
HETATM   10  N5  UNL     1      -2.913  -5.260 -16.652  1.00  0.00    -0.217 N 
HETATM   11  C16 UNL     1      -2.182  -4.775 -15.573  1.00  0.00     0.362 C 
HETATM   12  O5  UNL     1      -2.383  -3.677 -15.030  1.00  0.00    -0.243 OA
HETATM   13  N6  UNL     1      -1.130  -5.567 -15.033  1.00  0.00    -0.217 N 
ATOM     14  H6  UNL     1      -0.312  -5.805 -15.594  1.00  0.00     0.199 HD
ENDROOT
BRANCH   1  15
HETATM   15  C9  UNL     1      -6.650  -3.511 -14.755  1.00  0.00     0.117 A 
HETATM   16  C8  UNL     1      -6.952  -2.312 -14.211  1.00  0.00     0.151 A 
HETATM   17  C7  UNL     1      -8.162  -2.165 -13.620  1.00  0.00     0.066 A 
HETATM   18  F1  UNL     1      -6.043  -1.251 -14.254  1.00  0.00    -0.203 F 
HETATM   19  C6  UNL     1      -9.008  -3.199 -13.594  1.00  0.00     0.039 A 
HETATM   20  S1  UNL     1      -8.101  -4.413 -14.414  1.00  0.00    -0.067 SA
BRANCH  19  21
HETATM   21  C5  UNL     1     -10.368  -3.408 -13.059  1.00  0.00     0.079 A 
HETATM   22  N1  UNL     1     -10.778  -2.853 -11.948  1.00  0.00    -0.235 N 
HETATM   23  C4  UNL     1     -12.053  -3.067 -11.473  1.00  0.00     0.124 A 
HETATM   24  C3  UNL     1     -12.915  -3.883 -12.178  1.00  0.00     0.026 A 
HETATM   25  C2  UNL     1     -12.489  -4.473 -13.351  1.00  0.00    -0.058 A 
HETATM   26  C1  UNL     1     -13.437  -5.345 -14.091  1.00  0.00     0.048 C 
HETATM   27  C17 UNL     1     -11.214  -4.248 -13.813  1.00  0.00     0.040 A 
BRANCH  22  28
HETATM   28  O1  UNL     1      -9.977  -2.037 -11.204  1.00  0.00    -0.283 OA
ATOM     29  H1  UNL     1     -10.216  -1.119 -11.173  1.00  0.00     0.245 HD
ENDBRANCH  22  28
ENDBRANCH  19  21
ENDBRANCH   1  15
BRANCH   8  30
HETATM   30  C15 UNL     1      -1.203  -6.774 -17.467  1.00  0.00     0.166 C 
HETATM   31  N4  UNL     1      -0.621  -7.721 -16.904  1.00  0.00    -0.249 N 
ATOM     32  H4  UNL     1       0.387  -7.767 -17.052  1.00  0.00     0.196 HD
BRANCH  30  33
HETATM   33  O3  UNL     1      -0.404  -5.895 -18.230  1.00  0.00    -0.346 OA
ATOM     34  H3  UNL     1      -0.642  -4.975 -18.224  1.00  0.00     0.219 HD
ENDBRANCH  30  33
BRANCH  31  35
HETATM   35  O4  UNL     1      -1.130  -8.680 -16.137  1.00  0.00    -0.288 OA
ATOM     36  H4  UNL     1      -0.697  -9.435 -15.757  1.00  0.00     0.244 HD
ENDBRANCH  31  35
ENDBRANCH   8  30
BRANCH  13  37
HETATM   37  O6  UNL     1      -1.239  -5.961 -13.849  1.00  0.00    -0.286 OA
ATOM     38  H6  UNL     1      -0.461  -5.953 -13.303  1.00  0.00     0.244 HD
ENDBRANCH  13  37
TORSDOF 7
ENDMDL
