MODEL 1
REMARK VINA RESULT: -6.042765449      0.000      0.000
REMARK  5 active torsions:
REMARK  status: ('A' for Active; 'I' for Inactive)
REMARK    1  A    between atoms: C2_2  and  C3_3 
REMARK    2  A    between atoms: C2_2  and  N5_19 
REMARK    3  A    between atoms: C3_3  and  C4_4 
REMARK    4  A    between atoms: C4_4  and  C5_5 
REMARK    5  A    between atoms: N1_10  and  N2_12 
REMARK       I    between atoms: N2_12  and  C9_14 
ROOT
HETATM    1  C3  UNL     1      39.274 -14.807   0.157  1.00  0.00     0.065 C 
HETATM    2  N1  UNL     1      38.455 -14.931   1.085  1.00  0.00    -0.300 N 
ATOM      3  H1  UNL     1      37.984 -14.032   1.188  1.00  0.00     0.186 HD
ENDROOT
BRANCH   1   4
HETATM    4  C2  UNL     1      40.191 -15.855  -0.353  1.00  0.00     0.150 C 
HETATM    5  C1  UNL     1      41.282 -16.090   0.348  1.00  0.00     0.053 C 
BRANCH   4   6
HETATM    6  N5  UNL     1      39.948 -16.611  -1.510  1.00  0.00    -0.048 N 
HETATM    7  C10 UNL     1      38.597 -16.657  -1.969  1.00  0.00     0.278 C 
HETATM    8  C11 UNL     1      40.737 -16.082  -2.629  1.00  0.00     0.278 C 
HETATM    9  C12 UNL     1      40.387 -17.974  -1.222  1.00  0.00     0.278 C 
ENDBRANCH   4   6
ENDBRANCH   1   4
BRANCH   1  10
HETATM   10  C4  UNL     1      39.301 -13.413  -0.461  1.00  0.00     0.126 C 
BRANCH  10  11
HETATM   11  C5  UNL     1      38.562 -12.463   0.429  1.00  0.00     0.058 A 
HETATM   12  C6  UNL     1      39.153 -11.463   1.166  1.00  0.00     0.035 A 
HETATM   13  C7  UNL     1      38.159 -10.804   1.854  1.00  0.00     0.027 A 
HETATM   14  C8  UNL     1      36.989 -11.436   1.505  1.00  0.00     0.142 A 
HETATM   15  O1  UNL     1      37.289 -12.401   0.667  1.00  0.00    -0.327 OA
ENDBRANCH  10  11
ENDBRANCH   1  10
BRANCH   2  16
HETATM   16  N2  UNL     1      37.946 -15.738   1.987  1.00  0.00    -0.274 N 
HETATM   17  C9  UNL     1      37.444 -17.041   1.633  1.00  0.00     0.200 C 
HETATM   18  N3  UNL     1      36.325 -17.166   1.004  1.00  0.00    -0.372 N 
HETATM   19  N4  UNL     1      38.158 -18.221   1.959  1.00  0.00    -0.062 NA
ATOM     20  H32 UNL     1      35.810 -16.317   0.770  1.00  0.00     0.158 HD
ATOM     21  H31 UNL     1      35.969 -18.089   0.753  1.00  0.00     0.158 HD
ATOM     22  H2  UNL     1      37.904 -15.436   2.961  1.00  0.00     0.189 HD
ENDBRANCH   2  16
TORSDOF 5
ENDMDL
MODEL 2
REMARK VINA RESULT: -5.790502280      0.415      1.468
REMARK  5 active torsions:
REMARK  status: ('A' for Active; 'I' for Inactive)
REMARK    1  A    between atoms: C2_2  and  C3_3 
REMARK    2  A    between atoms: C2_2  and  N5_19 
REMARK    3  A    between atoms: C3_3  and  C4_4 
REMARK    4  A    between atoms: C4_4  and  C5_5 
REMARK    5  A    between atoms: N1_10  and  N2_12 
REMARK       I    between atoms: N2_12  and  C9_14 
ROOT
HETATM    1  C3  UNL     1      38.982 -14.764  -0.019  1.00  0.00     0.065 C 
HETATM    2  N1  UNL     1      38.474 -14.870   1.111  1.00  0.00    -0.300 N 
ATOM      3  H1  UNL     1      38.403 -13.929   1.496  1.00  0.00     0.186 HD
ENDROOT
BRANCH   1   4
HETATM    4  C2  UNL     1      39.282 -15.872  -0.958  1.00  0.00     0.150 C 
HETATM    5  C1  UNL     1      38.370 -16.151  -1.867  1.00  0.00     0.053 C 
BRANCH   4   6
HETATM    6  N5  UNL     1      40.477 -16.609  -0.942  1.00  0.00    -0.048 N 
HETATM    7  C10 UNL     1      41.291 -16.476   0.223  1.00  0.00     0.278 C 
HETATM    8  C11 UNL     1      40.184 -18.041  -1.069  1.00  0.00     0.278 C 
HETATM    9  C12 UNL     1      41.252 -16.178  -2.101  1.00  0.00     0.278 C 
ENDBRANCH   4   6
ENDBRANCH   1   4
BRANCH   1  10
HETATM   10  C4  UNL     1      39.324 -13.329  -0.409  1.00  0.00     0.126 C 
BRANCH  10  11
HETATM   11  C5  UNL     1      38.555 -12.383   0.460  1.00  0.00     0.058 A 
HETATM   12  C6  UNL     1      39.117 -11.370   1.200  1.00  0.00     0.035 A 
HETATM   13  C7  UNL     1      38.101 -10.720   1.865  1.00  0.00     0.027 A 
HETATM   14  C8  UNL     1      36.947 -11.372   1.498  1.00  0.00     0.142 A 
HETATM   15  O1  UNL     1      37.277 -12.339   0.673  1.00  0.00    -0.327 OA
ENDBRANCH  10  11
ENDBRANCH   1  10
BRANCH   2  16
HETATM   16  N2  UNL     1      37.991 -15.693   2.014  1.00  0.00    -0.274 N 
HETATM   17  C9  UNL     1      37.495 -16.997   1.655  1.00  0.00     0.200 C 
HETATM   18  N3  UNL     1      36.364 -17.125   1.048  1.00  0.00    -0.372 N 
HETATM   19  N4  UNL     1      38.227 -18.173   1.952  1.00  0.00    -0.062 NA
ATOM     20  H32 UNL     1      35.837 -16.279   0.834  1.00  0.00     0.158 HD
ATOM     21  H31 UNL     1      36.012 -18.049   0.793  1.00  0.00     0.158 HD
ATOM     22  H2  UNL     1      37.967 -15.403   2.991  1.00  0.00     0.189 HD
ENDBRANCH   2  16
TORSDOF 5
ENDMDL
MODEL 3
REMARK VINA RESULT: -5.561339428      1.739      3.244
REMARK  5 active torsions:
REMARK  status: ('A' for Active; 'I' for Inactive)
REMARK    1  A    between atoms: C2_2  and  C3_3 
REMARK    2  A    between atoms: C2_2  and  N5_19 
REMARK    3  A    between atoms: C3_3  and  C4_4 
REMARK    4  A    between atoms: C4_4  and  C5_5 
REMARK    5  A    between atoms: N1_10  and  N2_12 
REMARK       I    between atoms: N2_12  and  C9_14 
ROOT
HETATM    1  C3  UNL     1      38.739 -14.756   0.219  1.00  0.00     0.065 C 
HETATM    2  N1  UNL     1      38.832 -14.119  -0.844  1.00  0.00    -0.300 N 
ATOM      3  H1  UNL     1      38.293 -13.261  -0.726  1.00  0.00     0.186 HD
ENDROOT
BRANCH   1   4
HETATM    4  C2  UNL     1      39.358 -16.071   0.515  1.00  0.00     0.150 C 
HETATM    5  C1  UNL     1      40.636 -16.074   0.835  1.00  0.00     0.053 C 
BRANCH   4   6
HETATM    6  N5  UNL     1      38.657 -17.287   0.495  1.00  0.00    -0.048 N 
HETATM    7  C10 UNL     1      37.430 -17.303  -0.234  1.00  0.00     0.278 C 
HETATM    8  C11 UNL     1      39.493 -18.338  -0.099  1.00  0.00     0.278 C 
HETATM    9  C12 UNL     1      38.376 -17.633   1.885  1.00  0.00     0.278 C 
ENDBRANCH   4   6
ENDBRANCH   1   4
BRANCH   1  10
HETATM   10  C4  UNL     1      37.875 -14.073   1.275  1.00  0.00     0.126 C 
BRANCH  10  11
HETATM   11  C5  UNL     1      38.155 -12.602   1.267  1.00  0.00     0.058 A 
HETATM   12  C6  UNL     1      37.221 -11.628   1.531  1.00  0.00     0.035 A 
HETATM   13  C7  UNL     1      37.848 -10.405   1.430  1.00  0.00     0.027 A 
HETATM   14  C8  UNL     1      39.153 -10.688   1.104  1.00  0.00     0.142 A 
HETATM   15  O1  UNL     1      39.273 -11.993   1.022  1.00  0.00    -0.327 OA
ENDBRANCH  10  11
ENDBRANCH   1  10
BRANCH   2  16
HETATM   16  N2  UNL     1      39.336 -14.093  -2.057  1.00  0.00    -0.274 N 
HETATM   17  C9  UNL     1      38.962 -15.069  -3.048  1.00  0.00     0.200 C 
HETATM   18  N3  UNL     1      39.401 -16.280  -2.977  1.00  0.00    -0.372 N 
HETATM   19  N4  UNL     1      38.104 -14.735  -4.125  1.00  0.00    -0.062 NA
ATOM     20  H32 UNL     1      40.019 -16.519  -2.202  1.00  0.00     0.158 HD
ATOM     21  H31 UNL     1      39.136 -16.971  -3.679  1.00  0.00     0.158 HD
ATOM     22  H2  UNL     1      40.007 -13.365  -2.303  1.00  0.00     0.189 HD
ENDBRANCH   2  16
TORSDOF 5
ENDMDL
MODEL 4
REMARK VINA RESULT: -5.390925051      1.750      3.580
REMARK  5 active torsions:
REMARK  status: ('A' for Active; 'I' for Inactive)
REMARK    1  A    between atoms: C2_2  and  C3_3 
REMARK    2  A    between atoms: C2_2  and  N5_19 
REMARK    3  A    between atoms: C3_3  and  C4_4 
REMARK    4  A    between atoms: C4_4  and  C5_5 
REMARK    5  A    between atoms: N1_10  and  N2_12 
REMARK       I    between atoms: N2_12  and  C9_14 
ROOT
HETATM    1  C3  UNL     1      38.698 -14.609   0.312  1.00  0.00     0.065 C 
HETATM    2  N1  UNL     1      39.161 -13.992  -0.663  1.00  0.00    -0.300 N 
ATOM      3  H1  UNL     1      39.552 -13.120  -0.306  1.00  0.00     0.186 HD
ENDROOT
BRANCH   1   4
HETATM    4  C2  UNL     1      38.027 -15.931   0.280  1.00  0.00     0.150 C 
HETATM    5  C1  UNL     1      36.719 -15.936   0.123  1.00  0.00     0.053 C 
BRANCH   4   6
HETATM    6  N5  UNL     1      38.706 -17.156   0.383  1.00  0.00    -0.048 N 
HETATM    7  C10 UNL     1      40.132 -17.098   0.350  1.00  0.00     0.278 C 
HETATM    8  C11 UNL     1      38.357 -17.818   1.645  1.00  0.00     0.278 C 
HETATM    9  C12 UNL     1      38.249 -17.984  -0.730  1.00  0.00     0.278 C 
ENDBRANCH   4   6
ENDBRANCH   1   4
BRANCH   1  10
HETATM   10  C4  UNL     1      38.850 -13.872   1.639  1.00  0.00     0.126 C 
BRANCH  10  11
HETATM   11  C5  UNL     1      38.553 -12.418   1.434  1.00  0.00     0.058 A 
HETATM   12  C6  UNL     1      37.341 -11.825   1.698  1.00  0.00     0.035 A 
HETATM   13  C7  UNL     1      37.451 -10.487   1.387  1.00  0.00     0.027 A 
HETATM   14  C8  UNL     1      38.740 -10.319   0.941  1.00  0.00     0.142 A 
HETATM   15  O1  UNL     1      39.338 -11.487   0.991  1.00  0.00    -0.327 OA
ENDBRANCH  10  11
ENDBRANCH   1  10
BRANCH   2  16
HETATM   16  N2  UNL     1      39.356 -13.997  -1.962  1.00  0.00    -0.274 N 
HETATM   17  C9  UNL     1      40.363 -14.830  -2.568  1.00  0.00     0.200 C 
HETATM   18  N3  UNL     1      41.614 -14.532  -2.462  1.00  0.00    -0.372 N 
HETATM   19  N4  UNL     1      40.017 -15.996  -3.294  1.00  0.00    -0.062 NA
ATOM     20  H32 UNL     1      41.863 -13.693  -1.939  1.00  0.00     0.158 HD
ATOM     21  H31 UNL     1      42.328 -15.122  -2.890  1.00  0.00     0.158 HD
ATOM     22  H2  UNL     1      38.782 -13.398  -2.555  1.00  0.00     0.189 HD
ENDBRANCH   2  16
TORSDOF 5
ENDMDL
MODEL 5
REMARK VINA RESULT: -5.374221379      1.600      3.284
REMARK  5 active torsions:
REMARK  status: ('A' for Active; 'I' for Inactive)
REMARK    1  A    between atoms: C2_2  and  C3_3 
REMARK    2  A    between atoms: C2_2  and  N5_19 
REMARK    3  A    between atoms: C3_3  and  C4_4 
REMARK    4  A    between atoms: C4_4  and  C5_5 
REMARK    5  A    between atoms: N1_10  and  N2_12 
REMARK       I    between atoms: N2_12  and  C9_14 
ROOT
HETATM    1  C3  UNL     1      38.755 -14.846   0.198  1.00  0.00     0.065 C 
HETATM    2  N1  UNL     1      38.714 -14.228  -0.880  1.00  0.00    -0.300 N 
ATOM      3  H1  UNL     1      38.162 -13.386  -0.720  1.00  0.00     0.186 HD
ENDROOT
BRANCH   1   4
HETATM    4  C2  UNL     1      39.447 -16.134   0.450  1.00  0.00     0.150 C 
HETATM    5  C1  UNL     1      40.697 -16.072   0.863  1.00  0.00     0.053 C 
BRANCH   4   6
HETATM    6  N5  UNL     1      38.842 -17.390   0.293  1.00  0.00    -0.048 N 
HETATM    7  C10 UNL     1      38.335 -18.005   1.478  1.00  0.00     0.278 C 
HETATM    8  C11 UNL     1      37.703 -17.288  -0.628  1.00  0.00     0.278 C 
HETATM    9  C12 UNL     1      39.848 -18.272  -0.292  1.00  0.00     0.278 C 
ENDBRANCH   4   6
ENDBRANCH   1   4
BRANCH   1  10
HETATM   10  C4  UNL     1      37.983 -14.171   1.327  1.00  0.00     0.126 C 
BRANCH  10  11
HETATM   11  C5  UNL     1      38.215 -12.692   1.269  1.00  0.00     0.058 A 
HETATM   12  C6  UNL     1      37.258 -11.742   1.538  1.00  0.00     0.035 A 
HETATM   13  C7  UNL     1      37.841 -10.503   1.382  1.00  0.00     0.027 A 
HETATM   14  C8  UNL     1      39.143 -10.753   1.020  1.00  0.00     0.142 A 
HETATM   15  O1  UNL     1      39.303 -12.056   0.970  1.00  0.00    -0.327 OA
ENDBRANCH  10  11
ENDBRANCH   1  10
BRANCH   2  16
HETATM   16  N2  UNL     1      39.088 -14.210  -2.139  1.00  0.00    -0.274 N 
HETATM   17  C9  UNL     1      40.281 -14.886  -2.579  1.00  0.00     0.200 C 
HETATM   18  N3  UNL     1      41.447 -14.406  -2.309  1.00  0.00    -0.372 N 
HETATM   19  N4  UNL     1      40.215 -16.094  -3.317  1.00  0.00    -0.062 NA
ATOM     20  H32 UNL     1      41.495 -13.536  -1.778  1.00  0.00     0.158 HD
ATOM     21  H31 UNL     1      42.292 -14.885  -2.621  1.00  0.00     0.158 HD
ATOM     22  H2  UNL     1      38.521 -13.705  -2.821  1.00  0.00     0.189 HD
ENDBRANCH   2  16
TORSDOF 5
ENDMDL
