MODEL 1
REMARK VINA RESULT: -5.483519986      0.000      0.000
REMARK  8 active torsions:
REMARK  status: ('A' for Active; 'I' for Inactive)
REMARK    1  A    between atoms: N1_2  and  C2_4 
REMARK    2  A    between atoms: C2_4  and  C3_5 
REMARK    3  A    between atoms: C11_13  and  C12_14 
REMARK    4  A    between atoms: C12_14  and  N2_15 
REMARK    5  A    between atoms: C12_14  and  N3_18 
REMARK    6  A    between atoms: N3_18  and  C13_20 
REMARK    7  A    between atoms: C13_20  and  C14_21 
REMARK    8  A    between atoms: C14_21  and  N4_22 
ROOT
HETATM    1  C3  UNL     1      37.941 -18.206  -0.132  1.00  0.00    -0.029 A 
HETATM    2  C4  UNL     1      37.860 -19.308  -0.981  1.00  0.00     0.010 A 
HETATM    3  C5  UNL     1      38.853 -19.774  -1.778  1.00  0.00     0.002 A 
HETATM    4  C6  UNL     1      40.042 -19.125  -1.762  1.00  0.00     0.012 A 
HETATM    5  C7  UNL     1      40.206 -18.023  -0.947  1.00  0.00    -0.024 A 
HETATM    6  C8  UNL     1      41.489 -17.516  -0.934  1.00  0.00     0.012 A 
HETATM    7  C9  UNL     1      41.726 -16.496  -0.066  1.00  0.00     0.002 A 
HETATM    8  C10 UNL     1      40.744 -16.015   0.734  1.00  0.00     0.016 A 
HETATM    9  C11 UNL     1      39.390 -16.535   0.726  1.00  0.00     0.019 A 
HETATM   10  C15 UNL     1      39.179 -17.547  -0.134  1.00  0.00    -0.004 A 
ENDROOT
BRANCH   9  11
HETATM   11  C12 UNL     1      38.472 -15.716   1.414  1.00  0.00     0.109 C 
BRANCH  11  12
HETATM   12  N2  UNL     1      37.967 -15.516   2.441  1.00  0.00    -0.385 N 
ATOM     13  H22 UNL     1      38.006 -16.396   2.955  1.00  0.00     0.157 HD
ATOM     14  H21 UNL     1      37.428 -14.842   2.985  1.00  0.00     0.157 HD
ENDBRANCH  11  12
BRANCH  11  15
HETATM   15  N3  UNL     1      38.084 -14.548   0.511  1.00  0.00    -0.354 N 
ATOM     16  H3  UNL     1      37.391 -14.708  -0.221  1.00  0.00     0.166 HD
BRANCH  15  17
HETATM   17  C13 UNL     1      38.633 -13.267   0.639  1.00  0.00     0.089 C 
BRANCH  17  18
HETATM   18  C14 UNL     1      37.580 -12.231   0.930  1.00  0.00     0.274 C 
BRANCH  18  19
HETATM   19  N4  UNL     1      37.589 -11.893   2.313  1.00  0.00    -0.075 N 
ATOM     20  H43 UNL     1      38.002 -12.633   2.882  1.00  0.00     0.274 HD
ATOM     21  H42 UNL     1      38.259 -11.153   2.520  1.00  0.00     0.274 HD
ATOM     22  H41 UNL     1      36.648 -11.654   2.623  1.00  0.00     0.274 HD
ENDBRANCH  18  19
ENDBRANCH  17  18
ENDBRANCH  15  17
ENDBRANCH  11  15
ENDBRANCH   9  11
BRANCH   1  23
HETATM   23  C2  UNL     1      36.813 -17.844   0.705  1.00  0.00     0.157 C 
BRANCH  23  24
HETATM   24  N1  UNL     1      36.775 -18.881   1.778  1.00  0.00    -0.404 N 
HETATM   25  C1  UNL     1      35.660 -19.491   1.958  1.00  0.00     0.112 C 
ATOM     26  H1  UNL     1      37.598 -19.094   2.342  1.00  0.00     0.158 HD
ENDBRANCH  23  24
ENDBRANCH   1  23
TORSDOF 8
ENDMDL
MODEL 2
REMARK VINA RESULT: -5.458493181      1.251      4.526
REMARK  8 active torsions:
REMARK  status: ('A' for Active; 'I' for Inactive)
REMARK    1  A    between atoms: N1_2  and  C2_4 
REMARK    2  A    between atoms: C2_4  and  C3_5 
REMARK    3  A    between atoms: C11_13  and  C12_14 
REMARK    4  A    between atoms: C12_14  and  N2_15 
REMARK    5  A    between atoms: C12_14  and  N3_18 
REMARK    6  A    between atoms: N3_18  and  C13_20 
REMARK    7  A    between atoms: C13_20  and  C14_21 
REMARK    8  A    between atoms: C14_21  and  N4_22 
ROOT
HETATM    1  C3  UNL     1      38.891 -15.998   0.746  1.00  0.00    -0.029 A 
HETATM    2  C4  UNL     1      40.223 -15.666   0.984  1.00  0.00     0.010 A 
HETATM    3  C5  UNL     1      41.306 -16.278   0.442  1.00  0.00     0.002 A 
HETATM    4  C6  UNL     1      41.094 -17.306  -0.415  1.00  0.00     0.012 A 
HETATM    5  C7  UNL     1      39.803 -17.696  -0.707  1.00  0.00    -0.024 A 
HETATM    6  C8  UNL     1      39.715 -18.677  -1.674  1.00  0.00     0.012 A 
HETATM    7  C9  UNL     1      38.460 -19.019  -2.072  1.00  0.00     0.002 A 
HETATM    8  C10 UNL     1      37.368 -18.423  -1.537  1.00  0.00     0.016 A 
HETATM    9  C11 UNL     1      37.447 -17.396  -0.516  1.00  0.00     0.019 A 
HETATM   10  C15 UNL     1      38.697 -17.066  -0.141  1.00  0.00    -0.004 A 
ENDROOT
BRANCH   9  11
HETATM   11  C12 UNL     1      36.209 -17.120   0.098  1.00  0.00     0.109 C 
BRANCH  11  12
HETATM   12  N2  UNL     1      35.173 -16.614  -0.046  1.00  0.00    -0.385 N 
ATOM     13  H22 UNL     1      34.524 -17.358  -0.304  1.00  0.00     0.157 HD
ATOM     14  H21 UNL     1      34.686 -15.719  -0.104  1.00  0.00     0.157 HD
ENDBRANCH  11  12
BRANCH  11  15
HETATM   15  N3  UNL     1      36.127 -17.897   1.410  1.00  0.00    -0.354 N 
ATOM     16  H3  UNL     1      36.026 -17.374   2.280  1.00  0.00     0.166 HD
BRANCH  15  17
HETATM   17  C13 UNL     1      36.184 -19.293   1.476  1.00  0.00     0.089 C 
BRANCH  17  18
HETATM   18  C14 UNL     1      37.450 -19.774   2.133  1.00  0.00     0.274 C 
BRANCH  18  19
HETATM   19  N4  UNL     1      37.898 -18.825   3.094  1.00  0.00    -0.075 N 
ATOM     20  H43 UNL     1      38.672 -18.262   2.740  1.00  0.00     0.274 HD
ATOM     21  H42 UNL     1      37.219 -18.076   3.235  1.00  0.00     0.274 HD
ATOM     22  H41 UNL     1      38.136 -19.293   3.968  1.00  0.00     0.274 HD
ENDBRANCH  18  19
ENDBRANCH  17  18
ENDBRANCH  15  17
ENDBRANCH  11  15
ENDBRANCH   9  11
BRANCH   1  23
HETATM   23  C2  UNL     1      37.825 -15.227   1.358  1.00  0.00     0.157 C 
BRANCH  23  24
HETATM   24  N1  UNL     1      38.402 -13.867   1.573  1.00  0.00    -0.404 N 
HETATM   25  C1  UNL     1      37.788 -12.881   1.026  1.00  0.00     0.112 C 
ATOM     26  H1  UNL     1      39.246 -13.728   2.130  1.00  0.00     0.158 HD
ENDBRANCH  23  24
ENDBRANCH   1  23
TORSDOF 8
ENDMDL
MODEL 3
REMARK VINA RESULT: -5.250743452      1.640      1.659
REMARK  8 active torsions:
REMARK  status: ('A' for Active; 'I' for Inactive)
REMARK    1  A    between atoms: N1_2  and  C2_4 
REMARK    2  A    between atoms: C2_4  and  C3_5 
REMARK    3  A    between atoms: C11_13  and  C12_14 
REMARK    4  A    between atoms: C12_14  and  N2_15 
REMARK    5  A    between atoms: C12_14  and  N3_18 
REMARK    6  A    between atoms: N3_18  and  C13_20 
REMARK    7  A    between atoms: C13_20  and  C14_21 
REMARK    8  A    between atoms: C14_21  and  N4_22 
ROOT
HETATM    1  C3  UNL     1      37.665 -16.532  -1.150  1.00  0.00    -0.029 A 
HETATM    2  C4  UNL     1      37.408 -16.879  -2.475  1.00  0.00     0.010 A 
HETATM    3  C5  UNL     1      38.340 -17.111  -3.433  1.00  0.00     0.002 A 
HETATM    4  C6  UNL     1      39.647 -17.003  -3.091  1.00  0.00     0.012 A 
HETATM    5  C7  UNL     1      39.987 -16.665  -1.796  1.00  0.00    -0.024 A 
HETATM    6  C8  UNL     1      41.343 -16.695  -1.543  1.00  0.00     0.012 A 
HETATM    7  C9  UNL     1      41.721 -16.472  -0.255  1.00  0.00     0.002 A 
HETATM    8  C10 UNL     1      40.804 -16.234   0.712  1.00  0.00     0.016 A 
HETATM    9  C11 UNL     1      39.376 -16.194   0.458  1.00  0.00     0.019 A 
HETATM   10  C15 UNL     1      39.023 -16.423  -0.820  1.00  0.00    -0.004 A 
ENDROOT
BRANCH   9  11
HETATM   11  C12 UNL     1      38.633 -15.655   1.527  1.00  0.00     0.109 C 
BRANCH  11  12
HETATM   12  N2  UNL     1      37.985 -15.916   2.456  1.00  0.00    -0.385 N 
ATOM     13  H22 UNL     1      37.349 -16.658   2.163  1.00  0.00     0.157 HD
ATOM     14  H21 UNL     1      37.746 -15.637   3.408  1.00  0.00     0.157 HD
ENDBRANCH  11  12
BRANCH  11  15
HETATM   15  N3  UNL     1      38.871 -14.148   1.581  1.00  0.00    -0.354 N 
ATOM     16  H3  UNL     1      39.672 -13.801   2.108  1.00  0.00     0.166 HD
BRANCH  15  17
HETATM   17  C13 UNL     1      38.042 -13.221   0.941  1.00  0.00     0.089 C 
BRANCH  17  18
HETATM   18  C14 UNL     1      38.060 -11.882   1.629  1.00  0.00     0.274 C 
BRANCH  18  19
HETATM   19  N4  UNL     1      36.862 -11.167   1.346  1.00  0.00    -0.075 N 
ATOM     20  H43 UNL     1      36.992 -10.158   1.432  1.00  0.00     0.274 HD
ATOM     21  H42 UNL     1      36.622 -11.203   0.355  1.00  0.00     0.274 HD
ATOM     22  H41 UNL     1      36.101 -11.504   1.934  1.00  0.00     0.274 HD
ENDBRANCH  18  19
ENDBRANCH  17  18
ENDBRANCH  15  17
ENDBRANCH  11  15
ENDBRANCH   9  11
BRANCH   1  23
HETATM   23  C2  UNL     1      36.570 -16.359  -0.215  1.00  0.00     0.157 C 
BRANCH  23  24
HETATM   24  N1  UNL     1      36.008 -17.728  -0.015  1.00  0.00    -0.404 N 
HETATM   25  C1  UNL     1      35.099 -17.858   0.882  1.00  0.00     0.112 C 
ATOM     26  H1  UNL     1      36.333 -18.523  -0.565  1.00  0.00     0.158 HD
ENDBRANCH  23  24
ENDBRANCH   1  23
TORSDOF 8
ENDMDL
MODEL 4
REMARK VINA RESULT: -5.186719453      2.184      3.716
REMARK  8 active torsions:
REMARK  status: ('A' for Active; 'I' for Inactive)
REMARK    1  A    between atoms: N1_2  and  C2_4 
REMARK    2  A    between atoms: C2_4  and  C3_5 
REMARK    3  A    between atoms: C11_13  and  C12_14 
REMARK    4  A    between atoms: C12_14  and  N2_15 
REMARK    5  A    between atoms: C12_14  and  N3_18 
REMARK    6  A    between atoms: N3_18  and  C13_20 
REMARK    7  A    between atoms: C13_20  and  C14_21 
REMARK    8  A    between atoms: C14_21  and  N4_22 
ROOT
HETATM    1  C3  UNL     1      39.463 -18.796  -0.540  1.00  0.00    -0.029 A 
HETATM    2  C4  UNL     1      40.624 -19.046  -1.269  1.00  0.00     0.010 A 
HETATM    3  C5  UNL     1      41.725 -18.255  -1.308  1.00  0.00     0.002 A 
HETATM    4  C6  UNL     1      41.717 -17.114  -0.577  1.00  0.00     0.012 A 
HETATM    5  C7  UNL     1      40.605 -16.794   0.175  1.00  0.00    -0.024 A 
HETATM    6  C8  UNL     1      40.759 -15.669   0.960  1.00  0.00     0.012 A 
HETATM    7  C9  UNL     1      39.729 -15.373   1.798  1.00  0.00     0.002 A 
HETATM    8  C10 UNL     1      38.620 -16.149   1.846  1.00  0.00     0.016 A 
HETATM    9  C11 UNL     1      38.444 -17.330   1.022  1.00  0.00     0.019 A 
HETATM   10  C15 UNL     1      39.475 -17.609   0.206  1.00  0.00    -0.004 A 
ENDROOT
BRANCH   9  11
HETATM   11  C12 UNL     1      37.121 -17.818   1.020  1.00  0.00     0.109 C 
BRANCH  11  12
HETATM   12  N2  UNL     1      36.382 -18.550   1.538  1.00  0.00    -0.385 N 
ATOM     13  H22 UNL     1      36.848 -19.457   1.563  1.00  0.00     0.157 HD
ATOM     14  H21 UNL     1      35.430 -18.660   1.888  1.00  0.00     0.157 HD
ENDBRANCH  11  12
BRANCH  11  15
HETATM   15  N3  UNL     1      36.286 -16.970   0.064  1.00  0.00    -0.354 N 
ATOM     16  H3  UNL     1      36.758 -16.504  -0.711  1.00  0.00     0.166 HD
BRANCH  15  17
HETATM   17  C13 UNL     1      34.904 -16.802   0.200  1.00  0.00     0.089 C 
BRANCH  17  18
HETATM   18  C14 UNL     1      34.165 -17.171  -1.059  1.00  0.00     0.274 C 
BRANCH  18  19
HETATM   19  N4  UNL     1      33.535 -18.438  -0.907  1.00  0.00    -0.075 N 
ATOM     20  H43 UNL     1      32.544 -18.401  -1.146  1.00  0.00     0.274 HD
ATOM     21  H42 UNL     1      33.838 -19.102  -1.620  1.00  0.00     0.274 HD
ATOM     22  H41 UNL     1      33.687 -18.797   0.035  1.00  0.00     0.274 HD
ENDBRANCH  18  19
ENDBRANCH  17  18
ENDBRANCH  15  17
ENDBRANCH  11  15
ENDBRANCH   9  11
BRANCH   1  23
HETATM   23  C2  UNL     1      38.373 -19.754  -0.551  1.00  0.00     0.157 C 
BRANCH  23  24
HETATM   24  N1  UNL     1      37.885 -19.774  -1.961  1.00  0.00    -0.404 N 
HETATM   25  C1  UNL     1      36.614 -19.774  -2.138  1.00  0.00     0.112 C 
ATOM     26  H1  UNL     1      38.533 -19.788  -2.749  1.00  0.00     0.158 HD
ENDBRANCH  23  24
ENDBRANCH   1  23
TORSDOF 8
ENDMDL
MODEL 5
REMARK VINA RESULT: -5.161908400      1.456      1.722
REMARK  8 active torsions:
REMARK  status: ('A' for Active; 'I' for Inactive)
REMARK    1  A    between atoms: N1_2  and  C2_4 
REMARK    2  A    between atoms: C2_4  and  C3_5 
REMARK    3  A    between atoms: C11_13  and  C12_14 
REMARK    4  A    between atoms: C12_14  and  N2_15 
REMARK    5  A    between atoms: C12_14  and  N3_18 
REMARK    6  A    between atoms: N3_18  and  C13_20 
REMARK    7  A    between atoms: C13_20  and  C14_21 
REMARK    8  A    between atoms: C14_21  and  N4_22 
ROOT
HETATM    1  C3  UNL     1      39.235 -17.544   0.363  1.00  0.00    -0.029 A 
HETATM    2  C4  UNL     1      39.291 -18.861  -0.088  1.00  0.00     0.010 A 
HETATM    3  C5  UNL     1      39.904 -19.291  -1.219  1.00  0.00     0.002 A 
HETATM    4  C6  UNL     1      40.529 -18.371  -1.994  1.00  0.00     0.012 A 
HETATM    5  C7  UNL     1      40.522 -17.043  -1.616  1.00  0.00    -0.024 A 
HETATM    6  C8  UNL     1      41.281 -16.222  -2.424  1.00  0.00     0.012 A 
HETATM    7  C9  UNL     1      41.391 -14.924  -2.032  1.00  0.00     0.002 A 
HETATM    8  C10 UNL     1      40.780 -14.478  -0.909  1.00  0.00     0.016 A 
HETATM    9  C11 UNL     1      39.974 -15.329  -0.054  1.00  0.00     0.019 A 
HETATM   10  C15 UNL     1      39.884 -16.610  -0.456  1.00  0.00    -0.004 A 
ENDROOT
BRANCH   9  11
HETATM   11  C12 UNL     1      39.208 -14.612   0.887  1.00  0.00     0.109 C 
BRANCH  11  12
HETATM   12  N2  UNL     1      39.082 -14.368   2.016  1.00  0.00    -0.385 N 
ATOM     13  H22 UNL     1      39.789 -13.668   2.238  1.00  0.00     0.157 HD
ATOM     14  H21 UNL     1      38.609 -14.642   2.877  1.00  0.00     0.157 HD
ENDBRANCH  11  12
BRANCH  11  15
HETATM   15  N3  UNL     1      38.256 -13.682   0.139  1.00  0.00    -0.354 N 
ATOM     16  H3  UNL     1      38.163 -13.792  -0.871  1.00  0.00     0.166 HD
BRANCH  15  17
HETATM   17  C13 UNL     1      37.505 -12.686   0.772  1.00  0.00     0.089 C 
BRANCH  17  18
HETATM   18  C14 UNL     1      38.153 -11.332   0.654  1.00  0.00     0.274 C 
BRANCH  18  19
HETATM   19  N4  UNL     1      37.255 -10.317   1.089  1.00  0.00    -0.075 N 
ATOM     20  H43 UNL     1      37.423  -9.430   0.612  1.00  0.00     0.274 HD
ATOM     21  H42 UNL     1      36.303 -10.485   0.762  1.00  0.00     0.274 HD
ATOM     22  H41 UNL     1      37.298 -10.219   2.102  1.00  0.00     0.274 HD
ENDBRANCH  18  19
ENDBRANCH  17  18
ENDBRANCH  15  17
ENDBRANCH  11  15
ENDBRANCH   9  11
BRANCH   1  23
HETATM   23  C2  UNL     1      38.582 -17.230   1.621  1.00  0.00     0.157 C 
BRANCH  23  24
HETATM   24  N1  UNL     1      37.162 -17.651   1.439  1.00  0.00    -0.404 N 
HETATM   25  C1  UNL     1      36.417 -16.891   0.721  1.00  0.00     0.112 C 
ATOM     26  H1  UNL     1      36.800 -18.504   1.866  1.00  0.00     0.158 HD
ENDBRANCH  23  24
ENDBRANCH   1  23
TORSDOF 8
ENDMDL
