MODEL 1
REMARK VINA RESULT: -6.291909017      0.000      0.000
REMARK  5 active torsions:
REMARK  status: ('A' for Active; 'I' for Inactive)
REMARK    1  A    between atoms: C2_2  and  C4_5 
REMARK    2  A    between atoms: C6_10  and  S2_11 
REMARK    3  A    between atoms: S2_11  and  C7_12 
REMARK    4  A    between atoms: C7_12  and  C8_13 
REMARK    5  A    between atoms: C9_18  and  O1_19 
ROOT
HETATM    1  C4  UNL     1      10.487 -41.159   9.214  1.00  0.00     0.087 A 
HETATM    2  N1  UNL     1      10.707 -41.207  10.532  1.00  0.00    -0.333 N 
ATOM      3  H1  UNL     1      10.040 -40.936  11.255  1.00  0.00     0.168 HD
HETATM    4  C5  UNL     1      11.964 -41.677  10.753  1.00  0.00     0.175 A 
HETATM    5  S1  UNL     1      13.218 -42.119  11.869  1.00  0.00    -0.026 SA
HETATM    6  C6  UNL     1      14.397 -42.598  10.753  1.00  0.00     0.130 A 
HETATM    7  N2  UNL     1      13.754 -42.387   9.604  1.00  0.00    -0.277 N 
ATOM      8  H2  UNL     1      14.224 -42.588   8.722  1.00  0.00     0.189 HD
HETATM    9  N3  UNL     1      12.569 -41.939   9.590  1.00  0.00    -0.208 N 
HETATM   10  C9  UNL     1      11.646 -41.615   8.616  1.00  0.00     0.189 A 
ENDROOT
BRANCH   1  11
HETATM   11  C2  UNL     1       9.262 -40.690   8.454  1.00  0.00     0.076 C 
HETATM   12  C1  UNL     1       8.781 -41.761   7.522  1.00  0.00     0.039 C 
HETATM   13  C3  UNL     1       9.482 -39.369   7.769  1.00  0.00     0.039 C 
HETATM   14 CL1  UNL     1       8.005 -40.372   9.715  1.00  0.00    -0.113 Cl
ENDBRANCH   1  11
BRANCH  10  15
HETATM   15  O1  UNL     1      11.826 -41.722   7.251  1.00  0.00    -0.343 OA
ATOM     16  H1  UNL     1      11.377 -41.187   6.607  1.00  0.00     0.219 HD
ENDBRANCH  10  15
BRANCH   6  17
HETATM   17  S2  UNL     1      16.075 -43.254  10.851  1.00  0.00    -0.102 SA
BRANCH  17  18
HETATM   18  C7  UNL     1      17.177 -42.089  10.042  1.00  0.00     0.096 C 
BRANCH  18  19
HETATM   19  C8  UNL     1      16.753 -40.642  10.225  1.00  0.00     0.125 C 
HETATM   20 CL2  UNL     1      17.816 -39.835  11.371  1.00  0.00    -0.130 Cl
ENDBRANCH  18  19
ENDBRANCH  17  18
ENDBRANCH   6  17
TORSDOF 5
ENDMDL
MODEL 2
REMARK VINA RESULT: -6.289207284      0.792      1.080
REMARK  5 active torsions:
REMARK  status: ('A' for Active; 'I' for Inactive)
REMARK    1  A    between atoms: C2_2  and  C4_5 
REMARK    2  A    between atoms: C6_10  and  S2_11 
REMARK    3  A    between atoms: S2_11  and  C7_12 
REMARK    4  A    between atoms: C7_12  and  C8_13 
REMARK    5  A    between atoms: C9_18  and  O1_19 
ROOT
HETATM    1  C4  UNL     1      10.439 -41.183   9.278  1.00  0.00     0.087 A 
HETATM    2  N1  UNL     1      10.681 -41.256  10.591  1.00  0.00    -0.333 N 
ATOM      3  H1  UNL     1      10.023 -41.010  11.330  1.00  0.00     0.168 HD
HETATM    4  C5  UNL     1      11.949 -41.711  10.782  1.00  0.00     0.175 A 
HETATM    5  S1  UNL     1      13.228 -42.156  11.867  1.00  0.00    -0.026 SA
HETATM    6  C6  UNL     1      14.394 -42.594  10.723  1.00  0.00     0.130 A 
HETATM    7  N2  UNL     1      13.730 -42.369   9.588  1.00  0.00    -0.277 N 
ATOM      8  H2  UNL     1      14.188 -42.545   8.695  1.00  0.00     0.189 HD
HETATM    9  N3  UNL     1      12.538 -41.939   9.604  1.00  0.00    -0.208 N 
HETATM   10  C9  UNL     1      11.594 -41.608   8.651  1.00  0.00     0.189 A 
ENDROOT
BRANCH   1  11
HETATM   11  C2  UNL     1       9.194 -40.717   8.549  1.00  0.00     0.076 C 
HETATM   12  C1  UNL     1       8.072 -40.493   9.517  1.00  0.00     0.039 C 
HETATM   13  C3  UNL     1       8.819 -41.631   7.414  1.00  0.00     0.039 C 
HETATM   14 CL1  UNL     1       9.649 -39.149   7.771  1.00  0.00    -0.113 Cl
ENDBRANCH   1  11
BRANCH  10  15
HETATM   15  O1  UNL     1      11.753 -41.684   7.282  1.00  0.00    -0.343 OA
ATOM     16  H1  UNL     1      12.592 -41.642   6.837  1.00  0.00     0.219 HD
ENDBRANCH  10  15
BRANCH   6  17
HETATM   17  S2  UNL     1      16.084 -43.226  10.779  1.00  0.00    -0.102 SA
BRANCH  17  18
HETATM   18  C7  UNL     1      17.156 -42.022   9.990  1.00  0.00     0.096 C 
BRANCH  18  19
HETATM   19  C8  UNL     1      16.737 -40.586  10.255  1.00  0.00     0.125 C 
HETATM   20 CL2  UNL     1      17.853 -39.823  11.381  1.00  0.00    -0.130 Cl
ENDBRANCH  18  19
ENDBRANCH  17  18
ENDBRANCH   6  17
TORSDOF 5
ENDMDL
MODEL 3
REMARK VINA RESULT: -5.659991314      1.720      1.843
REMARK  5 active torsions:
REMARK  status: ('A' for Active; 'I' for Inactive)
REMARK    1  A    between atoms: C2_2  and  C4_5 
REMARK    2  A    between atoms: C6_10  and  S2_11 
REMARK    3  A    between atoms: S2_11  and  C7_12 
REMARK    4  A    between atoms: C7_12  and  C8_13 
REMARK    5  A    between atoms: C9_18  and  O1_19 
ROOT
HETATM    1  C4  UNL     1      10.728 -41.943   9.453  1.00  0.00     0.087 A 
HETATM    2  N1  UNL     1      11.177 -42.090  10.704  1.00  0.00    -0.333 N 
ATOM      3  H1  UNL     1      10.611 -42.360  11.509  1.00  0.00     0.168 HD
HETATM    4  C5  UNL     1      12.510 -41.820  10.730  1.00  0.00     0.175 A 
HETATM    5  S1  UNL     1      13.988 -41.684  11.628  1.00  0.00    -0.026 SA
HETATM    6  C6  UNL     1      15.016 -41.234  10.362  1.00  0.00     0.130 A 
HETATM    7  N2  UNL     1      14.162 -41.216   9.339  1.00  0.00    -0.277 N 
ATOM      8  H2  UNL     1      14.498 -40.971   8.409  1.00  0.00     0.189 HD
HETATM    9  N3  UNL     1      12.938 -41.501   9.505  1.00  0.00    -0.208 N 
HETATM   10  C9  UNL     1      11.822 -41.575   8.695  1.00  0.00     0.189 A 
ENDROOT
BRANCH   1  11
HETATM   11  C2  UNL     1       9.324 -42.104   8.904  1.00  0.00     0.076 C 
HETATM   12  C1  UNL     1       9.338 -42.951   7.667  1.00  0.00     0.039 C 
HETATM   13  C3  UNL     1       8.632 -40.783   8.705  1.00  0.00     0.039 C 
HETATM   14 CL1  UNL     1       8.389 -42.943  10.205  1.00  0.00    -0.113 Cl
ENDBRANCH   1  11
BRANCH  10  15
HETATM   15  O1  UNL     1      11.780 -41.327   7.337  1.00  0.00    -0.343 OA
ATOM     16  H1  UNL     1      10.994 -41.089   6.860  1.00  0.00     0.219 HD
ENDBRANCH  10  15
BRANCH   6  17
HETATM   17  S2  UNL     1      16.775 -40.863  10.199  1.00  0.00    -0.102 SA
BRANCH  17  18
HETATM   18  C7  UNL     1      17.633 -42.392   9.813  1.00  0.00     0.096 C 
BRANCH  18  19
HETATM   19  C8  UNL     1      16.782 -43.629  10.046  1.00  0.00     0.125 C 
HETATM   20 CL2  UNL     1      16.957 -44.187  11.705  1.00  0.00    -0.130 Cl
ENDBRANCH  18  19
ENDBRANCH  17  18
ENDBRANCH   6  17
TORSDOF 5
ENDMDL
MODEL 4
REMARK VINA RESULT: -5.403565223      1.674      1.892
REMARK  5 active torsions:
REMARK  status: ('A' for Active; 'I' for Inactive)
REMARK    1  A    between atoms: C2_2  and  C4_5 
REMARK    2  A    between atoms: C6_10  and  S2_11 
REMARK    3  A    between atoms: S2_11  and  C7_12 
REMARK    4  A    between atoms: C7_12  and  C8_13 
REMARK    5  A    between atoms: C9_18  and  O1_19 
ROOT
HETATM    1  C4  UNL     1      10.464 -41.545   9.215  1.00  0.00     0.087 A 
HETATM    2  N1  UNL     1      10.635 -41.538  10.542  1.00  0.00    -0.333 N 
ATOM      3  H1  UNL     1       9.888 -41.553  11.236  1.00  0.00     0.168 HD
HETATM    4  C5  UNL     1      11.967 -41.507  10.815  1.00  0.00     0.175 A 
HETATM    5  S1  UNL     1      13.251 -41.471  11.982  1.00  0.00    -0.026 SA
HETATM    6  C6  UNL     1      14.565 -41.447  10.916  1.00  0.00     0.130 A 
HETATM    7  N2  UNL     1      13.935 -41.467   9.741  1.00  0.00    -0.277 N 
ATOM      8  H2  UNL     1      14.480 -41.457   8.879  1.00  0.00     0.189 HD
HETATM    9  N3  UNL     1      12.671 -41.496   9.678  1.00  0.00    -0.208 N 
HETATM   10  C9  UNL     1      11.731 -41.520   8.666  1.00  0.00     0.189 A 
ENDROOT
BRANCH   1  11
HETATM   11  C2  UNL     1       9.182 -41.554   8.405  1.00  0.00     0.076 C 
HETATM   12  C1  UNL     1       9.283 -40.597   7.256  1.00  0.00     0.039 C 
HETATM   13  C3  UNL     1       7.964 -41.325   9.257  1.00  0.00     0.039 C 
HETATM   14 CL1  UNL     1       9.018 -43.243   7.779  1.00  0.00    -0.113 Cl
ENDBRANCH   1  11
BRANCH  10  15
HETATM   15  O1  UNL     1      11.991 -41.520   7.309  1.00  0.00    -0.343 OA
ATOM     16  H1  UNL     1      12.171 -42.301   6.799  1.00  0.00     0.219 HD
ENDBRANCH  10  15
BRANCH   6  17
HETATM   17  S2  UNL     1      16.362 -41.428  11.083  1.00  0.00    -0.102 SA
BRANCH  17  18
HETATM   18  C7  UNL     1      17.060 -42.358   9.716  1.00  0.00     0.096 C 
BRANCH  18  19
HETATM   19  C8  UNL     1      17.228 -43.837  10.025  1.00  0.00     0.125 C 
HETATM   20 CL2  UNL     1      16.869 -44.151  11.718  1.00  0.00    -0.130 Cl
ENDBRANCH  18  19
ENDBRANCH  17  18
ENDBRANCH   6  17
TORSDOF 5
ENDMDL
MODEL 5
REMARK VINA RESULT: -4.448672598      2.491      6.571
REMARK  5 active torsions:
REMARK  status: ('A' for Active; 'I' for Inactive)
REMARK    1  A    between atoms: C2_2  and  C4_5 
REMARK    2  A    between atoms: C6_10  and  S2_11 
REMARK    3  A    between atoms: S2_11  and  C7_12 
REMARK    4  A    between atoms: C7_12  and  C8_13 
REMARK    5  A    between atoms: C9_18  and  O1_19 
ROOT
HETATM    1  C4  UNL     1      15.283 -42.030  10.300  1.00  0.00     0.087 A 
HETATM    2  N1  UNL     1      14.694 -41.155   9.479  1.00  0.00    -0.333 N 
ATOM      3  H1  UNL     1      15.171 -40.428   8.947  1.00  0.00     0.168 HD
HETATM    4  C5  UNL     1      13.354 -41.391   9.470  1.00  0.00     0.175 A 
HETATM    5  S1  UNL     1      11.771 -40.983   8.890  1.00  0.00    -0.026 SA
HETATM    6  C6  UNL     1      10.882 -42.155   9.725  1.00  0.00     0.130 A 
HETATM    7  N2  UNL     1      11.854 -42.778  10.393  1.00  0.00    -0.277 N 
ATOM      8  H2  UNL     1      11.620 -43.558  11.006  1.00  0.00     0.189 HD
HETATM    9  N3  UNL     1      13.062 -42.416  10.276  1.00  0.00    -0.208 N 
HETATM   10  C9  UNL     1      14.272 -42.824  10.804  1.00  0.00     0.189 A 
ENDROOT
BRANCH   1  11
HETATM   11  C2  UNL     1      16.746 -42.172  10.674  1.00  0.00     0.076 C 
HETATM   12  C1  UNL     1      17.067 -43.599  11.002  1.00  0.00     0.039 C 
HETATM   13  C3  UNL     1      17.157 -41.212  11.757  1.00  0.00     0.039 C 
HETATM   14 CL1  UNL     1      17.671 -41.663   9.206  1.00  0.00    -0.113 Cl
ENDBRANCH   1  11
BRANCH  10  15
HETATM   15  O1  UNL     1      14.466 -43.861  11.695  1.00  0.00    -0.343 OA
ATOM     16  H1  UNL     1      14.480 -44.780  11.453  1.00  0.00     0.219 HD
ENDBRANCH  10  15
BRANCH   6  17
HETATM   17  S2  UNL     1       9.143 -42.629   9.824  1.00  0.00    -0.102 SA
BRANCH  17  18
HETATM   18  C7  UNL     1       8.149 -41.184   9.440  1.00  0.00     0.096 C 
BRANCH  18  19
HETATM   19  C8  UNL     1       8.360 -40.673   8.025  1.00  0.00     0.125 C 
HETATM   20 CL2  UNL     1       9.275 -39.171   8.049  1.00  0.00    -0.130 Cl
ENDBRANCH  18  19
ENDBRANCH  17  18
ENDBRANCH   6  17
TORSDOF 5
ENDMDL
