MODEL 1
REMARK VINA RESULT: -7.305336254      0.000      0.000
REMARK  6 active torsions:
REMARK  status: ('A' for Active; 'I' for Inactive)
REMARK    1  A    between atoms: C2_2  and  O1_3 
REMARK    2  A    between atoms: O1_3  and  C3_4 
REMARK    3  A    between atoms: C3_4  and  C4_6 
REMARK    4  A    between atoms: C5_12  and  N3_13 
REMARK    5  A    between atoms: N4_15  and  C6_17 
REMARK    6  A    between atoms: C6_17  and  C7_21 
ROOT
HETATM    1  C4  UNL     1      10.451 -41.853  10.759  1.00  0.00     0.161 A 
HETATM    2  N1  UNL     1       9.896 -41.685  11.921  1.00  0.00    -0.286 N 
ATOM      3  H1  UNL     1       8.901 -41.876  12.038  1.00  0.00     0.188 HD
HETATM    4  N2  UNL     1      10.592 -41.277  12.929  1.00  0.00    -0.267 N 
ATOM      5  H2  UNL     1      10.279 -41.107  13.885  1.00  0.00     0.195 HD
HETATM    6  S1  UNL     1      12.135 -41.095  12.293  1.00  0.00     0.024 SA
HETATM    7  C5  UNL     1      11.815 -41.569  10.687  1.00  0.00     0.141 A 
ENDROOT
BRANCH   7   8
HETATM    8  N3  UNL     1      12.640 -41.682   9.528  1.00  0.00    -0.289 N 
HETATM    9  N4  UNL     1      13.737 -42.237   9.562  1.00  0.00    -0.286 N 
ATOM     10  H4  UNL     1      14.229 -42.252   8.669  1.00  0.00     0.188 HD
ATOM     11  H3  UNL     1      12.310 -41.290   8.646  1.00  0.00     0.188 HD
BRANCH   9  12
HETATM   12  C6  UNL     1      14.423 -42.849  10.610  1.00  0.00     0.123 C 
HETATM   13  N5  UNL     1      14.052 -43.956  11.150  1.00  0.00    -0.386 N 
ATOM     14  H52 UNL     1      13.207 -44.401  10.794  1.00  0.00     0.157 HD
ATOM     15  H51 UNL     1      14.555 -44.404  11.917  1.00  0.00     0.157 HD
BRANCH  12  16
HETATM   16  C7  UNL     1      15.657 -42.199  11.131  1.00  0.00     0.246 C 
HETATM   17 CL1  UNL     1      17.068 -43.268  10.999  1.00  0.00    -0.100 Cl
HETATM   18 CL2  UNL     1      16.028 -40.719  10.225  1.00  0.00    -0.100 Cl
ENDBRANCH  12  16
ENDBRANCH   9  12
ENDBRANCH   7   8
BRANCH   1  19
HETATM   19  C3  UNL     1       9.673 -42.323   9.573  1.00  0.00     0.314 C 
HETATM   20  O2  UNL     1       8.765 -43.165   9.713  1.00  0.00    -0.257 OA
BRANCH  19  21
HETATM   21  O1  UNL     1       9.928 -41.850   8.307  1.00  0.00    -0.317 OA
BRANCH  21  22
HETATM   22  C2  UNL     1       9.266 -40.793   7.682  1.00  0.00     0.175 C 
HETATM   23  C1  UNL     1       9.842 -39.438   8.000  1.00  0.00     0.034 C 
ENDBRANCH  21  22
ENDBRANCH  19  21
ENDBRANCH   1  19
TORSDOF 6
ENDMDL
MODEL 2
REMARK VINA RESULT: -7.040050818      3.719      5.662
REMARK  6 active torsions:
REMARK  status: ('A' for Active; 'I' for Inactive)
REMARK    1  A    between atoms: C2_2  and  O1_3 
REMARK    2  A    between atoms: O1_3  and  C3_4 
REMARK    3  A    between atoms: C3_4  and  C4_6 
REMARK    4  A    between atoms: C5_12  and  N3_13 
REMARK    5  A    between atoms: N4_15  and  C6_17 
REMARK    6  A    between atoms: C6_17  and  C7_21 
ROOT
HETATM    1  C4  UNL     1      13.163 -41.539  11.030  1.00  0.00     0.161 A 
HETATM    2  N1  UNL     1      12.749 -41.321  12.242  1.00  0.00    -0.286 N 
ATOM      3  H1  UNL     1      13.425 -41.133  12.981  1.00  0.00     0.188 HD
HETATM    4  N2  UNL     1      11.487 -41.341  12.519  1.00  0.00    -0.267 N 
ATOM      5  H2  UNL     1      11.037 -41.186  13.421  1.00  0.00     0.195 HD
HETATM    6  S1  UNL     1      10.765 -41.679  11.042  1.00  0.00     0.024 SA
HETATM    7  C5  UNL     1      12.169 -41.788  10.081  1.00  0.00     0.141 A 
ENDROOT
BRANCH   7   8
HETATM    8  N3  UNL     1      12.376 -42.049   8.693  1.00  0.00    -0.289 N 
HETATM    9  N4  UNL     1      11.656 -41.558   7.826  1.00  0.00    -0.286 N 
ATOM     10  H4  UNL     1      11.906 -41.821   6.873  1.00  0.00     0.188 HD
ATOM     11  H3  UNL     1      13.143 -42.660   8.414  1.00  0.00     0.188 HD
BRANCH   9  12
HETATM   12  C6  UNL     1      10.557 -40.705   7.919  1.00  0.00     0.123 C 
HETATM   13  N5  UNL     1      10.658 -39.437   8.111  1.00  0.00    -0.386 N 
ATOM     14  H52 UNL     1      11.593 -39.042   8.206  1.00  0.00     0.157 HD
ATOM     15  H51 UNL     1       9.853 -38.813   8.179  1.00  0.00     0.157 HD
BRANCH  12  16
HETATM   16  C7  UNL     1       9.192 -41.282   7.781  1.00  0.00     0.246 C 
HETATM   17 CL1  UNL     1       9.189 -43.036   8.058  1.00  0.00    -0.100 Cl
HETATM   18 CL2  UNL     1       8.073 -40.558   8.954  1.00  0.00    -0.100 Cl
ENDBRANCH  12  16
ENDBRANCH   9  12
ENDBRANCH   7   8
BRANCH   1  19
HETATM   19  C3  UNL     1      14.613 -41.524  10.677  1.00  0.00     0.314 C 
HETATM   20  O2  UNL     1      14.999 -40.960   9.635  1.00  0.00    -0.257 OA
BRANCH  19  21
HETATM   21  O1  UNL     1      15.559 -42.122  11.477  1.00  0.00    -0.317 OA
BRANCH  21  22
HETATM   22  C2  UNL     1      15.954 -43.459  11.415  1.00  0.00     0.175 C 
HETATM   23  C1  UNL     1      17.246 -43.680  10.673  1.00  0.00     0.034 C 
ENDBRANCH  21  22
ENDBRANCH  19  21
ENDBRANCH   1  19
TORSDOF 6
ENDMDL
MODEL 3
REMARK VINA RESULT: -6.825733072      0.893      1.112
REMARK  6 active torsions:
REMARK  status: ('A' for Active; 'I' for Inactive)
REMARK    1  A    between atoms: C2_2  and  O1_3 
REMARK    2  A    between atoms: O1_3  and  C3_4 
REMARK    3  A    between atoms: C3_4  and  C4_6 
REMARK    4  A    between atoms: C5_12  and  N3_13 
REMARK    5  A    between atoms: N4_15  and  C6_17 
REMARK    6  A    between atoms: C6_17  and  C7_21 
ROOT
HETATM    1  C4  UNL     1      11.032 -41.607  10.270  1.00  0.00     0.161 A 
HETATM    2  N1  UNL     1      10.200 -41.644  11.267  1.00  0.00    -0.286 N 
ATOM      3  H1  UNL     1       9.213 -41.830  11.094  1.00  0.00     0.188 HD
HETATM    4  N2  UNL     1      10.613 -41.449  12.475  1.00  0.00    -0.267 N 
ATOM      5  H2  UNL     1      10.067 -41.453  13.337  1.00  0.00     0.195 HD
HETATM    6  S1  UNL     1      12.261 -41.189  12.291  1.00  0.00     0.024 SA
HETATM    7  C5  UNL     1      12.365 -41.347  10.597  1.00  0.00     0.141 A 
ENDROOT
BRANCH   7   8
HETATM    8  N3  UNL     1      13.456 -41.262   9.681  1.00  0.00    -0.289 N 
HETATM    9  N4  UNL     1      14.480 -41.926   9.826  1.00  0.00    -0.286 N 
ATOM     10  H4  UNL     1      15.185 -41.776   9.106  1.00  0.00     0.188 HD
ATOM     11  H3  UNL     1      13.383 -40.631   8.882  1.00  0.00     0.188 HD
BRANCH   9  12
HETATM   12  C6  UNL     1      14.844 -42.849  10.806  1.00  0.00     0.123 C 
HETATM   13  N5  UNL     1      14.146 -43.891  11.093  1.00  0.00    -0.386 N 
ATOM     14  H52 UNL     1      13.279 -44.041  10.578  1.00  0.00     0.157 HD
ATOM     15  H51 UNL     1      14.412 -44.567  11.809  1.00  0.00     0.157 HD
BRANCH  12  16
HETATM   16  C7  UNL     1      16.110 -42.631  11.558  1.00  0.00     0.246 C 
HETATM   17 CL1  UNL     1      17.234 -43.990  11.360  1.00  0.00    -0.100 Cl
HETATM   18 CL2  UNL     1      16.941 -41.168  10.992  1.00  0.00    -0.100 Cl
ENDBRANCH  12  16
ENDBRANCH   9  12
ENDBRANCH   7   8
BRANCH   1  19
HETATM   19  C3  UNL     1      10.588 -41.828   8.862  1.00  0.00     0.314 C 
HETATM   20  O2  UNL     1      11.422 -42.098   7.976  1.00  0.00    -0.257 OA
BRANCH  19  21
HETATM   21  O1  UNL     1       9.264 -41.742   8.500  1.00  0.00    -0.317 OA
BRANCH  21  22
HETATM   22  C2  UNL     1       8.533 -40.563   8.346  1.00  0.00     0.175 C 
HETATM   23  C1  UNL     1       9.375 -39.367   7.986  1.00  0.00     0.034 C 
ENDBRANCH  21  22
ENDBRANCH  19  21
ENDBRANCH   1  19
TORSDOF 6
ENDMDL
MODEL 4
REMARK VINA RESULT: -6.730755329      3.755      5.585
REMARK  6 active torsions:
REMARK  status: ('A' for Active; 'I' for Inactive)
REMARK    1  A    between atoms: C2_2  and  O1_3 
REMARK    2  A    between atoms: O1_3  and  C3_4 
REMARK    3  A    between atoms: C3_4  and  C4_6 
REMARK    4  A    between atoms: C5_12  and  N3_13 
REMARK    5  A    between atoms: N4_15  and  C6_17 
REMARK    6  A    between atoms: C6_17  and  C7_21 
ROOT
HETATM    1  C4  UNL     1      13.245 -41.689  10.917  1.00  0.00     0.161 A 
HETATM    2  N1  UNL     1      12.876 -41.460  12.141  1.00  0.00    -0.286 N 
ATOM      3  H1  UNL     1      13.581 -41.370  12.873  1.00  0.00     0.188 HD
HETATM    4  N2  UNL     1      11.625 -41.346  12.440  1.00  0.00    -0.267 N 
ATOM      5  H2  UNL     1      11.209 -41.167  13.354  1.00  0.00     0.195 HD
HETATM    6  S1  UNL     1      10.848 -41.560  10.968  1.00  0.00     0.024 SA
HETATM    7  C5  UNL     1      12.216 -41.798   9.980  1.00  0.00     0.141 A 
ENDROOT
BRANCH   7   8
HETATM    8  N3  UNL     1      12.372 -42.042   8.582  1.00  0.00    -0.289 N 
HETATM    9  N4  UNL     1      11.620 -41.542   7.748  1.00  0.00    -0.286 N 
ATOM     10  H4  UNL     1      11.835 -41.792   6.783  1.00  0.00     0.188 HD
ATOM     11  H3  UNL     1      13.129 -42.648   8.267  1.00  0.00     0.188 HD
BRANCH   9  12
HETATM   12  C6  UNL     1      10.524 -40.692   7.893  1.00  0.00     0.123 C 
HETATM   13  N5  UNL     1      10.631 -39.426   8.098  1.00  0.00    -0.386 N 
ATOM     14  H52 UNL     1      11.568 -39.031   8.165  1.00  0.00     0.157 HD
ATOM     15  H51 UNL     1       9.829 -38.804   8.204  1.00  0.00     0.157 HD
BRANCH  12  16
HETATM   16  C7  UNL     1       9.155 -41.268   7.796  1.00  0.00     0.246 C 
HETATM   17 CL1  UNL     1       9.159 -43.021   8.081  1.00  0.00    -0.100 Cl
HETATM   18 CL2  UNL     1       8.071 -40.539   8.996  1.00  0.00    -0.100 Cl
ENDBRANCH  12  16
ENDBRANCH   9  12
ENDBRANCH   7   8
BRANCH   1  19
HETATM   19  C3  UNL     1      14.683 -41.827  10.539  1.00  0.00     0.314 C 
HETATM   20  O2  UNL     1      15.133 -42.932  10.177  1.00  0.00    -0.257 OA
BRANCH  19  21
HETATM   21  O1  UNL     1      15.547 -40.757  10.575  1.00  0.00    -0.317 OA
BRANCH  21  22
HETATM   22  C2  UNL     1      16.927 -40.828  10.763  1.00  0.00     0.175 C 
HETATM   23  C1  UNL     1      17.687 -39.681  10.150  1.00  0.00     0.034 C 
ENDBRANCH  21  22
ENDBRANCH  19  21
ENDBRANCH   1  19
TORSDOF 6
ENDMDL
MODEL 5
REMARK VINA RESULT: -6.402742150      3.618      5.604
REMARK  6 active torsions:
REMARK  status: ('A' for Active; 'I' for Inactive)
REMARK    1  A    between atoms: C2_2  and  O1_3 
REMARK    2  A    between atoms: O1_3  and  C3_4 
REMARK    3  A    between atoms: C3_4  and  C4_6 
REMARK    4  A    between atoms: C5_12  and  N3_13 
REMARK    5  A    between atoms: N4_15  and  C6_17 
REMARK    6  A    between atoms: C6_17  and  C7_21 
ROOT
HETATM    1  C4  UNL     1      12.929 -41.527  11.142  1.00  0.00     0.161 A 
HETATM    2  N1  UNL     1      12.524 -41.427  12.372  1.00  0.00    -0.286 N 
ATOM      3  H1  UNL     1      13.207 -41.401  13.130  1.00  0.00     0.188 HD
HETATM    4  N2  UNL     1      11.263 -41.361  12.646  1.00  0.00    -0.267 N 
ATOM      5  H2  UNL     1      10.819 -41.281  13.561  1.00  0.00     0.195 HD
HETATM    6  S1  UNL     1      10.530 -41.436  11.137  1.00  0.00     0.024 SA
HETATM    7  C5  UNL     1      11.928 -41.555  10.170  1.00  0.00     0.141 A 
ENDROOT
BRANCH   7   8
HETATM    8  N3  UNL     1      12.125 -41.654   8.760  1.00  0.00    -0.289 N 
HETATM    9  N4  UNL     1      11.188 -41.830   7.984  1.00  0.00    -0.286 N 
ATOM     10  H4  UNL     1      11.459 -41.883   7.002  1.00  0.00     0.188 HD
ATOM     11  H3  UNL     1      13.071 -41.576   8.386  1.00  0.00     0.188 HD
BRANCH   9  12
HETATM   12  C6  UNL     1       9.820 -41.969   8.214  1.00  0.00     0.123 C 
HETATM   13  N5  UNL     1       9.280 -43.055   8.643  1.00  0.00    -0.386 N 
ATOM     14  H52 UNL     1       9.889 -43.855   8.816  1.00  0.00     0.157 HD
ATOM     15  H51 UNL     1       8.279 -43.156   8.812  1.00  0.00     0.157 HD
BRANCH  12  16
HETATM   16  C7  UNL     1       8.931 -40.802   7.961  1.00  0.00     0.246 C 
HETATM   17 CL1  UNL     1       7.668 -40.658   9.199  1.00  0.00    -0.100 Cl
HETATM   18 CL2  UNL     1       9.854 -39.286   7.967  1.00  0.00    -0.100 Cl
ENDBRANCH  12  16
ENDBRANCH   9  12
ENDBRANCH   7   8
BRANCH   1  19
HETATM   19  C3  UNL     1      14.379 -41.606  10.793  1.00  0.00     0.314 C 
HETATM   20  O2  UNL     1      14.802 -41.076   9.747  1.00  0.00    -0.257 OA
BRANCH  19  21
HETATM   21  O1  UNL     1      15.283 -42.255  11.601  1.00  0.00    -0.317 OA
BRANCH  21  22
HETATM   22  C2  UNL     1      15.800 -43.533  11.386  1.00  0.00     0.175 C 
HETATM   23  C1  UNL     1      17.179 -43.539  10.778  1.00  0.00     0.034 C 
ENDBRANCH  21  22
ENDBRANCH  19  21
ENDBRANCH   1  19
TORSDOF 6
ENDMDL
