MODEL 1
REMARK VINA RESULT: -8.509280154      0.000      0.000
REMARK  5 active torsions:
REMARK  status: ('A' for Active; 'I' for Inactive)
REMARK    1  A    between atoms: C4_4  and  O1_5 
REMARK    2  A    between atoms: C6_7  and  O2_8 
REMARK    3  A    between atoms: C11_15  and  N2_16 
REMARK    4  A    between atoms: C12_18  and  C13_19 
REMARK    5  A    between atoms: C13_19  and  C14_20 
ROOT
HETATM    1  C1  UNL     1      -7.145  -7.962 -19.469  1.00  0.00     0.018 C 
HETATM    2  C2  UNL     1      -6.849  -7.186 -18.591  1.00  0.00    -0.072 C 
HETATM    3  C3  UNL     1      -6.491  -6.278 -17.530  1.00  0.00     0.080 A 
HETATM    4  C4  UNL     1      -5.713  -5.170 -17.775  1.00  0.00     0.122 A 
HETATM    5  C6  UNL     1      -5.409  -4.343 -16.714  1.00  0.00     0.104 A 
HETATM    6  C8  UNL     1      -5.861  -4.600 -15.433  1.00  0.00     0.055 A 
HETATM    7  C9  UNL     1      -6.633  -5.697 -15.182  1.00  0.00     0.023 A 
HETATM    8  C10 UNL     1      -6.946  -6.531 -16.230  1.00  0.00     0.068 A 
HETATM    9  N1  UNL     1      -7.694  -7.598 -15.998  1.00  0.00    -0.340 N 
ATOM     10  H1  UNL     1      -7.925  -8.217 -16.775  1.00  0.00     0.167 HD
HETATM   11  C11 UNL     1      -8.172  -7.901 -14.736  1.00  0.00     0.118 A 
HETATM   12  C15 UNL     1      -7.853  -7.054 -13.678  1.00  0.00     0.037 A 
HETATM   13  C16 UNL     1      -8.145  -7.037 -12.312  1.00  0.00     0.034 A 
HETATM   14  C17 UNL     1      -7.544  -5.920 -11.731  1.00  0.00     0.089 A 
HETATM   15  N3  UNL     1      -6.912  -5.288 -12.721  1.00  0.00    -0.364 N 
ATOM     16  H3  UNL     1      -6.376  -4.428 -12.607  1.00  0.00     0.165 HD
HETATM   17  C18 UNL     1      -7.077  -5.938 -13.894  1.00  0.00     0.059 A 
ENDROOT
BRANCH   4  18
HETATM   18  O1  UNL     1      -5.240  -4.885 -19.072  1.00  0.00    -0.352 OA
HETATM   19  C5  UNL     1      -3.969  -5.363 -19.487  1.00  0.00     0.210 C 
ENDBRANCH   4  18
BRANCH   5  20
HETATM   20  O2  UNL     1      -4.622  -3.230 -16.981  1.00  0.00    -0.353 OA
HETATM   21  C7  UNL     1      -4.435  -2.262 -15.966  1.00  0.00     0.210 C 
ENDBRANCH   5  20
BRANCH  11  22
HETATM   22  N2  UNL     1      -8.866  -8.906 -14.565  1.00  0.00    -0.355 N 
HETATM   23  C12 UNL     1      -9.225 -10.140 -15.021  1.00  0.00     0.071 C 
ATOM     24  H2  UNL     1      -9.404  -8.745 -13.714  1.00  0.00     0.166 HD
BRANCH  23  25
HETATM   25  C13 UNL     1     -10.270 -10.163 -16.133  1.00  0.00     0.162 C 
BRANCH  25  26
HETATM   26  C14 UNL     1      -9.583 -10.681 -17.394  1.00  0.00     0.392 C 
HETATM   27  F1  UNL     1      -9.713 -12.067 -17.421  1.00  0.00    -0.171 F 
HETATM   28  F2  UNL     1      -8.243 -10.398 -17.407  1.00  0.00    -0.171 F 
HETATM   29  F3  UNL     1     -10.245 -10.182 -18.504  1.00  0.00    -0.171 F 
ENDBRANCH  25  26
ENDBRANCH  23  25
ENDBRANCH  11  22
TORSDOF 5
ENDMDL
MODEL 2
REMARK VINA RESULT: -8.402086140      0.994      1.050
REMARK  5 active torsions:
REMARK  status: ('A' for Active; 'I' for Inactive)
REMARK    1  A    between atoms: C4_4  and  O1_5 
REMARK    2  A    between atoms: C6_7  and  O2_8 
REMARK    3  A    between atoms: C11_15  and  N2_16 
REMARK    4  A    between atoms: C12_18  and  C13_19 
REMARK    5  A    between atoms: C13_19  and  C14_20 
ROOT
HETATM    1  C1  UNL     1      -7.596  -8.966 -19.478  1.00  0.00     0.018 C 
HETATM    2  C2  UNL     1      -7.165  -8.071 -18.790  1.00  0.00    -0.072 C 
HETATM    3  C3  UNL     1      -6.648  -7.019 -17.952  1.00  0.00     0.080 A 
HETATM    4  C4  UNL     1      -5.804  -6.056 -18.459  1.00  0.00     0.122 A 
HETATM    5  C6  UNL     1      -5.346  -5.078 -17.602  1.00  0.00     0.104 A 
HETATM    6  C8  UNL     1      -5.710  -5.044 -16.268  1.00  0.00     0.055 A 
HETATM    7  C9  UNL     1      -6.547  -5.994 -15.758  1.00  0.00     0.023 A 
HETATM    8  C10 UNL     1      -7.012  -6.977 -16.600  1.00  0.00     0.068 A 
HETATM    9  N1  UNL     1      -7.824  -7.904 -16.117  1.00  0.00    -0.340 N 
ATOM     10  H1  UNL     1      -8.169  -8.632 -16.742  1.00  0.00     0.167 HD
HETATM   11  C11 UNL     1      -8.219  -7.916 -14.791  1.00  0.00     0.118 A 
HETATM   12  C15 UNL     1      -7.746  -6.919 -13.942  1.00  0.00     0.037 A 
HETATM   13  C16 UNL     1      -7.921  -6.618 -12.590  1.00  0.00     0.034 A 
HETATM   14  C17 UNL     1      -7.185  -5.475 -12.278  1.00  0.00     0.089 A 
HETATM   15  N3  UNL     1      -6.587  -5.104 -13.411  1.00  0.00    -0.364 N 
ATOM     16  H3  UNL     1      -5.974  -4.294 -13.503  1.00  0.00     0.165 HD
HETATM   17  C18 UNL     1      -6.901  -5.945 -14.422  1.00  0.00     0.059 A 
ENDROOT
BRANCH   4  18
HETATM   18  O1  UNL     1      -5.418  -6.068 -19.815  1.00  0.00    -0.352 OA
HETATM   19  C5  UNL     1      -4.258  -6.780 -20.218  1.00  0.00     0.210 C 
ENDBRANCH   4  18
BRANCH   5  20
HETATM   20  O2  UNL     1      -4.495  -4.116 -18.131  1.00  0.00    -0.353 OA
HETATM   21  C7  UNL     1      -3.100  -4.253 -17.940  1.00  0.00     0.210 C 
ENDBRANCH   5  20
BRANCH  11  22
HETATM   22  N2  UNL     1      -8.977  -8.799 -14.383  1.00  0.00    -0.355 N 
HETATM   23  C12 UNL     1      -9.482 -10.051 -14.572  1.00  0.00     0.071 C 
ATOM     24  H2  UNL     1      -9.415  -8.436 -13.537  1.00  0.00     0.166 HD
BRANCH  23  25
HETATM   25  C13 UNL     1     -10.627 -10.165 -15.575  1.00  0.00     0.162 C 
BRANCH  25  26
HETATM   26  C14 UNL     1     -10.057 -10.779 -16.851  1.00  0.00     0.392 C 
HETATM   27  F1  UNL     1     -10.339 -12.143 -16.841  1.00  0.00    -0.171 F 
HETATM   28  F2  UNL     1      -8.696 -10.647 -16.926  1.00  0.00    -0.171 F 
HETATM   29  F3  UNL     1     -10.707 -10.230 -17.944  1.00  0.00    -0.171 F 
ENDBRANCH  25  26
ENDBRANCH  23  25
ENDBRANCH  11  22
TORSDOF 5
ENDMDL
MODEL 3
REMARK VINA RESULT: -8.328349388      3.876      6.270
REMARK  5 active torsions:
REMARK  status: ('A' for Active; 'I' for Inactive)
REMARK    1  A    between atoms: C4_4  and  O1_5 
REMARK    2  A    between atoms: C6_7  and  O2_8 
REMARK    3  A    between atoms: C11_15  and  N2_16 
REMARK    4  A    between atoms: C12_18  and  C13_19 
REMARK    5  A    between atoms: C13_19  and  C14_20 
ROOT
HETATM    1  C1  UNL     1     -10.397 -11.626 -16.756  1.00  0.00     0.018 C 
HETATM    2  C2  UNL     1      -9.477 -11.125 -17.358  1.00  0.00    -0.072 C 
HETATM    3  C3  UNL     1      -8.367 -10.528 -18.057  1.00  0.00     0.080 A 
HETATM    4  C4  UNL     1      -8.039 -10.918 -19.335  1.00  0.00     0.122 A 
HETATM    5  C6  UNL     1      -6.965 -10.306 -19.945  1.00  0.00     0.104 A 
HETATM    6  C8  UNL     1      -6.223  -9.325 -19.311  1.00  0.00     0.055 A 
HETATM    7  C9  UNL     1      -6.543  -8.932 -18.044  1.00  0.00     0.023 A 
HETATM    8  C10 UNL     1      -7.612  -9.534 -17.422  1.00  0.00     0.068 A 
HETATM    9  N1  UNL     1      -7.930  -9.161 -16.192  1.00  0.00    -0.340 N 
ATOM     10  H1  UNL     1      -8.723  -9.607 -15.731  1.00  0.00     0.167 HD
HETATM   11  C11 UNL     1      -7.223  -8.185 -15.513  1.00  0.00     0.118 A 
HETATM   12  C15 UNL     1      -6.141  -7.579 -16.147  1.00  0.00     0.037 A 
HETATM   13  C16 UNL     1      -5.223  -6.590 -15.788  1.00  0.00     0.034 A 
HETATM   14  C17 UNL     1      -4.340  -6.382 -16.848  1.00  0.00     0.089 A 
HETATM   15  N3  UNL     1      -4.720  -7.222 -17.812  1.00  0.00    -0.364 N 
ATOM     16  H3  UNL     1      -4.263  -7.305 -18.720  1.00  0.00     0.165 HD
HETATM   17  C18 UNL     1      -5.791  -7.950 -17.425  1.00  0.00     0.059 A 
ENDROOT
BRANCH   4  18
HETATM   18  O1  UNL     1      -8.778 -11.915 -20.004  1.00  0.00    -0.352 OA
HETATM   19  C5  UNL     1      -8.230 -13.213 -20.175  1.00  0.00     0.210 C 
ENDBRANCH   4  18
BRANCH   5  20
HETATM   20  O2  UNL     1      -6.648 -10.714 -21.235  1.00  0.00    -0.353 OA
HETATM   21  C7  UNL     1      -5.352 -11.217 -21.498  1.00  0.00     0.210 C 
ENDBRANCH   5  20
BRANCH  11  22
HETATM   22  N2  UNL     1      -7.554  -7.868 -14.368  1.00  0.00    -0.355 N 
HETATM   23  C12 UNL     1      -8.368  -7.108 -13.581  1.00  0.00     0.071 C 
ATOM     24  H2  UNL     1      -6.965  -8.410 -13.736  1.00  0.00     0.166 HD
BRANCH  23  25
HETATM   25  C13 UNL     1      -7.928  -5.662 -13.366  1.00  0.00     0.162 C 
BRANCH  25  26
HETATM   26  C14 UNL     1      -7.266  -5.586 -11.993  1.00  0.00     0.392 C 
HETATM   27  F1  UNL     1      -7.337  -6.846 -11.406  1.00  0.00    -0.171 F 
HETATM   28  F2  UNL     1      -7.908  -4.711 -11.158  1.00  0.00    -0.171 F 
HETATM   29  F3  UNL     1      -5.925  -5.281 -12.158  1.00  0.00    -0.171 F 
ENDBRANCH  25  26
ENDBRANCH  23  25
ENDBRANCH  11  22
TORSDOF 5
ENDMDL
MODEL 4
REMARK VINA RESULT: -8.326548380      2.237      4.736
REMARK  5 active torsions:
REMARK  status: ('A' for Active; 'I' for Inactive)
REMARK    1  A    between atoms: C4_4  and  O1_5 
REMARK    2  A    between atoms: C6_7  and  O2_8 
REMARK    3  A    between atoms: C11_15  and  N2_16 
REMARK    4  A    between atoms: C12_18  and  C13_19 
REMARK    5  A    between atoms: C13_19  and  C14_20 
ROOT
HETATM    1  C1  UNL     1      -8.335  -5.960 -15.449  1.00  0.00     0.018 C 
HETATM    2  C2  UNL     1      -7.546  -6.072 -16.357  1.00  0.00    -0.072 C 
HETATM    3  C3  UNL     1      -6.621  -6.217 -17.453  1.00  0.00     0.080 A 
HETATM    4  C4  UNL     1      -5.782  -5.188 -17.815  1.00  0.00     0.122 A 
HETATM    5  C6  UNL     1      -4.922  -5.394 -18.873  1.00  0.00     0.104 A 
HETATM    6  C8  UNL     1      -4.885  -6.591 -19.565  1.00  0.00     0.055 A 
HETATM    7  C9  UNL     1      -5.713  -7.616 -19.211  1.00  0.00     0.023 A 
HETATM    8  C10 UNL     1      -6.577  -7.426 -18.158  1.00  0.00     0.068 A 
HETATM    9  N1  UNL     1      -7.385  -8.414 -17.806  1.00  0.00    -0.340 N 
ATOM     10  H1  UNL     1      -8.026  -8.273 -17.025  1.00  0.00     0.167 HD
HETATM   11  C11 UNL     1      -7.389  -9.631 -18.464  1.00  0.00     0.118 A 
HETATM   12  C15 UNL     1      -6.513  -9.818 -19.530  1.00  0.00     0.037 A 
HETATM   13  C16 UNL     1      -6.242 -10.875 -20.402  1.00  0.00     0.034 A 
HETATM   14  C17 UNL     1      -5.241 -10.485 -21.292  1.00  0.00     0.089 A 
HETATM   15  N3  UNL     1      -4.922  -9.233 -20.961  1.00  0.00    -0.364 N 
ATOM     16  H3  UNL     1      -4.214  -8.673 -21.434  1.00  0.00     0.165 HD
HETATM   17  C18 UNL     1      -5.663  -8.807 -19.914  1.00  0.00     0.059 A 
ENDROOT
BRANCH   4  18
HETATM   18  O1  UNL     1      -5.799  -3.958 -17.127  1.00  0.00    -0.352 OA
HETATM   19  C5  UNL     1      -5.022  -3.789 -15.951  1.00  0.00     0.210 C 
ENDBRANCH   4  18
BRANCH   5  20
HETATM   20  O2  UNL     1      -4.083  -4.343 -19.225  1.00  0.00    -0.353 OA
HETATM   21  C7  UNL     1      -2.719  -4.401 -18.855  1.00  0.00     0.210 C 
ENDBRANCH   5  20
BRANCH  11  22
HETATM   22  N2  UNL     1      -8.159 -10.524 -18.103  1.00  0.00    -0.355 N 
HETATM   23  C12 UNL     1      -9.424 -11.030 -18.146  1.00  0.00     0.071 C 
ATOM     24  H2  UNL     1      -7.615 -11.157 -17.519  1.00  0.00     0.166 HD
BRANCH  23  25
HETATM   25  C13 UNL     1     -10.430 -10.399 -17.188  1.00  0.00     0.162 C 
BRANCH  25  26
HETATM   26  C14 UNL     1     -10.142 -10.952 -15.795  1.00  0.00     0.392 C 
HETATM   27  F1  UNL     1     -11.246 -10.694 -14.987  1.00  0.00    -0.171 F 
HETATM   28  F2  UNL     1      -9.061 -10.347 -15.211  1.00  0.00    -0.171 F 
HETATM   29  F3  UNL     1     -10.002 -12.328 -15.878  1.00  0.00    -0.171 F 
ENDBRANCH  25  26
ENDBRANCH  23  25
ENDBRANCH  11  22
TORSDOF 5
ENDMDL
MODEL 5
REMARK VINA RESULT: -8.194648363      2.906      5.395
REMARK  5 active torsions:
REMARK  status: ('A' for Active; 'I' for Inactive)
REMARK    1  A    between atoms: C4_4  and  O1_5 
REMARK    2  A    between atoms: C6_7  and  O2_8 
REMARK    3  A    between atoms: C11_15  and  N2_16 
REMARK    4  A    between atoms: C12_18  and  C13_19 
REMARK    5  A    between atoms: C13_19  and  C14_20 
ROOT
HETATM    1  C1  UNL     1      -5.937  -4.998 -16.855  1.00  0.00     0.018 C 
HETATM    2  C2  UNL     1      -6.299  -6.016 -17.396  1.00  0.00    -0.072 C 
HETATM    3  C3  UNL     1      -6.751  -7.228 -18.032  1.00  0.00     0.080 A 
HETATM    4  C4  UNL     1      -6.378  -7.536 -19.321  1.00  0.00     0.122 A 
HETATM    5  C6  UNL     1      -6.847  -8.711 -19.868  1.00  0.00     0.104 A 
HETATM    6  C8  UNL     1      -7.669  -9.572 -19.163  1.00  0.00     0.055 A 
HETATM    7  C9  UNL     1      -8.042  -9.273 -17.884  1.00  0.00     0.023 A 
HETATM    8  C10 UNL     1      -7.583  -8.105 -17.324  1.00  0.00     0.068 A 
HETATM    9  N1  UNL     1      -7.939  -7.805 -16.085  1.00  0.00    -0.340 N 
ATOM     10  H1  UNL     1      -7.598  -6.938 -15.669  1.00  0.00     0.167 HD
HETATM   11  C11 UNL     1      -8.758  -8.630 -15.335  1.00  0.00     0.118 A 
HETATM   12  C15 UNL     1      -9.221  -9.812 -15.907  1.00  0.00     0.037 A 
HETATM   13  C16 UNL     1     -10.037 -10.858 -15.471  1.00  0.00     0.034 A 
HETATM   14  C17 UNL     1     -10.159 -11.798 -16.495  1.00  0.00     0.089 A 
HETATM   15  N3  UNL     1      -9.436 -11.328 -17.512  1.00  0.00    -0.364 N 
ATOM     16  H3  UNL     1      -9.329 -11.798 -18.411  1.00  0.00     0.165 HD
HETATM   17  C18 UNL     1      -8.864 -10.145 -17.193  1.00  0.00     0.059 A 
ENDROOT
BRANCH   4  18
HETATM   18  O1  UNL     1      -5.542  -6.677 -20.061  1.00  0.00    -0.352 OA
HETATM   19  C5  UNL     1      -4.131  -6.759 -19.919  1.00  0.00     0.210 C 
ENDBRANCH   4  18
BRANCH   5  20
HETATM   20  O2  UNL     1      -6.460  -9.005 -21.170  1.00  0.00    -0.353 OA
HETATM   21  C7  UNL     1      -6.916 -10.204 -21.767  1.00  0.00     0.210 C 
ENDBRANCH   5  20
BRANCH  11  22
HETATM   22  N2  UNL     1      -9.065  -8.312 -14.184  1.00  0.00    -0.355 N 
HETATM   23  C12 UNL     1      -9.152  -7.316 -13.257  1.00  0.00     0.071 C 
ATOM     24  H2  UNL     1      -9.400  -9.160 -13.728  1.00  0.00     0.166 HD
BRANCH  23  25
HETATM   25  C13 UNL     1      -7.859  -6.973 -12.522  1.00  0.00     0.162 C 
BRANCH  25  26
HETATM   26  C14 UNL     1      -7.295  -5.705 -13.157  1.00  0.00     0.392 C 
HETATM   27  F1  UNL     1      -6.201  -6.061 -13.940  1.00  0.00    -0.171 F 
HETATM   28  F2  UNL     1      -6.850  -4.811 -12.219  1.00  0.00    -0.171 F 
HETATM   29  F3  UNL     1      -8.250  -5.162 -14.000  1.00  0.00    -0.171 F 
ENDBRANCH  25  26
ENDBRANCH  23  25
ENDBRANCH  11  22
TORSDOF 5
ENDMDL
