MODEL 1
REMARK VINA RESULT: -8.444658839      0.000      0.000
REMARK  7 active torsions:
REMARK  status: ('A' for Active; 'I' for Inactive)
REMARK    1  A    between atoms: N1_2  and  C3_4 
REMARK    2  A    between atoms: C8_9  and  N2_10 
REMARK    3  A    between atoms: N2_10  and  C9_12 
REMARK    4  A    between atoms: C12_17  and  N4_18 
REMARK    5  A    between atoms: N4_18  and  C13_20 
REMARK    6  A    between atoms: C18_25  and  O1_26 
REMARK    7  A    between atoms: O1_26  and  C19_27 
ROOT
HETATM    1  C9  UNL     1      -6.075  -8.043 -18.530  1.00  0.00     0.122 A 
HETATM    2  C10 UNL     1      -5.537  -7.142 -19.421  1.00  0.00     0.066 A 
HETATM    3  C11 UNL     1      -5.786  -5.777 -19.267  1.00  0.00     0.110 A 
HETATM    4  N3  UNL     1      -6.556  -5.381 -18.238  1.00  0.00    -0.202 N 
ATOM      5  H3  UNL     1      -6.741  -4.385 -18.120  1.00  0.00     0.183 HD
HETATM    6  C12 UNL     1      -7.091  -6.247 -17.356  1.00  0.00     0.684 A 
HETATM    7  N5  UNL     1      -6.837  -7.556 -17.526  1.00  0.00    -0.176 N 
ATOM      8  H5  UNL     1      -7.240  -8.217 -16.861  1.00  0.00     0.186 HD
ENDROOT
BRANCH   6   9
HETATM    9  N4  UNL     1      -7.809  -5.799 -16.410  1.00  0.00    -0.189 N 
ATOM     10  H4  UNL     1      -8.742  -5.469 -16.658  1.00  0.00     0.184 HD
BRANCH   9  11
HETATM   11  C13 UNL     1      -7.451  -5.709 -15.060  1.00  0.00     0.082 A 
HETATM   12  C14 UNL     1      -6.473  -4.846 -14.654  1.00  0.00     0.033 A 
HETATM   13  C15 UNL     1      -6.121  -4.758 -13.328  1.00  0.00     0.002 A 
HETATM   14  C16 UNL     1      -6.759  -5.544 -12.406  1.00  0.00     0.003 A 
HETATM   15  C17 UNL     1      -7.741  -6.418 -12.771  1.00  0.00     0.039 A 
HETATM   16  C18 UNL     1      -8.078  -6.487 -14.125  1.00  0.00     0.105 A 
BRANCH  16  17
HETATM   17  O1  UNL     1      -9.086  -7.396 -14.443  1.00  0.00    -0.253 OA
BRANCH  17  18
HETATM   18  C19 UNL     1      -8.772  -8.790 -14.476  1.00  0.00     0.530 C 
HETATM   19  F1  UNL     1      -8.844  -9.359 -13.222  1.00  0.00    -0.144 F 
HETATM   20  F2  UNL     1      -7.498  -9.013 -14.950  1.00  0.00    -0.144 F 
HETATM   21  F3  UNL     1      -9.739  -9.394 -15.270  1.00  0.00    -0.144 F 
ENDBRANCH  17  18
ENDBRANCH  16  17
ENDBRANCH   9  11
ENDBRANCH   6   9
BRANCH   1  22
HETATM   22  N2  UNL     1      -5.893  -9.323 -18.600  1.00  0.00    -0.340 N 
ATOM     23  H2  UNL     1      -4.943  -9.676 -18.484  1.00  0.00     0.167 HD
BRANCH  22  24
HETATM   24  C8  UNL     1      -6.931 -10.267 -18.829  1.00  0.00     0.060 A 
HETATM   25  C3  UNL     1      -6.902 -11.008 -19.984  1.00  0.00     0.056 A 
HETATM   26  C4  UNL     1      -7.891 -11.947 -20.267  1.00  0.00     0.031 A 
HETATM   27  C5  UNL     1      -8.901 -12.104 -19.343  1.00  0.00     0.002 A 
HETATM   28  C6  UNL     1      -8.945 -11.370 -18.182  1.00  0.00     0.002 A 
HETATM   29  C7  UNL     1      -7.954 -10.453 -17.933  1.00  0.00     0.032 A 
BRANCH  25  30
HETATM   30  N1  UNL     1      -5.873 -10.871 -20.960  1.00  0.00    -0.388 N 
HETATM   31  C1  UNL     1      -4.652 -11.604 -20.880  1.00  0.00     0.149 C 
HETATM   32  C2  UNL     1      -6.136  -9.938 -22.047  1.00  0.00     0.149 C 
ENDBRANCH  25  30
ENDBRANCH  22  24
ENDBRANCH   1  22
TORSDOF 7
ENDMDL
MODEL 2
REMARK VINA RESULT: -8.361707584      1.407      6.037
REMARK  7 active torsions:
REMARK  status: ('A' for Active; 'I' for Inactive)
REMARK    1  A    between atoms: N1_2  and  C3_4 
REMARK    2  A    between atoms: C8_9  and  N2_10 
REMARK    3  A    between atoms: N2_10  and  C9_12 
REMARK    4  A    between atoms: C12_17  and  N4_18 
REMARK    5  A    between atoms: N4_18  and  C13_20 
REMARK    6  A    between atoms: C18_25  and  O1_26 
REMARK    7  A    between atoms: O1_26  and  C19_27 
ROOT
HETATM    1  C9  UNL     1      -6.623  -5.814 -17.831  1.00  0.00     0.122 A 
HETATM    2  C10 UNL     1      -5.840  -5.394 -18.883  1.00  0.00     0.066 A 
HETATM    3  C11 UNL     1      -5.150  -6.331 -19.655  1.00  0.00     0.110 A 
HETATM    4  N3  UNL     1      -5.276  -7.633 -19.342  1.00  0.00    -0.202 N 
ATOM      5  H3  UNL     1      -4.776  -8.323 -19.902  1.00  0.00     0.183 HD
HETATM    6  C12 UNL     1      -6.037  -8.063 -18.317  1.00  0.00     0.684 A 
HETATM    7  N5  UNL     1      -6.690  -7.141 -17.588  1.00  0.00    -0.176 N 
ATOM      8  H5  UNL     1      -7.268  -7.461 -16.810  1.00  0.00     0.186 HD
ENDROOT
BRANCH   6   9
HETATM    9  N4  UNL     1      -6.106  -9.308 -18.081  1.00  0.00    -0.189 N 
ATOM     10  H4  UNL     1      -5.280  -9.743 -17.668  1.00  0.00     0.184 HD
BRANCH   9  11
HETATM   11  C13 UNL     1      -7.199 -10.146 -18.328  1.00  0.00     0.082 A 
HETATM   12  C14 UNL     1      -7.121 -11.133 -19.270  1.00  0.00     0.033 A 
HETATM   13  C15 UNL     1      -8.195 -11.957 -19.513  1.00  0.00     0.002 A 
HETATM   14  C16 UNL     1      -9.354 -11.785 -18.802  1.00  0.00     0.003 A 
HETATM   15  C17 UNL     1      -9.471 -10.811 -17.854  1.00  0.00     0.039 A 
HETATM   16  C18 UNL     1      -8.364  -9.989 -17.628  1.00  0.00     0.105 A 
BRANCH  16  17
HETATM   17  O1  UNL     1      -8.538  -9.011 -16.649  1.00  0.00    -0.253 OA
BRANCH  17  18
HETATM   18  C19 UNL     1      -8.372  -9.374 -15.276  1.00  0.00     0.530 C 
HETATM   19  F1  UNL     1      -8.042 -10.705 -15.137  1.00  0.00    -0.144 F 
HETATM   20  F2  UNL     1      -9.524  -9.164 -14.551  1.00  0.00    -0.144 F 
HETATM   21  F3  UNL     1      -7.306  -8.623 -14.796  1.00  0.00    -0.144 F 
ENDBRANCH  17  18
ENDBRANCH  16  17
ENDBRANCH   9  11
ENDBRANCH   6   9
BRANCH   1  22
HETATM   22  N2  UNL     1      -7.294  -5.013 -17.067  1.00  0.00    -0.340 N 
ATOM     23  H2  UNL     1      -7.638  -4.143 -17.474  1.00  0.00     0.167 HD
BRANCH  22  24
HETATM   24  C8  UNL     1      -7.582  -5.267 -15.698  1.00  0.00     0.060 A 
HETATM   25  C3  UNL     1      -6.573  -5.129 -14.778  1.00  0.00     0.056 A 
HETATM   26  C4  UNL     1      -6.789  -5.366 -13.423  1.00  0.00     0.031 A 
HETATM   27  C5  UNL     1      -8.058  -5.745 -13.041  1.00  0.00     0.002 A 
HETATM   28  C6  UNL     1      -9.080  -5.889 -13.949  1.00  0.00     0.002 A 
HETATM   29  C7  UNL     1      -8.831  -5.647 -15.277  1.00  0.00     0.032 A 
BRANCH  25  30
HETATM   30  N1  UNL     1      -5.251  -4.738 -15.140  1.00  0.00    -0.388 N 
HETATM   31  C1  UNL     1      -4.894  -3.372 -15.341  1.00  0.00     0.149 C 
HETATM   32  C2  UNL     1      -4.280  -5.814 -15.293  1.00  0.00     0.149 C 
ENDBRANCH  25  30
ENDBRANCH  22  24
ENDBRANCH   1  22
TORSDOF 7
ENDMDL
MODEL 3
REMARK VINA RESULT: -8.174466789      1.035      1.165
REMARK  7 active torsions:
REMARK  status: ('A' for Active; 'I' for Inactive)
REMARK    1  A    between atoms: N1_2  and  C3_4 
REMARK    2  A    between atoms: C8_9  and  N2_10 
REMARK    3  A    between atoms: N2_10  and  C9_12 
REMARK    4  A    between atoms: C12_17  and  N4_18 
REMARK    5  A    between atoms: N4_18  and  C13_20 
REMARK    6  A    between atoms: C18_25  and  O1_26 
REMARK    7  A    between atoms: O1_26  and  C19_27 
ROOT
HETATM    1  C9  UNL     1      -6.093  -8.470 -18.661  1.00  0.00     0.122 A 
HETATM    2  C10 UNL     1      -6.578  -7.396 -19.373  1.00  0.00     0.066 A 
HETATM    3  C11 UNL     1      -6.826  -6.185 -18.723  1.00  0.00     0.110 A 
HETATM    4  N3  UNL     1      -6.579  -6.107 -17.403  1.00  0.00    -0.202 N 
ATOM      5  H3  UNL     1      -6.758  -5.225 -16.923  1.00  0.00     0.183 HD
HETATM    6  C12 UNL     1      -6.106  -7.147 -16.691  1.00  0.00     0.684 A 
HETATM    7  N5  UNL     1      -5.875  -8.302 -17.339  1.00  0.00    -0.176 N 
ATOM      8  H5  UNL     1      -5.516  -9.093 -16.804  1.00  0.00     0.186 HD
ENDROOT
BRANCH   6   9
HETATM    9  N4  UNL     1      -5.898  -6.998 -15.447  1.00  0.00    -0.189 N 
ATOM     10  H4  UNL     1      -4.949  -7.176 -15.116  1.00  0.00     0.184 HD
BRANCH   9  11
HETATM   11  C13 UNL     1      -6.837  -6.616 -14.483  1.00  0.00     0.082 A 
HETATM   12  C14 UNL     1      -6.492  -5.760 -13.475  1.00  0.00     0.033 A 
HETATM   13  C15 UNL     1      -7.415  -5.384 -12.528  1.00  0.00     0.002 A 
HETATM   14  C16 UNL     1      -8.692  -5.873 -12.597  1.00  0.00     0.003 A 
HETATM   15  C17 UNL     1      -9.076  -6.729 -13.587  1.00  0.00     0.039 A 
HETATM   16  C18 UNL     1      -8.118  -7.095 -14.536  1.00  0.00     0.105 A 
BRANCH  16  17
HETATM   17  O1  UNL     1      -8.562  -7.971 -15.525  1.00  0.00    -0.253 OA
BRANCH  17  18
HETATM   18  C19 UNL     1      -8.704  -9.358 -15.203  1.00  0.00     0.530 C 
HETATM   19  F1  UNL     1      -9.048  -9.541 -13.882  1.00  0.00    -0.144 F 
HETATM   20  F2  UNL     1      -7.534 -10.052 -15.419  1.00  0.00    -0.144 F 
HETATM   21  F3  UNL     1      -9.749  -9.837 -15.983  1.00  0.00    -0.144 F 
ENDBRANCH  17  18
ENDBRANCH  16  17
ENDBRANCH   9  11
ENDBRANCH   6   9
BRANCH   1  22
HETATM   22  N2  UNL     1      -5.836  -9.625 -19.186  1.00  0.00    -0.340 N 
ATOM     23  H2  UNL     1      -4.868  -9.832 -19.434  1.00  0.00     0.167 HD
BRANCH  22  24
HETATM   24  C8  UNL     1      -6.816 -10.624 -19.440  1.00  0.00     0.060 A 
HETATM   25  C3  UNL     1      -6.678 -11.412 -20.556  1.00  0.00     0.056 A 
HETATM   26  C4  UNL     1      -7.604 -12.405 -20.861  1.00  0.00     0.031 A 
HETATM   27  C5  UNL     1      -8.667 -12.568 -19.999  1.00  0.00     0.002 A 
HETATM   28  C6  UNL     1      -8.822 -11.787 -18.878  1.00  0.00     0.002 A 
HETATM   29  C7  UNL     1      -7.889 -10.818 -18.607  1.00  0.00     0.032 A 
BRANCH  25  30
HETATM   30  N1  UNL     1      -5.591 -11.270 -21.467  1.00  0.00    -0.388 N 
HETATM   31  C1  UNL     1      -4.360 -11.970 -21.291  1.00  0.00     0.149 C 
HETATM   32  C2  UNL     1      -5.806 -10.369 -22.591  1.00  0.00     0.149 C 
ENDBRANCH  25  30
ENDBRANCH  22  24
ENDBRANCH   1  22
TORSDOF 7
ENDMDL
MODEL 4
REMARK VINA RESULT: -8.150621329      2.840      7.239
REMARK  7 active torsions:
REMARK  status: ('A' for Active; 'I' for Inactive)
REMARK    1  A    between atoms: N1_2  and  C3_4 
REMARK    2  A    between atoms: C8_9  and  N2_10 
REMARK    3  A    between atoms: N2_10  and  C9_12 
REMARK    4  A    between atoms: C12_17  and  N4_18 
REMARK    5  A    between atoms: N4_18  and  C13_20 
REMARK    6  A    between atoms: C18_25  and  O1_26 
REMARK    7  A    between atoms: O1_26  and  C19_27 
ROOT
HETATM    1  C9  UNL     1      -8.791  -9.453 -15.828  1.00  0.00     0.122 A 
HETATM    2  C10 UNL     1      -9.471 -10.508 -15.263  1.00  0.00     0.066 A 
HETATM    3  C11 UNL     1      -9.926 -11.554 -16.068  1.00  0.00     0.110 A 
HETATM    4  N3  UNL     1      -9.679 -11.496 -17.389  1.00  0.00    -0.202 N 
ATOM      5  H3  UNL     1     -10.007 -12.258 -17.983  1.00  0.00     0.183 HD
HETATM    6  C12 UNL     1      -9.015 -10.472 -17.959  1.00  0.00     0.684 A 
HETATM    7  N5  UNL     1      -8.588  -9.477 -17.163  1.00  0.00    -0.176 N 
ATOM      8  H5  UNL     1      -8.084  -8.699 -17.590  1.00  0.00     0.186 HD
ENDROOT
BRANCH   6   9
HETATM    9  N4  UNL     1      -8.820 -10.487 -19.214  1.00  0.00    -0.189 N 
ATOM     10  H4  UNL     1      -9.506  -9.998 -19.790  1.00  0.00     0.184 HD
BRANCH   9  11
HETATM   11  C13 UNL     1      -7.760 -11.104 -19.888  1.00  0.00     0.082 A 
HETATM   12  C14 UNL     1      -7.968 -12.239 -20.620  1.00  0.00     0.033 A 
HETATM   13  C15 UNL     1      -6.926 -12.846 -21.283  1.00  0.00     0.002 A 
HETATM   14  C16 UNL     1      -5.670 -12.304 -21.208  1.00  0.00     0.003 A 
HETATM   15  C17 UNL     1      -5.423 -11.172 -20.488  1.00  0.00     0.039 A 
HETATM   16  C18 UNL     1      -6.499 -10.577 -19.825  1.00  0.00     0.105 A 
BRANCH  16  17
HETATM   17  O1  UNL     1      -6.192  -9.423 -19.104  1.00  0.00    -0.253 OA
BRANCH  17  18
HETATM   18  C19 UNL     1      -6.316  -8.154 -19.751  1.00  0.00     0.530 C 
HETATM   19  F1  UNL     1      -6.996  -7.247 -18.967  1.00  0.00    -0.144 F 
HETATM   20  F2  UNL     1      -7.001  -8.255 -20.942  1.00  0.00    -0.144 F 
HETATM   21  F3  UNL     1      -5.025  -7.674 -19.930  1.00  0.00    -0.144 F 
ENDBRANCH  17  18
ENDBRANCH  16  17
ENDBRANCH   9  11
ENDBRANCH   6   9
BRANCH   1  22
HETATM   22  N2  UNL     1      -8.336  -8.445 -15.154  1.00  0.00    -0.340 N 
ATOM     23  H2  UNL     1      -8.904  -8.090 -14.385  1.00  0.00     0.167 HD
BRANCH  22  24
HETATM   24  C8  UNL     1      -7.095  -7.802 -15.417  1.00  0.00     0.060 A 
HETATM   25  C3  UNL     1      -6.976  -6.464 -15.136  1.00  0.00     0.056 A 
HETATM   26  C4  UNL     1      -5.789  -5.776 -15.373  1.00  0.00     0.031 A 
HETATM   27  C5  UNL     1      -4.736  -6.491 -15.901  1.00  0.00     0.002 A 
HETATM   28  C6  UNL     1      -4.838  -7.831 -16.189  1.00  0.00     0.002 A 
HETATM   29  C7  UNL     1      -6.024  -8.479 -15.942  1.00  0.00     0.032 A 
BRANCH  25  30
HETATM   30  N1  UNL     1      -8.045  -5.695 -14.589  1.00  0.00    -0.388 N 
HETATM   31  C1  UNL     1      -8.332  -5.686 -13.191  1.00  0.00     0.149 C 
HETATM   32  C2  UNL     1      -8.830  -4.917 -15.537  1.00  0.00     0.149 C 
ENDBRANCH  25  30
ENDBRANCH  22  24
ENDBRANCH   1  22
TORSDOF 7
ENDMDL
MODEL 5
REMARK VINA RESULT: -8.130905516      1.914      6.248
REMARK  7 active torsions:
REMARK  status: ('A' for Active; 'I' for Inactive)
REMARK    1  A    between atoms: N1_2  and  C3_4 
REMARK    2  A    between atoms: C8_9  and  N2_10 
REMARK    3  A    between atoms: N2_10  and  C9_12 
REMARK    4  A    between atoms: C12_17  and  N4_18 
REMARK    5  A    between atoms: N4_18  and  C13_20 
REMARK    6  A    between atoms: C18_25  and  O1_26 
REMARK    7  A    between atoms: O1_26  and  C19_27 
ROOT
HETATM    1  C9  UNL     1      -5.713  -7.343 -16.931  1.00  0.00     0.122 A 
HETATM    2  C10 UNL     1      -4.699  -6.732 -17.635  1.00  0.00     0.066 A 
HETATM    3  C11 UNL     1      -4.697  -6.774 -19.031  1.00  0.00     0.110 A 
HETATM    4  N3  UNL     1      -5.701  -7.419 -19.651  1.00  0.00    -0.202 N 
ATOM      5  H3  UNL     1      -5.705  -7.453 -20.671  1.00  0.00     0.183 HD
HETATM    6  C12 UNL     1      -6.700  -8.023 -18.980  1.00  0.00     0.684 A 
HETATM    7  N5  UNL     1      -6.680  -7.969 -17.637  1.00  0.00    -0.176 N 
ATOM      8  H5  UNL     1      -7.435  -8.424 -17.123  1.00  0.00     0.186 HD
ENDROOT
BRANCH   6   9
HETATM    9  N4  UNL     1      -7.614  -8.614 -19.635  1.00  0.00    -0.189 N 
ATOM     10  H4  UNL     1      -8.332  -8.023 -20.053  1.00  0.00     0.184 HD
BRANCH   9  11
HETATM   11  C13 UNL     1      -7.735  -9.992 -19.841  1.00  0.00     0.082 A 
HETATM   12  C14 UNL     1      -7.348 -10.557 -21.023  1.00  0.00     0.033 A 
HETATM   13  C15 UNL     1      -7.467 -11.912 -21.226  1.00  0.00     0.002 A 
HETATM   14  C16 UNL     1      -7.980 -12.702 -20.231  1.00  0.00     0.003 A 
HETATM   15  C17 UNL     1      -8.378 -12.176 -19.036  1.00  0.00     0.039 A 
HETATM   16  C18 UNL     1      -8.245 -10.797 -18.858  1.00  0.00     0.105 A 
BRANCH  16  17
HETATM   17  O1  UNL     1      -8.666 -10.312 -17.620  1.00  0.00    -0.253 OA
BRANCH  17  18
HETATM   18  C19 UNL     1     -10.011 -10.564 -17.204  1.00  0.00     0.530 C 
HETATM   19  F1  UNL     1     -10.345  -9.826 -16.088  1.00  0.00    -0.144 F 
HETATM   20  F2  UNL     1     -10.206 -11.890 -16.888  1.00  0.00    -0.144 F 
HETATM   21  F3  UNL     1     -10.830 -10.148 -18.245  1.00  0.00    -0.144 F 
ENDBRANCH  17  18
ENDBRANCH  16  17
ENDBRANCH   9  11
ENDBRANCH   6   9
BRANCH   1  22
HETATM   22  N2  UNL     1      -5.790  -7.350 -15.639  1.00  0.00    -0.340 N 
ATOM     23  H2  UNL     1      -4.925  -7.461 -15.110  1.00  0.00     0.167 HD
BRANCH  22  24
HETATM   24  C8  UNL     1      -7.003  -7.213 -14.910  1.00  0.00     0.060 A 
HETATM   25  C3  UNL     1      -7.439  -5.951 -14.591  1.00  0.00     0.056 A 
HETATM   26  C4  UNL     1      -8.617  -5.750 -13.876  1.00  0.00     0.031 A 
HETATM   27  C5  UNL     1      -9.331  -6.868 -13.503  1.00  0.00     0.002 A 
HETATM   28  C6  UNL     1      -8.909  -8.139 -13.814  1.00  0.00     0.002 A 
HETATM   29  C7  UNL     1      -7.743  -8.301 -14.520  1.00  0.00     0.032 A 
BRANCH  25  30
HETATM   30  N1  UNL     1      -6.725  -4.775 -14.962  1.00  0.00    -0.388 N 
HETATM   31  C1  UNL     1      -5.567  -4.337 -14.253  1.00  0.00     0.149 C 
HETATM   32  C2  UNL     1      -7.244  -4.041 -16.109  1.00  0.00     0.149 C 
ENDBRANCH  25  30
ENDBRANCH  22  24
ENDBRANCH   1  22
TORSDOF 7
ENDMDL
