MODEL 1
REMARK VINA RESULT: -6.050340130      0.000      0.000
REMARK  2 active torsions:
REMARK  status: ('A' for Active; 'I' for Inactive)
REMARK    1  A    between atoms: C2_2  and  C3_3 
REMARK    2  A    between atoms: C3_3  and  C4_4 
ROOT
HETATM    1  C4  UNL     1      -4.211  -4.399  15.947  1.00  0.00     0.197 C 
HETATM    2  C5  UNL     1      -4.387  -2.960  16.394  1.00  0.00     0.062 C 
HETATM    3  C6  UNL     1      -3.118  -2.755  15.622  1.00  0.00     0.242 C 
HETATM    4  N1  UNL     1      -2.825  -4.154  15.879  1.00  0.00    -0.037 N 
HETATM    5  C7  UNL     1      -2.074  -4.677  14.756  1.00  0.00     0.267 C 
HETATM    6  C8  UNL     1      -0.689  -4.187  15.115  1.00  0.00     0.262 C 
HETATM    7  N2  UNL     1      -0.632  -4.242  16.560  1.00  0.00    -0.049 N 
ATOM      8  H21 UNL     1      -0.151  -3.443  16.972  1.00  0.00     0.279 HD
ATOM      9  H22 UNL     1      -0.004  -4.967  16.908  1.00  0.00     0.279 HD
HETATM   10  C9  UNL     1      -2.007  -4.394  17.042  1.00  0.00     0.468 C 
ENDROOT
BRANCH   1  11
HETATM   11  C3  UNL     1      -4.622  -5.402  16.992  1.00  0.00     0.060 C 
BRANCH  11  12
HETATM   12  C2  UNL     1      -6.068  -5.700  16.939  1.00  0.00    -0.035 C 
HETATM   13  C1  UNL     1      -6.579  -6.661  17.677  1.00  0.00     0.007 C 
ENDBRANCH  11  12
ENDBRANCH   1  11
TORSDOF 2
ENDMDL
MODEL 2
REMARK VINA RESULT: -5.560778560      3.052      5.754
REMARK  2 active torsions:
REMARK  status: ('A' for Active; 'I' for Inactive)
REMARK    1  A    between atoms: C2_2  and  C3_3 
REMARK    2  A    between atoms: C3_3  and  C4_4 
ROOT
HETATM    1  C4  UNL     1      -5.742  -6.218  16.716  1.00  0.00     0.197 C 
HETATM    2  C5  UNL     1      -5.127  -7.007  17.856  1.00  0.00     0.062 C 
HETATM    3  C6  UNL     1      -6.368  -7.836  17.712  1.00  0.00     0.242 C 
HETATM    4  N1  UNL     1      -7.005  -6.651  17.167  1.00  0.00    -0.037 N 
HETATM    5  C7  UNL     1      -7.991  -7.070  16.193  1.00  0.00     0.267 C 
HETATM    6  C8  UNL     1      -9.139  -7.421  17.115  1.00  0.00     0.262 C 
HETATM    7  N2  UNL     1      -9.046  -6.478  18.207  1.00  0.00    -0.049 N 
ATOM      8  H21 UNL     1      -9.238  -6.898  19.116  1.00  0.00     0.279 HD
ATOM      9  H22 UNL     1      -9.807  -5.798  18.213  1.00  0.00     0.279 HD
HETATM   10  C9  UNL     1      -7.722  -5.855  18.132  1.00  0.00     0.468 C 
ENDROOT
BRANCH   1  11
HETATM   11  C3  UNL     1      -5.510  -4.734  16.826  1.00  0.00     0.060 C 
BRANCH  11  12
HETATM   12  C2  UNL     1      -4.301  -4.304  16.095  1.00  0.00    -0.035 C 
HETATM   13  C1  UNL     1      -3.941  -3.039  16.085  1.00  0.00     0.007 C 
ENDBRANCH  11  12
ENDBRANCH   1  11
TORSDOF 2
ENDMDL
MODEL 3
REMARK VINA RESULT: -5.535598555      1.195      1.319
REMARK  2 active torsions:
REMARK  status: ('A' for Active; 'I' for Inactive)
REMARK    1  A    between atoms: C2_2  and  C3_3 
REMARK    2  A    between atoms: C3_3  and  C4_4 
ROOT
HETATM    1  C4  UNL     1      -4.257  -5.544  16.551  1.00  0.00     0.197 C 
HETATM    2  C5  UNL     1      -4.855  -4.169  16.785  1.00  0.00     0.062 C 
HETATM    3  C6  UNL     1      -3.507  -3.703  16.324  1.00  0.00     0.242 C 
HETATM    4  N1  UNL     1      -2.990  -4.976  16.792  1.00  0.00    -0.037 N 
HETATM    5  C7  UNL     1      -1.878  -5.357  15.946  1.00  0.00     0.267 C 
HETATM    6  C8  UNL     1      -0.776  -4.531  16.573  1.00  0.00     0.262 C 
HETATM    7  N2  UNL     1      -1.085  -4.501  17.986  1.00  0.00    -0.049 N 
ATOM      8  H21 UNL     1      -0.915  -3.591  18.413  1.00  0.00     0.279 HD
ATOM      9  H22 UNL     1      -0.424  -5.036  18.551  1.00  0.00     0.279 HD
HETATM   10  C9  UNL     1      -2.469  -4.956  18.137  1.00  0.00     0.468 C 
ENDROOT
BRANCH   1  11
HETATM   11  C3  UNL     1      -4.693  -6.564  17.569  1.00  0.00     0.060 C 
BRANCH  11  12
HETATM   12  C2  UNL     1      -6.162  -6.607  17.720  1.00  0.00    -0.035 C 
HETATM   13  C1  UNL     1      -6.833  -7.695  17.415  1.00  0.00     0.007 C 
ENDBRANCH  11  12
ENDBRANCH   1  11
TORSDOF 2
ENDMDL
MODEL 4
REMARK VINA RESULT: -5.156470437      4.871      7.396
REMARK  2 active torsions:
REMARK  status: ('A' for Active; 'I' for Inactive)
REMARK    1  A    between atoms: C2_2  and  C3_3 
REMARK    2  A    between atoms: C3_3  and  C4_4 
ROOT
HETATM    1  C4  UNL     1      -8.083  -7.596  16.461  1.00  0.00     0.197 C 
HETATM    2  C5  UNL     1      -8.147  -8.899  17.235  1.00  0.00     0.062 C 
HETATM    3  C6  UNL     1      -9.624  -8.738  17.032  1.00  0.00     0.242 C 
HETATM    4  N1  UNL     1      -9.378  -7.310  16.938  1.00  0.00    -0.037 N 
HETATM    5  C7  UNL     1     -10.350  -6.739  16.028  1.00  0.00     0.267 C 
HETATM    6  C8  UNL     1     -11.535  -6.606  16.960  1.00  0.00     0.262 C 
HETATM    7  N2  UNL     1     -10.965  -6.293  18.252  1.00  0.00    -0.049 N 
ATOM      8  H21 UNL     1     -11.432  -6.772  19.022  1.00  0.00     0.279 HD
ATOM      9  H22 UNL     1     -11.160  -5.338  18.554  1.00  0.00     0.279 HD
HETATM   10  C9  UNL     1      -9.532  -6.590  18.177  1.00  0.00     0.468 C 
ENDROOT
BRANCH   1  11
HETATM   11  C3  UNL     1      -7.011  -6.661  16.955  1.00  0.00     0.060 C 
BRANCH  11  12
HETATM   12  C2  UNL     1      -5.929  -7.379  17.661  1.00  0.00    -0.035 C 
HETATM   13  C1  UNL     1      -4.731  -6.847  17.762  1.00  0.00     0.007 C 
ENDBRANCH  11  12
ENDBRANCH   1  11
TORSDOF 2
ENDMDL
MODEL 5
REMARK VINA RESULT: -5.077369532      1.364      2.385
REMARK  2 active torsions:
REMARK  status: ('A' for Active; 'I' for Inactive)
REMARK    1  A    between atoms: C2_2  and  C3_3 
REMARK    2  A    between atoms: C3_3  and  C4_4 
ROOT
HETATM    1  C4  UNL     1      -3.827  -5.705  18.041  1.00  0.00     0.197 C 
HETATM    2  C5  UNL     1      -2.505  -5.683  18.785  1.00  0.00     0.062 C 
HETATM    3  C6  UNL     1      -2.340  -4.367  18.086  1.00  0.00     0.242 C 
HETATM    4  N1  UNL     1      -3.230  -4.885  17.062  1.00  0.00    -0.037 N 
HETATM    5  C7  UNL     1      -3.990  -3.780  16.515  1.00  0.00     0.267 C 
HETATM    6  C8  UNL     1      -2.978  -3.225  15.537  1.00  0.00     0.262 C 
HETATM    7  N2  UNL     1      -2.259  -4.379  15.043  1.00  0.00    -0.049 N 
ATOM      8  H21 UNL     1      -1.258  -4.212  14.940  1.00  0.00     0.279 HD
ATOM      9  H22 UNL     1      -2.459  -4.585  14.064  1.00  0.00     0.279 HD
HETATM   10  C9  UNL     1      -2.564  -5.496  15.939  1.00  0.00     0.468 C 
ENDROOT
BRANCH   1  11
HETATM   11  C3  UNL     1      -4.216  -7.078  17.560  1.00  0.00     0.060 C 
BRANCH  11  12
HETATM   12  C2  UNL     1      -5.675  -7.302  17.639  1.00  0.00    -0.035 C 
HETATM   13  C1  UNL     1      -6.501  -6.285  17.744  1.00  0.00     0.007 C 
ENDBRANCH  11  12
ENDBRANCH   1  11
TORSDOF 2
ENDMDL
