MODEL 1
REMARK VINA RESULT: -6.226612654      0.000      0.000
REMARK  4 active torsions:
REMARK  status: ('A' for Active; 'I' for Inactive)
REMARK    1  A    between atoms: O1_1  and  N1_3 
REMARK    2  A    between atoms: C1_5  and  O2_6 
REMARK    3  A    between atoms: C1_5  and  C2_8 
REMARK    4  A    between atoms: C3_9  and  C4_10 
ROOT
HETATM    1  C2  UNL     1      11.815  26.953 -42.786  1.00  0.00     0.004 C 
HETATM    2  C3  UNL     1      12.963  26.562 -42.362  1.00  0.00     0.020 C 
HETATM    3  C5  UNL     1      13.515  27.050 -41.032  1.00  0.00     0.192 C 
HETATM    4  C6  UNL     1      12.455  27.205 -39.998  1.00  0.00     0.074 C 
HETATM    5  C7  UNL     1      11.049  27.194 -40.523  1.00  0.00     0.010 C 
HETATM    6  C8  UNL     1      11.081  27.922 -41.861  1.00  0.00     0.044 C 
HETATM    7  O3  UNL     1      14.436  26.126 -40.555  1.00  0.00    -0.349 OA
HETATM    8  C9  UNL     1      15.470  26.856 -39.983  1.00  0.00     0.198 C 
HETATM    9  C10 UNL     1      15.057  28.292 -40.109  1.00  0.00     0.198 C 
HETATM   10  O4  UNL     1      14.177  28.260 -41.186  1.00  0.00    -0.349 OA
ENDROOT
BRANCH   1  11
HETATM   11  C1  UNL     1      11.166  26.583 -44.009  1.00  0.00     0.166 C 
HETATM   12  N1  UNL     1      11.381  26.940 -45.195  1.00  0.00    -0.247 N 
ATOM     13  H1  UNL     1      12.135  27.603 -45.377  1.00  0.00     0.196 HD
BRANCH  12  14
HETATM   14  O1  UNL     1      10.650  26.477 -46.243  1.00  0.00    -0.288 OA
ATOM     15  H1  UNL     1      10.743  26.822 -47.124  1.00  0.00     0.244 HD
ENDBRANCH  12  14
BRANCH  11  16
HETATM   16  O2  UNL     1      10.078  25.647 -43.888  1.00  0.00    -0.344 OA
ATOM     17  H2  UNL     1       9.384  25.951 -43.315  1.00  0.00     0.219 HD
ENDBRANCH  11  16
ENDBRANCH   1  11
BRANCH   2  18
HETATM   18  C4  UNL     1      13.831  25.645 -43.082  1.00  0.00     0.262 C 
HETATM   19  F1  UNL     1      14.956  26.282 -43.608  1.00  0.00    -0.251 F 
ENDBRANCH   2  18
TORSDOF 4
ENDMDL
MODEL 2
REMARK VINA RESULT: -6.060851259      2.693      4.278
REMARK  4 active torsions:
REMARK  status: ('A' for Active; 'I' for Inactive)
REMARK    1  A    between atoms: O1_1  and  N1_3 
REMARK    2  A    between atoms: C1_5  and  O2_6 
REMARK    3  A    between atoms: C1_5  and  C2_8 
REMARK    4  A    between atoms: C3_9  and  C4_10 
ROOT
HETATM    1  C2  UNL     1      12.590  26.588 -42.988  1.00  0.00     0.004 C 
HETATM    2  C3  UNL     1      11.987  27.141 -41.998  1.00  0.00     0.020 C 
HETATM    3  C5  UNL     1      10.614  27.772 -42.170  1.00  0.00     0.192 C 
HETATM    4  C6  UNL     1       9.753  27.011 -43.118  1.00  0.00     0.074 C 
HETATM    5  C7  UNL     1      10.476  26.006 -43.966  1.00  0.00     0.010 C 
HETATM    6  C8  UNL     1      11.825  26.622 -44.310  1.00  0.00     0.044 C 
HETATM    7  O3  UNL     1       9.966  27.797 -40.941  1.00  0.00    -0.349 OA
HETATM    8  C9  UNL     1       9.284  29.004 -40.876  1.00  0.00     0.198 C 
HETATM    9  C10 UNL     1       9.533  29.670 -42.197  1.00  0.00     0.198 C 
HETATM   10  O4  UNL     1      10.724  29.083 -42.612  1.00  0.00    -0.349 OA
ENDROOT
BRANCH   1  11
HETATM   11  C1  UNL     1      13.877  25.956 -42.982  1.00  0.00     0.166 C 
HETATM   12  N1  UNL     1      14.767  25.914 -42.096  1.00  0.00    -0.247 N 
ATOM     13  H1  UNL     1      14.599  26.391 -41.210  1.00  0.00     0.196 HD
BRANCH  12  14
HETATM   14  O1  UNL     1      15.944  25.256 -42.271  1.00  0.00    -0.288 OA
ATOM     15  H1  UNL     1      16.685  25.645 -42.722  1.00  0.00     0.244 HD
ENDBRANCH  12  14
BRANCH  11  16
HETATM   16  O2  UNL     1      14.236  25.245 -44.181  1.00  0.00    -0.344 OA
ATOM     17  H2  UNL     1      13.674  25.448 -44.919  1.00  0.00     0.219 HD
ENDBRANCH  11  16
ENDBRANCH   1  11
BRANCH   2  18
HETATM   18  C4  UNL     1      12.531  27.225 -40.653  1.00  0.00     0.262 C 
HETATM   19  F1  UNL     1      12.970  28.512 -40.337  1.00  0.00    -0.251 F 
ENDBRANCH   2  18
TORSDOF 4
ENDMDL
MODEL 3
REMARK VINA RESULT: -5.942385800      2.197      3.360
REMARK  4 active torsions:
REMARK  status: ('A' for Active; 'I' for Inactive)
REMARK    1  A    between atoms: O1_1  and  N1_3 
REMARK    2  A    between atoms: C1_5  and  O2_6 
REMARK    3  A    between atoms: C1_5  and  C2_8 
REMARK    4  A    between atoms: C3_9  and  C4_10 
ROOT
HETATM    1  C2  UNL     1      13.058  26.487 -42.643  1.00  0.00     0.004 C 
HETATM    2  C3  UNL     1      12.033  27.174 -42.285  1.00  0.00     0.020 C 
HETATM    3  C5  UNL     1      11.887  27.678 -40.858  1.00  0.00     0.192 C 
HETATM    4  C6  UNL     1      13.189  28.090 -40.265  1.00  0.00     0.074 C 
HETATM    5  C7  UNL     1      14.404  27.626 -41.013  1.00  0.00     0.010 C 
HETATM    6  C8  UNL     1      14.081  26.233 -41.539  1.00  0.00     0.044 C 
HETATM    7  O3  UNL     1      11.052  28.789 -40.851  1.00  0.00    -0.349 OA
HETATM    8  C9  UNL     1      10.264  28.686 -39.712  1.00  0.00     0.198 C 
HETATM    9  C10 UNL     1      10.742  27.448 -39.012  1.00  0.00     0.198 C 
HETATM   10  O4  UNL     1      11.306  26.712 -40.049  1.00  0.00    -0.349 OA
ENDROOT
BRANCH   1  11
HETATM   11  C1  UNL     1      13.334  25.947 -43.942  1.00  0.00     0.166 C 
HETATM   12  N1  UNL     1      12.616  25.869 -44.969  1.00  0.00    -0.247 N 
ATOM     13  H1  UNL     1      11.665  26.238 -44.932  1.00  0.00     0.196 HD
BRANCH  12  14
HETATM   14  O1  UNL     1      13.055  25.312 -46.130  1.00  0.00    -0.288 OA
ATOM     15  H1  UNL     1      12.463  25.001 -46.805  1.00  0.00     0.244 HD
ENDBRANCH  12  14
BRANCH  11  16
HETATM   16  O2  UNL     1      14.650  25.391 -44.127  1.00  0.00    -0.344 OA
ATOM     17  H2  UNL     1      15.019  25.030 -43.329  1.00  0.00     0.219 HD
ENDBRANCH  11  16
ENDBRANCH   1  11
BRANCH   2  18
HETATM   18  C4  UNL     1      10.937  27.530 -43.172  1.00  0.00     0.262 C 
HETATM   19  F1  UNL     1      11.205  28.687 -43.907  1.00  0.00    -0.251 F 
ENDBRANCH   2  18
TORSDOF 4
ENDMDL
MODEL 4
REMARK VINA RESULT: -5.872100856      2.212      3.195
REMARK  4 active torsions:
REMARK  status: ('A' for Active; 'I' for Inactive)
REMARK    1  A    between atoms: O1_1  and  N1_3 
REMARK    2  A    between atoms: C1_5  and  O2_6 
REMARK    3  A    between atoms: C1_5  and  C2_8 
REMARK    4  A    between atoms: C3_9  and  C4_10 
ROOT
HETATM    1  C2  UNL     1      12.115  26.618 -43.578  1.00  0.00     0.004 C 
HETATM    2  C3  UNL     1      11.449  27.420 -42.827  1.00  0.00     0.020 C 
HETATM    3  C5  UNL     1      11.802  27.594 -41.358  1.00  0.00     0.192 C 
HETATM    4  C6  UNL     1      13.269  27.540 -41.115  1.00  0.00     0.074 C 
HETATM    5  C7  UNL     1      14.082  26.995 -42.253  1.00  0.00     0.010 C 
HETATM    6  C8  UNL     1      13.256  25.880 -42.879  1.00  0.00     0.044 C 
HETATM    7  O3  UNL     1      11.350  28.835 -40.926  1.00  0.00    -0.349 OA
HETATM    8  C9  UNL     1      10.862  28.653 -39.638  1.00  0.00     0.198 C 
HETATM    9  C10 UNL     1      11.116  27.209 -39.321  1.00  0.00     0.198 C 
HETATM   10  O4  UNL     1      11.178  26.627 -40.583  1.00  0.00    -0.349 OA
ENDROOT
BRANCH   1  11
HETATM   11  C1  UNL     1      11.905  26.350 -44.970  1.00  0.00     0.166 C 
HETATM   12  N1  UNL     1      10.984  26.709 -45.746  1.00  0.00    -0.247 N 
ATOM     13  H1  UNL     1      10.233  27.292 -45.377  1.00  0.00     0.196 HD
BRANCH  12  14
HETATM   14  O1  UNL     1      10.950  26.350 -47.057  1.00  0.00    -0.288 OA
ATOM     15  H1  UNL     1      11.446  25.616 -47.400  1.00  0.00     0.244 HD
ENDBRANCH  12  14
BRANCH  11  16
HETATM   16  O2  UNL     1      12.901  25.531 -45.612  1.00  0.00    -0.344 OA
ATOM     17  H2  UNL     1      13.085  24.727 -45.141  1.00  0.00     0.219 HD
ENDBRANCH  11  16
ENDBRANCH   1  11
BRANCH   2  18
HETATM   18  C4  UNL     1      10.324  28.220 -43.283  1.00  0.00     0.262 C 
HETATM   19  F1  UNL     1      10.722  29.469 -43.765  1.00  0.00    -0.251 F 
ENDBRANCH   2  18
TORSDOF 4
ENDMDL
MODEL 5
REMARK VINA RESULT: -5.849153609      0.943      1.061
REMARK  4 active torsions:
REMARK  status: ('A' for Active; 'I' for Inactive)
REMARK    1  A    between atoms: O1_1  and  N1_3 
REMARK    2  A    between atoms: C1_5  and  O2_6 
REMARK    3  A    between atoms: C1_5  and  C2_8 
REMARK    4  A    between atoms: C3_9  and  C4_10 
ROOT
HETATM    1  C2  UNL     1      11.586  27.160 -42.286  1.00  0.00     0.004 C 
HETATM    2  C3  UNL     1      12.780  26.751 -42.044  1.00  0.00     0.020 C 
HETATM    3  C5  UNL     1      13.488  27.121 -40.750  1.00  0.00     0.192 C 
HETATM    4  C6  UNL     1      12.561  27.161 -39.585  1.00  0.00     0.074 C 
HETATM    5  C7  UNL     1      11.102  27.176 -39.935  1.00  0.00     0.010 C 
HETATM    6  C8  UNL     1      10.967  28.026 -41.191  1.00  0.00     0.044 C 
HETATM    7  O3  UNL     1      14.465  26.172 -40.478  1.00  0.00    -0.349 OA
HETATM    8  C9  UNL     1      15.558  26.862 -39.969  1.00  0.00     0.198 C 
HETATM    9  C10 UNL     1      15.125  28.296 -39.908  1.00  0.00     0.198 C 
HETATM   10  O4  UNL     1      14.120  28.351 -40.868  1.00  0.00    -0.349 OA
ENDROOT
BRANCH   1  11
HETATM   11  C1  UNL     1      10.794  26.896 -43.451  1.00  0.00     0.166 C 
HETATM   12  N1  UNL     1       9.915  26.025 -43.666  1.00  0.00    -0.247 N 
ATOM     13  H1  UNL     1       9.683  25.368 -42.921  1.00  0.00     0.196 HD
BRANCH  12  14
HETATM   14  O1  UNL     1       9.259  25.924 -44.853  1.00  0.00    -0.288 OA
ATOM     15  H1  UNL     1       9.555  25.355 -45.555  1.00  0.00     0.244 HD
ENDBRANCH  12  14
BRANCH  11  16
HETATM   16  O2  UNL     1      11.026  27.758 -44.581  1.00  0.00    -0.344 OA
ATOM     17  H2  UNL     1      11.938  27.787 -44.848  1.00  0.00     0.219 HD
ENDBRANCH  11  16
ENDBRANCH   1  11
BRANCH   2  18
HETATM   18  C4  UNL     1      13.557  25.919 -42.947  1.00  0.00     0.262 C 
HETATM   19  F1  UNL     1      14.715  26.560 -43.394  1.00  0.00    -0.251 F 
ENDBRANCH   2  18
TORSDOF 4
ENDMDL
