MODEL 1
REMARK VINA RESULT: -6.782681316      0.000      0.000
REMARK  9 active torsions:
REMARK  status: ('A' for Active; 'I' for Inactive)
REMARK    1  A    between atoms: O1_2  and  C2_3 
REMARK    2  A    between atoms: C2_3  and  C3_4 
REMARK    3  A    between atoms: N1_5  and  O2_6 
REMARK    4  A    between atoms: N1_5  and  C4_8 
REMARK    5  A    between atoms: C4_8  and  C5_9 
REMARK    6  A    between atoms: C5_9  and  C6_10 
REMARK    7  A    between atoms: C6_10  and  N2_11 
REMARK    8  A    between atoms: N2_11  and  C7_13 
REMARK    9  A    between atoms: C8_16  and  N4_17 
ROOT
HETATM    1  C7  UNL     1      25.674 -10.323  14.045  1.00  0.00     0.129 A 
HETATM    2  N3  UNL     1      25.926  -9.076  13.660  1.00  0.00    -0.176 N 
ATOM      3  H3  UNL     1      25.392  -8.653  12.902  1.00  0.00     0.186 HD
HETATM    4  C8  UNL     1      26.903  -8.371  14.288  1.00  0.00     0.677 A 
HETATM    5  N5  UNL     1      27.637  -8.877  15.291  1.00  0.00    -0.191 N 
ATOM      6  H5  UNL     1      28.362  -8.317  15.739  1.00  0.00     0.184 HD
HETATM    7  C9  UNL     1      27.395 -10.142  15.696  1.00  0.00     0.063 A 
HETATM    8  C10 UNL     1      28.158 -10.670  16.740  1.00  0.00     0.031 A 
HETATM    9  C11 UNL     1      27.894 -11.961  17.135  1.00  0.00     0.002 A 
HETATM   10  C12 UNL     1      26.910 -12.708  16.521  1.00  0.00     0.001 A 
HETATM   11  C13 UNL     1      26.155 -12.195  15.492  1.00  0.00     0.017 A 
HETATM   12  C14 UNL     1      26.412 -10.890  15.084  1.00  0.00     0.035 A 
ENDROOT
BRANCH   1  13
HETATM   13  N2  UNL     1      24.771 -11.061  13.507  1.00  0.00    -0.375 N 
ATOM     14  H2  UNL     1      24.814 -12.078  13.561  1.00  0.00     0.161 HD
BRANCH  13  15
HETATM   15  C6  UNL     1      23.681 -10.383  12.816  1.00  0.00     0.123 C 
BRANCH  15  16
HETATM   16  C5  UNL     1      22.427 -10.637  13.568  1.00  0.00     0.042 C 
BRANCH  16  17
HETATM   17  C4  UNL     1      21.883  -9.449  14.279  1.00  0.00     0.156 C 
BRANCH  17  18
HETATM   18  N1  UNL     1      22.575  -9.226  15.516  1.00  0.00    -0.274 N 
HETATM   19  C3  UNL     1      22.391 -10.029  16.508  1.00  0.00     0.115 C 
BRANCH  19  20
HETATM   20  C2  UNL     1      23.095  -9.820  17.799  1.00  0.00     0.213 C 
BRANCH  20  21
HETATM   21  O1  UNL     1      24.446 -10.112  17.653  1.00  0.00    -0.391 OA
HETATM   22  C1  UNL     1      25.108 -10.074  18.863  1.00  0.00     0.201 C 
ENDBRANCH  20  21
ENDBRANCH  19  20
BRANCH  18  23
HETATM   23  O2  UNL     1      23.435  -8.180  15.686  1.00  0.00    -0.288 OA
ATOM     24  H2  UNL     1      23.487  -7.525  15.000  1.00  0.00     0.244 HD
ENDBRANCH  18  23
ENDBRANCH  17  18
ENDBRANCH  16  17
ENDBRANCH  15  16
ENDBRANCH  13  15
ENDBRANCH   1  13
BRANCH   4  25
HETATM   25  N4  UNL     1      27.076  -7.169  13.846  1.00  0.00    -0.234 N 
ATOM     26  H42 UNL     1      26.735  -6.872  12.932  1.00  0.00     0.174 HD
ATOM     27  H41 UNL     1      27.575  -6.546  14.481  1.00  0.00     0.174 HD
ENDBRANCH   4  25
TORSDOF 9
ENDMDL
MODEL 2
REMARK VINA RESULT: -6.652867230      1.875      2.868
REMARK  9 active torsions:
REMARK  status: ('A' for Active; 'I' for Inactive)
REMARK    1  A    between atoms: O1_2  and  C2_3 
REMARK    2  A    between atoms: C2_3  and  C3_4 
REMARK    3  A    between atoms: N1_5  and  O2_6 
REMARK    4  A    between atoms: N1_5  and  C4_8 
REMARK    5  A    between atoms: C4_8  and  C5_9 
REMARK    6  A    between atoms: C5_9  and  C6_10 
REMARK    7  A    between atoms: C6_10  and  N2_11 
REMARK    8  A    between atoms: N2_11  and  C7_13 
REMARK    9  A    between atoms: C8_16  and  N4_17 
ROOT
HETATM    1  C7  UNL     1      25.266  -9.356  15.646  1.00  0.00     0.129 A 
HETATM    2  N3  UNL     1      25.644  -8.279  14.964  1.00  0.00    -0.176 N 
ATOM      3  H3  UNL     1      25.005  -7.493  14.847  1.00  0.00     0.186 HD
HETATM    4  C8  UNL     1      26.890  -8.237  14.425  1.00  0.00     0.677 A 
HETATM    5  N5  UNL     1      27.772  -9.240  14.548  1.00  0.00    -0.191 N 
ATOM      6  H5  UNL     1      28.699  -9.173  14.129  1.00  0.00     0.184 HD
HETATM    7  C9  UNL     1      27.406 -10.342  15.237  1.00  0.00     0.063 A 
HETATM    8  C10 UNL     1      28.322 -11.388  15.366  1.00  0.00     0.031 A 
HETATM    9  C11 UNL     1      27.928 -12.500  16.073  1.00  0.00     0.002 A 
HETATM   10  C12 UNL     1      26.670 -12.580  16.634  1.00  0.00     0.001 A 
HETATM   11  C13 UNL     1      25.762 -11.554  16.511  1.00  0.00     0.017 A 
HETATM   12  C14 UNL     1      26.150 -10.423  15.799  1.00  0.00     0.035 A 
ENDROOT
BRANCH   1  13
HETATM   13  N2  UNL     1      24.108  -9.480  16.187  1.00  0.00    -0.375 N 
ATOM     14  H2  UNL     1      23.961 -10.090  16.991  1.00  0.00     0.161 HD
BRANCH  13  15
HETATM   15  C6  UNL     1      23.014  -8.713  15.606  1.00  0.00     0.123 C 
BRANCH  15  16
HETATM   16  C5  UNL     1      21.740  -9.216  16.177  1.00  0.00     0.042 C 
BRANCH  16  17
HETATM   17  C4  UNL     1      20.964 -10.102  15.268  1.00  0.00     0.156 C 
BRANCH  17  18
HETATM   18  N1  UNL     1      21.717 -11.273  14.920  1.00  0.00    -0.274 N 
HETATM   19  C3  UNL     1      21.892 -11.578  13.679  1.00  0.00     0.115 C 
BRANCH  19  20
HETATM   20  C2  UNL     1      22.666 -12.785  13.294  1.00  0.00     0.213 C 
BRANCH  20  21
HETATM   21  O1  UNL     1      24.028 -12.530  13.410  1.00  0.00    -0.391 OA
HETATM   22  C1  UNL     1      24.404 -11.427  12.670  1.00  0.00     0.201 C 
ENDBRANCH  20  21
ENDBRANCH  19  20
BRANCH  18  23
HETATM   23  O2  UNL     1      22.264 -12.090  15.867  1.00  0.00    -0.288 OA
ATOM     24  H2  UNL     1      23.140 -11.892  16.178  1.00  0.00     0.244 HD
ENDBRANCH  18  23
ENDBRANCH  17  18
ENDBRANCH  16  17
ENDBRANCH  15  16
ENDBRANCH  13  15
ENDBRANCH   1  13
BRANCH   4  25
HETATM   25  N4  UNL     1      27.167  -7.151  13.781  1.00  0.00    -0.234 N 
ATOM     26  H42 UNL     1      26.451  -6.609  13.296  1.00  0.00     0.174 HD
ATOM     27  H41 UNL     1      28.151  -6.882  13.797  1.00  0.00     0.174 HD
ENDBRANCH   4  25
TORSDOF 9
ENDMDL
MODEL 3
REMARK VINA RESULT: -6.602917338      1.694      2.862
REMARK  9 active torsions:
REMARK  status: ('A' for Active; 'I' for Inactive)
REMARK    1  A    between atoms: O1_2  and  C2_3 
REMARK    2  A    between atoms: C2_3  and  C3_4 
REMARK    3  A    between atoms: N1_5  and  O2_6 
REMARK    4  A    between atoms: N1_5  and  C4_8 
REMARK    5  A    between atoms: C4_8  and  C5_9 
REMARK    6  A    between atoms: C5_9  and  C6_10 
REMARK    7  A    between atoms: C6_10  and  N2_11 
REMARK    8  A    between atoms: N2_11  and  C7_13 
REMARK    9  A    between atoms: C8_16  and  N4_17 
ROOT
HETATM    1  C7  UNL     1      25.605  -9.518  16.297  1.00  0.00     0.129 A 
HETATM    2  N3  UNL     1      25.743  -8.490  15.467  1.00  0.00    -0.176 N 
ATOM      3  H3  UNL     1      25.085  -7.711  15.499  1.00  0.00     0.186 HD
HETATM    4  C8  UNL     1      26.768  -8.486  14.576  1.00  0.00     0.677 A 
HETATM    5  N5  UNL     1      27.662  -9.483  14.490  1.00  0.00    -0.191 N 
ATOM      6  H5  UNL     1      28.419  -9.445  13.808  1.00  0.00     0.184 HD
HETATM    7  C9  UNL     1      27.539 -10.536  15.325  1.00  0.00     0.063 A 
HETATM    8  C10 UNL     1      28.469 -11.575  15.238  1.00  0.00     0.031 A 
HETATM    9  C11 UNL     1      28.324 -12.637  16.099  1.00  0.00     0.002 A 
HETATM   10  C12 UNL     1      27.295 -12.677  17.017  1.00  0.00     0.001 A 
HETATM   11  C13 UNL     1      26.375 -11.658  17.109  1.00  0.00     0.017 A 
HETATM   12  C14 UNL     1      26.512 -10.577  16.244  1.00  0.00     0.035 A 
ENDROOT
BRANCH   1  13
HETATM   13  N2  UNL     1      24.667  -9.603  17.169  1.00  0.00    -0.375 N 
ATOM     14  H2  UNL     1      24.772  -9.207  18.103  1.00  0.00     0.161 HD
BRANCH  13  15
HETATM   15  C6  UNL     1      23.445 -10.291  16.769  1.00  0.00     0.123 C 
BRANCH  15  16
HETATM   16  C5  UNL     1      22.328  -9.315  16.815  1.00  0.00     0.042 C 
BRANCH  16  17
HETATM   17  C4  UNL     1      21.559  -9.198  15.547  1.00  0.00     0.156 C 
BRANCH  17  18
HETATM   18  N1  UNL     1      22.422  -8.871  14.448  1.00  0.00    -0.274 N 
HETATM   19  C3  UNL     1      22.475  -9.651  13.421  1.00  0.00     0.115 C 
BRANCH  19  20
HETATM   20  C2  UNL     1      23.360  -9.336  12.271  1.00  0.00     0.213 C 
BRANCH  20  21
HETATM   21  O1  UNL     1      24.664  -9.722  12.559  1.00  0.00    -0.391 OA
HETATM   22  C1  UNL     1      24.732 -11.049  12.931  1.00  0.00     0.201 C 
ENDBRANCH  20  21
ENDBRANCH  19  20
BRANCH  18  23
HETATM   23  O2  UNL     1      23.201  -7.751  14.446  1.00  0.00    -0.288 OA
ATOM     24  H2  UNL     1      23.636  -7.509  13.637  1.00  0.00     0.244 HD
ENDBRANCH  18  23
ENDBRANCH  17  18
ENDBRANCH  16  17
ENDBRANCH  15  16
ENDBRANCH  13  15
ENDBRANCH   1  13
BRANCH   4  25
HETATM   25  N4  UNL     1      26.820  -7.446  13.811  1.00  0.00    -0.234 N 
ATOM     26  H42 UNL     1      27.379  -6.625  14.047  1.00  0.00     0.174 HD
ATOM     27  H41 UNL     1      26.264  -7.512  12.959  1.00  0.00     0.174 HD
ENDBRANCH   4  25
TORSDOF 9
ENDMDL
MODEL 4
REMARK VINA RESULT: -6.517278498      2.094      3.523
REMARK  9 active torsions:
REMARK  status: ('A' for Active; 'I' for Inactive)
REMARK    1  A    between atoms: O1_2  and  C2_3 
REMARK    2  A    between atoms: C2_3  and  C3_4 
REMARK    3  A    between atoms: N1_5  and  O2_6 
REMARK    4  A    between atoms: N1_5  and  C4_8 
REMARK    5  A    between atoms: C4_8  and  C5_9 
REMARK    6  A    between atoms: C5_9  and  C6_10 
REMARK    7  A    between atoms: C6_10  and  N2_11 
REMARK    8  A    between atoms: N2_11  and  C7_13 
REMARK    9  A    between atoms: C8_16  and  N4_17 
ROOT
HETATM    1  C7  UNL     1      25.432  -9.413  15.895  1.00  0.00     0.129 A 
HETATM    2  N3  UNL     1      25.705  -8.345  15.153  1.00  0.00    -0.176 N 
ATOM      3  H3  UNL     1      25.039  -7.575  15.093  1.00  0.00     0.186 HD
HETATM    4  C8  UNL     1      26.880  -8.290  14.474  1.00  0.00     0.677 A 
HETATM    5  N5  UNL     1      27.792  -9.273  14.516  1.00  0.00    -0.191 N 
ATOM      6  H5  UNL     1      28.664  -9.196  13.992  1.00  0.00     0.184 HD
HETATM    7  C9  UNL     1      27.533 -10.366  15.264  1.00  0.00     0.063 A 
HETATM    8  C10 UNL     1      28.481 -11.390  15.309  1.00  0.00     0.031 A 
HETATM    9  C11 UNL     1      28.195 -12.493  16.079  1.00  0.00     0.002 A 
HETATM   10  C12 UNL     1      27.012 -12.586  16.782  1.00  0.00     0.001 A 
HETATM   11  C13 UNL     1      26.073 -11.581  16.743  1.00  0.00     0.017 A 
HETATM   12  C14 UNL     1      26.352 -10.459  15.968  1.00  0.00     0.035 A 
ENDROOT
BRANCH   1  13
HETATM   13  N2  UNL     1      24.346  -9.549  16.568  1.00  0.00    -0.375 N 
ATOM     14  H2  UNL     1      24.272  -9.215  17.529  1.00  0.00     0.161 HD
BRANCH  13  15
HETATM   15  C6  UNL     1      23.225 -10.199  15.902  1.00  0.00     0.123 C 
BRANCH  15  16
HETATM   16  C5  UNL     1      22.360  -9.145  15.316  1.00  0.00     0.042 C 
BRANCH  16  17
HETATM   17  C4  UNL     1      22.160  -9.259  13.846  1.00  0.00     0.156 C 
BRANCH  17  18
HETATM   18  N1  UNL     1      22.893  -8.243  13.145  1.00  0.00    -0.274 N 
HETATM   19  C3  UNL     1      23.076  -8.348  11.872  1.00  0.00     0.115 C 
BRANCH  19  20
HETATM   20  C2  UNL     1      23.831  -7.311  11.124  1.00  0.00     0.213 C 
BRANCH  20  21
HETATM   21  O1  UNL     1      25.193  -7.449  11.369  1.00  0.00    -0.391 OA
HETATM   22  C1  UNL     1      25.945  -7.113  10.262  1.00  0.00     0.201 C 
ENDBRANCH  20  21
ENDBRANCH  19  20
BRANCH  18  23
HETATM   23  O2  UNL     1      23.412  -7.154  13.782  1.00  0.00    -0.288 OA
ATOM     24  H2  UNL     1      22.930  -6.336  13.737  1.00  0.00     0.244 HD
ENDBRANCH  18  23
ENDBRANCH  17  18
ENDBRANCH  16  17
ENDBRANCH  15  16
ENDBRANCH  13  15
ENDBRANCH   1  13
BRANCH   4  25
HETATM   25  N4  UNL     1      27.057  -7.215  13.780  1.00  0.00    -0.234 N 
ATOM     26  H42 UNL     1      26.830  -7.165  12.787  1.00  0.00     0.174 HD
ATOM     27  H41 UNL     1      27.438  -6.425  14.302  1.00  0.00     0.174 HD
ENDBRANCH   4  25
TORSDOF 9
ENDMDL
MODEL 5
REMARK VINA RESULT: -6.465572433      2.358      3.347
REMARK  9 active torsions:
REMARK  status: ('A' for Active; 'I' for Inactive)
REMARK    1  A    between atoms: O1_2  and  C2_3 
REMARK    2  A    between atoms: C2_3  and  C3_4 
REMARK    3  A    between atoms: N1_5  and  O2_6 
REMARK    4  A    between atoms: N1_5  and  C4_8 
REMARK    5  A    between atoms: C4_8  and  C5_9 
REMARK    6  A    between atoms: C5_9  and  C6_10 
REMARK    7  A    between atoms: C6_10  and  N2_11 
REMARK    8  A    between atoms: N2_11  and  C7_13 
REMARK    9  A    between atoms: C8_16  and  N4_17 
ROOT
HETATM    1  C7  UNL     1      23.756 -11.526  15.560  1.00  0.00     0.129 A 
HETATM    2  N3  UNL     1      22.870 -10.666  16.053  1.00  0.00    -0.176 N 
ATOM      3  H3  UNL     1      21.938 -10.595  15.644  1.00  0.00     0.186 HD
HETATM    4  C8  UNL     1      23.220  -9.882  17.106  1.00  0.00     0.677 A 
HETATM    5  N5  UNL     1      24.430  -9.933  17.682  1.00  0.00    -0.191 N 
ATOM      6  H5  UNL     1      24.656  -9.328  18.471  1.00  0.00     0.184 HD
HETATM    7  C9  UNL     1      25.342 -10.801  17.195  1.00  0.00     0.063 A 
HETATM    8  C10 UNL     1      26.603 -10.855  17.794  1.00  0.00     0.031 A 
HETATM    9  C11 UNL     1      27.516 -11.747  17.282  1.00  0.00     0.002 A 
HETATM   10  C12 UNL     1      27.199 -12.559  16.213  1.00  0.00     0.001 A 
HETATM   11  C13 UNL     1      25.959 -12.511  15.618  1.00  0.00     0.017 A 
HETATM   12  C14 UNL     1      25.026 -11.614  16.128  1.00  0.00     0.035 A 
ENDROOT
BRANCH   1  13
HETATM   13  N2  UNL     1      23.510 -12.304  14.568  1.00  0.00    -0.375 N 
ATOM     14  H2  UNL     1      24.260 -12.789  14.075  1.00  0.00     0.161 HD
BRANCH  13  15
HETATM   15  C6  UNL     1      22.116 -12.465  14.175  1.00  0.00     0.123 C 
BRANCH  15  16
HETATM   16  C5  UNL     1      21.956 -11.923  12.803  1.00  0.00     0.042 C 
BRANCH  16  17
HETATM   17  C4  UNL     1      21.047 -10.749  12.705  1.00  0.00     0.156 C 
BRANCH  17  18
HETATM   18  N1  UNL     1      21.653  -9.579  13.273  1.00  0.00    -0.274 N 
HETATM   19  C3  UNL     1      22.688  -9.055  12.708  1.00  0.00     0.115 C 
BRANCH  19  20
HETATM   20  C2  UNL     1      23.333  -7.844  13.276  1.00  0.00     0.213 C 
BRANCH  20  21
HETATM   21  O1  UNL     1      24.152  -8.201  14.341  1.00  0.00    -0.391 OA
HETATM   22  C1  UNL     1      25.379  -8.661  13.908  1.00  0.00     0.201 C 
ENDBRANCH  20  21
ENDBRANCH  19  20
BRANCH  18  23
HETATM   23  O2  UNL     1      21.169  -8.989  14.404  1.00  0.00    -0.288 OA
ATOM     24  H2  UNL     1      20.327  -9.278  14.735  1.00  0.00     0.244 HD
ENDBRANCH  18  23
ENDBRANCH  17  18
ENDBRANCH  16  17
ENDBRANCH  15  16
ENDBRANCH  13  15
ENDBRANCH   1  13
BRANCH   4  25
HETATM   25  N4  UNL     1      22.295  -9.078  17.515  1.00  0.00    -0.234 N 
ATOM     26  H42 UNL     1      21.512  -8.802  16.921  1.00  0.00     0.174 HD
ATOM     27  H41 UNL     1      22.409  -8.745  18.473  1.00  0.00     0.174 HD
ENDBRANCH   4  25
TORSDOF 9
ENDMDL
