MODEL 1
REMARK VINA RESULT: -7.037301370      0.000      0.000
REMARK  16 active torsions:
REMARK  status: ('A' for Active; 'I' for Inactive)
REMARK    1  A    between atoms: C2_2  and  C3_3 
REMARK    2  A    between atoms: C4_5  and  O1_6 
REMARK    3  A    between atoms: C5_8  and  O2_9 
REMARK    4  A    between atoms: C5_8  and  C6_11 
REMARK    5  A    between atoms: C8_15  and  C9_16 
REMARK    6  A    between atoms: C9_16  and  O5_18 
REMARK    7  A    between atoms: O5_18  and  C10_19 
REMARK    8  A    between atoms: C10_19  and  C11_20 
REMARK    9  A    between atoms: C11_20  and  O6_21 
REMARK   10  A    between atoms: O6_21  and  C12_22 
REMARK   11  A    between atoms: C12_22  and  C13_24 
REMARK   12  A    between atoms: C13_24  and  N2_25 
REMARK   13  A    between atoms: C13_24  and  C14_29 
REMARK   14  A    between atoms: C14_29  and  C15_30 
REMARK   15  A    between atoms: C16_33  and  N3_34 
REMARK   16  A    between atoms: C17_41  and  O10_42 
ROOT
HETATM    1  C1  UNL     1       8.699  83.877  31.245  1.00  0.00     0.024 C 
HETATM    2  C2  UNL     1       8.651  82.884  32.417  1.00  0.00     0.054 C 
HETATM    3  C4  UNL     1       8.179  83.636  33.608  1.00  0.00     0.175 C 
HETATM    4  C5  UNL     1       9.303  84.499  34.140  1.00  0.00     0.164 C 
HETATM    5  C7  UNL     1      10.389  83.581  34.586  1.00  0.00     0.079 C 
HETATM    6  C8  UNL     1      10.840  82.558  33.631  1.00  0.00     0.163 C 
HETATM    7  C16 UNL     1      11.684  83.113  32.476  1.00  0.00     0.407 C 
HETATM    8  N4  UNL     1      10.849  82.482  31.504  1.00  0.00    -0.011 N 
ATOM      9  H41 UNL     1      11.224  81.756  30.893  1.00  0.00     0.283 HD
ATOM     10  H42 UNL     1      10.532  82.996  30.682  1.00  0.00     0.283 HD
HETATM   11  C17 UNL     1       9.914  82.141  32.569  1.00  0.00     0.258 C 
ENDROOT
BRANCH   6  12
HETATM   12  C9  UNL     1      11.620  81.501  34.314  1.00  0.00     0.276 C 
HETATM   13  O4  UNL     1      11.944  80.413  33.790  1.00  0.00    -0.264 OA
BRANCH  12  14
HETATM   14  O5  UNL     1      12.018  81.729  35.618  1.00  0.00    -0.319 OA
BRANCH  14  15
HETATM   15  C10 UNL     1      13.404  81.974  35.913  1.00  0.00     0.205 C 
BRANCH  15  16
HETATM   16  C11 UNL     1      13.655  83.455  36.007  1.00  0.00     0.205 C 
BRANCH  16  17
HETATM   17  O6  UNL     1      14.195  84.035  34.866  1.00  0.00    -0.318 OA
BRANCH  17  18
HETATM   18  C12 UNL     1      14.181  85.379  34.535  1.00  0.00     0.290 C 
HETATM   19  O7  UNL     1      15.274  86.000  34.540  1.00  0.00    -0.263 OA
BRANCH  18  20
HETATM   20  C13 UNL     1      12.891  86.047  34.187  1.00  0.00     0.292 C 
BRANCH  20  21
HETATM   21  N2  UNL     1      12.826  86.241  32.765  1.00  0.00    -0.065 N 
ATOM     22  H23 UNL     1      13.533  85.700  32.268  1.00  0.00     0.275 HD
ATOM     23  H22 UNL     1      11.999  85.809  32.353  1.00  0.00     0.275 HD
ATOM     24  H21 UNL     1      12.885  87.238  32.558  1.00  0.00     0.275 HD
ENDBRANCH  20  21
BRANCH  20  25
HETATM   25  C14 UNL     1      12.826  87.423  34.841  1.00  0.00     0.156 C 
BRANCH  25  26
HETATM   26  C15 UNL     1      12.085  88.346  33.949  1.00  0.00     0.175 C 
HETATM   27  O8  UNL     1      12.718  89.204  33.307  1.00  0.00    -0.648 OA
HETATM   28  O9  UNL     1      10.711  88.254  33.833  1.00  0.00    -0.648 OA
ENDBRANCH  25  26
ENDBRANCH  20  25
ENDBRANCH  18  20
ENDBRANCH  17  18
ENDBRANCH  16  17
ENDBRANCH  15  16
ENDBRANCH  14  15
ENDBRANCH  12  14
ENDBRANCH   6  12
BRANCH   7  29
HETATM   29  N3  UNL     1      13.032  82.590  32.412  1.00  0.00    -0.049 N 
ATOM     30  H33 UNL     1      13.096  81.710  32.924  1.00  0.00     0.276 HD
ATOM     31  H32 UNL     1      13.241  82.261  31.470  1.00  0.00     0.276 HD
ATOM     32  H31 UNL     1      13.752  83.239  32.730  1.00  0.00     0.276 HD
ENDBRANCH   7  29
BRANCH  11  33
HETATM   33  O10 UNL     1       9.765  80.734  32.567  1.00  0.00    -0.363 OA
ATOM     34  H10 UNL     1      10.471  80.267  32.135  1.00  0.00     0.212 HD
ENDBRANCH  11  33
BRANCH   4  35
HETATM   35  O2  UNL     1       9.719  85.443  33.217  1.00  0.00    -0.378 OA
ATOM     36  H2  UNL     1      10.083  86.215  33.633  1.00  0.00     0.211 HD
ENDBRANCH   4  35
BRANCH   4  37
HETATM   37  C6  UNL     1       8.790  85.208  35.340  1.00  0.00     0.268 C 
HETATM   38  N1  UNL     1       9.662  85.640  36.352  1.00  0.00    -0.059 NA
HETATM   39  O3  UNL     1       7.547  85.444  35.480  1.00  0.00    -0.273 OA
ENDBRANCH   4  37
BRANCH   2  40
HETATM   40  C3  UNL     1       7.531  81.902  32.036  1.00  0.00     0.103 C 
HETATM   41  S1  UNL     1       6.415  82.700  30.877  1.00  0.00    -0.097 SA
ENDBRANCH   2  40
BRANCH   3  42
HETATM   42  O1  UNL     1       7.818  82.739  34.606  1.00  0.00    -0.391 OA
ATOM     43  H1  UNL     1       7.935  83.149  35.455  1.00  0.00     0.210 HD
ENDBRANCH   3  42
TORSDOF 16
ENDMDL
MODEL 2
REMARK VINA RESULT: -7.026190841      2.467      4.837
REMARK  16 active torsions:
REMARK  status: ('A' for Active; 'I' for Inactive)
REMARK    1  A    between atoms: C2_2  and  C3_3 
REMARK    2  A    between atoms: C4_5  and  O1_6 
REMARK    3  A    between atoms: C5_8  and  O2_9 
REMARK    4  A    between atoms: C5_8  and  C6_11 
REMARK    5  A    between atoms: C8_15  and  C9_16 
REMARK    6  A    between atoms: C9_16  and  O5_18 
REMARK    7  A    between atoms: O5_18  and  C10_19 
REMARK    8  A    between atoms: C10_19  and  C11_20 
REMARK    9  A    between atoms: C11_20  and  O6_21 
REMARK   10  A    between atoms: O6_21  and  C12_22 
REMARK   11  A    between atoms: C12_22  and  C13_24 
REMARK   12  A    between atoms: C13_24  and  N2_25 
REMARK   13  A    between atoms: C13_24  and  C14_29 
REMARK   14  A    between atoms: C14_29  and  C15_30 
REMARK   15  A    between atoms: C16_33  and  N3_34 
REMARK   16  A    between atoms: C17_41  and  O10_42 
ROOT
HETATM    1  C1  UNL     1      12.018  88.833  33.778  1.00  0.00     0.024 C 
HETATM    2  C2  UNL     1      11.200  87.534  33.714  1.00  0.00     0.054 C 
HETATM    3  C4  UNL     1      10.357  87.489  34.937  1.00  0.00     0.175 C 
HETATM    4  C5  UNL     1      11.211  87.112  36.128  1.00  0.00     0.164 C 
HETATM    5  C7  UNL     1      11.727  85.736  35.882  1.00  0.00     0.079 C 
HETATM    6  C8  UNL     1      12.382  85.482  34.590  1.00  0.00     0.163 C 
HETATM    7  C16 UNL     1      13.779  86.107  34.467  1.00  0.00     0.407 C 
HETATM    8  N4  UNL     1      13.432  86.748  33.239  1.00  0.00    -0.011 N 
ATOM      9  H41 UNL     1      13.910  86.500  32.373  1.00  0.00     0.283 HD
ATOM     10  H42 UNL     1      13.674  87.727  33.081  1.00  0.00     0.283 HD
HETATM   11  C17 UNL     1      12.045  86.355  33.458  1.00  0.00     0.258 C 
ENDROOT
BRANCH   6  12
HETATM   12  C9  UNL     1      12.493  84.029  34.327  1.00  0.00     0.276 C 
HETATM   13  O4  UNL     1      12.913  83.537  33.257  1.00  0.00    -0.264 OA
BRANCH  12  14
HETATM   14  O5  UNL     1      12.110  83.158  35.329  1.00  0.00    -0.319 OA
BRANCH  14  15
HETATM   15  C10 UNL     1      11.534  81.884  34.989  1.00  0.00     0.205 C 
BRANCH  15  16
HETATM   16  C11 UNL     1      10.049  82.029  34.789  1.00  0.00     0.205 C 
BRANCH  16  17
HETATM   17  O6  UNL     1       9.636  82.079  33.464  1.00  0.00    -0.318 OA
BRANCH  17  18
HETATM   18  C12 UNL     1       9.318  83.214  32.738  1.00  0.00     0.290 C 
HETATM   19  O7  UNL     1       8.979  84.245  33.371  1.00  0.00    -0.263 OA
BRANCH  18  20
HETATM   20  C13 UNL     1       9.384  83.186  31.246  1.00  0.00     0.292 C 
BRANCH  20  21
HETATM   21  N2  UNL     1      10.757  83.091  30.833  1.00  0.00    -0.065 N 
ATOM     22  H23 UNL     1      10.875  83.280  29.838  1.00  0.00     0.275 HD
ATOM     23  H22 UNL     1      11.323  83.858  31.194  1.00  0.00     0.275 HD
ATOM     24  H21 UNL     1      11.126  82.178  31.100  1.00  0.00     0.275 HD
ENDBRANCH  20  21
BRANCH  20  25
HETATM   25  C14 UNL     1       8.822  84.484  30.677  1.00  0.00     0.156 C 
BRANCH  25  26
HETATM   26  C15 UNL     1       9.667  84.917  29.538  1.00  0.00     0.175 C 
HETATM   27  O8  UNL     1       9.630  84.267  28.477  1.00  0.00    -0.648 OA
HETATM   28  O9  UNL     1      10.481  86.027  29.653  1.00  0.00    -0.648 OA
ENDBRANCH  25  26
ENDBRANCH  20  25
ENDBRANCH  18  20
ENDBRANCH  17  18
ENDBRANCH  16  17
ENDBRANCH  15  16
ENDBRANCH  14  15
ENDBRANCH  12  14
ENDBRANCH   6  12
BRANCH   7  29
HETATM   29  N3  UNL     1      14.847  85.151  34.264  1.00  0.00    -0.049 N 
ATOM     30  H33 UNL     1      15.654  85.393  34.839  1.00  0.00     0.276 HD
ATOM     31  H32 UNL     1      14.601  84.251  34.676  1.00  0.00     0.276 HD
ATOM     32  H31 UNL     1      15.127  85.032  33.290  1.00  0.00     0.276 HD
ENDBRANCH   7  29
BRANCH  11  33
HETATM   33  O10 UNL     1      11.643  85.584  32.341  1.00  0.00    -0.363 OA
ATOM     34  H10 UNL     1      12.266  84.912  32.087  1.00  0.00     0.212 HD
ENDBRANCH  11  33
BRANCH   4  35
HETATM   35  O2  UNL     1      12.207  88.042  36.371  1.00  0.00    -0.378 OA
ATOM     36  H2  UNL     1      12.733  88.215  35.599  1.00  0.00     0.211 HD
ENDBRANCH   4  35
BRANCH   4  37
HETATM   37  C6  UNL     1      10.321  87.056  37.315  1.00  0.00     0.268 C 
HETATM   38  N1  UNL     1      10.237  88.137  38.208  1.00  0.00    -0.059 NA
HETATM   39  O3  UNL     1       9.609  86.027  37.552  1.00  0.00    -0.273 OA
ENDBRANCH   4  37
BRANCH   2  40
HETATM   40  C3  UNL     1      10.250  87.743  32.525  1.00  0.00     0.103 C 
HETATM   41  S1  UNL     1       9.187  89.152  32.857  1.00  0.00    -0.097 SA
ENDBRANCH   2  40
BRANCH   3  42
HETATM   42  O1  UNL     1       9.379  86.512  34.786  1.00  0.00    -0.391 OA
ATOM     43  H1  UNL     1       8.523  86.924  34.763  1.00  0.00     0.210 HD
ENDBRANCH   3  42
TORSDOF 16
ENDMDL
MODEL 3
REMARK VINA RESULT: -6.920234357      2.096      3.180
REMARK  16 active torsions:
REMARK  status: ('A' for Active; 'I' for Inactive)
REMARK    1  A    between atoms: C2_2  and  C3_3 
REMARK    2  A    between atoms: C4_5  and  O1_6 
REMARK    3  A    between atoms: C5_8  and  O2_9 
REMARK    4  A    between atoms: C5_8  and  C6_11 
REMARK    5  A    between atoms: C8_15  and  C9_16 
REMARK    6  A    between atoms: C9_16  and  O5_18 
REMARK    7  A    between atoms: O5_18  and  C10_19 
REMARK    8  A    between atoms: C10_19  and  C11_20 
REMARK    9  A    between atoms: C11_20  and  O6_21 
REMARK   10  A    between atoms: O6_21  and  C12_22 
REMARK   11  A    between atoms: C12_22  and  C13_24 
REMARK   12  A    between atoms: C13_24  and  N2_25 
REMARK   13  A    between atoms: C13_24  and  C14_29 
REMARK   14  A    between atoms: C14_29  and  C15_30 
REMARK   15  A    between atoms: C16_33  and  N3_34 
REMARK   16  A    between atoms: C17_41  and  O10_42 
ROOT
HETATM    1  C1  UNL     1       6.977  83.885  33.058  1.00  0.00     0.024 C 
HETATM    2  C2  UNL     1       8.369  84.524  33.179  1.00  0.00     0.054 C 
HETATM    3  C4  UNL     1       8.644  85.219  31.895  1.00  0.00     0.175 C 
HETATM    4  C5  UNL     1       8.997  84.200  30.833  1.00  0.00     0.164 C 
HETATM    5  C7  UNL     1      10.258  83.533  31.266  1.00  0.00     0.079 C 
HETATM    6  C8  UNL     1      10.299  82.991  32.632  1.00  0.00     0.163 C 
HETATM    7  C16 UNL     1       9.471  81.712  32.819  1.00  0.00     0.407 C 
HETATM    8  N4  UNL     1       8.780  82.269  33.937  1.00  0.00    -0.011 N 
ATOM      9  H41 UNL     1       8.879  81.857  34.864  1.00  0.00     0.283 HD
ATOM     10  H42 UNL     1       7.767  82.179  34.016  1.00  0.00     0.283 HD
HETATM   11  C17 UNL     1       9.386  83.559  33.632  1.00  0.00     0.258 C 
ENDROOT
BRANCH   6  12
HETATM   12  C9  UNL     1      11.691  82.713  33.052  1.00  0.00     0.276 C 
HETATM   13  O4  UNL     1      12.686  82.803  32.300  1.00  0.00    -0.264 OA
BRANCH  12  14
HETATM   14  O5  UNL     1      11.908  82.331  34.362  1.00  0.00    -0.319 OA
BRANCH  14  15
HETATM   15  C10 UNL     1      13.249  82.098  34.828  1.00  0.00     0.205 C 
BRANCH  15  16
HETATM   16  C11 UNL     1      13.572  83.040  35.957  1.00  0.00     0.205 C 
BRANCH  16  17
HETATM   17  O6  UNL     1      13.102  84.337  35.794  1.00  0.00    -0.318 OA
BRANCH  17  18
HETATM   18  C12 UNL     1      13.538  85.264  34.861  1.00  0.00     0.290 C 
HETATM   19  O7  UNL     1      14.769  85.321  34.614  1.00  0.00    -0.263 OA
BRANCH  18  20
HETATM   20  C13 UNL     1      12.551  86.158  34.185  1.00  0.00     0.292 C 
BRANCH  20  21
HETATM   21  N2  UNL     1      12.757  86.102  32.763  1.00  0.00    -0.065 N 
ATOM     22  H23 UNL     1      13.269  86.912  32.415  1.00  0.00     0.275 HD
ATOM     23  H22 UNL     1      13.427  85.381  32.498  1.00  0.00     0.275 HD
ATOM     24  H21 UNL     1      11.857  85.984  32.297  1.00  0.00     0.275 HD
ENDBRANCH  20  21
BRANCH  20  25
HETATM   25  C14 UNL     1      12.772  87.602  34.623  1.00  0.00     0.156 C 
BRANCH  25  26
HETATM   26  C15 UNL     1      12.303  88.510  33.550  1.00  0.00     0.175 C 
HETATM   27  O8  UNL     1      13.133  89.217  32.951  1.00  0.00    -0.648 OA
HETATM   28  O9  UNL     1      10.962  88.568  33.221  1.00  0.00    -0.648 OA
ENDBRANCH  25  26
ENDBRANCH  20  25
ENDBRANCH  18  20
ENDBRANCH  17  18
ENDBRANCH  16  17
ENDBRANCH  15  16
ENDBRANCH  14  15
ENDBRANCH  12  14
ENDBRANCH   6  12
BRANCH   7  29
HETATM   29  N3  UNL     1      10.241  80.552  33.217  1.00  0.00    -0.049 N 
ATOM     30  H33 UNL     1      11.092  80.481  32.657  1.00  0.00     0.276 HD
ATOM     31  H32 UNL     1      10.650  80.697  34.140  1.00  0.00     0.276 HD
ATOM     32  H31 UNL     1       9.725  79.673  33.190  1.00  0.00     0.276 HD
ENDBRANCH   7  29
BRANCH  11  33
HETATM   33  O10 UNL     1      10.105  83.970  34.781  1.00  0.00    -0.363 OA
ATOM     34  H10 UNL     1       9.646  83.827  35.600  1.00  0.00     0.212 HD
ENDBRANCH  11  33
BRANCH   4  35
HETATM   35  O2  UNL     1       7.959  83.318  30.589  1.00  0.00    -0.378 OA
ATOM     36  H2  UNL     1       8.142  82.742  29.856  1.00  0.00     0.211 HD
ENDBRANCH   4  35
BRANCH   4  37
HETATM   37  C6  UNL     1       9.287  84.944  29.581  1.00  0.00     0.268 C 
HETATM   38  N1  UNL     1       8.795  86.246  29.383  1.00  0.00    -0.059 NA
HETATM   39  O3  UNL     1       9.989  84.423  28.656  1.00  0.00    -0.273 OA
ENDBRANCH   4  37
BRANCH   2  40
HETATM   40  C3  UNL     1       8.194  85.614  34.248  1.00  0.00     0.103 C 
HETATM   41  S1  UNL     1       6.599  85.409  35.046  1.00  0.00    -0.097 SA
ENDBRANCH   2  40
BRANCH   3  42
HETATM   42  O1  UNL     1       9.734  86.067  32.055  1.00  0.00    -0.391 OA
ATOM     43  H1  UNL     1       9.728  86.720  31.365  1.00  0.00     0.210 HD
ENDBRANCH   3  42
TORSDOF 16
ENDMDL
MODEL 4
REMARK VINA RESULT: -6.716909462      1.824      2.995
REMARK  16 active torsions:
REMARK  status: ('A' for Active; 'I' for Inactive)
REMARK    1  A    between atoms: C2_2  and  C3_3 
REMARK    2  A    between atoms: C4_5  and  O1_6 
REMARK    3  A    between atoms: C5_8  and  O2_9 
REMARK    4  A    between atoms: C5_8  and  C6_11 
REMARK    5  A    between atoms: C8_15  and  C9_16 
REMARK    6  A    between atoms: C9_16  and  O5_18 
REMARK    7  A    between atoms: O5_18  and  C10_19 
REMARK    8  A    between atoms: C10_19  and  C11_20 
REMARK    9  A    between atoms: C11_20  and  O6_21 
REMARK   10  A    between atoms: O6_21  and  C12_22 
REMARK   11  A    between atoms: C12_22  and  C13_24 
REMARK   12  A    between atoms: C13_24  and  N2_25 
REMARK   13  A    between atoms: C13_24  and  C14_29 
REMARK   14  A    between atoms: C14_29  and  C15_30 
REMARK   15  A    between atoms: C16_33  and  N3_34 
REMARK   16  A    between atoms: C17_41  and  O10_42 
ROOT
HETATM    1  C1  UNL     1       8.443  81.510  32.047  1.00  0.00     0.024 C 
HETATM    2  C2  UNL     1       8.737  82.642  33.044  1.00  0.00     0.054 C 
HETATM    3  C4  UNL     1       8.876  83.893  32.255  1.00  0.00     0.175 C 
HETATM    4  C5  UNL     1      10.219  83.905  31.558  1.00  0.00     0.164 C 
HETATM    5  C7  UNL     1      11.266  83.920  32.618  1.00  0.00     0.079 C 
HETATM    6  C8  UNL     1      11.167  82.905  33.677  1.00  0.00     0.163 C 
HETATM    7  C16 UNL     1      11.547  81.490  33.219  1.00  0.00     0.407 C 
HETATM    8  N4  UNL     1      10.322  80.951  33.718  1.00  0.00    -0.011 N 
ATOM      9  H41 UNL     1      10.328  80.270  34.477  1.00  0.00     0.283 HD
ATOM     10  H42 UNL     1       9.774  80.302  33.153  1.00  0.00     0.283 HD
HETATM   11  C17 UNL     1       9.851  82.311  33.949  1.00  0.00     0.258 C 
ENDROOT
BRANCH   6  12
HETATM   12  C9  UNL     1      12.011  83.264  34.839  1.00  0.00     0.276 C 
HETATM   13  O4  UNL     1      12.201  82.524  35.828  1.00  0.00    -0.264 OA
BRANCH  12  14
HETATM   14  O5  UNL     1      12.631  84.499  34.832  1.00  0.00    -0.319 OA
BRANCH  14  15
HETATM   15  C10 UNL     1      14.066  84.582  34.898  1.00  0.00     0.205 C 
BRANCH  15  16
HETATM   16  C11 UNL     1      14.515  85.985  34.588  1.00  0.00     0.205 C 
BRANCH  16  17
HETATM   17  O6  UNL     1      13.856  86.592  33.527  1.00  0.00    -0.318 OA
BRANCH  17  18
HETATM   18  C12 UNL     1      13.035  87.705  33.590  1.00  0.00     0.290 C 
HETATM   19  O7  UNL     1      13.225  88.629  32.760  1.00  0.00    -0.263 OA
BRANCH  18  20
HETATM   20  C13 UNL     1      11.962  87.780  34.627  1.00  0.00     0.292 C 
BRANCH  20  21
HETATM   21  N2  UNL     1      10.886  86.901  34.262  1.00  0.00    -0.065 N 
ATOM     22  H23 UNL     1      10.950  86.595  33.291  1.00  0.00     0.275 HD
ATOM     23  H22 UNL     1      10.965  85.987  34.707  1.00  0.00     0.275 HD
ATOM     24  H21 UNL     1       9.996  87.355  34.467  1.00  0.00     0.275 HD
ENDBRANCH  20  21
BRANCH  20  25
HETATM   25  C14 UNL     1      11.397  89.195  34.689  1.00  0.00     0.156 C 
BRANCH  25  26
HETATM   26  C15 UNL     1      10.029  89.194  34.118  1.00  0.00     0.175 C 
HETATM   27  O8  UNL     1       9.055  89.083  34.885  1.00  0.00    -0.648 OA
HETATM   28  O9  UNL     1       9.840  89.317  32.755  1.00  0.00    -0.648 OA
ENDBRANCH  25  26
ENDBRANCH  20  25
ENDBRANCH  18  20
ENDBRANCH  17  18
ENDBRANCH  16  17
ENDBRANCH  15  16
ENDBRANCH  14  15
ENDBRANCH  12  14
ENDBRANCH   6  12
BRANCH   7  29
HETATM   29  N3  UNL     1      12.681  80.919  33.915  1.00  0.00    -0.049 N 
ATOM     30  H33 UNL     1      13.412  81.621  34.039  1.00  0.00     0.276 HD
ATOM     31  H32 UNL     1      12.444  80.738  34.890  1.00  0.00     0.276 HD
ATOM     32  H31 UNL     1      13.064  80.080  33.480  1.00  0.00     0.276 HD
ENDBRANCH   7  29
BRANCH  11  33
HETATM   33  O10 UNL     1       9.534  82.422  35.324  1.00  0.00    -0.363 OA
ATOM     34  H10 UNL     1      10.191  82.874  35.841  1.00  0.00     0.212 HD
ENDBRANCH  11  33
BRANCH   4  35
HETATM   35  O2  UNL     1      10.353  82.859  30.662  1.00  0.00    -0.378 OA
ATOM     36  H2  UNL     1      10.692  83.146  29.822  1.00  0.00     0.211 HD
ENDBRANCH   4  35
BRANCH   4  37
HETATM   37  C6  UNL     1      10.319  85.183  30.806  1.00  0.00     0.268 C 
HETATM   38  N1  UNL     1       9.833  85.288  29.492  1.00  0.00    -0.059 NA
HETATM   39  O3  UNL     1      10.844  86.215  31.334  1.00  0.00    -0.273 OA
ENDBRANCH   4  37
BRANCH   2  40
HETATM   40  C3  UNL     1       7.442  82.772  33.862  1.00  0.00     0.103 C 
HETATM   41  S1  UNL     1       6.044  82.883  32.741  1.00  0.00    -0.097 SA
ENDBRANCH   2  40
BRANCH   3  42
HETATM   42  O1  UNL     1       8.829  84.986  33.113  1.00  0.00    -0.391 OA
ATOM     43  H1  UNL     1       9.707  85.327  33.236  1.00  0.00     0.210 HD
ENDBRANCH   3  42
TORSDOF 16
ENDMDL
MODEL 5
REMARK VINA RESULT: -6.714698390      1.966      3.322
REMARK  16 active torsions:
REMARK  status: ('A' for Active; 'I' for Inactive)
REMARK    1  A    between atoms: C2_2  and  C3_3 
REMARK    2  A    between atoms: C4_5  and  O1_6 
REMARK    3  A    between atoms: C5_8  and  O2_9 
REMARK    4  A    between atoms: C5_8  and  C6_11 
REMARK    5  A    between atoms: C8_15  and  C9_16 
REMARK    6  A    between atoms: C9_16  and  O5_18 
REMARK    7  A    between atoms: O5_18  and  C10_19 
REMARK    8  A    between atoms: C10_19  and  C11_20 
REMARK    9  A    between atoms: C11_20  and  O6_21 
REMARK   10  A    between atoms: O6_21  and  C12_22 
REMARK   11  A    between atoms: C12_22  and  C13_24 
REMARK   12  A    between atoms: C13_24  and  N2_25 
REMARK   13  A    between atoms: C13_24  and  C14_29 
REMARK   14  A    between atoms: C14_29  and  C15_30 
REMARK   15  A    between atoms: C16_33  and  N3_34 
REMARK   16  A    between atoms: C17_41  and  O10_42 
ROOT
HETATM    1  C1  UNL     1       8.076  81.530  32.304  1.00  0.00     0.024 C 
HETATM    2  C2  UNL     1       8.468  82.839  33.006  1.00  0.00     0.054 C 
HETATM    3  C4  UNL     1       8.550  83.889  31.959  1.00  0.00     0.175 C 
HETATM    4  C5  UNL     1       9.827  83.714  31.165  1.00  0.00     0.164 C 
HETATM    5  C7  UNL     1      10.963  83.924  32.107  1.00  0.00     0.079 C 
HETATM    6  C8  UNL     1      10.947  83.160  33.363  1.00  0.00     0.163 C 
HETATM    7  C16 UNL     1      11.270  81.670  33.190  1.00  0.00     0.407 C 
HETATM    8  N4  UNL     1      10.089  81.286  33.893  1.00  0.00    -0.011 N 
ATOM      9  H41 UNL     1      10.154  80.781  34.777  1.00  0.00     0.283 HD
ATOM     10  H42 UNL     1       9.486  80.547  33.528  1.00  0.00     0.283 HD
HETATM   11  C17 UNL     1       9.654  82.677  33.866  1.00  0.00     0.258 C 
ENDROOT
BRANCH   6  12
HETATM   12  C9  UNL     1      11.894  83.733  34.346  1.00  0.00     0.276 C 
HETATM   13  O4  UNL     1      11.941  83.408  35.553  1.00  0.00    -0.264 OA
BRANCH  12  14
HETATM   14  O5  UNL     1      12.787  84.691  33.904  1.00  0.00    -0.319 OA
BRANCH  14  15
HETATM   15  C10 UNL     1      13.789  85.205  34.798  1.00  0.00     0.205 C 
BRANCH  15  16
HETATM   16  C11 UNL     1      14.213  86.581  34.359  1.00  0.00     0.205 C 
BRANCH  16  17
HETATM   17  O6  UNL     1      13.417  87.619  34.827  1.00  0.00    -0.318 OA
BRANCH  17  18
HETATM   18  C12 UNL     1      12.401  88.259  34.137  1.00  0.00     0.290 C 
HETATM   19  O7  UNL     1      12.714  89.189  33.351  1.00  0.00    -0.263 OA
BRANCH  18  20
HETATM   20  C13 UNL     1      10.983  87.838  34.341  1.00  0.00     0.292 C 
BRANCH  20  21
HETATM   21  N2  UNL     1      10.580  86.985  33.257  1.00  0.00    -0.065 N 
ATOM     22  H23 UNL     1       9.566  86.913  33.178  1.00  0.00     0.275 HD
ATOM     23  H22 UNL     1      10.768  87.403  32.346  1.00  0.00     0.275 HD
ATOM     24  H21 UNL     1      11.025  86.073  33.363  1.00  0.00     0.275 HD
ENDBRANCH  20  21
BRANCH  20  25
HETATM   25  C14 UNL     1      10.071  89.059  34.327  1.00  0.00     0.156 C 
BRANCH  25  26
HETATM   26  C15 UNL     1       9.155  88.964  33.165  1.00  0.00     0.175 C 
HETATM   27  O8  UNL     1       9.405  89.628  32.143  1.00  0.00    -0.648 OA
HETATM   28  O9  UNL     1       8.041  88.149  33.218  1.00  0.00    -0.648 OA
ENDBRANCH  25  26
ENDBRANCH  20  25
ENDBRANCH  18  20
ENDBRANCH  17  18
ENDBRANCH  16  17
ENDBRANCH  15  16
ENDBRANCH  14  15
ENDBRANCH  12  14
ENDBRANCH   6  12
BRANCH   7  29
HETATM   29  N3  UNL     1      12.455  81.227  33.894  1.00  0.00    -0.049 N 
ATOM     30  H33 UNL     1      13.279  81.328  33.302  1.00  0.00     0.276 HD
ATOM     31  H32 UNL     1      12.691  81.884  34.638  1.00  0.00     0.276 HD
ATOM     32  H31 UNL     1      12.396  80.278  34.263  1.00  0.00     0.276 HD
ENDBRANCH   7  29
BRANCH  11  33
HETATM   33  O10 UNL     1       9.460  83.086  35.207  1.00  0.00    -0.363 OA
ATOM     34  H10 UNL     1       8.990  82.458  35.742  1.00  0.00     0.212 HD
ENDBRANCH  11  33
BRANCH   4  35
HETATM   35  O2  UNL     1       9.870  82.497  30.507  1.00  0.00    -0.378 OA
ATOM     36  H2  UNL     1       9.840  81.762  31.109  1.00  0.00     0.211 HD
ENDBRANCH   4  35
BRANCH   4  37
HETATM   37  C6  UNL     1       9.874  84.799  30.152  1.00  0.00     0.268 C 
HETATM   38  N1  UNL     1      10.455  86.043  30.450  1.00  0.00    -0.059 NA
HETATM   39  O3  UNL     1       9.392  84.628  28.986  1.00  0.00    -0.273 OA
ENDBRANCH   4  37
BRANCH   2  40
HETATM   40  C3  UNL     1       7.252  83.178  33.883  1.00  0.00     0.103 C 
HETATM   41  S1  UNL     1       5.760  83.080  32.887  1.00  0.00    -0.097 SA
ENDBRANCH   2  40
BRANCH   3  42
HETATM   42  O1  UNL     1       8.591  85.141  32.563  1.00  0.00    -0.391 OA
ATOM     43  H1  UNL     1       9.137  85.722  32.047  1.00  0.00     0.210 HD
ENDBRANCH   3  42
TORSDOF 16
ENDMDL
