MODEL 1
REMARK VINA RESULT: -7.958898935      0.000      0.000
REMARK  8 active torsions:
REMARK  status: ('A' for Active; 'I' for Inactive)
REMARK    1  A    between atoms: O1_2  and  C2_3 
REMARK    2  A    between atoms: C2_3  and  C3_5 
REMARK    3  A    between atoms: C5_7  and  O3_8 
REMARK    4  A    between atoms: O3_8  and  C6_9 
REMARK    5  A    between atoms: C14_18  and  O5_19 
REMARK    6  A    between atoms: C18_24  and  O6_25 
REMARK    7  A    between atoms: C20_28  and  O8_29 
REMARK    8  A    between atoms: C20_28  and  C21_31 
ROOT
HETATM    1  C3  UNL     1      19.910  10.225  20.166  1.00  0.00     0.075 C 
HETATM    2  C4  UNL     1      19.654  11.074  18.893  1.00  0.00     0.029 C 
HETATM    3  C5  UNL     1      19.242  10.956  21.273  1.00  0.00     0.151 C 
HETATM    4  C8  UNL     1      20.085  11.844  22.124  1.00  0.00     0.046 C 
HETATM    5  C9  UNL     1      21.564  11.504  22.110  1.00  0.00    -0.002 C 
HETATM    6  C10 UNL     1      22.387  12.554  22.622  1.00  0.00     0.005 C 
HETATM    7  C11 UNL     1      23.811  12.059  22.673  1.00  0.00     0.038 C 
HETATM    8  C12 UNL     1      24.498  13.213  21.967  1.00  0.00     0.128 C 
HETATM    9  C13 UNL     1      23.921  13.046  20.555  1.00  0.00     0.064 C 
HETATM   10  C14 UNL     1      23.307  11.740  20.217  1.00  0.00     0.126 C 
HETATM   11  C15 UNL     1      21.931  11.452  20.611  1.00  0.00     0.031 C 
HETATM   12  C16 UNL     1      21.407  10.110  20.271  1.00  0.00     0.016 C 
HETATM   13  C17 UNL     1      21.899   9.274  21.421  1.00  0.00     0.039 C 
HETATM   14  C18 UNL     1      21.673  10.128  22.646  1.00  0.00     0.130 C 
HETATM   15  O7  UNL     1      24.151  14.314  22.628  1.00  0.00    -0.349 OA
HETATM   16  C20 UNL     1      23.289  14.465  23.628  1.00  0.00     0.165 C 
HETATM   17  C24 UNL     1      22.277  13.315  23.872  1.00  0.00     0.074 C 
ENDROOT
BRANCH   1  18
HETATM   18  C2  UNL     1      19.284   8.923  19.832  1.00  0.00     0.269 C 
HETATM   19  O2  UNL     1      19.929   7.877  20.045  1.00  0.00    -0.264 OA
BRANCH  18  20
HETATM   20  O1  UNL     1      18.024   8.782  19.293  1.00  0.00    -0.326 OA
HETATM   21  C1  UNL     1      17.122   7.759  19.665  1.00  0.00     0.213 C 
ENDBRANCH  18  20
ENDBRANCH   1  18
BRANCH   3  22
HETATM   22  O3  UNL     1      18.519  10.080  22.115  1.00  0.00    -0.315 OA
BRANCH  22  23
HETATM   23  C6  UNL     1      17.296  10.355  22.686  1.00  0.00     0.255 C 
HETATM   24  C7  UNL     1      17.152  10.387  24.170  1.00  0.00     0.126 C 
HETATM   25  O4  UNL     1      16.318  10.575  21.925  1.00  0.00    -0.266 OA
ENDBRANCH  22  23
ENDBRANCH   3  22
BRANCH  10  26
HETATM   26  O5  UNL     1      23.203  11.853  18.778  1.00  0.00    -0.395 OA
ATOM     27  H5  UNL     1      23.644  11.057  18.505  1.00  0.00     0.210 HD
ENDBRANCH  10  26
BRANCH  14  28
HETATM   28  O6  UNL     1      22.570   9.913  23.658  1.00  0.00    -0.390 OA
HETATM   29  C19 UNL     1      21.977   9.596  24.870  1.00  0.00     0.202 C 
ENDBRANCH  14  28
BRANCH  16  30
HETATM   30  O8  UNL     1      22.399  15.484  23.141  1.00  0.00    -0.365 OA
ATOM     31  H8  UNL     1      22.980  16.220  22.981  1.00  0.00     0.213 HD
ENDBRANCH  16  30
BRANCH  16  32
HETATM   32  C21 UNL     1      23.794  15.053  24.908  1.00  0.00     0.040 C 
HETATM   33  C22 UNL     1      25.013  14.453  25.491  1.00  0.00     0.015 C 
HETATM   34  C23 UNL     1      22.700  15.008  25.983  1.00  0.00     0.015 C 
ENDBRANCH  16  32
TORSDOF 8
ENDMDL
MODEL 2
REMARK VINA RESULT: -7.544260163      1.358      1.783
REMARK  8 active torsions:
REMARK  status: ('A' for Active; 'I' for Inactive)
REMARK    1  A    between atoms: O1_2  and  C2_3 
REMARK    2  A    between atoms: C2_3  and  C3_5 
REMARK    3  A    between atoms: C5_7  and  O3_8 
REMARK    4  A    between atoms: O3_8  and  C6_9 
REMARK    5  A    between atoms: C14_18  and  O5_19 
REMARK    6  A    between atoms: C18_24  and  O6_25 
REMARK    7  A    between atoms: C20_28  and  O8_29 
REMARK    8  A    between atoms: C20_28  and  C21_31 
ROOT
HETATM    1  C3  UNL     1      20.059  10.187  20.349  1.00  0.00     0.075 C 
HETATM    2  C4  UNL     1      20.223  11.003  19.039  1.00  0.00     0.029 C 
HETATM    3  C5  UNL     1      18.913  10.805  21.063  1.00  0.00     0.151 C 
HETATM    4  C8  UNL     1      19.219  11.794  22.136  1.00  0.00     0.046 C 
HETATM    5  C9  UNL     1      20.612  11.667  22.726  1.00  0.00    -0.002 C 
HETATM    6  C10 UNL     1      21.013  12.817  23.473  1.00  0.00     0.005 C 
HETATM    7  C11 UNL     1      22.349  12.528  24.108  1.00  0.00     0.038 C 
HETATM    8  C12 UNL     1      23.101  13.775  23.680  1.00  0.00     0.128 C 
HETATM    9  C13 UNL     1      23.165  13.541  22.164  1.00  0.00     0.064 C 
HETATM   10  C14 UNL     1      22.917  12.165  21.673  1.00  0.00     0.126 C 
HETATM   11  C15 UNL     1      21.550  11.682  21.500  1.00  0.00     0.031 C 
HETATM   12  C16 UNL     1      21.390  10.283  21.045  1.00  0.00     0.016 C 
HETATM   13  C17 UNL     1      21.488   9.514  22.334  1.00  0.00     0.039 C 
HETATM   14  C18 UNL     1      20.679  10.315  23.326  1.00  0.00     0.130 C 
HETATM   15  O7  UNL     1      22.375  14.809  24.095  1.00  0.00    -0.349 OA
HETATM   16  C20 UNL     1      21.173  14.826  24.663  1.00  0.00     0.165 C 
HETATM   17  C24 UNL     1      20.312  13.543  24.539  1.00  0.00     0.074 C 
ENDROOT
BRANCH   1  18
HETATM   18  C2  UNL     1      19.798   8.813  19.856  1.00  0.00     0.269 C 
HETATM   19  O2  UNL     1      20.423   7.863  20.371  1.00  0.00    -0.264 OA
BRANCH  18  20
HETATM   20  O1  UNL     1      18.907   8.503  18.852  1.00  0.00    -0.326 OA
HETATM   21  C1  UNL     1      18.552   7.181  18.499  1.00  0.00     0.213 C 
ENDBRANCH  18  20
ENDBRANCH   1  18
BRANCH   3  22
HETATM   22  O3  UNL     1      18.038   9.827  21.589  1.00  0.00    -0.315 OA
BRANCH  22  23
HETATM   23  C6  UNL     1      16.665   9.852  21.488  1.00  0.00     0.255 C 
HETATM   24  C7  UNL     1      15.945   8.753  20.782  1.00  0.00     0.126 C 
HETATM   25  O4  UNL     1      16.045  10.820  22.003  1.00  0.00    -0.266 OA
ENDBRANCH  22  23
ENDBRANCH   3  22
BRANCH  10  26
HETATM   26  O5  UNL     1      23.383  12.277  20.306  1.00  0.00    -0.395 OA
ATOM     27  H5  UNL     1      22.585  12.080  19.830  1.00  0.00     0.210 HD
ENDBRANCH  10  26
BRANCH  14  28
HETATM   28  O6  UNL     1      21.117  10.218  24.620  1.00  0.00    -0.390 OA
HETATM   29  C19 UNL     1      22.298   9.504  24.756  1.00  0.00     0.202 C 
ENDBRANCH  14  28
BRANCH  16  30
HETATM   30  O8  UNL     1      20.425  15.715  23.815  1.00  0.00    -0.365 OA
ATOM     31  H8  UNL     1      19.639  15.216  23.620  1.00  0.00     0.213 HD
ENDBRANCH  16  30
BRANCH  16  32
HETATM   32  C21 UNL     1      21.042  15.466  26.008  1.00  0.00     0.040 C 
HETATM   33  C22 UNL     1      22.017  16.523  26.351  1.00  0.00     0.015 C 
HETATM   34  C23 UNL     1      21.109  14.403  27.113  1.00  0.00     0.015 C 
ENDBRANCH  16  32
TORSDOF 8
ENDMDL
MODEL 3
REMARK VINA RESULT: -7.412643315      3.441      7.043
REMARK  8 active torsions:
REMARK  status: ('A' for Active; 'I' for Inactive)
REMARK    1  A    between atoms: O1_2  and  C2_3 
REMARK    2  A    between atoms: C2_3  and  C3_5 
REMARK    3  A    between atoms: C5_7  and  O3_8 
REMARK    4  A    between atoms: O3_8  and  C6_9 
REMARK    5  A    between atoms: C14_18  and  O5_19 
REMARK    6  A    between atoms: C18_24  and  O6_25 
REMARK    7  A    between atoms: C20_28  and  O8_29 
REMARK    8  A    between atoms: C20_28  and  C21_31 
ROOT
HETATM    1  C3  UNL     1      18.922  13.927  27.089  1.00  0.00     0.075 C 
HETATM    2  C4  UNL     1      18.210  12.826  27.920  1.00  0.00     0.029 C 
HETATM    3  C5  UNL     1      18.104  14.089  25.860  1.00  0.00     0.151 C 
HETATM    4  C8  UNL     1      18.550  13.369  24.633  1.00  0.00     0.046 C 
HETATM    5  C9  UNL     1      20.023  13.000  24.624  1.00  0.00    -0.002 C 
HETATM    6  C10 UNL     1      20.350  12.019  23.638  1.00  0.00     0.005 C 
HETATM    7  C11 UNL     1      21.845  11.825  23.640  1.00  0.00     0.038 C 
HETATM    8  C12 UNL     1      21.897  10.310  23.728  1.00  0.00     0.128 C 
HETATM    9  C13 UNL     1      21.326  10.105  25.139  1.00  0.00     0.064 C 
HETATM   10  C14 UNL     1      21.313  11.274  26.048  1.00  0.00     0.126 C 
HETATM   11  C15 UNL     1      20.240  12.260  25.961  1.00  0.00     0.031 C 
HETATM   12  C16 UNL     1      20.323  13.419  26.878  1.00  0.00     0.016 C 
HETATM   13  C17 UNL     1      21.229  14.356  26.128  1.00  0.00     0.039 C 
HETATM   14  C18 UNL     1      20.765  14.279  24.693  1.00  0.00     0.130 C 
HETATM   15  O7  UNL     1      21.166   9.853  22.715  1.00  0.00    -0.349 OA
HETATM   16  C20 UNL     1      20.418  10.519  21.842  1.00  0.00     0.165 C 
HETATM   17  C24 UNL     1      20.032  11.976  22.206  1.00  0.00     0.074 C 
ENDROOT
BRANCH   1  18
HETATM   18  C2  UNL     1      18.896  15.100  27.996  1.00  0.00     0.269 C 
HETATM   19  O2  UNL     1      17.837  15.366  28.600  1.00  0.00    -0.264 OA
BRANCH  18  20
HETATM   20  O1  UNL     1      19.970  15.933  28.220  1.00  0.00    -0.326 OA
HETATM   21  C1  UNL     1      19.951  17.323  27.961  1.00  0.00     0.213 C 
ENDBRANCH  18  20
ENDBRANCH   1  18
BRANCH   3  22
HETATM   22  O3  UNL     1      17.912  15.452  25.538  1.00  0.00    -0.315 OA
BRANCH  22  23
HETATM   23  C6  UNL     1      16.698  16.040  25.263  1.00  0.00     0.255 C 
HETATM   24  C7  UNL     1      15.429  15.320  25.573  1.00  0.00     0.126 C 
HETATM   25  O4  UNL     1      16.693  17.189  24.748  1.00  0.00    -0.266 OA
ENDBRANCH  22  23
ENDBRANCH   3  22
BRANCH  10  26
HETATM   26  O5  UNL     1      21.042  10.629  27.316  1.00  0.00    -0.395 OA
ATOM     27  H5  UNL     1      21.311   9.739  27.123  1.00  0.00     0.210 HD
ENDBRANCH  10  26
BRANCH  14  28
HETATM   28  O6  UNL     1      21.753  14.488  23.768  1.00  0.00    -0.390 OA
HETATM   29  C19 UNL     1      22.735  15.370  24.192  1.00  0.00     0.202 C 
ENDBRANCH  14  28
BRANCH  16  30
HETATM   30  O8  UNL     1      19.134   9.882  21.961  1.00  0.00    -0.365 OA
ATOM     31  H8  UNL     1      18.994   9.515  21.095  1.00  0.00     0.213 HD
ENDBRANCH  16  30
BRANCH  16  32
HETATM   32  C21 UNL     1      20.729  10.364  20.388  1.00  0.00     0.040 C 
HETATM   33  C22 UNL     1      21.822  11.196  19.839  1.00  0.00     0.015 C 
HETATM   34  C23 UNL     1      19.477  10.635  19.543  1.00  0.00     0.015 C 
ENDBRANCH  16  32
TORSDOF 8
ENDMDL
MODEL 4
REMARK VINA RESULT: -7.326618951      2.401      7.416
REMARK  8 active torsions:
REMARK  status: ('A' for Active; 'I' for Inactive)
REMARK    1  A    between atoms: O1_2  and  C2_3 
REMARK    2  A    between atoms: C2_3  and  C3_5 
REMARK    3  A    between atoms: C5_7  and  O3_8 
REMARK    4  A    between atoms: O3_8  and  C6_9 
REMARK    5  A    between atoms: C14_18  and  O5_19 
REMARK    6  A    between atoms: C18_24  and  O6_25 
REMARK    7  A    between atoms: C20_28  and  O8_29 
REMARK    8  A    between atoms: C20_28  and  C21_31 
ROOT
HETATM    1  C3  UNL     1      20.261  14.111  26.066  1.00  0.00     0.075 C 
HETATM    2  C4  UNL     1      19.118  15.161  26.088  1.00  0.00     0.029 C 
HETATM    3  C5  UNL     1      20.902  14.247  24.734  1.00  0.00     0.151 C 
HETATM    4  C8  UNL     1      20.485  13.296  23.664  1.00  0.00     0.046 C 
HETATM    5  C9  UNL     1      19.876  12.004  24.178  1.00  0.00    -0.002 C 
HETATM    6  C10 UNL     1      19.165  11.279  23.173  1.00  0.00     0.005 C 
HETATM    7  C11 UNL     1      18.714   9.967  23.764  1.00  0.00     0.038 C 
HETATM    8  C12 UNL     1      17.251  10.006  23.361  1.00  0.00     0.128 C 
HETATM    9  C13 UNL     1      16.766  11.179  24.224  1.00  0.00     0.064 C 
HETATM   10  C14 UNL     1      17.620  11.587  25.365  1.00  0.00     0.126 C 
HETATM   11  C15 UNL     1      18.766  12.464  25.149  1.00  0.00     0.031 C 
HETATM   12  C16 UNL     1      19.590  12.790  26.334  1.00  0.00     0.016 C 
HETATM   13  C17 UNL     1      20.521  11.611  26.411  1.00  0.00     0.039 C 
HETATM   14  C18 UNL     1      20.930  11.346  24.982  1.00  0.00     0.130 C 
HETATM   15  O7  UNL     1      17.232  10.185  22.043  1.00  0.00    -0.349 OA
HETATM   16  C20 UNL     1      18.237  10.415  21.205  1.00  0.00     0.165 C 
HETATM   17  C24 UNL     1      19.580  10.885  21.821  1.00  0.00     0.074 C 
ENDROOT
BRANCH   1  18
HETATM   18  C2  UNL     1      21.120  14.527  27.200  1.00  0.00     0.269 C 
HETATM   19  O2  UNL     1      21.445  15.729  27.295  1.00  0.00    -0.264 OA
BRANCH  18  20
HETATM   20  O1  UNL     1      21.598  13.673  28.169  1.00  0.00    -0.326 OA
HETATM   21  C1  UNL     1      21.136  13.666  29.505  1.00  0.00     0.213 C 
ENDBRANCH  18  20
ENDBRANCH   1  18
BRANCH   3  22
HETATM   22  O3  UNL     1      22.313  14.227  24.829  1.00  0.00    -0.315 OA
BRANCH  22  23
HETATM   23  C6  UNL     1      23.183  14.294  23.764  1.00  0.00     0.255 C 
HETATM   24  C7  UNL     1      24.050  13.128  23.430  1.00  0.00     0.126 C 
HETATM   25  O4  UNL     1      23.223  15.358  23.091  1.00  0.00    -0.266 OA
ENDBRANCH  22  23
ENDBRANCH   3  22
BRANCH  10  26
HETATM   26  O5  UNL     1      16.707  12.441  26.095  1.00  0.00    -0.395 OA
ATOM     27  H5  UNL     1      15.982  12.491  25.483  1.00  0.00     0.210 HD
ENDBRANCH  10  26
BRANCH  14  28
HETATM   28  O6  UNL     1      21.208  10.033  24.709  1.00  0.00    -0.390 OA
HETATM   29  C19 UNL     1      22.485   9.826  24.212  1.00  0.00     0.202 C 
ENDBRANCH  14  28
BRANCH  16  30
HETATM   30  O8  UNL     1      17.833  11.620  20.533  1.00  0.00    -0.365 OA
ATOM     31  H8  UNL     1      18.595  12.181  20.619  1.00  0.00     0.213 HD
ENDBRANCH  16  30
BRANCH  16  32
HETATM   32  C21 UNL     1      18.440   9.459  20.073  1.00  0.00     0.040 C 
HETATM   33  C22 UNL     1      17.425   8.399  19.894  1.00  0.00     0.015 C 
HETATM   34  C23 UNL     1      19.806   8.770  20.195  1.00  0.00     0.015 C 
ENDBRANCH  16  32
TORSDOF 8
ENDMDL
MODEL 5
REMARK VINA RESULT: -7.242081310      2.382      6.664
REMARK  8 active torsions:
REMARK  status: ('A' for Active; 'I' for Inactive)
REMARK    1  A    between atoms: O1_2  and  C2_3 
REMARK    2  A    between atoms: C2_3  and  C3_5 
REMARK    3  A    between atoms: C5_7  and  O3_8 
REMARK    4  A    between atoms: O3_8  and  C6_9 
REMARK    5  A    between atoms: C14_18  and  O5_19 
REMARK    6  A    between atoms: C18_24  and  O6_25 
REMARK    7  A    between atoms: C20_28  and  O8_29 
REMARK    8  A    between atoms: C20_28  and  C21_31 
ROOT
HETATM    1  C3  UNL     1      21.708  11.985  25.083  1.00  0.00     0.075 C 
HETATM    2  C4  UNL     1      23.192  11.533  25.027  1.00  0.00     0.029 C 
HETATM    3  C5  UNL     1      20.921  10.744  25.298  1.00  0.00     0.151 C 
HETATM    4  C8  UNL     1      20.311  10.096  24.102  1.00  0.00     0.046 C 
HETATM    5  C9  UNL     1      20.113  11.025  22.919  1.00  0.00    -0.002 C 
HETATM    6  C10 UNL     1      19.874  10.331  21.693  1.00  0.00     0.005 C 
HETATM    7  C11 UNL     1      19.571  11.349  20.623  1.00  0.00     0.038 C 
HETATM    8  C12 UNL     1      20.534  10.873  19.550  1.00  0.00     0.128 C 
HETATM    9  C13 UNL     1      21.873  11.190  20.231  1.00  0.00     0.064 C 
HETATM   10  C14 UNL     1      21.853  12.139  21.369  1.00  0.00     0.126 C 
HETATM   11  C15 UNL     1      21.496  11.676  22.707  1.00  0.00     0.031 C 
HETATM   12  C16 UNL     1      21.461  12.695  23.779  1.00  0.00     0.016 C 
HETATM   13  C17 UNL     1      20.082  13.274  23.624  1.00  0.00     0.039 C 
HETATM   14  C18 UNL     1      19.186  12.083  23.381  1.00  0.00     0.130 C 
HETATM   15  O7  UNL     1      20.257   9.587  19.346  1.00  0.00    -0.349 OA
HETATM   16  C20 UNL     1      19.415   8.789  19.993  1.00  0.00     0.165 C 
HETATM   17  C24 UNL     1      18.918   9.261  21.384  1.00  0.00     0.074 C 
ENDROOT
BRANCH   1  18
HETATM   18  C2  UNL     1      21.687  12.925  26.230  1.00  0.00     0.269 C 
HETATM   19  O2  UNL     1      20.775  13.774  26.290  1.00  0.00    -0.264 OA
BRANCH  18  20
HETATM   20  O1  UNL     1      22.617  12.932  27.246  1.00  0.00    -0.326 OA
HETATM   21  C1  UNL     1      22.341  13.380  28.558  1.00  0.00     0.213 C 
ENDBRANCH  18  20
ENDBRANCH   1  18
BRANCH   3  22
HETATM   22  O3  UNL     1      19.915  10.927  26.274  1.00  0.00    -0.315 OA
BRANCH  22  23
HETATM   23  C6  UNL     1      20.039  10.626  27.611  1.00  0.00     0.255 C 
HETATM   24  C7  UNL     1      19.382  11.485  28.638  1.00  0.00     0.126 C 
HETATM   25  O4  UNL     1      20.717   9.616  27.936  1.00  0.00    -0.266 OA
ENDBRANCH  22  23
ENDBRANCH   3  22
BRANCH  10  26
HETATM   26  O5  UNL     1      23.265  12.429  21.505  1.00  0.00    -0.395 OA
ATOM     27  H5  UNL     1      23.237  13.177  22.090  1.00  0.00     0.210 HD
ENDBRANCH  10  26
BRANCH  14  28
HETATM   28  O6  UNL     1      18.091  12.350  22.603  1.00  0.00    -0.390 OA
HETATM   29  C19 UNL     1      16.890  11.979  23.187  1.00  0.00     0.202 C 
ENDBRANCH  14  28
BRANCH  16  30
HETATM   30  O8  UNL     1      20.247   7.684  20.384  1.00  0.00    -0.365 OA
ATOM     31  H8  UNL     1      19.953   7.494  21.268  1.00  0.00     0.213 HD
ENDBRANCH  16  30
BRANCH  16  32
HETATM   32  C21 UNL     1      18.333   8.123  19.204  1.00  0.00     0.040 C 
HETATM   33  C22 UNL     1      16.995   8.042  19.828  1.00  0.00     0.015 C 
HETATM   34  C23 UNL     1      18.751   6.695  18.826  1.00  0.00     0.015 C 
ENDBRANCH  16  32
TORSDOF 8
ENDMDL
