MODEL 1
REMARK VINA RESULT: -7.000171177      0.000      0.000
REMARK  5 active torsions:
REMARK  status: ('A' for Active; 'I' for Inactive)
REMARK    1  A    between atoms: N1_1  and  C1_4 
REMARK    2  A    between atoms: C3_8  and  O1_9 
REMARK    3  A    between atoms: N3_11  and  C4_12 
REMARK    4  A    between atoms: C4_12  and  C5_13 
REMARK    5  A    between atoms: C5_13  and  N4_14 
ROOT
HETATM    1  C1  UNL     1     -28.952 -18.254   9.414  1.00  0.00     0.680 A 
HETATM    2  N2  UNL     1     -29.901 -19.209   9.422  1.00  0.00    -0.198 N 
ATOM      3  H2  UNL     1     -30.116 -19.857   8.663  1.00  0.00     0.183 HD
HETATM    4  C2  UNL     1     -30.516 -19.148  10.627  1.00  0.00     0.162 A 
HETATM    5  C3  UNL     1     -29.933 -18.153  11.345  1.00  0.00     0.174 A 
HETATM    6  N3  UNL     1     -28.967 -17.608  10.583  1.00  0.00    -0.156 N 
ENDROOT
BRANCH   6   7
HETATM    7  C4  UNL     1     -28.095 -16.491  10.980  1.00  0.00     0.195 C 
BRANCH   7   8
HETATM    8  C5  UNL     1     -28.638 -15.251  10.372  1.00  0.00     0.089 C 
BRANCH   8   9
HETATM    9  N4  UNL     1     -28.739 -14.106  11.187  1.00  0.00    -0.351 N 
HETATM   10  C6  UNL     1     -29.578 -14.331  12.291  1.00  0.00     0.068 C 
HETATM   11  C7  UNL     1     -30.428 -13.206  12.773  1.00  0.00     0.045 C 
HETATM   12  C8  UNL     1     -29.816 -12.606  14.038  1.00  0.00     0.007 C 
HETATM   13  C9  UNL     1     -29.639 -11.123  13.788  1.00  0.00     0.027 C 
HETATM   14  C10 UNL     1     -28.199 -10.849  13.376  1.00  0.00     0.168 C 
HETATM   15  O2  UNL     1     -27.688 -12.013  12.857  1.00  0.00    -0.386 OA
HETATM   16  C11 UNL     1     -27.473 -12.018  11.516  1.00  0.00     0.212 C 
HETATM   17  C12 UNL     1     -28.446 -12.843  10.715  1.00  0.00     0.094 C 
ENDBRANCH   8   9
ENDBRANCH   7   8
ENDBRANCH   6   7
BRANCH   1  18
HETATM   18  N1  UNL     1     -28.175 -18.027   8.426  1.00  0.00    -0.234 N 
ATOM     19  H12 UNL     1     -27.210 -18.340   8.326  1.00  0.00     0.174 HD
ATOM     20  H11 UNL     1     -28.442 -17.487   7.603  1.00  0.00     0.174 HD
ENDBRANCH   1  18
BRANCH   5  21
HETATM   21  O1  UNL     1     -30.292 -17.791  12.628  1.00  0.00    -0.345 OA
ATOM     22  H1  UNL     1     -29.872 -18.108  13.419  1.00  0.00     0.219 HD
ENDBRANCH   5  21
TORSDOF 5
ENDMDL
MODEL 2
REMARK VINA RESULT: -6.874478791      0.755      1.762
REMARK  5 active torsions:
REMARK  status: ('A' for Active; 'I' for Inactive)
REMARK    1  A    between atoms: N1_1  and  C1_4 
REMARK    2  A    between atoms: C3_8  and  O1_9 
REMARK    3  A    between atoms: N3_11  and  C4_12 
REMARK    4  A    between atoms: C4_12  and  C5_13 
REMARK    5  A    between atoms: C5_13  and  N4_14 
ROOT
HETATM    1  C1  UNL     1     -28.902 -18.210   9.358  1.00  0.00     0.680 A 
HETATM    2  N2  UNL     1     -29.901 -19.113   9.324  1.00  0.00    -0.198 N 
ATOM      3  H2  UNL     1     -30.142 -19.721   8.541  1.00  0.00     0.183 HD
HETATM    4  C2  UNL     1     -30.526 -19.059  10.524  1.00  0.00     0.162 A 
HETATM    5  C3  UNL     1     -29.900 -18.121  11.282  1.00  0.00     0.174 A 
HETATM    6  N3  UNL     1     -28.896 -17.603  10.548  1.00  0.00    -0.156 N 
ENDROOT
BRANCH   6   7
HETATM    7  C4  UNL     1     -27.971 -16.550  10.992  1.00  0.00     0.195 C 
BRANCH   7   8
HETATM    8  C5  UNL     1     -28.479 -15.252  10.481  1.00  0.00     0.089 C 
BRANCH   8   9
HETATM    9  N4  UNL     1     -28.586 -14.181  11.390  1.00  0.00    -0.351 N 
HETATM   10  C6  UNL     1     -27.554 -13.246  11.209  1.00  0.00     0.068 C 
HETATM   11  C7  UNL     1     -27.001 -12.562  12.412  1.00  0.00     0.045 C 
HETATM   12  C8  UNL     1     -27.552 -11.139  12.493  1.00  0.00     0.007 C 
HETATM   13  C9  UNL     1     -28.188 -10.984  13.858  1.00  0.00     0.027 C 
HETATM   14  C10 UNL     1     -29.693 -11.190  13.741  1.00  0.00     0.168 C 
HETATM   15  O2  UNL     1     -29.920 -11.948  12.618  1.00  0.00    -0.386 OA
HETATM   16  C11 UNL     1     -30.334 -13.223  12.839  1.00  0.00     0.212 C 
HETATM   17  C12 UNL     1     -29.303 -14.287  12.565  1.00  0.00     0.094 C 
ENDBRANCH   8   9
ENDBRANCH   7   8
ENDBRANCH   6   7
BRANCH   1  18
HETATM   18  N1  UNL     1     -28.102 -17.992   8.387  1.00  0.00    -0.234 N 
ATOM     19  H12 UNL     1     -27.105 -18.206   8.359  1.00  0.00     0.174 HD
ATOM     20  H11 UNL     1     -28.381 -17.564   7.504  1.00  0.00     0.174 HD
ENDBRANCH   1  18
BRANCH   5  21
HETATM   21  O1  UNL     1     -30.255 -17.784  12.572  1.00  0.00    -0.345 OA
ATOM     22  H1  UNL     1     -30.307 -16.896  12.907  1.00  0.00     0.219 HD
ENDBRANCH   5  21
TORSDOF 5
ENDMDL
MODEL 3
REMARK VINA RESULT: -6.844439405      1.533      1.931
REMARK  5 active torsions:
REMARK  status: ('A' for Active; 'I' for Inactive)
REMARK    1  A    between atoms: N1_1  and  C1_4 
REMARK    2  A    between atoms: C3_8  and  O1_9 
REMARK    3  A    between atoms: N3_11  and  C4_12 
REMARK    4  A    between atoms: C4_12  and  C5_13 
REMARK    5  A    between atoms: C5_13  and  N4_14 
ROOT
HETATM    1  C1  UNL     1     -29.097 -18.323   9.622  1.00  0.00     0.680 A 
HETATM    2  N2  UNL     1     -30.264 -18.996   9.621  1.00  0.00    -0.198 N 
ATOM      3  H2  UNL     1     -30.699 -19.455   8.821  1.00  0.00     0.183 HD
HETATM    4  C2  UNL     1     -30.751 -18.947  10.884  1.00  0.00     0.162 A 
HETATM    5  C3  UNL     1     -29.873 -18.242  11.645  1.00  0.00     0.174 A 
HETATM    6  N3  UNL     1     -28.854 -17.862  10.852  1.00  0.00    -0.156 N 
ENDROOT
BRANCH   6   7
HETATM    7  C4  UNL     1     -27.690 -17.071  11.279  1.00  0.00     0.195 C 
BRANCH   7   8
HETATM    8  C5  UNL     1     -28.021 -15.637  11.094  1.00  0.00     0.089 C 
BRANCH   8   9
HETATM    9  N4  UNL     1     -28.447 -14.907  12.221  1.00  0.00    -0.351 N 
HETATM   10  C6  UNL     1     -29.621 -14.183  11.954  1.00  0.00     0.068 C 
HETATM   11  C7  UNL     1     -29.788 -12.848  12.594  1.00  0.00     0.045 C 
HETATM   12  C8  UNL     1     -30.761 -12.959  13.767  1.00  0.00     0.007 C 
HETATM   13  C9  UNL     1     -30.053 -12.408  14.987  1.00  0.00     0.027 C 
HETATM   14  C10 UNL     1     -29.480 -13.561  15.801  1.00  0.00     0.168 C 
HETATM   15  O2  UNL     1     -29.312 -14.625  14.950  1.00  0.00    -0.386 OA
HETATM   16  C11 UNL     1     -28.027 -14.945  14.649  1.00  0.00     0.212 C 
HETATM   17  C12 UNL     1     -27.588 -14.586  13.254  1.00  0.00     0.094 C 
ENDBRANCH   8   9
ENDBRANCH   7   8
ENDBRANCH   6   7
BRANCH   1  18
HETATM   18  N1  UNL     1     -28.362 -18.167   8.590  1.00  0.00    -0.234 N 
ATOM     19  H12 UNL     1     -27.948 -18.905   8.020  1.00  0.00     0.174 HD
ATOM     20  H11 UNL     1     -28.097 -17.258   8.210  1.00  0.00     0.174 HD
ENDBRANCH   1  18
BRANCH   5  21
HETATM   21  O1  UNL     1     -30.029 -17.982  12.992  1.00  0.00    -0.345 OA
ATOM     22  H1  UNL     1     -29.642 -17.246  13.451  1.00  0.00     0.219 HD
ENDBRANCH   5  21
TORSDOF 5
ENDMDL
MODEL 4
REMARK VINA RESULT: -6.649014860      1.297      1.786
REMARK  5 active torsions:
REMARK  status: ('A' for Active; 'I' for Inactive)
REMARK    1  A    between atoms: N1_1  and  C1_4 
REMARK    2  A    between atoms: C3_8  and  O1_9 
REMARK    3  A    between atoms: N3_11  and  C4_12 
REMARK    4  A    between atoms: C4_12  and  C5_13 
REMARK    5  A    between atoms: C5_13  and  N4_14 
ROOT
HETATM    1  C1  UNL     1     -28.917 -18.251   9.362  1.00  0.00     0.680 A 
HETATM    2  N2  UNL     1     -30.068 -18.937   9.223  1.00  0.00    -0.198 N 
ATOM      3  H2  UNL     1     -30.396 -19.405   8.378  1.00  0.00     0.183 HD
HETATM    4  C2  UNL     1     -30.705 -18.888  10.416  1.00  0.00     0.162 A 
HETATM    5  C3  UNL     1     -29.935 -18.170  11.275  1.00  0.00     0.174 A 
HETATM    6  N3  UNL     1     -28.831 -17.782  10.610  1.00  0.00    -0.156 N 
ENDROOT
BRANCH   6   7
HETATM    7  C4  UNL     1     -27.736 -16.976  11.172  1.00  0.00     0.195 C 
BRANCH   7   8
HETATM    8  C5  UNL     1     -28.099 -15.545  11.019  1.00  0.00     0.089 C 
BRANCH   8   9
HETATM    9  N4  UNL     1     -28.545 -14.852  12.162  1.00  0.00    -0.351 N 
HETATM   10  C6  UNL     1     -27.880 -15.285  13.321  1.00  0.00     0.068 C 
HETATM   11  C7  UNL     1     -28.645 -15.334  14.598  1.00  0.00     0.045 C 
HETATM   12  C8  UNL     1     -28.264 -14.141  15.472  1.00  0.00     0.007 C 
HETATM   13  C9  UNL     1     -29.547 -13.418  15.824  1.00  0.00     0.027 C 
HETATM   14  C10 UNL     1     -29.733 -12.232  14.886  1.00  0.00     0.168 C 
HETATM   15  O2  UNL     1     -29.022 -12.496  13.741  1.00  0.00    -0.386 OA
HETATM   16  C11 UNL     1     -29.762 -12.762  12.634  1.00  0.00     0.212 C 
HETATM   17  C12 UNL     1     -29.763 -14.203  12.197  1.00  0.00     0.094 C 
ENDBRANCH   8   9
ENDBRANCH   7   8
ENDBRANCH   6   7
BRANCH   1  18
HETATM   18  N1  UNL     1     -28.062 -18.091   8.427  1.00  0.00    -0.234 N 
ATOM     19  H12 UNL     1     -28.263 -17.919   7.442  1.00  0.00     0.174 HD
ATOM     20  H11 UNL     1     -27.052 -18.120   8.566  1.00  0.00     0.174 HD
ENDBRANCH   1  18
BRANCH   5  21
HETATM   21  O1  UNL     1     -30.257 -17.906  12.591  1.00  0.00    -0.345 OA
ATOM     22  H1  UNL     1     -30.209 -17.050  13.001  1.00  0.00     0.219 HD
ENDBRANCH   5  21
TORSDOF 5
ENDMDL
MODEL 5
REMARK VINA RESULT: -6.631588358      1.949      2.606
REMARK  5 active torsions:
REMARK  status: ('A' for Active; 'I' for Inactive)
REMARK    1  A    between atoms: N1_1  and  C1_4 
REMARK    2  A    between atoms: C3_8  and  O1_9 
REMARK    3  A    between atoms: N3_11  and  C4_12 
REMARK    4  A    between atoms: C4_12  and  C5_13 
REMARK    5  A    between atoms: C5_13  and  N4_14 
ROOT
HETATM    1  C1  UNL     1     -29.775 -18.137  11.673  1.00  0.00     0.680 A 
HETATM    2  N2  UNL     1     -30.676 -18.762  10.892  1.00  0.00    -0.198 N 
ATOM      3  H2  UNL     1     -31.573 -19.146  11.189  1.00  0.00     0.183 HD
HETATM    4  C2  UNL     1     -30.166 -18.784   9.637  1.00  0.00     0.162 A 
HETATM    5  C3  UNL     1     -28.954 -18.171   9.666  1.00  0.00     0.174 A 
HETATM    6  N3  UNL     1     -28.724 -17.775  10.932  1.00  0.00    -0.156 N 
ENDROOT
BRANCH   6   7
HETATM    7  C4  UNL     1     -27.518 -17.075  11.401  1.00  0.00     0.195 C 
BRANCH   7   8
HETATM    8  C5  UNL     1     -27.721 -15.622  11.180  1.00  0.00     0.089 C 
BRANCH   8   9
HETATM    9  N4  UNL     1     -28.258 -14.862  12.237  1.00  0.00    -0.351 N 
HETATM   10  C6  UNL     1     -29.451 -14.223  11.860  1.00  0.00     0.068 C 
HETATM   11  C7  UNL     1     -29.734 -12.869  12.414  1.00  0.00     0.045 C 
HETATM   12  C8  UNL     1     -30.771 -12.977  13.531  1.00  0.00     0.007 C 
HETATM   13  C9  UNL     1     -30.175 -12.324  14.759  1.00  0.00     0.027 C 
HETATM   14  C10 UNL     1     -29.590 -13.397  15.669  1.00  0.00     0.168 C 
HETATM   15  O2  UNL     1     -29.309 -14.492  14.889  1.00  0.00    -0.386 OA
HETATM   16  C11 UNL     1     -27.992 -14.750  14.684  1.00  0.00     0.212 C 
HETATM   17  C12 UNL     1     -27.486 -14.437  13.300  1.00  0.00     0.094 C 
ENDBRANCH   8   9
ENDBRANCH   7   8
ENDBRANCH   6   7
BRANCH   1  18
HETATM   18  N1  UNL     1     -29.930 -17.939  12.925  1.00  0.00    -0.234 N 
ATOM     19  H12 UNL     1     -30.401 -17.147  13.362  1.00  0.00     0.174 HD
ATOM     20  H11 UNL     1     -29.587 -18.570  13.649  1.00  0.00     0.174 HD
ENDBRANCH   1  18
BRANCH   5  21
HETATM   21  O1  UNL     1     -28.131 -17.999   8.572  1.00  0.00    -0.345 OA
ATOM     22  H1  UNL     1     -27.492 -17.302   8.476  1.00  0.00     0.219 HD
ENDBRANCH   5  21
TORSDOF 5
ENDMDL
