MODEL 1
REMARK VINA RESULT: -6.341373083      0.000      0.000
REMARK  5 active torsions:
REMARK  status: ('A' for Active; 'I' for Inactive)
REMARK    1  A    between atoms: C5_7  and  N2_8 
REMARK    2  A    between atoms: N2_8  and  C6_10 
REMARK    3  A    between atoms: C6_10  and  C7_11 
REMARK    4  A    between atoms: C7_11  and  O1_12 
REMARK    5  A    between atoms: N4_16  and  C8_17 
ROOT
HETATM    1  C1  UNL     1     -26.200 -14.373  12.122  1.00  0.00     0.041 C 
HETATM    2  C2  UNL     1     -27.531 -14.889  11.567  1.00  0.00     0.058 C 
HETATM    3  C3  UNL     1     -27.914 -14.056  10.364  1.00  0.00     0.041 C 
HETATM    4  C4  UNL     1     -27.231 -16.281  11.052  1.00  0.00     0.170 C 
HETATM    5  N1  UNL     1     -28.400 -17.084  10.899  1.00  0.00    -0.223 N 
ATOM      6  H1  UNL     1     -28.544 -17.649  10.062  1.00  0.00     0.177 HD
HETATM    7  C5  UNL     1     -29.356 -17.074  11.948  1.00  0.00     0.688 C 
HETATM    8  N3  UNL     1     -29.378 -16.031  12.693  1.00  0.00    -0.134 N 
ATOM      9  H3  UNL     1     -30.065 -16.020  13.448  1.00  0.00     0.205 HD
HETATM   10  N4  UNL     1     -28.556 -14.909  12.574  1.00  0.00    -0.298 N 
ENDROOT
BRANCH   7  11
HETATM   11  N2  UNL     1     -30.247 -18.181  12.152  1.00  0.00    -0.223 N 
ATOM     12  H2  UNL     1     -30.865 -18.171  12.964  1.00  0.00     0.177 HD
BRANCH  11  13
HETATM   13  C6  UNL     1     -30.301 -19.303  11.251  1.00  0.00     0.164 C 
BRANCH  13  14
HETATM   14  C7  UNL     1     -31.762 -19.480  10.841  1.00  0.00     0.184 C 
BRANCH  14  15
HETATM   15  O1  UNL     1     -32.108 -20.840  10.795  1.00  0.00    -0.399 OA
ATOM     16  H1  UNL     1     -33.051 -20.951  10.835  1.00  0.00     0.209 HD
ENDBRANCH  14  15
ENDBRANCH  13  14
ENDBRANCH  11  13
ENDBRANCH   7  11
BRANCH  10  17
HETATM   17  C8  UNL     1     -28.815 -13.844  13.493  1.00  0.00     0.104 C 
HETATM   18  C9  UNL     1     -30.217 -13.311  13.456  1.00  0.00     0.027 C 
HETATM   19  C10 UNL     1     -30.353 -12.404  14.691  1.00  0.00     0.002 C 
HETATM   20  C11 UNL     1     -30.506 -13.237  15.942  1.00  0.00     0.000 C 
HETATM   21  C12 UNL     1     -29.737 -14.522  15.721  1.00  0.00     0.002 C 
HETATM   22  C13 UNL     1     -28.499 -14.181  14.920  1.00  0.00     0.027 C 
ENDBRANCH  10  17
TORSDOF 5
ENDMDL
MODEL 2
REMARK VINA RESULT: -6.329686463      2.366      3.109
REMARK  5 active torsions:
REMARK  status: ('A' for Active; 'I' for Inactive)
REMARK    1  A    between atoms: C5_7  and  N2_8 
REMARK    2  A    between atoms: N2_8  and  C6_10 
REMARK    3  A    between atoms: C6_10  and  C7_11 
REMARK    4  A    between atoms: C7_11  and  O1_12 
REMARK    5  A    between atoms: N4_16  and  C8_17 
ROOT
HETATM    1  C1  UNL     1     -26.840 -16.885  10.074  1.00  0.00     0.041 C 
HETATM    2  C2  UNL     1     -28.328 -17.019  10.411  1.00  0.00     0.058 C 
HETATM    3  C3  UNL     1     -29.025 -15.720  10.071  1.00  0.00     0.041 C 
HETATM    4  C4  UNL     1     -28.858 -18.059   9.446  1.00  0.00     0.170 C 
HETATM    5  N1  UNL     1     -30.091 -18.639   9.871  1.00  0.00    -0.223 N 
ATOM      6  H1  UNL     1     -30.864 -18.768   9.218  1.00  0.00     0.177 HD
HETATM    7  C5  UNL     1     -30.208 -19.030  11.230  1.00  0.00     0.688 C 
HETATM    8  N3  UNL     1     -29.454 -18.421  12.070  1.00  0.00    -0.134 N 
ATOM      9  H3  UNL     1     -29.536 -18.699  13.047  1.00  0.00     0.205 HD
HETATM   10  N4  UNL     1     -28.531 -17.415  11.777  1.00  0.00    -0.298 N 
ENDROOT
BRANCH   7  11
HETATM   11  N2  UNL     1     -31.129 -20.055  11.632  1.00  0.00    -0.223 N 
ATOM     12  H2  UNL     1     -30.763 -20.905  12.060  1.00  0.00     0.177 HD
BRANCH  11  13
HETATM   13  C6  UNL     1     -32.552 -19.926  11.451  1.00  0.00     0.164 C 
BRANCH  13  14
HETATM   14  C7  UNL     1     -33.220 -20.711  12.579  1.00  0.00     0.184 C 
BRANCH  14  15
HETATM   15  O1  UNL     1     -34.047 -19.876  13.348  1.00  0.00    -0.399 OA
ATOM     16  H1  UNL     1     -34.947 -20.179  13.327  1.00  0.00     0.209 HD
ENDBRANCH  14  15
ENDBRANCH  13  14
ENDBRANCH  11  13
ENDBRANCH   7  11
BRANCH  10  17
HETATM   17  C8  UNL     1     -27.849 -16.848  12.899  1.00  0.00     0.104 C 
HETATM   18  C9  UNL     1     -28.704 -15.991  13.785  1.00  0.00     0.027 C 
HETATM   19  C10 UNL     1     -27.869 -15.734  15.052  1.00  0.00     0.002 C 
HETATM   20  C11 UNL     1     -27.857 -16.960  15.934  1.00  0.00     0.000 C 
HETATM   21  C12 UNL     1     -27.955 -18.167  15.025  1.00  0.00     0.002 C 
HETATM   22  C13 UNL     1     -27.166 -17.859  13.770  1.00  0.00     0.027 C 
ENDBRANCH  10  17
TORSDOF 5
ENDMDL
MODEL 3
REMARK VINA RESULT: -6.095847450      2.230      3.074
REMARK  5 active torsions:
REMARK  status: ('A' for Active; 'I' for Inactive)
REMARK    1  A    between atoms: C5_7  and  N2_8 
REMARK    2  A    between atoms: N2_8  and  C6_10 
REMARK    3  A    between atoms: C6_10  and  C7_11 
REMARK    4  A    between atoms: C7_11  and  O1_12 
REMARK    5  A    between atoms: N4_16  and  C8_17 
ROOT
HETATM    1  C1  UNL     1     -27.350 -13.290  12.464  1.00  0.00     0.041 C 
HETATM    2  C2  UNL     1     -28.325 -14.355  11.957  1.00  0.00     0.058 C 
HETATM    3  C3  UNL     1     -29.738 -13.908  12.258  1.00  0.00     0.041 C 
HETATM    4  C4  UNL     1     -28.178 -14.339  10.449  1.00  0.00     0.170 C 
HETATM    5  N1  UNL     1     -28.661 -15.529   9.828  1.00  0.00    -0.223 N 
ATOM      6  H1  UNL     1     -29.245 -15.486   8.993  1.00  0.00     0.177 HD
HETATM    7  C5  UNL     1     -28.303 -16.774  10.407  1.00  0.00     0.688 C 
HETATM    8  N3  UNL     1     -28.019 -16.764  11.658  1.00  0.00    -0.134 N 
ATOM      9  H3  UNL     1     -27.763 -17.658  12.078  1.00  0.00     0.205 HD
HETATM   10  N4  UNL     1     -28.028 -15.652  12.501  1.00  0.00    -0.298 N 
ENDROOT
BRANCH   7  11
HETATM   11  N2  UNL     1     -28.266 -17.976   9.623  1.00  0.00    -0.223 N 
ATOM     12  H2  UNL     1     -27.370 -18.440   9.476  1.00  0.00     0.177 HD
BRANCH  11  13
HETATM   13  C6  UNL     1     -29.450 -18.550   9.036  1.00  0.00     0.164 C 
BRANCH  13  14
HETATM   14  C7  UNL     1     -30.412 -18.862  10.182  1.00  0.00     0.184 C 
BRANCH  14  15
HETATM   15  O1  UNL     1     -31.714 -19.068   9.698  1.00  0.00    -0.399 OA
ATOM     16  H1  UNL     1     -31.696 -19.388   8.804  1.00  0.00     0.209 HD
ENDBRANCH  14  15
ENDBRANCH  13  14
ENDBRANCH  11  13
ENDBRANCH   7  11
BRANCH  10  17
HETATM   17  C8  UNL     1     -27.731 -15.908  13.876  1.00  0.00     0.104 C 
HETATM   18  C9  UNL     1     -28.800 -16.654  14.620  1.00  0.00     0.027 C 
HETATM   19  C10 UNL     1     -28.166 -17.070  15.959  1.00  0.00     0.002 C 
HETATM   20  C11 UNL     1     -27.230 -18.239  15.759  1.00  0.00     0.000 C 
HETATM   21  C12 UNL     1     -26.645 -18.110  14.369  1.00  0.00     0.002 C 
HETATM   22  C13 UNL     1     -26.438 -16.636  14.095  1.00  0.00     0.027 C 
ENDBRANCH  10  17
TORSDOF 5
ENDMDL
MODEL 4
REMARK VINA RESULT: -6.007399564      1.191      1.384
REMARK  5 active torsions:
REMARK  status: ('A' for Active; 'I' for Inactive)
REMARK    1  A    between atoms: C5_7  and  N2_8 
REMARK    2  A    between atoms: N2_8  and  C6_10 
REMARK    3  A    between atoms: C6_10  and  C7_11 
REMARK    4  A    between atoms: C7_11  and  O1_12 
REMARK    5  A    between atoms: N4_16  and  C8_17 
ROOT
HETATM    1  C1  UNL     1     -26.068 -15.481  14.262  1.00  0.00     0.041 C 
HETATM    2  C2  UNL     1     -26.890 -15.956  13.062  1.00  0.00     0.058 C 
HETATM    3  C3  UNL     1     -26.144 -15.615  11.792  1.00  0.00     0.041 C 
HETATM    4  C4  UNL     1     -26.901 -17.468  13.164  1.00  0.00     0.170 C 
HETATM    5  N1  UNL     1     -27.953 -18.072  12.413  1.00  0.00    -0.223 N 
ATOM      6  H1  UNL     1     -27.780 -18.889  11.829  1.00  0.00     0.177 HD
HETATM    7  C5  UNL     1     -29.248 -17.499  12.504  1.00  0.00     0.688 C 
HETATM    8  N3  UNL     1     -29.306 -16.257  12.820  1.00  0.00    -0.134 N 
ATOM      9  H3  UNL     1     -30.236 -15.843  12.885  1.00  0.00     0.205 HD
HETATM   10  N4  UNL     1     -28.223 -15.418  13.082  1.00  0.00    -0.298 N 
ENDROOT
BRANCH   7  11
HETATM   11  N2  UNL     1     -30.426 -18.281  12.252  1.00  0.00    -0.223 N 
ATOM     12  H2  UNL     1     -31.185 -18.261  12.934  1.00  0.00     0.177 HD
BRANCH  11  13
HETATM   13  C6  UNL     1     -30.574 -19.092  11.071  1.00  0.00     0.164 C 
BRANCH  13  14
HETATM   14  C7  UNL     1     -32.025 -19.569  11.034  1.00  0.00     0.184 C 
BRANCH  14  15
HETATM   15  O1  UNL     1     -32.093 -20.938  10.726  1.00  0.00    -0.399 OA
ATOM     16  H1  UNL     1     -32.588 -21.409  11.386  1.00  0.00     0.209 HD
ENDBRANCH  14  15
ENDBRANCH  13  14
ENDBRANCH  11  13
ENDBRANCH   7  11
BRANCH  10  17
HETATM   17  C8  UNL     1     -28.543 -14.051  13.355  1.00  0.00     0.104 C 
HETATM   18  C9  UNL     1     -29.804 -13.561  12.707  1.00  0.00     0.027 C 
HETATM   19  C10 UNL     1     -30.105 -12.198  13.354  1.00  0.00     0.002 C 
HETATM   20  C11 UNL     1     -30.673 -12.387  14.741  1.00  0.00     0.000 C 
HETATM   21  C12 UNL     1     -30.063 -13.653  15.305  1.00  0.00     0.002 C 
HETATM   22  C13 UNL     1     -28.632 -13.727  14.817  1.00  0.00     0.027 C 
ENDBRANCH  10  17
TORSDOF 5
ENDMDL
MODEL 5
REMARK VINA RESULT: -5.945086245      3.307      5.966
REMARK  5 active torsions:
REMARK  status: ('A' for Active; 'I' for Inactive)
REMARK    1  A    between atoms: C5_7  and  N2_8 
REMARK    2  A    between atoms: N2_8  and  C6_10 
REMARK    3  A    between atoms: C6_10  and  C7_11 
REMARK    4  A    between atoms: C7_11  and  O1_12 
REMARK    5  A    between atoms: N4_16  and  C8_17 
ROOT
HETATM    1  C1  UNL     1     -26.383 -17.162  13.809  1.00  0.00     0.041 C 
HETATM    2  C2  UNL     1     -27.806 -16.700  14.131  1.00  0.00     0.058 C 
HETATM    3  C3  UNL     1     -28.381 -17.599  15.203  1.00  0.00     0.041 C 
HETATM    4  C4  UNL     1     -27.643 -15.330  14.758  1.00  0.00     0.170 C 
HETATM    5  N1  UNL     1     -28.842 -14.557  14.728  1.00  0.00    -0.223 N 
ATOM      6  H1  UNL     1     -29.153 -14.038  15.550  1.00  0.00     0.177 HD
HETATM    7  C5  UNL     1     -29.588 -14.531  13.522  1.00  0.00     0.688 C 
HETATM    8  N3  UNL     1     -29.445 -15.536  12.737  1.00  0.00    -0.134 N 
ATOM      9  H3  UNL     1     -29.980 -15.521  11.869  1.00  0.00     0.205 HD
HETATM   10  N4  UNL     1     -28.629 -16.647  12.954  1.00  0.00    -0.298 N 
ENDROOT
BRANCH   7  11
HETATM   11  N2  UNL     1     -30.456 -13.432  13.207  1.00  0.00    -0.223 N 
ATOM     12  H2  UNL     1     -31.454 -13.522  13.402  1.00  0.00     0.177 HD
BRANCH  11  13
HETATM   13  C6  UNL     1     -29.970 -12.207  12.628  1.00  0.00     0.164 C 
BRANCH  13  14
HETATM   14  C7  UNL     1     -29.747 -11.224  13.776  1.00  0.00     0.184 C 
BRANCH  14  15
HETATM   15  O1  UNL     1     -30.064  -9.914  13.382  1.00  0.00    -0.399 OA
ATOM     16  H1  UNL     1     -31.005  -9.795  13.330  1.00  0.00     0.209 HD
ENDBRANCH  14  15
ENDBRANCH  13  14
ENDBRANCH  11  13
ENDBRANCH   7  11
BRANCH  10  17
HETATM   17  C8  UNL     1     -28.686 -17.669  11.955  1.00  0.00     0.104 C 
HETATM   18  C9  UNL     1     -30.057 -18.219  11.698  1.00  0.00     0.027 C 
HETATM   19  C10 UNL     1     -29.937 -19.066  10.419  1.00  0.00     0.002 C 
HETATM   20  C11 UNL     1     -29.865 -18.174   9.202  1.00  0.00     0.000 C 
HETATM   21  C12 UNL     1     -29.178 -16.893   9.625  1.00  0.00     0.002 C 
HETATM   22  C13 UNL     1     -28.109 -17.259  10.632  1.00  0.00     0.027 C 
ENDBRANCH  10  17
TORSDOF 5
ENDMDL
