MODEL 1
REMARK VINA RESULT: -4.050972010      0.000      0.000
REMARK  8 active torsions:
REMARK  status: ('A' for Active; 'I' for Inactive)
REMARK    1  A    between atoms: N1_1  and  C1_4 
REMARK    2  A    between atoms: C3_8  and  C4_9 
REMARK    3  A    between atoms: C7_14  and  C8_15 
REMARK    4  A    between atoms: C8_15  and  C9_16 
REMARK    5  A    between atoms: C9_16  and  N4_17 
REMARK    6  A    between atoms: N4_17  and  C10_19 
REMARK    7  A    between atoms: C10_19  and  C11_20 
REMARK    8  A    between atoms: C11_20  and  O1_21 
ROOT
HETATM    1  C4  UNL     1     -23.969   5.768 -22.637  1.00  0.00    -0.020 A 
HETATM    2  C5  UNL     1     -23.846   5.825 -21.266  1.00  0.00     0.029 A 
HETATM    3  C6  UNL     1     -22.891   6.680 -20.759  1.00  0.00     0.089 A 
HETATM    4  N3  UNL     1     -22.110   7.429 -21.557  1.00  0.00    -0.369 N 
ATOM      5  H3  UNL     1     -21.421   8.043 -21.124  1.00  0.00     0.165 HD
HETATM    6  C7  UNL     1     -22.194   7.406 -22.905  1.00  0.00     0.011 A 
HETATM    7  C12 UNL     1     -23.151   6.549 -23.433  1.00  0.00     0.037 A 
ENDROOT
BRANCH   1   8
HETATM    8  C3  UNL     1     -24.971   4.869 -23.193  1.00  0.00     0.006 A 
HETATM    9  C2  UNL     1     -24.876   3.506 -22.924  1.00  0.00     0.119 A 
HETATM   10  N2  UNL     1     -25.766   2.652 -23.414  1.00  0.00    -0.201 N 
HETATM   11  C1  UNL     1     -26.780   3.070 -24.179  1.00  0.00     0.675 A 
ATOM     12  H2  UNL     1     -25.674   1.658 -23.202  1.00  0.00     0.183 HD
HETATM   13  N5  UNL     1     -26.901   4.378 -24.458  1.00  0.00    -0.201 N 
HETATM   14  C13 UNL     1     -26.015   5.268 -23.976  1.00  0.00     0.119 A 
ATOM     15  H5  UNL     1     -27.674   4.700 -25.041  1.00  0.00     0.183 HD
BRANCH  11  16
HETATM   16  N1  UNL     1     -27.626   2.215 -24.637  1.00  0.00    -0.234 N 
ATOM     17  H12 UNL     1     -28.294   1.755 -24.018  1.00  0.00     0.174 HD
ATOM     18  H11 UNL     1     -27.630   1.991 -25.632  1.00  0.00     0.174 HD
ENDBRANCH  11  16
ENDBRANCH   1   8
BRANCH   6  19
HETATM   19  C8  UNL     1     -21.317   8.228 -23.773  1.00  0.00     0.076 C 
BRANCH  19  20
HETATM   20  C9  UNL     1     -20.456   7.323 -24.631  1.00  0.00     0.124 C 
BRANCH  20  21
HETATM   21  N4  UNL     1     -19.178   7.063 -24.041  1.00  0.00    -0.400 N 
ATOM     22  H4  UNL     1     -18.336   7.530 -24.378  1.00  0.00     0.158 HD
BRANCH  21  23
HETATM   23  C10 UNL     1     -19.122   6.141 -22.978  1.00  0.00     0.081 C 
BRANCH  23  24
HETATM   24  C11 UNL     1     -19.769   4.819 -23.162  1.00  0.00     0.208 C 
BRANCH  24  25
HETATM   25  O1  UNL     1     -20.572   4.417 -22.107  1.00  0.00    -0.396 OA
ATOM     26  H1  UNL     1     -20.103   4.030 -21.378  1.00  0.00     0.209 HD
ENDBRANCH  24  25
ENDBRANCH  23  24
ENDBRANCH  21  23
ENDBRANCH  20  21
ENDBRANCH  19  20
ENDBRANCH   6  19
TORSDOF 8
ENDMDL
MODEL 2
REMARK VINA RESULT: -3.090400322      1.938      2.171
REMARK  8 active torsions:
REMARK  status: ('A' for Active; 'I' for Inactive)
REMARK    1  A    between atoms: N1_1  and  C1_4 
REMARK    2  A    between atoms: C3_8  and  C4_9 
REMARK    3  A    between atoms: C7_14  and  C8_15 
REMARK    4  A    between atoms: C8_15  and  C9_16 
REMARK    5  A    between atoms: C9_16  and  N4_17 
REMARK    6  A    between atoms: N4_17  and  C10_19 
REMARK    7  A    between atoms: C10_19  and  C11_20 
REMARK    8  A    between atoms: C11_20  and  O1_21 
ROOT
HETATM    1  C4  UNL     1     -24.886   5.265 -23.888  1.00  0.00    -0.020 A 
HETATM    2  C5  UNL     1     -25.431   6.466 -23.493  1.00  0.00     0.029 A 
HETATM    3  C6  UNL     1     -24.558   7.516 -23.299  1.00  0.00     0.089 A 
HETATM    4  N3  UNL     1     -23.233   7.383 -23.484  1.00  0.00    -0.369 N 
ATOM      5  H3  UNL     1     -22.636   8.195 -23.326  1.00  0.00     0.165 HD
HETATM    6  C7  UNL     1     -22.653   6.225 -23.870  1.00  0.00     0.011 A 
HETATM    7  C12 UNL     1     -23.519   5.157 -24.070  1.00  0.00     0.037 A 
ENDROOT
BRANCH   1   8
HETATM    8  C3  UNL     1     -25.792   4.143 -24.096  1.00  0.00     0.006 A 
HETATM    9  C2  UNL     1     -25.310   2.848 -23.926  1.00  0.00     0.119 A 
HETATM   10  N2  UNL     1     -26.099   1.798 -24.109  1.00  0.00    -0.201 N 
HETATM   11  C1  UNL     1     -27.380   1.947 -24.463  1.00  0.00     0.675 A 
ATOM     12  H2  UNL     1     -25.722   0.859 -23.978  1.00  0.00     0.183 HD
HETATM   13  N5  UNL     1     -27.878   3.183 -24.636  1.00  0.00    -0.201 N 
HETATM   14  C13 UNL     1     -27.102   4.267 -24.458  1.00  0.00     0.119 A 
ATOM     15  H5  UNL     1     -28.854   3.300 -24.906  1.00  0.00     0.183 HD
BRANCH  11  16
HETATM   16  N1  UNL     1     -28.120   0.907 -24.632  1.00  0.00    -0.234 N 
ATOM     17  H12 UNL     1     -28.963   0.951 -25.204  1.00  0.00     0.174 HD
ATOM     18  H11 UNL     1     -27.862   0.027 -24.186  1.00  0.00     0.174 HD
ENDBRANCH  11  16
ENDBRANCH   1   8
BRANCH   6  19
HETATM   19  C8  UNL     1     -21.189   6.089 -24.059  1.00  0.00     0.076 C 
BRANCH  19  20
HETATM   20  C9  UNL     1     -20.765   4.668 -23.752  1.00  0.00     0.124 C 
BRANCH  20  21
HETATM   21  N4  UNL     1     -20.586   4.441 -22.349  1.00  0.00    -0.400 N 
ATOM     22  H4  UNL     1     -20.690   3.509 -21.948  1.00  0.00     0.158 HD
BRANCH  21  23
HETATM   23  C10 UNL     1     -20.260   5.548 -21.543  1.00  0.00     0.081 C 
BRANCH  23  24
HETATM   24  C11 UNL     1     -19.095   6.380 -21.931  1.00  0.00     0.208 C 
BRANCH  24  25
HETATM   25  O1  UNL     1     -19.089   7.655 -21.389  1.00  0.00    -0.396 OA
ATOM     26  H1  UNL     1     -19.727   8.249 -21.767  1.00  0.00     0.209 HD
ENDBRANCH  24  25
ENDBRANCH  23  24
ENDBRANCH  21  23
ENDBRANCH  20  21
ENDBRANCH  19  20
ENDBRANCH   6  19
TORSDOF 8
ENDMDL
MODEL 3
REMARK VINA RESULT: -2.789333924      1.654      2.626
REMARK  8 active torsions:
REMARK  status: ('A' for Active; 'I' for Inactive)
REMARK    1  A    between atoms: N1_1  and  C1_4 
REMARK    2  A    between atoms: C3_8  and  C4_9 
REMARK    3  A    between atoms: C7_14  and  C8_15 
REMARK    4  A    between atoms: C8_15  and  C9_16 
REMARK    5  A    between atoms: C9_16  and  N4_17 
REMARK    6  A    between atoms: N4_17  and  C10_19 
REMARK    7  A    between atoms: C10_19  and  C11_20 
REMARK    8  A    between atoms: C11_20  and  O1_21 
ROOT
HETATM    1  C4  UNL     1     -24.119   5.475 -24.371  1.00  0.00    -0.020 A 
HETATM    2  C5  UNL     1     -24.607   6.742 -24.598  1.00  0.00     0.029 A 
HETATM    3  C6  UNL     1     -23.689   7.771 -24.631  1.00  0.00     0.089 A 
HETATM    4  N3  UNL     1     -22.373   7.556 -24.451  1.00  0.00    -0.369 N 
ATOM      5  H3  UNL     1     -21.742   8.355 -24.487  1.00  0.00     0.165 HD
HETATM    6  C7  UNL     1     -21.849   6.332 -24.226  1.00  0.00     0.011 A 
HETATM    7  C12 UNL     1     -22.761   5.284 -24.189  1.00  0.00     0.037 A 
ENDROOT
BRANCH   1   8
HETATM    8  C3  UNL     1     -25.074   4.375 -24.331  1.00  0.00     0.006 A 
HETATM    9  C2  UNL     1     -26.407   4.631 -24.637  1.00  0.00     0.119 A 
HETATM   10  N2  UNL     1     -27.311   3.660 -24.609  1.00  0.00    -0.201 N 
HETATM   11  C1  UNL     1     -26.972   2.407 -24.287  1.00  0.00     0.675 A 
ATOM     12  H2  UNL     1     -28.282   3.874 -24.837  1.00  0.00     0.183 HD
HETATM   13  N5  UNL     1     -25.693   2.126 -23.987  1.00  0.00    -0.201 N 
HETATM   14  C13 UNL     1     -24.755   3.089 -24.006  1.00  0.00     0.119 A 
ATOM     15  H5  UNL     1     -25.431   1.171 -23.742  1.00  0.00     0.183 HD
BRANCH  11  16
HETATM   16  N1  UNL     1     -27.872   1.488 -24.271  1.00  0.00    -0.234 N 
ATOM     17  H12 UNL     1     -28.654   1.531 -23.618  1.00  0.00     0.174 HD
ATOM     18  H11 UNL     1     -27.805   0.703 -24.919  1.00  0.00     0.174 HD
ENDBRANCH  11  16
ENDBRANCH   1   8
BRANCH   6  19
HETATM   19  C8  UNL     1     -20.398   6.111 -24.017  1.00  0.00     0.076 C 
BRANCH  19  20
HETATM   20  C9  UNL     1     -19.946   6.840 -22.768  1.00  0.00     0.124 C 
BRANCH  20  21
HETATM   21  N4  UNL     1     -20.859   7.871 -22.375  1.00  0.00    -0.400 N 
ATOM     22  H4  UNL     1     -21.029   8.680 -22.972  1.00  0.00     0.158 HD
BRANCH  21  23
HETATM   23  C10 UNL     1     -21.513   7.729 -21.137  1.00  0.00     0.081 C 
BRANCH  23  24
HETATM   24  C11 UNL     1     -22.563   6.688 -21.014  1.00  0.00     0.208 C 
BRANCH  24  25
HETATM   25  O1  UNL     1     -22.838   6.296 -19.713  1.00  0.00    -0.396 OA
ATOM     26  H1  UNL     1     -22.869   5.356 -19.581  1.00  0.00     0.209 HD
ENDBRANCH  24  25
ENDBRANCH  23  24
ENDBRANCH  21  23
ENDBRANCH  20  21
ENDBRANCH  19  20
ENDBRANCH   6  19
TORSDOF 8
ENDMDL
MODEL 4
REMARK VINA RESULT: -1.858608325      1.668      2.306
REMARK  8 active torsions:
REMARK  status: ('A' for Active; 'I' for Inactive)
REMARK    1  A    between atoms: N1_1  and  C1_4 
REMARK    2  A    between atoms: C3_8  and  C4_9 
REMARK    3  A    between atoms: C7_14  and  C8_15 
REMARK    4  A    between atoms: C8_15  and  C9_16 
REMARK    5  A    between atoms: C9_16  and  N4_17 
REMARK    6  A    between atoms: N4_17  and  C10_19 
REMARK    7  A    between atoms: C10_19  and  C11_20 
REMARK    8  A    between atoms: C11_20  and  O1_21 
ROOT
HETATM    1  C4  UNL     1     -24.129   5.907 -23.303  1.00  0.00    -0.020 A 
HETATM    2  C5  UNL     1     -24.637   7.126 -23.692  1.00  0.00     0.029 A 
HETATM    3  C6  UNL     1     -23.833   8.230 -23.499  1.00  0.00     0.089 A 
HETATM    4  N3  UNL     1     -22.606   8.130 -22.956  1.00  0.00    -0.369 N 
ATOM      5  H3  UNL     1     -22.057   8.981 -22.838  1.00  0.00     0.165 HD
HETATM    6  C7  UNL     1     -22.067   6.957 -22.559  1.00  0.00     0.011 A 
HETATM    7  C12 UNL     1     -22.865   5.835 -22.747  1.00  0.00     0.037 A 
ENDROOT
BRANCH   1   8
HETATM    8  C3  UNL     1     -24.964   4.729 -23.497  1.00  0.00     0.006 A 
HETATM    9  C2  UNL     1     -25.998   4.784 -24.428  1.00  0.00     0.119 A 
HETATM   10  N2  UNL     1     -26.785   3.736 -24.634  1.00  0.00    -0.201 N 
HETATM   11  C1  UNL     1     -26.612   2.596 -23.957  1.00  0.00     0.675 A 
ATOM     12  H2  UNL     1     -27.535   3.801 -25.322  1.00  0.00     0.183 HD
HETATM   13  N5  UNL     1     -25.625   2.509 -23.051  1.00  0.00    -0.201 N 
HETATM   14  C13 UNL     1     -24.810   3.555 -22.820  1.00  0.00     0.119 A 
ATOM     15  H5  UNL     1     -25.490   1.641 -22.533  1.00  0.00     0.183 HD
BRANCH  11  16
HETATM   16  N1  UNL     1     -27.393   1.597 -24.182  1.00  0.00    -0.234 N 
ATOM     17  H12 UNL     1     -28.353   1.594 -23.837  1.00  0.00     0.174 HD
ATOM     18  H11 UNL     1     -27.048   0.796 -24.711  1.00  0.00     0.174 HD
ENDBRANCH  11  16
ENDBRANCH   1   8
BRANCH   6  19
HETATM   19  C8  UNL     1     -20.719   6.864 -21.950  1.00  0.00     0.076 C 
BRANCH  19  20
HETATM   20  C9  UNL     1     -20.492   5.460 -21.427  1.00  0.00     0.124 C 
BRANCH  20  21
HETATM   21  N4  UNL     1     -21.404   4.511 -21.991  1.00  0.00    -0.400 N 
ATOM     22  H4  UNL     1     -22.390   4.509 -21.731  1.00  0.00     0.158 HD
BRANCH  21  23
HETATM   23  C10 UNL     1     -20.893   3.581 -22.916  1.00  0.00     0.081 C 
BRANCH  23  24
HETATM   24  C11 UNL     1     -19.887   4.051 -23.900  1.00  0.00     0.208 C 
BRANCH  24  25
HETATM   25  O1  UNL     1     -18.923   3.113 -24.232  1.00  0.00    -0.396 OA
ATOM     26  H1  UNL     1     -18.044   3.463 -24.322  1.00  0.00     0.209 HD
ENDBRANCH  24  25
ENDBRANCH  23  24
ENDBRANCH  21  23
ENDBRANCH  20  21
ENDBRANCH  19  20
ENDBRANCH   6  19
TORSDOF 8
ENDMDL
MODEL 5
REMARK VINA RESULT: -0.362107597      9.573     11.539
REMARK  8 active torsions:
REMARK  status: ('A' for Active; 'I' for Inactive)
REMARK    1  A    between atoms: N1_1  and  C1_4 
REMARK    2  A    between atoms: C3_8  and  C4_9 
REMARK    3  A    between atoms: C7_14  and  C8_15 
REMARK    4  A    between atoms: C8_15  and  C9_16 
REMARK    5  A    between atoms: C9_16  and  N4_17 
REMARK    6  A    between atoms: N4_17  and  C10_19 
REMARK    7  A    between atoms: C10_19  and  C11_20 
REMARK    8  A    between atoms: C11_20  and  O1_21 
ROOT
HETATM    1  C4  UNL     1     -28.440  -1.534 -15.228  1.00  0.00    -0.020 A 
HETATM    2  C5  UNL     1     -28.750  -2.863 -15.044  1.00  0.00     0.029 A 
HETATM    3  C6  UNL     1     -27.938  -3.788 -15.667  1.00  0.00     0.089 A 
HETATM    4  N3  UNL     1     -26.888  -3.418 -16.422  1.00  0.00    -0.369 N 
ATOM      5  H3  UNL     1     -26.323  -4.147 -16.857  1.00  0.00     0.165 HD
HETATM    6  C7  UNL     1     -26.545  -2.128 -16.631  1.00  0.00     0.011 A 
HETATM    7  C12 UNL     1     -27.354  -1.184 -16.010  1.00  0.00     0.037 A 
ENDROOT
BRANCH   1   8
HETATM    8  C3  UNL     1     -29.287  -0.542 -14.580  1.00  0.00     0.006 A 
HETATM    9  C2  UNL     1     -28.708   0.635 -14.114  1.00  0.00     0.119 A 
HETATM   10  N2  UNL     1     -29.442   1.564 -13.514  1.00  0.00    -0.201 N 
HETATM   11  C1  UNL     1     -30.758   1.400 -13.338  1.00  0.00     0.675 A 
ATOM     12  H2  UNL     1     -28.994   2.418 -13.181  1.00  0.00     0.183 HD
HETATM   13  N5  UNL     1     -31.348   0.276 -13.775  1.00  0.00    -0.201 N 
HETATM   14  C13 UNL     1     -30.630  -0.684 -14.387  1.00  0.00     0.119 A 
ATOM     15  H5  UNL     1     -32.351   0.148 -13.643  1.00  0.00     0.183 HD
BRANCH  11  16
HETATM   16  N1  UNL     1     -31.441   2.321 -12.753  1.00  0.00    -0.234 N 
ATOM     17  H12 UNL     1     -31.891   2.149 -11.854  1.00  0.00     0.174 HD
ATOM     18  H11 UNL     1     -31.536   3.236 -13.194  1.00  0.00     0.174 HD
ENDBRANCH  11  16
ENDBRANCH   1   8
BRANCH   6  19
HETATM   19  C8  UNL     1     -25.392  -1.735 -17.475  1.00  0.00     0.076 C 
BRANCH  19  20
HETATM   20  C9  UNL     1     -25.467  -0.254 -17.782  1.00  0.00     0.124 C 
BRANCH  20  21
HETATM   21  N4  UNL     1     -25.631   0.542 -16.603  1.00  0.00    -0.400 N 
ATOM     22  H4  UNL     1     -25.441   0.158 -15.677  1.00  0.00     0.158 HD
BRANCH  21  23
HETATM   23  C10 UNL     1     -26.062   1.872 -16.764  1.00  0.00     0.081 C 
BRANCH  23  24
HETATM   24  C11 UNL     1     -27.425   2.229 -16.299  1.00  0.00     0.208 C 
BRANCH  24  25
HETATM   25  O1  UNL     1     -27.686   3.589 -16.265  1.00  0.00    -0.396 OA
ATOM     26  H1  UNL     1     -27.699   3.968 -15.393  1.00  0.00     0.209 HD
ENDBRANCH  24  25
ENDBRANCH  23  24
ENDBRANCH  21  23
ENDBRANCH  20  21
ENDBRANCH  19  20
ENDBRANCH   6  19
TORSDOF 8
ENDMDL
