MODEL 1
REMARK VINA RESULT: -5.104851478      0.000      0.000
REMARK  4 active torsions:
REMARK  status: ('A' for Active; 'I' for Inactive)
REMARK    1  A    between atoms: N1_2  and  C2_4 
REMARK    2  A    between atoms: C3_5  and  C4_6 
REMARK    3  A    between atoms: N2_7  and  O1_8 
REMARK    4  A    between atoms: N2_7  and  C5_10 
ROOT
HETATM    1  C4  UNL     1      -8.493 -32.622  16.122  1.00  0.00     0.118 C 
HETATM    2  N2  UNL     1      -9.272 -31.898  15.402  1.00  0.00    -0.267 N 
ENDROOT
BRANCH   1   3
HETATM    3  C3  UNL     1      -8.975 -33.398  17.263  1.00  0.00     0.036 C 
HETATM    4  C2  UNL     1      -8.598 -33.104  18.493  1.00  0.00     0.088 C 
BRANCH   4   5
HETATM    5  N1  UNL     1      -9.035 -33.824  19.631  1.00  0.00    -0.385 N 
HETATM    6  C1  UNL     1      -9.914 -33.373  20.458  1.00  0.00     0.117 C 
ATOM      7  H1  UNL     1      -8.634 -34.746  19.805  1.00  0.00     0.163 HD
ENDBRANCH   4   5
ENDBRANCH   1   3
BRANCH   2   8
HETATM    8  O1  UNL     1     -10.616 -31.874  15.745  1.00  0.00    -0.288 OA
ATOM      9  H1  UNL     1     -11.218 -31.485  15.122  1.00  0.00     0.244 HD
ENDBRANCH   2   8
BRANCH   2  10
HETATM   10  C5  UNL     1      -8.745 -31.154  14.291  1.00  0.00     0.113 A 
HETATM   11  C6  UNL     1      -8.404 -29.712  14.412  1.00  0.00     0.030 A 
HETATM   12  C7  UNL     1      -7.306 -30.741  14.389  1.00  0.00     0.030 A 
ENDBRANCH   2  10
TORSDOF 4
ENDMDL
MODEL 2
REMARK VINA RESULT: -4.713906624      1.188      1.188
REMARK  4 active torsions:
REMARK  status: ('A' for Active; 'I' for Inactive)
REMARK    1  A    between atoms: N1_2  and  C2_4 
REMARK    2  A    between atoms: C3_5  and  C4_6 
REMARK    3  A    between atoms: N2_7  and  O1_8 
REMARK    4  A    between atoms: N2_7  and  C5_10 
ROOT
HETATM    1  C4  UNL     1      -9.234 -31.970  16.429  1.00  0.00     0.118 C 
HETATM    2  N2  UNL     1      -8.508 -32.333  15.434  1.00  0.00    -0.267 N 
ENDROOT
BRANCH   1   3
HETATM    3  C3  UNL     1      -9.452 -32.825  17.594  1.00  0.00     0.036 C 
HETATM    4  C2  UNL     1      -8.891 -32.547  18.756  1.00  0.00     0.088 C 
BRANCH   4   5
HETATM    5  N1  UNL     1      -9.070 -33.343  19.914  1.00  0.00    -0.385 N 
HETATM    6  C1  UNL     1     -10.134 -33.305  20.639  1.00  0.00     0.117 C 
ATOM      7  H1  UNL     1      -8.319 -33.978  20.187  1.00  0.00     0.163 HD
ENDBRANCH   4   5
ENDBRANCH   1   3
BRANCH   2   8
HETATM    8  O1  UNL     1      -7.922 -33.588  15.497  1.00  0.00    -0.288 OA
ATOM      9  H1  UNL     1      -7.806 -33.974  16.357  1.00  0.00     0.244 HD
ENDBRANCH   2   8
BRANCH   2  10
HETATM   10  C5  UNL     1      -8.326 -31.451  14.313  1.00  0.00     0.113 A 
HETATM   11  C6  UNL     1      -8.635 -30.000  14.407  1.00  0.00     0.030 A 
HETATM   12  C7  UNL     1      -7.203 -30.462  14.419  1.00  0.00     0.030 A 
ENDBRANCH   2  10
TORSDOF 4
ENDMDL
MODEL 3
REMARK VINA RESULT: -4.652298894      1.077      1.077
REMARK  4 active torsions:
REMARK  status: ('A' for Active; 'I' for Inactive)
REMARK    1  A    between atoms: N1_2  and  C2_4 
REMARK    2  A    between atoms: C3_5  and  C4_6 
REMARK    3  A    between atoms: N2_7  and  O1_8 
REMARK    4  A    between atoms: N2_7  and  C5_10 
ROOT
HETATM    1  C4  UNL     1      -8.972 -31.954  16.559  1.00  0.00     0.118 C 
HETATM    2  N2  UNL     1      -9.714 -31.647  15.557  1.00  0.00    -0.267 N 
ENDROOT
BRANCH   1   3
HETATM    3  C3  UNL     1      -9.515 -32.525  17.791  1.00  0.00     0.036 C 
HETATM    4  C2  UNL     1      -9.896 -31.749  18.789  1.00  0.00     0.088 C 
BRANCH   4   5
HETATM    5  N1  UNL     1     -10.427 -32.251  20.002  1.00  0.00    -0.385 N 
HETATM    6  C1  UNL     1     -10.008 -33.334  20.562  1.00  0.00     0.117 C 
ATOM      7  H1  UNL     1     -11.178 -31.729  20.455  1.00  0.00     0.163 HD
ENDBRANCH   4   5
ENDBRANCH   1   3
BRANCH   2   8
HETATM    8  O1  UNL     1     -11.076 -31.877  15.678  1.00  0.00    -0.288 OA
ATOM      9  H1  UNL     1     -11.653 -31.397  15.096  1.00  0.00     0.244 HD
ENDBRANCH   2   8
BRANCH   2  10
HETATM   10  C5  UNL     1      -9.127 -31.088  14.370  1.00  0.00     0.113 A 
HETATM   11  C6  UNL     1      -8.206 -29.923  14.431  1.00  0.00     0.030 A 
HETATM   12  C7  UNL     1      -7.653 -31.302  14.191  1.00  0.00     0.030 A 
ENDBRANCH   2  10
TORSDOF 4
ENDMDL
MODEL 4
REMARK VINA RESULT: -4.561575745      1.543      5.132
REMARK  4 active torsions:
REMARK  status: ('A' for Active; 'I' for Inactive)
REMARK    1  A    between atoms: N1_2  and  C2_4 
REMARK    2  A    between atoms: C3_5  and  C4_6 
REMARK    3  A    between atoms: N2_7  and  O1_8 
REMARK    4  A    between atoms: N2_7  and  C5_10 
ROOT
HETATM    1  C4  UNL     1      -9.495 -32.859  16.764  1.00  0.00     0.118 C 
HETATM    2  N2  UNL     1      -9.638 -32.545  18.001  1.00  0.00    -0.267 N 
ENDROOT
BRANCH   1   3
HETATM    3  C3  UNL     1      -9.580 -31.871  15.690  1.00  0.00     0.036 C 
HETATM    4  C2  UNL     1      -8.514 -31.542  14.984  1.00  0.00     0.088 C 
BRANCH   4   5
HETATM    5  N1  UNL     1      -8.543 -30.591  13.934  1.00  0.00    -0.385 N 
HETATM    6  C1  UNL     1      -8.143 -29.374  14.073  1.00  0.00     0.117 C 
ATOM      7  H1  UNL     1      -8.896 -30.885  13.023  1.00  0.00     0.163 HD
ENDBRANCH   4   5
ENDBRANCH   1   3
BRANCH   2   8
HETATM    8  O1  UNL     1      -9.881 -31.212  18.297  1.00  0.00    -0.288 OA
ATOM      9  H1  UNL     1     -10.275 -31.016  19.139  1.00  0.00     0.244 HD
ENDBRANCH   2   8
BRANCH   2  10
HETATM   10  C5  UNL     1      -9.545 -33.557  19.018  1.00  0.00     0.113 A 
HETATM   11  C6  UNL     1      -8.511 -33.496  20.084  1.00  0.00     0.030 A 
HETATM   12  C7  UNL     1      -9.938 -33.145  20.406  1.00  0.00     0.030 A 
ENDBRANCH   2  10
TORSDOF 4
ENDMDL
MODEL 5
REMARK VINA RESULT: -4.390470062      1.675      5.155
REMARK  4 active torsions:
REMARK  status: ('A' for Active; 'I' for Inactive)
REMARK    1  A    between atoms: N1_2  and  C2_4 
REMARK    2  A    between atoms: C3_5  and  C4_6 
REMARK    3  A    between atoms: N2_7  and  O1_8 
REMARK    4  A    between atoms: N2_7  and  C5_10 
ROOT
HETATM    1  C4  UNL     1      -9.218 -33.147  16.790  1.00  0.00     0.118 C 
HETATM    2  N2  UNL     1      -8.625 -33.053  17.926  1.00  0.00    -0.267 N 
ENDROOT
BRANCH   1   3
HETATM    3  C3  UNL     1      -8.715 -32.490  15.586  1.00  0.00     0.036 C 
HETATM    4  C2  UNL     1      -9.203 -31.329  15.191  1.00  0.00     0.088 C 
BRANCH   4   5
HETATM    5  N1  UNL     1      -8.752 -30.651  14.033  1.00  0.00    -0.385 N 
HETATM    6  C1  UNL     1      -8.066 -29.560  14.075  1.00  0.00     0.117 C 
ATOM      7  H1  UNL     1      -8.980 -31.045  13.120  1.00  0.00     0.163 HD
ENDBRANCH   4   5
ENDBRANCH   1   3
BRANCH   2   8
HETATM    8  O1  UNL     1      -7.467 -32.292  17.978  1.00  0.00    -0.288 OA
ATOM      9  H1  UNL     1      -6.757 -32.536  17.397  1.00  0.00     0.244 HD
ENDBRANCH   2   8
BRANCH   2  10
HETATM   10  C5  UNL     1      -9.164 -33.720  19.079  1.00  0.00     0.113 A 
HETATM   11  C6  UNL     1      -8.738 -33.359  20.457  1.00  0.00     0.030 A 
HETATM   12  C7  UNL     1     -10.082 -32.912  19.948  1.00  0.00     0.030 A 
ENDBRANCH   2  10
TORSDOF 4
ENDMDL
