MODEL 1
REMARK VINA RESULT: -5.875931095      0.000      0.000
REMARK  4 active torsions:
REMARK  status: ('A' for Active; 'I' for Inactive)
REMARK    1  A    between atoms: N1_2  and  C2_5 
REMARK    2  A    between atoms: C2_5  and  C3_6 
REMARK    3  A    between atoms: C3_6  and  C4_7 
REMARK    4  A    between atoms: C4_7  and  N2_8 
ROOT
HETATM    1  N2  UNL     1      -8.991 -33.077  17.949  1.00  0.00     0.093 N 
HETATM    2  C5  UNL     1     -10.240 -32.352  17.820  1.00  0.00     0.277 C 
HETATM    3  C6  UNL     1     -10.435 -31.485  19.037  1.00  0.00     0.014 C 
HETATM    4  C7  UNL     1     -10.554 -32.380  20.270  1.00  0.00     0.008 C 
HETATM    5  C8  UNL     1      -9.384 -33.370  20.289  1.00  0.00     0.036 C 
HETATM    6  C9  UNL     1      -8.400 -32.890  19.237  1.00  0.00     0.223 C 
HETATM    7  C10 UNL     1      -8.040 -31.444  19.472  1.00  0.00     0.036 C 
HETATM    8  C11 UNL     1      -9.248 -30.573  19.274  1.00  0.00     0.008 C 
ENDROOT
BRANCH   1   9
HETATM    9  C4  UNL     1      -8.077 -32.759  16.861  1.00  0.00     0.274 C 
BRANCH   9  10
HETATM   10  C3  UNL     1      -8.838 -32.155  15.714  1.00  0.00     0.057 C 
BRANCH  10  11
HETATM   11  C2  UNL     1      -8.006 -31.993  14.469  1.00  0.00     0.233 C 
BRANCH  11  12
HETATM   12  N1  UNL     1      -8.426 -30.854  13.674  1.00  0.00    -0.079 N 
HETATM   13  C1  UNL     1      -8.128 -29.599  14.348  1.00  0.00     0.266 C 
ATOM     14  H12 UNL     1      -9.411 -30.917  13.419  1.00  0.00     0.276 HD
ATOM     15  H11 UNL     1      -8.021 -30.881  12.738  1.00  0.00     0.276 HD
ENDBRANCH  11  12
ENDBRANCH  10  11
ENDBRANCH   9  10
ENDBRANCH   1   9
TORSDOF 4
ENDMDL
MODEL 2
REMARK VINA RESULT: -5.503854508      0.830      1.100
REMARK  4 active torsions:
REMARK  status: ('A' for Active; 'I' for Inactive)
REMARK    1  A    between atoms: N1_2  and  C2_5 
REMARK    2  A    between atoms: C2_5  and  C3_6 
REMARK    3  A    between atoms: C3_6  and  C4_7 
REMARK    4  A    between atoms: C4_7  and  N2_8 
ROOT
HETATM    1  N2  UNL     1      -9.621 -33.085  17.687  1.00  0.00     0.093 N 
HETATM    2  C5  UNL     1     -10.517 -32.026  18.108  1.00  0.00     0.277 C 
HETATM    3  C6  UNL     1     -10.002 -31.421  19.387  1.00  0.00     0.014 C 
HETATM    4  C7  UNL     1     -10.012 -32.488  20.481  1.00  0.00     0.008 C 
HETATM    5  C8  UNL     1      -9.312 -33.748  19.963  1.00  0.00     0.036 C 
HETATM    6  C9  UNL     1      -8.619 -33.353  18.670  1.00  0.00     0.223 C 
HETATM    7  C10 UNL     1      -7.732 -32.153  18.893  1.00  0.00     0.036 C 
HETATM    8  C11 UNL     1      -8.566 -30.954  19.249  1.00  0.00     0.008 C 
ENDROOT
BRANCH   1   9
HETATM    9  C4  UNL     1      -9.057 -32.813  16.371  1.00  0.00     0.274 C 
BRANCH   9  10
HETATM   10  C3  UNL     1      -9.779 -31.659  15.734  1.00  0.00     0.057 C 
BRANCH  10  11
HETATM   11  C2  UNL     1      -8.852 -30.633  15.140  1.00  0.00     0.233 C 
BRANCH  11  12
HETATM   12  N1  UNL     1      -8.572 -30.891  13.740  1.00  0.00    -0.079 N 
HETATM   13  C1  UNL     1      -7.634 -31.993  13.583  1.00  0.00     0.266 C 
ATOM     14  H12 UNL     1      -8.246 -30.051  13.262  1.00  0.00     0.276 HD
ATOM     15  H11 UNL     1      -9.429 -31.050  13.210  1.00  0.00     0.276 HD
ENDBRANCH  11  12
ENDBRANCH  10  11
ENDBRANCH   9  10
ENDBRANCH   1   9
TORSDOF 4
ENDMDL
MODEL 3
REMARK VINA RESULT: -5.051820284      0.891      2.035
REMARK  4 active torsions:
REMARK  status: ('A' for Active; 'I' for Inactive)
REMARK    1  A    between atoms: N1_2  and  C2_5 
REMARK    2  A    between atoms: C2_5  and  C3_6 
REMARK    3  A    between atoms: C3_6  and  C4_7 
REMARK    4  A    between atoms: C4_7  and  N2_8 
ROOT
HETATM    1  N2  UNL     1      -9.268 -32.222  17.794  1.00  0.00     0.093 N 
HETATM    2  C5  UNL     1      -8.886 -33.508  18.342  1.00  0.00     0.277 C 
HETATM    3  C6  UNL     1      -8.867 -33.418  19.846  1.00  0.00     0.014 C 
HETATM    4  C7  UNL     1      -7.802 -32.409  20.270  1.00  0.00     0.008 C 
HETATM    5  C8  UNL     1      -8.002 -31.106  19.488  1.00  0.00     0.036 C 
HETATM    6  C9  UNL     1      -9.355 -31.218  18.809  1.00  0.00     0.223 C 
HETATM    7  C10 UNL     1     -10.426 -31.548  19.819  1.00  0.00     0.036 C 
HETATM    8  C11 UNL     1     -10.187 -32.915  20.396  1.00  0.00     0.008 C 
ENDROOT
BRANCH   1   9
HETATM    9  C4  UNL     1     -10.484 -32.322  16.999  1.00  0.00     0.274 C 
BRANCH   9  10
HETATM   10  C3  UNL     1     -10.311 -31.579  15.704  1.00  0.00     0.057 C 
BRANCH  10  11
HETATM   11  C2  UNL     1      -8.907 -31.643  15.166  1.00  0.00     0.233 C 
BRANCH  11  12
HETATM   12  N1  UNL     1      -8.728 -30.803  13.996  1.00  0.00    -0.079 N 
HETATM   13  C1  UNL     1      -8.044 -29.564  14.334  1.00  0.00     0.266 C 
ATOM     14  H12 UNL     1      -9.615 -30.624  13.525  1.00  0.00     0.276 HD
ATOM     15  H11 UNL     1      -8.251 -31.303  13.246  1.00  0.00     0.276 HD
ENDBRANCH  11  12
ENDBRANCH  10  11
ENDBRANCH   9  10
ENDBRANCH   1   9
TORSDOF 4
ENDMDL
MODEL 4
REMARK VINA RESULT: -4.882363699      0.887      1.670
REMARK  4 active torsions:
REMARK  status: ('A' for Active; 'I' for Inactive)
REMARK    1  A    between atoms: N1_2  and  C2_5 
REMARK    2  A    between atoms: C2_5  and  C3_6 
REMARK    3  A    between atoms: C3_6  and  C4_7 
REMARK    4  A    between atoms: C4_7  and  N2_8 
ROOT
HETATM    1  N2  UNL     1      -8.614 -32.934  18.053  1.00  0.00     0.093 N 
HETATM    2  C5  UNL     1      -9.125 -33.817  19.084  1.00  0.00     0.277 C 
HETATM    3  C6  UNL     1      -9.620 -32.990  20.241  1.00  0.00     0.014 C 
HETATM    4  C7  UNL     1      -8.445 -32.221  20.842  1.00  0.00     0.008 C 
HETATM    5  C8  UNL     1      -7.695 -31.491  19.723  1.00  0.00     0.036 C 
HETATM    6  C9  UNL     1      -8.579 -31.574  18.491  1.00  0.00     0.223 C 
HETATM    7  C10 UNL     1      -9.963 -31.058  18.799  1.00  0.00     0.036 C 
HETATM    8  C11 UNL     1     -10.636 -31.956  19.799  1.00  0.00     0.008 C 
ENDROOT
BRANCH   1   9
HETATM    9  C4  UNL     1      -9.340 -33.102  16.802  1.00  0.00     0.274 C 
BRANCH   9  10
HETATM   10  C3  UNL     1      -8.577 -32.457  15.678  1.00  0.00     0.057 C 
BRANCH  10  11
HETATM   11  C2  UNL     1      -9.342 -31.354  14.997  1.00  0.00     0.233 C 
BRANCH  11  12
HETATM   12  N1  UNL     1      -8.595 -30.762  13.903  1.00  0.00    -0.079 N 
HETATM   13  C1  UNL     1      -8.061 -29.459  14.272  1.00  0.00     0.266 C 
ATOM     14  H12 UNL     1      -9.154 -30.710  13.052  1.00  0.00     0.276 HD
ATOM     15  H11 UNL     1      -7.860 -31.387  13.570  1.00  0.00     0.276 HD
ENDBRANCH  11  12
ENDBRANCH  10  11
ENDBRANCH   9  10
ENDBRANCH   1   9
TORSDOF 4
ENDMDL
MODEL 5
REMARK VINA RESULT: -4.859746228      0.860      1.850
REMARK  4 active torsions:
REMARK  status: ('A' for Active; 'I' for Inactive)
REMARK    1  A    between atoms: N1_2  and  C2_5 
REMARK    2  A    between atoms: C2_5  and  C3_6 
REMARK    3  A    between atoms: C3_6  and  C4_7 
REMARK    4  A    between atoms: C4_7  and  N2_8 
ROOT
HETATM    1  N2  UNL     1      -8.600 -31.724  17.424  1.00  0.00     0.093 N 
HETATM    2  C5  UNL     1      -7.990 -31.182  18.622  1.00  0.00     0.277 C 
HETATM    3  C6  UNL     1      -8.683 -31.752  19.831  1.00  0.00     0.014 C 
HETATM    4  C7  UNL     1     -10.144 -31.305  19.823  1.00  0.00     0.008 C 
HETATM    5  C8  UNL     1     -10.756 -31.606  18.451  1.00  0.00     0.036 C 
HETATM    6  C9  UNL     1      -9.764 -32.498  17.726  1.00  0.00     0.223 C 
HETATM    7  C10 UNL     1      -9.421 -33.701  18.570  1.00  0.00     0.036 C 
HETATM    8  C11 UNL     1      -8.692 -33.268  19.811  1.00  0.00     0.008 C 
ENDROOT
BRANCH   1   9
HETATM    9  C4  UNL     1      -7.633 -32.457  16.618  1.00  0.00     0.274 C 
BRANCH   9  10
HETATM   10  C3  UNL     1      -8.213 -32.748  15.263  1.00  0.00     0.057 C 
BRANCH  10  11
HETATM   11  C2  UNL     1      -7.619 -31.904  14.168  1.00  0.00     0.233 C 
BRANCH  11  12
HETATM   12  N1  UNL     1      -8.511 -30.838  13.750  1.00  0.00    -0.079 N 
HETATM   13  C1  UNL     1      -8.117 -29.562  14.328  1.00  0.00     0.266 C 
ATOM     14  H12 UNL     1      -9.484 -31.060  13.961  1.00  0.00     0.276 HD
ATOM     15  H11 UNL     1      -8.580 -30.784  12.734  1.00  0.00     0.276 HD
ENDBRANCH  11  12
ENDBRANCH  10  11
ENDBRANCH   9  10
ENDBRANCH   1   9
TORSDOF 4
ENDMDL
