MODEL 1
REMARK VINA RESULT: -6.017601999      0.000      0.000
REMARK  3 active torsions:
REMARK  status: ('A' for Active; 'I' for Inactive)
REMARK    1  A    between atoms: C3_4  and  C4_5 
REMARK    2  A    between atoms: C4_5  and  N1_6 
REMARK    3  A    between atoms: N1_6  and  C5_8 
ROOT
HETATM    1  C4  UNL     1      -8.477 -33.120  16.177  1.00  0.00     0.118 C 
ENDROOT
BRANCH   1   2
HETATM    2  C3  UNL     1      -8.096 -31.750  15.714  1.00  0.00     0.008 C 
HETATM    3  C2  UNL     1      -7.693 -31.656  14.243  1.00  0.00     0.043 C 
HETATM    4  C1  UNL     1      -8.366 -30.274  14.247  1.00  0.00     0.171 C 
HETATM    5  F1  UNL     1      -7.491 -29.301  14.730  1.00  0.00    -0.249 F 
HETATM    6  C8  UNL     1      -9.213 -30.793  15.418  1.00  0.00     0.043 C 
ENDBRANCH   1   2
BRANCH   1   7
HETATM    7  N1  UNL     1      -9.300 -33.048  17.340  1.00  0.00    -0.417 N 
ATOM      8  H1  UNL     1     -10.289 -33.298  17.322  1.00  0.00     0.153 HD
BRANCH   7   9
HETATM    9  C5  UNL     1      -8.648 -32.604  18.528  1.00  0.00     0.076 A 
HETATM   10  C6  UNL     1      -8.869 -33.240  19.826  1.00  0.00     0.027 A 
HETATM   11  C7  UNL     1      -9.428 -31.857  19.578  1.00  0.00     0.027 A 
ENDBRANCH   7   9
ENDBRANCH   1   7
TORSDOF 3
ENDMDL
MODEL 2
REMARK VINA RESULT: -5.836897765      2.207      4.640
REMARK  3 active torsions:
REMARK  status: ('A' for Active; 'I' for Inactive)
REMARK    1  A    between atoms: C3_4  and  C4_5 
REMARK    2  A    between atoms: C4_5  and  N1_6 
REMARK    3  A    between atoms: N1_6  and  C5_8 
ROOT
HETATM    1  C4  UNL     1     -10.478 -32.075  16.696  1.00  0.00     0.118 C 
ENDROOT
BRANCH   1   2
HETATM    2  C3  UNL     1      -9.552 -31.800  17.838  1.00  0.00     0.008 C 
HETATM    3  C2  UNL     1     -10.240 -31.478  19.163  1.00  0.00     0.043 C 
HETATM    4  C1  UNL     1      -9.082 -32.231  19.836  1.00  0.00     0.171 C 
HETATM    5  F1  UNL     1      -7.979 -31.392  20.003  1.00  0.00    -0.249 F 
HETATM    6  C8  UNL     1      -8.924 -32.985  18.508  1.00  0.00     0.043 C 
ENDBRANCH   1   2
BRANCH   1   7
HETATM    7  N1  UNL     1     -10.154 -31.253  15.576  1.00  0.00    -0.417 N 
ATOM      8  H1  UNL     1     -10.857 -30.953  14.900  1.00  0.00     0.153 HD
BRANCH   7   9
HETATM    9  C5  UNL     1      -8.783 -30.879  15.464  1.00  0.00     0.076 A 
HETATM   10  C6  UNL     1      -8.338 -29.781  14.607  1.00  0.00     0.027 A 
HETATM   11  C7  UNL     1      -8.015 -31.204  14.209  1.00  0.00     0.027 A 
ENDBRANCH   7   9
ENDBRANCH   1   7
TORSDOF 3
ENDMDL
MODEL 3
REMARK VINA RESULT: -5.830900709      2.674      4.873
REMARK  3 active torsions:
REMARK  status: ('A' for Active; 'I' for Inactive)
REMARK    1  A    between atoms: C3_4  and  C4_5 
REMARK    2  A    between atoms: C4_5  and  N1_6 
REMARK    3  A    between atoms: N1_6  and  C5_8 
ROOT
HETATM    1  C4  UNL     1     -10.392 -31.696  16.826  1.00  0.00     0.118 C 
ENDROOT
BRANCH   1   2
HETATM    2  C3  UNL     1     -10.207 -32.231  18.210  1.00  0.00     0.008 C 
HETATM    3  C2  UNL     1      -8.886 -32.962  18.448  1.00  0.00     0.043 C 
HETATM    4  C1  UNL     1      -8.923 -32.366  19.863  1.00  0.00     0.171 C 
HETATM    5  F1  UNL     1      -9.710 -33.149  20.708  1.00  0.00    -0.249 F 
HETATM    6  C8  UNL     1      -9.800 -31.253  19.272  1.00  0.00     0.043 C 
ENDBRANCH   1   2
BRANCH   1   7
HETATM    7  N1  UNL     1      -9.176 -31.132  16.337  1.00  0.00    -0.417 N 
ATOM      8  H1  UNL     1      -8.334 -31.077  16.909  1.00  0.00     0.153 HD
BRANCH   7   9
HETATM    9  C5  UNL     1      -9.218 -30.650  14.995  1.00  0.00     0.076 A 
HETATM   10  C6  UNL     1      -8.229 -31.043  13.992  1.00  0.00     0.027 A 
HETATM   11  C7  UNL     1      -8.212 -29.630  14.532  1.00  0.00     0.027 A 
ENDBRANCH   7   9
ENDBRANCH   1   7
TORSDOF 3
ENDMDL
MODEL 4
REMARK VINA RESULT: -5.750283627      2.091      4.401
REMARK  3 active torsions:
REMARK  status: ('A' for Active; 'I' for Inactive)
REMARK    1  A    between atoms: C3_4  and  C4_5 
REMARK    2  A    between atoms: C4_5  and  N1_6 
REMARK    3  A    between atoms: N1_6  and  C5_8 
ROOT
HETATM    1  C4  UNL     1      -9.026 -32.977  16.950  1.00  0.00     0.118 C 
ENDROOT
BRANCH   1   2
HETATM    2  C3  UNL     1      -9.397 -31.782  17.769  1.00  0.00     0.008 C 
HETATM    3  C2  UNL     1     -10.894 -31.612  18.019  1.00  0.00     0.043 C 
HETATM    4  C1  UNL     1     -10.503 -31.072  19.403  1.00  0.00     0.171 C 
HETATM    5  F1  UNL     1     -10.184 -29.715  19.331  1.00  0.00    -0.249 F 
HETATM    6  C8  UNL     1      -9.210 -31.886  19.253  1.00  0.00     0.043 C 
ENDBRANCH   1   2
BRANCH   1   7
HETATM    7  N1  UNL     1      -8.196 -32.598  15.854  1.00  0.00    -0.417 N 
ATOM      8  H1  UNL     1      -7.325 -33.084  15.637  1.00  0.00     0.153 HD
BRANCH   7   9
HETATM    9  C5  UNL     1      -8.664 -31.496  15.080  1.00  0.00     0.076 A 
HETATM   10  C6  UNL     1      -8.190 -31.235  13.721  1.00  0.00     0.027 A 
HETATM   11  C7  UNL     1      -7.766 -30.310  14.841  1.00  0.00     0.027 A 
ENDBRANCH   7   9
ENDBRANCH   1   7
TORSDOF 3
ENDMDL
MODEL 5
REMARK VINA RESULT: -5.740768717      1.289      1.580
REMARK  3 active torsions:
REMARK  status: ('A' for Active; 'I' for Inactive)
REMARK    1  A    between atoms: C3_4  and  C4_5 
REMARK    2  A    between atoms: C4_5  and  N1_6 
REMARK    3  A    between atoms: N1_6  and  C5_8 
ROOT
HETATM    1  C4  UNL     1      -8.977 -32.941  17.326  1.00  0.00     0.118 C 
ENDROOT
BRANCH   1   2
HETATM    2  C3  UNL     1      -8.886 -32.364  15.949  1.00  0.00     0.008 C 
HETATM    3  C2  UNL     1      -9.888 -31.250  15.650  1.00  0.00     0.043 C 
HETATM    4  C1  UNL     1      -8.776 -30.609  14.805  1.00  0.00     0.171 C 
HETATM    5  F1  UNL     1      -8.747 -31.165  13.526  1.00  0.00    -0.249 F 
HETATM    6  C8  UNL     1      -7.787 -31.377  15.693  1.00  0.00     0.043 C 
ENDBRANCH   1   2
BRANCH   1   7
HETATM    7  N1  UNL     1      -8.113 -32.246  18.222  1.00  0.00    -0.417 N 
ATOM      8  H1  UNL     1      -7.140 -32.044  17.992  1.00  0.00     0.153 HD
BRANCH   7   9
HETATM    9  C5  UNL     1      -8.700 -31.852  19.461  1.00  0.00     0.076 A 
HETATM   10  C6  UNL     1      -9.558 -32.744  20.239  1.00  0.00     0.027 A 
HETATM   11  C7  UNL     1     -10.175 -31.558  19.533  1.00  0.00     0.027 A 
ENDBRANCH   7   9
ENDBRANCH   1   7
TORSDOF 3
ENDMDL
