MODEL 1
REMARK VINA RESULT: -8.582617681      0.000      0.000
REMARK  18 active torsions:
REMARK  status: ('A' for Active; 'I' for Inactive)
REMARK    1  A    between atoms: C2_2  and  C3_3 
REMARK    2  A    between atoms: C3_3  and  C4_4 
REMARK    3  A    between atoms: C4_4  and  C5_5 
REMARK    4  A    between atoms: C5_5  and  C6_6 
REMARK    5  A    between atoms: C6_6  and  N1_7 
REMARK    6  A    between atoms: N1_7  and  C7_9 
REMARK    7  A    between atoms: C7_9  and  C8_10 
REMARK    8  A    between atoms: C7_9  and  C21_29 
REMARK    9  A    between atoms: C8_10  and  N2_11 
REMARK   10  A    between atoms: N3_14  and  C11_15 
REMARK   11  A    between atoms: C11_15  and  O1_16 
REMARK   12  A    between atoms: C11_15  and  N4_18 
REMARK   13  A    between atoms: C16_23  and  C17_24 
REMARK   14  A    between atoms: N6_33  and  C23_34 
REMARK       I    between atoms: N7_37  and  C26_38 
REMARK   15  A    between atoms: C26_38  and  O4_40 
REMARK   16  A    between atoms: O4_40  and  C27_41 
REMARK   17  A    between atoms: C27_41  and  C28_42 
REMARK   18  A    between atoms: C28_42  and  O5_43 
ROOT
HETATM    1  C7  UNL     1      18.150  23.421  18.865  1.00  0.00     0.152 C 
ENDROOT
BRANCH   1   2
HETATM    2  N1  UNL     1      17.122  24.382  18.958  1.00  0.00    -0.409 N 
ATOM      3  H1  UNL     1      16.657  24.589  19.842  1.00  0.00     0.154 HD
BRANCH   2   4
HETATM    4  C6  UNL     1      16.770  25.046  17.756  1.00  0.00     0.115 C 
BRANCH   4   5
HETATM    5  C5  UNL     1      16.502  24.051  16.636  1.00  0.00     0.019 C 
BRANCH   5   6
HETATM    6  C4  UNL     1      17.520  24.212  15.523  1.00  0.00     0.002 C 
BRANCH   6   7
HETATM    7  C3  UNL     1      17.898  25.639  15.289  1.00  0.00    -0.000 C 
BRANCH   7   8
HETATM    8  C2  UNL     1      19.392  25.859  15.175  1.00  0.00    -0.005 C 
HETATM    9  C1  UNL     1      19.632  27.153  14.437  1.00  0.00     0.005 C 
ENDBRANCH   7   8
ENDBRANCH   6   7
ENDBRANCH   5   6
ENDBRANCH   4   5
ENDBRANCH   2   4
ENDBRANCH   1   2
BRANCH   1  10
HETATM   10  C8  UNL     1      17.790  22.134  19.584  1.00  0.00     0.096 C 
BRANCH  10  11
HETATM   11  N2  UNL     1      16.681  21.434  19.092  1.00  0.00    -0.327 N 
HETATM   12  C9  UNL     1      15.398  21.477  19.766  1.00  0.00     0.151 C 
HETATM   13  C10 UNL     1      14.380  21.677  18.647  1.00  0.00     0.147 C 
HETATM   14  N3  UNL     1      14.336  20.400  17.904  1.00  0.00    -0.337 N 
HETATM   15  C19 UNL     1      15.566  19.737  17.659  1.00  0.00     0.229 C 
HETATM   16  C20 UNL     1      16.753  20.658  17.911  1.00  0.00     0.241 C 
HETATM   17  O2  UNL     1      17.688  20.672  17.087  1.00  0.00    -0.271 OA
BRANCH  14  18
HETATM   18  C11 UNL     1      13.076  19.973  17.495  1.00  0.00     0.218 C 
BRANCH  18  19
HETATM   19  O1  UNL     1      12.288  19.539  18.476  1.00  0.00    -0.332 OA
ATOM     20  H1  UNL     1      11.406  19.310  18.207  1.00  0.00     0.220 HD
ENDBRANCH  18  19
BRANCH  18  21
HETATM   21  N4  UNL     1      12.441  19.898  16.255  1.00  0.00    -0.343 N 
HETATM   22  C12 UNL     1      11.466  18.925  15.907  1.00  0.00     0.127 C 
HETATM   23  C13 UNL     1      10.548  19.220  14.771  1.00  0.00     0.020 C 
HETATM   24  C14 UNL     1      10.650  20.524  14.090  1.00  0.00     0.004 C 
HETATM   25  C15 UNL     1      11.567  21.522  14.741  1.00  0.00     0.025 C 
HETATM   26  C16 UNL     1      12.827  20.880  15.229  1.00  0.00     0.087 C 
BRANCH  26  27
HETATM   27  C17 UNL     1      13.543  20.196  14.084  1.00  0.00     0.021 C 
HETATM   28  C18 UNL     1      14.272  21.260  13.254  1.00  0.00     0.007 C 
ENDBRANCH  26  27
ENDBRANCH  18  21
ENDBRANCH  14  18
ENDBRANCH  10  11
ENDBRANCH   1  10
BRANCH   1  29
HETATM   29  C21 UNL     1      19.483  23.827  19.378  1.00  0.00     0.003 A 
HETATM   30  C22 UNL     1      20.255  23.337  20.405  1.00  0.00     0.118 A 
HETATM   31  N5  UNL     1      21.403  24.054  20.442  1.00  0.00    -0.309 N 
HETATM   32  N6  UNL     1      21.429  24.969  19.521  1.00  0.00    -0.298 N 
ATOM     33  H5  UNL     1      22.155  23.895  21.113  1.00  0.00     0.186 HD
HETATM   34  C31 UNL     1      20.276  24.866  18.847  1.00  0.00     0.121 A 
BRANCH  32  35
HETATM   35  C23 UNL     1      22.470  25.935  19.235  1.00  0.00     0.110 C 
HETATM   36  C24 UNL     1      23.380  25.431  18.140  1.00  0.00     0.047 C 
HETATM   37  C25 UNL     1      23.943  26.511  17.265  1.00  0.00     0.130 C 
HETATM   38  N7  UNL     1      22.983  27.501  16.894  1.00  0.00    -0.328 N 
HETATM   39  C26 UNL     1      23.341  28.436  15.859  1.00  0.00     0.362 C 
HETATM   40  C29 UNL     1      21.691  27.593  17.509  1.00  0.00     0.130 C 
HETATM   41  O3  UNL     1      22.530  29.328  15.500  1.00  0.00    -0.238 OA
HETATM   42  C30 UNL     1      21.847  27.260  18.975  1.00  0.00     0.047 C 
BRANCH  39  43
HETATM   43  O4  UNL     1      24.560  28.376  15.250  1.00  0.00    -0.302 OA
BRANCH  43  44
HETATM   44  C27 UNL     1      25.632  29.229  15.258  1.00  0.00     0.206 C 
BRANCH  44  45
HETATM   45  C28 UNL     1      25.822  30.104  16.445  1.00  0.00     0.191 C 
BRANCH  45  46
HETATM   46  O5  UNL     1      24.996  31.194  16.519  1.00  0.00    -0.399 OA
ATOM     47  H5  UNL     1      24.987  31.649  17.353  1.00  0.00     0.209 HD
ENDBRANCH  45  46
ENDBRANCH  44  45
ENDBRANCH  43  44
ENDBRANCH  39  43
ENDBRANCH  32  35
ENDBRANCH   1  29
TORSDOF 18
ENDMDL
MODEL 2
REMARK VINA RESULT: -8.516697127      3.190     12.617
REMARK  18 active torsions:
REMARK  status: ('A' for Active; 'I' for Inactive)
REMARK    1  A    between atoms: C2_2  and  C3_3 
REMARK    2  A    between atoms: C3_3  and  C4_4 
REMARK    3  A    between atoms: C4_4  and  C5_5 
REMARK    4  A    between atoms: C5_5  and  C6_6 
REMARK    5  A    between atoms: C6_6  and  N1_7 
REMARK    6  A    between atoms: N1_7  and  C7_9 
REMARK    7  A    between atoms: C7_9  and  C8_10 
REMARK    8  A    between atoms: C7_9  and  C21_29 
REMARK    9  A    between atoms: C8_10  and  N2_11 
REMARK   10  A    between atoms: N3_14  and  C11_15 
REMARK   11  A    between atoms: C11_15  and  O1_16 
REMARK   12  A    between atoms: C11_15  and  N4_18 
REMARK   13  A    between atoms: C16_23  and  C17_24 
REMARK   14  A    between atoms: N6_33  and  C23_34 
REMARK       I    between atoms: N7_37  and  C26_38 
REMARK   15  A    between atoms: C26_38  and  O4_40 
REMARK   16  A    between atoms: O4_40  and  C27_41 
REMARK   17  A    between atoms: C27_41  and  C28_42 
REMARK   18  A    between atoms: C28_42  and  O5_43 
ROOT
HETATM    1  C7  UNL     1      14.712  21.639  16.396  1.00  0.00     0.152 C 
ENDROOT
BRANCH   1   2
HETATM    2  N1  UNL     1      14.143  22.562  17.298  1.00  0.00    -0.409 N 
ATOM      3  H1  UNL     1      13.518  23.304  16.985  1.00  0.00     0.154 HD
BRANCH   2   4
HETATM    4  C6  UNL     1      14.488  22.401  18.663  1.00  0.00     0.115 C 
BRANCH   4   5
HETATM    5  C5  UNL     1      15.256  21.107  18.889  1.00  0.00     0.019 C 
BRANCH   5   6
HETATM    6  C4  UNL     1      15.485  20.873  20.369  1.00  0.00     0.002 C 
BRANCH   6   7
HETATM    7  C3  UNL     1      14.550  19.858  20.945  1.00  0.00    -0.000 C 
BRANCH   7   8
HETATM    8  C2  UNL     1      13.786  19.076  19.898  1.00  0.00    -0.005 C 
HETATM    9  C1  UNL     1      12.640  18.364  20.573  1.00  0.00     0.005 C 
ENDBRANCH   7   8
ENDBRANCH   6   7
ENDBRANCH   5   6
ENDBRANCH   4   5
ENDBRANCH   2   4
ENDBRANCH   1   2
BRANCH   1  10
HETATM   10  C8  UNL     1      15.587  22.321  15.361  1.00  0.00     0.096 C 
BRANCH  10  11
HETATM   11  N2  UNL     1      16.717  22.992  15.846  1.00  0.00    -0.327 N 
HETATM   12  C9  UNL     1      16.690  24.413  16.132  1.00  0.00     0.151 C 
HETATM   13  C10 UNL     1      17.394  24.550  17.478  1.00  0.00     0.147 C 
HETATM   14  N3  UNL     1      18.824  24.277  17.221  1.00  0.00    -0.337 N 
HETATM   15  C19 UNL     1      19.144  23.215  16.337  1.00  0.00     0.229 C 
HETATM   16  C20 UNL     1      17.938  22.318  16.089  1.00  0.00     0.241 C 
HETATM   17  O2  UNL     1      18.094  21.081  16.112  1.00  0.00    -0.271 OA
BRANCH  14  18
HETATM   18  C11 UNL     1      19.732  25.090  17.891  1.00  0.00     0.218 C 
BRANCH  18  19
HETATM   19  O1  UNL     1      19.746  26.361  17.493  1.00  0.00    -0.332 OA
ATOM     20  H1  UNL     1      19.738  27.000  18.196  1.00  0.00     0.220 HD
ENDBRANCH  18  19
BRANCH  18  21
HETATM   21  N4  UNL     1      20.654  24.864  18.915  1.00  0.00    -0.343 N 
HETATM   22  C12 UNL     1      22.061  24.804  18.733  1.00  0.00     0.127 C 
HETATM   23  C13 UNL     1      22.937  25.024  19.919  1.00  0.00     0.020 C 
HETATM   24  C14 UNL     1      22.315  25.346  21.216  1.00  0.00     0.004 C 
HETATM   25  C15 UNL     1      20.835  25.607  21.175  1.00  0.00     0.025 C 
HETATM   26  C16 UNL     1      20.127  24.647  20.272  1.00  0.00     0.087 C 
BRANCH  26  27
HETATM   27  C17 UNL     1      20.384  23.223  20.718  1.00  0.00     0.021 C 
HETATM   28  C18 UNL     1      19.155  22.372  20.378  1.00  0.00     0.007 C 
ENDBRANCH  26  27
ENDBRANCH  18  21
ENDBRANCH  14  18
ENDBRANCH  10  11
ENDBRANCH   1  10
BRANCH   1  29
HETATM   29  C21 UNL     1      13.762  20.783  15.640  1.00  0.00     0.003 A 
HETATM   30  C22 UNL     1      13.759  20.355  14.334  1.00  0.00     0.118 A 
HETATM   31  N5  UNL     1      12.670  19.570  14.154  1.00  0.00    -0.309 N 
HETATM   32  N6  UNL     1      11.971  19.462  15.243  1.00  0.00    -0.298 N 
ATOM     33  H5  UNL     1      12.429  19.119  13.271  1.00  0.00     0.186 HD
HETATM   34  C31 UNL     1      12.602  20.186  16.177  1.00  0.00     0.121 A 
BRANCH  32  35
HETATM   35  C23 UNL     1      10.745  18.720  15.461  1.00  0.00     0.110 C 
HETATM   36  C24 UNL     1      10.640  17.567  14.491  1.00  0.00     0.047 C 
HETATM   37  C25 UNL     1       9.931  16.366  15.042  1.00  0.00     0.130 C 
HETATM   38  N7  UNL     1      10.312  16.043  16.380  1.00  0.00    -0.328 N 
HETATM   39  C26 UNL     1       9.892  14.774  16.917  1.00  0.00     0.362 C 
HETATM   40  C29 UNL     1      11.090  16.930  17.196  1.00  0.00     0.130 C 
HETATM   41  O3  UNL     1      10.202  14.448  18.092  1.00  0.00    -0.238 OA
HETATM   42  C30 UNL     1      10.652  18.345  16.897  1.00  0.00     0.047 C 
BRANCH  39  43
HETATM   43  O4  UNL     1       9.155  13.906  16.167  1.00  0.00    -0.302 OA
BRANCH  43  44
HETATM   44  C27 UNL     1       9.352  12.594  15.826  1.00  0.00     0.206 C 
BRANCH  44  45
HETATM   45  C28 UNL     1       8.778  11.547  16.712  1.00  0.00     0.191 C 
BRANCH  45  46
HETATM   46  O5  UNL     1       9.276  11.508  17.988  1.00  0.00    -0.399 OA
ATOM     47  H5  UNL     1       8.804  12.024  18.631  1.00  0.00     0.209 HD
ENDBRANCH  45  46
ENDBRANCH  44  45
ENDBRANCH  43  44
ENDBRANCH  39  43
ENDBRANCH  32  35
ENDBRANCH   1  29
TORSDOF 18
ENDMDL
MODEL 3
REMARK VINA RESULT: -8.347199159      2.536     11.616
REMARK  18 active torsions:
REMARK  status: ('A' for Active; 'I' for Inactive)
REMARK    1  A    between atoms: C2_2  and  C3_3 
REMARK    2  A    between atoms: C3_3  and  C4_4 
REMARK    3  A    between atoms: C4_4  and  C5_5 
REMARK    4  A    between atoms: C5_5  and  C6_6 
REMARK    5  A    between atoms: C6_6  and  N1_7 
REMARK    6  A    between atoms: N1_7  and  C7_9 
REMARK    7  A    between atoms: C7_9  and  C8_10 
REMARK    8  A    between atoms: C7_9  and  C21_29 
REMARK    9  A    between atoms: C8_10  and  N2_11 
REMARK   10  A    between atoms: N3_14  and  C11_15 
REMARK   11  A    between atoms: C11_15  and  O1_16 
REMARK   12  A    between atoms: C11_15  and  N4_18 
REMARK   13  A    between atoms: C16_23  and  C17_24 
REMARK   14  A    between atoms: N6_33  and  C23_34 
REMARK       I    between atoms: N7_37  and  C26_38 
REMARK   15  A    between atoms: C26_38  and  O4_40 
REMARK   16  A    between atoms: O4_40  and  C27_41 
REMARK   17  A    between atoms: C27_41  and  C28_42 
REMARK   18  A    between atoms: C28_42  and  O5_43 
ROOT
HETATM    1  C7  UNL     1      16.479  22.835  17.797  1.00  0.00     0.152 C 
ENDROOT
BRANCH   1   2
HETATM    2  N1  UNL     1      15.537  22.389  18.747  1.00  0.00    -0.409 N 
ATOM      3  H1  UNL     1      14.759  22.975  19.048  1.00  0.00     0.154 HD
BRANCH   2   4
HETATM    4  C6  UNL     1      15.730  21.083  19.260  1.00  0.00     0.115 C 
BRANCH   4   5
HETATM    5  C5  UNL     1      15.598  21.061  20.776  1.00  0.00     0.019 C 
BRANCH   5   6
HETATM    6  C4  UNL     1      14.686  19.933  21.216  1.00  0.00     0.002 C 
BRANCH   6   7
HETATM    7  C3  UNL     1      13.932  19.322  20.079  1.00  0.00    -0.000 C 
BRANCH   7   8
HETATM    8  C2  UNL     1      13.182  18.061  20.456  1.00  0.00    -0.005 C 
HETATM    9  C1  UNL     1      12.851  17.304  19.194  1.00  0.00     0.005 C 
ENDBRANCH   7   8
ENDBRANCH   6   7
ENDBRANCH   5   6
ENDBRANCH   4   5
ENDBRANCH   2   4
ENDBRANCH   1   2
BRANCH   1  10
HETATM   10  C8  UNL     1      16.711  24.332  17.885  1.00  0.00     0.096 C 
BRANCH  10  11
HETATM   11  N2  UNL     1      18.045  24.755  17.912  1.00  0.00    -0.327 N 
HETATM   12  C9  UNL     1      18.943  24.366  18.983  1.00  0.00     0.151 C 
HETATM   13  C10 UNL     1      20.236  23.969  18.278  1.00  0.00     0.147 C 
HETATM   14  N3  UNL     1      20.827  25.226  17.773  1.00  0.00    -0.337 N 
HETATM   15  C19 UNL     1      19.952  26.184  17.201  1.00  0.00     0.229 C 
HETATM   16  C20 UNL     1      18.589  25.576  16.895  1.00  0.00     0.241 C 
HETATM   17  O2  UNL     1      18.049  25.830  15.800  1.00  0.00    -0.271 OA
BRANCH  14  18
HETATM   18  C11 UNL     1      22.209  25.345  17.895  1.00  0.00     0.218 C 
BRANCH  18  19
HETATM   19  O1  UNL     1      22.826  24.258  18.353  1.00  0.00    -0.332 OA
ATOM     20  H1  UNL     1      23.551  24.429  18.942  1.00  0.00     0.220 HD
ENDBRANCH  18  19
BRANCH  18  21
HETATM   21  N4  UNL     1      23.112  26.377  17.636  1.00  0.00    -0.343 N 
HETATM   22  C12 UNL     1      23.906  27.020  18.623  1.00  0.00     0.127 C 
HETATM   23  C13 UNL     1      25.129  27.747  18.182  1.00  0.00     0.020 C 
HETATM   24  C14 UNL     1      25.498  27.726  16.754  1.00  0.00     0.004 C 
HETATM   25  C15 UNL     1      24.685  26.801  15.892  1.00  0.00     0.025 C 
HETATM   26  C16 UNL     1      23.233  26.847  16.246  1.00  0.00     0.087 C 
BRANCH  26  27
HETATM   27  C17 UNL     1      22.707  28.260  16.117  1.00  0.00     0.021 C 
HETATM   28  C18 UNL     1      21.888  28.365  14.825  1.00  0.00     0.007 C 
ENDBRANCH  26  27
ENDBRANCH  18  21
ENDBRANCH  14  18
ENDBRANCH  10  11
ENDBRANCH   1  10
BRANCH   1  29
HETATM   29  C21 UNL     1      16.171  22.543  16.374  1.00  0.00     0.003 A 
HETATM   30  C22 UNL     1      16.954  22.581  15.244  1.00  0.00     0.118 A 
HETATM   31  N5  UNL     1      16.188  22.201  14.193  1.00  0.00    -0.309 N 
HETATM   32  N6  UNL     1      14.973  21.925  14.559  1.00  0.00    -0.298 N 
ATOM     33  H5  UNL     1      16.524  22.141  13.232  1.00  0.00     0.186 HD
HETATM   34  C31 UNL     1      14.918  22.119  15.883  1.00  0.00     0.121 A 
BRANCH  32  35
HETATM   35  C23 UNL     1      13.859  21.489  13.741  1.00  0.00     0.110 C 
HETATM   36  C24 UNL     1      13.791  19.981  13.690  1.00  0.00     0.047 C 
HETATM   37  C25 UNL     1      12.400  19.434  13.579  1.00  0.00     0.130 C 
HETATM   38  N7  UNL     1      11.460  20.088  14.432  1.00  0.00    -0.328 N 
HETATM   39  C26 UNL     1      10.162  19.486  14.598  1.00  0.00     0.362 C 
HETATM   40  C29 UNL     1      11.763  21.309  15.122  1.00  0.00     0.130 C 
HETATM   41  O3  UNL     1       9.300  20.028  15.337  1.00  0.00    -0.238 OA
HETATM   42  C30 UNL     1      12.618  22.160  14.211  1.00  0.00     0.047 C 
BRANCH  39  43
HETATM   43  O4  UNL     1       9.842  18.325  13.960  1.00  0.00    -0.302 OA
BRANCH  43  44
HETATM   44  C27 UNL     1      10.011  17.011  14.309  1.00  0.00     0.206 C 
BRANCH  44  45
HETATM   45  C28 UNL     1      10.484  16.708  15.685  1.00  0.00     0.191 C 
BRANCH  45  46
HETATM   46  O5  UNL     1      11.765  16.231  15.783  1.00  0.00    -0.399 OA
ATOM     47  H5  UNL     1      12.160  16.281  16.645  1.00  0.00     0.209 HD
ENDBRANCH  45  46
ENDBRANCH  44  45
ENDBRANCH  43  44
ENDBRANCH  39  43
ENDBRANCH  32  35
ENDBRANCH   1  29
TORSDOF 18
ENDMDL
MODEL 4
REMARK VINA RESULT: -8.338423752      2.746     12.087
REMARK  18 active torsions:
REMARK  status: ('A' for Active; 'I' for Inactive)
REMARK    1  A    between atoms: C2_2  and  C3_3 
REMARK    2  A    between atoms: C3_3  and  C4_4 
REMARK    3  A    between atoms: C4_4  and  C5_5 
REMARK    4  A    between atoms: C5_5  and  C6_6 
REMARK    5  A    between atoms: C6_6  and  N1_7 
REMARK    6  A    between atoms: N1_7  and  C7_9 
REMARK    7  A    between atoms: C7_9  and  C8_10 
REMARK    8  A    between atoms: C7_9  and  C21_29 
REMARK    9  A    between atoms: C8_10  and  N2_11 
REMARK   10  A    between atoms: N3_14  and  C11_15 
REMARK   11  A    between atoms: C11_15  and  O1_16 
REMARK   12  A    between atoms: C11_15  and  N4_18 
REMARK   13  A    between atoms: C16_23  and  C17_24 
REMARK   14  A    between atoms: N6_33  and  C23_34 
REMARK       I    between atoms: N7_37  and  C26_38 
REMARK   15  A    between atoms: C26_38  and  O4_40 
REMARK   16  A    between atoms: O4_40  and  C27_41 
REMARK   17  A    between atoms: C27_41  and  C28_42 
REMARK   18  A    between atoms: C28_42  and  O5_43 
ROOT
HETATM    1  C7  UNL     1      14.959  22.329  16.237  1.00  0.00     0.152 C 
ENDROOT
BRANCH   1   2
HETATM    2  N1  UNL     1      14.783  23.188  17.341  1.00  0.00    -0.409 N 
ATOM      3  H1  UNL     1      14.798  24.202  17.241  1.00  0.00     0.154 HD
BRANCH   2   4
HETATM    4  C6  UNL     1      14.583  22.563  18.598  1.00  0.00     0.115 C 
BRANCH   4   5
HETATM    5  C5  UNL     1      15.597  21.452  18.828  1.00  0.00     0.019 C 
BRANCH   5   6
HETATM    6  C4  UNL     1      15.887  21.291  20.307  1.00  0.00     0.002 C 
BRANCH   6   7
HETATM    7  C3  UNL     1      17.349  21.345  20.618  1.00  0.00    -0.000 C 
BRANCH   7   8
HETATM    8  C2  UNL     1      18.092  22.419  19.851  1.00  0.00    -0.005 C 
HETATM    9  C1  UNL     1      19.534  22.000  19.714  1.00  0.00     0.005 C 
ENDBRANCH   7   8
ENDBRANCH   6   7
ENDBRANCH   5   6
ENDBRANCH   4   5
ENDBRANCH   2   4
ENDBRANCH   1   2
BRANCH   1  10
HETATM   10  C8  UNL     1      15.921  22.906  15.215  1.00  0.00     0.096 C 
BRANCH  10  11
HETATM   11  N2  UNL     1      17.064  23.538  15.723  1.00  0.00    -0.327 N 
HETATM   12  C9  UNL     1      17.123  24.977  15.892  1.00  0.00     0.151 C 
HETATM   13  C10 UNL     1      17.747  25.179  17.270  1.00  0.00     0.147 C 
HETATM   14  N3  UNL     1      19.166  24.789  17.136  1.00  0.00    -0.337 N 
HETATM   15  C19 UNL     1      19.463  23.636  16.366  1.00  0.00     0.229 C 
HETATM   16  C20 UNL     1      18.213  22.805  16.105  1.00  0.00     0.241 C 
HETATM   17  O2  UNL     1      18.276  21.567  16.239  1.00  0.00    -0.271 OA
BRANCH  14  18
HETATM   18  C11 UNL     1      20.087  25.592  17.802  1.00  0.00     0.218 C 
BRANCH  18  19
HETATM   19  O1  UNL     1      20.058  26.878  17.460  1.00  0.00    -0.332 OA
ATOM     20  H1  UNL     1      20.352  27.478  18.135  1.00  0.00     0.220 HD
ENDBRANCH  18  19
BRANCH  18  21
HETATM   21  N4  UNL     1      21.057  25.342  18.774  1.00  0.00    -0.343 N 
HETATM   22  C12 UNL     1      20.854  25.491  20.172  1.00  0.00     0.127 C 
HETATM   23  C13 UNL     1      21.770  24.768  21.099  1.00  0.00     0.020 C 
HETATM   24  C14 UNL     1      22.812  23.890  20.534  1.00  0.00     0.004 C 
HETATM   25  C15 UNL     1      22.729  23.662  19.051  1.00  0.00     0.025 C 
HETATM   26  C16 UNL     1      22.391  24.920  18.315  1.00  0.00     0.087 C 
BRANCH  26  27
HETATM   27  C17 UNL     1      23.417  25.992  18.612  1.00  0.00     0.021 C 
HETATM   28  C18 UNL     1      24.540  25.900  17.571  1.00  0.00     0.007 C 
ENDBRANCH  26  27
ENDBRANCH  18  21
ENDBRANCH  14  18
ENDBRANCH  10  11
ENDBRANCH   1  10
BRANCH   1  29
HETATM   29  C21 UNL     1      13.732  21.954  15.489  1.00  0.00     0.003 A 
HETATM   30  C22 UNL     1      13.078  22.563  14.444  1.00  0.00     0.118 A 
HETATM   31  N5  UNL     1      12.012  21.794  14.114  1.00  0.00    -0.309 N 
HETATM   32  N6  UNL     1      11.929  20.740  14.867  1.00  0.00    -0.298 N 
ATOM     33  H5  UNL     1      11.355  22.017  13.366  1.00  0.00     0.186 HD
HETATM   34  C31 UNL     1      12.960  20.797  15.721  1.00  0.00     0.121 A 
BRANCH  32  35
HETATM   35  C23 UNL     1      10.939  19.681  14.836  1.00  0.00     0.110 C 
HETATM   36  C24 UNL     1      11.451  18.495  14.054  1.00  0.00     0.047 C 
HETATM   37  C25 UNL     1      10.951  17.172  14.550  1.00  0.00     0.130 C 
HETATM   38  N7  UNL     1      10.967  17.055  15.973  1.00  0.00    -0.328 N 
HETATM   39  C26 UNL     1      10.753  15.751  16.548  1.00  0.00     0.362 C 
HETATM   40  C29 UNL     1      11.186  18.177  16.838  1.00  0.00     0.130 C 
HETATM   41  O3  UNL     1      10.754  15.600  17.797  1.00  0.00    -0.238 OA
HETATM   42  C30 UNL     1      10.505  19.380  16.225  1.00  0.00     0.047 C 
BRANCH  39  43
HETATM   43  O4  UNL     1      10.544  14.662  15.755  1.00  0.00    -0.302 OA
BRANCH  43  44
HETATM   44  C27 UNL     1      10.660  13.318  15.995  1.00  0.00     0.206 C 
BRANCH  44  45
HETATM   45  C28 UNL     1       9.563  12.642  16.736  1.00  0.00     0.191 C 
BRANCH  45  46
HETATM   46  O5  UNL     1       9.663  12.667  18.102  1.00  0.00    -0.399 OA
ATOM     47  H5  UNL     1       9.972  11.865  18.508  1.00  0.00     0.209 HD
ENDBRANCH  45  46
ENDBRANCH  44  45
ENDBRANCH  43  44
ENDBRANCH  39  43
ENDBRANCH  32  35
ENDBRANCH   1  29
TORSDOF 18
ENDMDL
MODEL 5
REMARK VINA RESULT: -8.318639621      2.698     11.647
REMARK  18 active torsions:
REMARK  status: ('A' for Active; 'I' for Inactive)
REMARK    1  A    between atoms: C2_2  and  C3_3 
REMARK    2  A    between atoms: C3_3  and  C4_4 
REMARK    3  A    between atoms: C4_4  and  C5_5 
REMARK    4  A    between atoms: C5_5  and  C6_6 
REMARK    5  A    between atoms: C6_6  and  N1_7 
REMARK    6  A    between atoms: N1_7  and  C7_9 
REMARK    7  A    between atoms: C7_9  and  C8_10 
REMARK    8  A    between atoms: C7_9  and  C21_29 
REMARK    9  A    between atoms: C8_10  and  N2_11 
REMARK   10  A    between atoms: N3_14  and  C11_15 
REMARK   11  A    between atoms: C11_15  and  O1_16 
REMARK   12  A    between atoms: C11_15  and  N4_18 
REMARK   13  A    between atoms: C16_23  and  C17_24 
REMARK   14  A    between atoms: N6_33  and  C23_34 
REMARK       I    between atoms: N7_37  and  C26_38 
REMARK   15  A    between atoms: C26_38  and  O4_40 
REMARK   16  A    between atoms: O4_40  and  C27_41 
REMARK   17  A    between atoms: C27_41  and  C28_42 
REMARK   18  A    between atoms: C28_42  and  O5_43 
ROOT
HETATM    1  C7  UNL     1      16.535  22.662  17.567  1.00  0.00     0.152 C 
ENDROOT
BRANCH   1   2
HETATM    2  N1  UNL     1      15.685  22.115  18.551  1.00  0.00    -0.409 N 
ATOM      3  H1  UNL     1      14.670  22.123  18.449  1.00  0.00     0.154 HD
BRANCH   2   4
HETATM    4  C6  UNL     1      16.318  21.556  19.689  1.00  0.00     0.115 C 
BRANCH   4   5
HETATM    5  C5  UNL     1      15.307  20.886  20.608  1.00  0.00     0.019 C 
BRANCH   5   6
HETATM    6  C4  UNL     1      14.457  19.895  19.837  1.00  0.00     0.002 C 
BRANCH   6   7
HETATM    7  C3  UNL     1      13.687  18.977  20.730  1.00  0.00    -0.000 C 
BRANCH   7   8
HETATM    8  C2  UNL     1      13.101  17.781  20.010  1.00  0.00    -0.005 C 
HETATM    9  C1  UNL     1      13.960  17.477  18.807  1.00  0.00     0.005 C 
ENDBRANCH   7   8
ENDBRANCH   6   7
ENDBRANCH   5   6
ENDBRANCH   4   5
ENDBRANCH   2   4
ENDBRANCH   1   2
BRANCH   1  10
HETATM   10  C8  UNL     1      16.688  24.164  17.719  1.00  0.00     0.096 C 
BRANCH  10  11
HETATM   11  N2  UNL     1      17.993  24.642  17.890  1.00  0.00    -0.327 N 
HETATM   12  C9  UNL     1      18.780  24.299  19.059  1.00  0.00     0.151 C 
HETATM   13  C10 UNL     1      20.159  23.951  18.508  1.00  0.00     0.147 C 
HETATM   14  N3  UNL     1      20.752  25.227  18.057  1.00  0.00    -0.337 N 
HETATM   15  C19 UNL     1      19.908  26.143  17.378  1.00  0.00     0.229 C 
HETATM   16  C20 UNL     1      18.614  25.477  16.929  1.00  0.00     0.241 C 
HETATM   17  O2  UNL     1      18.191  25.700  15.778  1.00  0.00    -0.271 OA
BRANCH  14  18
HETATM   18  C11 UNL     1      22.105  25.405  18.331  1.00  0.00     0.218 C 
BRANCH  18  19
HETATM   19  O1  UNL     1      22.864  25.650  17.265  1.00  0.00    -0.332 OA
ATOM     20  H1  UNL     1      23.765  25.360  17.342  1.00  0.00     0.220 HD
ENDBRANCH  18  19
BRANCH  18  21
HETATM   21  N4  UNL     1      22.860  25.383  19.504  1.00  0.00    -0.343 N 
HETATM   22  C12 UNL     1      23.172  26.529  20.284  1.00  0.00     0.127 C 
HETATM   23  C13 UNL     1      23.562  26.329  21.708  1.00  0.00     0.020 C 
HETATM   24  C14 UNL     1      23.558  24.964  22.266  1.00  0.00     0.004 C 
HETATM   25  C15 UNL     1      22.972  23.904  21.374  1.00  0.00     0.025 C 
HETATM   26  C16 UNL     1      23.392  24.084  19.950  1.00  0.00     0.087 C 
BRANCH  26  27
HETATM   27  C17 UNL     1      24.902  24.066  19.843  1.00  0.00     0.021 C 
HETATM   28  C18 UNL     1      25.323  22.840  19.023  1.00  0.00     0.007 C 
ENDBRANCH  26  27
ENDBRANCH  18  21
ENDBRANCH  14  18
ENDBRANCH  10  11
ENDBRANCH   1  10
BRANCH   1  29
HETATM   29  C21 UNL     1      16.148  22.423  16.153  1.00  0.00     0.003 A 
HETATM   30  C22 UNL     1      16.854  22.547  14.980  1.00  0.00     0.118 A 
HETATM   31  N5  UNL     1      16.038  22.183  13.962  1.00  0.00    -0.309 N 
HETATM   32  N6  UNL     1      14.862  21.835  14.389  1.00  0.00    -0.298 N 
ATOM     33  H5  UNL     1      16.314  22.181  12.979  1.00  0.00     0.186 HD
HETATM   34  C31 UNL     1      14.885  21.966  15.722  1.00  0.00     0.121 A 
BRANCH  32  35
HETATM   35  C23 UNL     1      13.716  21.388  13.622  1.00  0.00     0.110 C 
HETATM   36  C24 UNL     1      13.684  19.881  13.539  1.00  0.00     0.047 C 
HETATM   37  C25 UNL     1      12.303  19.300  13.490  1.00  0.00     0.130 C 
HETATM   38  N7  UNL     1      11.395  19.910  14.408  1.00  0.00    -0.328 N 
HETATM   39  C26 UNL     1      10.123  19.270  14.628  1.00  0.00     0.362 C 
HETATM   40  C29 UNL     1      11.704  21.122  15.108  1.00  0.00     0.130 C 
HETATM   41  O3  UNL     1       9.289  19.773  15.426  1.00  0.00    -0.238 OA
HETATM   42  C30 UNL     1      12.487  22.016  14.174  1.00  0.00     0.047 C 
BRANCH  39  43
HETATM   43  O4  UNL     1       9.799  18.115  13.981  1.00  0.00    -0.302 OA
BRANCH  43  44
HETATM   44  C27 UNL     1       9.990  16.798  14.306  1.00  0.00     0.206 C 
BRANCH  44  45
HETATM   45  C28 UNL     1      10.435  16.475  15.687  1.00  0.00     0.191 C 
BRANCH  45  46
HETATM   46  O5  UNL     1      11.775  16.232  15.840  1.00  0.00    -0.399 OA
ATOM     47  H5  UNL     1      12.296  16.965  16.145  1.00  0.00     0.209 HD
ENDBRANCH  45  46
ENDBRANCH  44  45
ENDBRANCH  43  44
ENDBRANCH  39  43
ENDBRANCH  32  35
ENDBRANCH   1  29
TORSDOF 18
ENDMDL
