MODEL 1
REMARK VINA RESULT: -9.177868997      0.000      0.000
REMARK  13 active torsions:
REMARK  status: ('A' for Active; 'I' for Inactive)
REMARK    1  A    between atoms: C4_4  and  C5_5 
REMARK    2  A    between atoms: C5_5  and  C6_7 
REMARK       I    between atoms: C6_7  and  N1_9 
REMARK    3  A    between atoms: C16_19  and  C17_20 
REMARK    4  A    between atoms: C17_20  and  N2_21 
REMARK    5  A    between atoms: N3_24  and  C20_25 
REMARK    6  A    between atoms: C20_25  and  C22_27 
REMARK    7  A    between atoms: C24_30  and  N4_31 
REMARK    8  A    between atoms: N4_31  and  C25_33 
REMARK    9  A    between atoms: C28_40  and  N7_41 
REMARK   10  A    between atoms: N7_41  and  C29_43 
REMARK   11  A    between atoms: C29_43  and  C30_44 
REMARK   12  A    between atoms: C30_44  and  C31_45 
REMARK   13  A    between atoms: C31_45  and  N8_46 
ROOT
HETATM    1  C1  UNL     1      14.234 -21.442 -12.339  1.00  0.00     0.050 C 
HETATM    2  C2  UNL     1      14.687 -21.462 -13.765  1.00  0.00    -0.034 A 
HETATM    3  C3  UNL     1      14.100 -20.664 -14.718  1.00  0.00     0.024 A 
HETATM    4  C4  UNL     1      14.441 -20.622 -16.036  1.00  0.00     0.021 A 
HETATM    5  C15 UNL     1      15.495 -21.497 -16.390  1.00  0.00     0.027 A 
HETATM    6  C16 UNL     1      16.127 -22.319 -15.508  1.00  0.00    -0.002 A 
HETATM    7  C24 UNL     1      15.722 -22.307 -14.168  1.00  0.00     0.048 A 
ENDROOT
BRANCH   7   8
HETATM    8  N4  UNL     1      16.355 -23.085 -13.294  1.00  0.00    -0.338 N 
ATOM      9  H4  UNL     1      16.759 -22.398 -12.658  1.00  0.00     0.167 HD
BRANCH   8  10
HETATM   10  C25 UNL     1      16.737 -24.127 -12.807  1.00  0.00     0.150 A 
HETATM   11  N5  UNL     1      15.891 -25.216 -12.860  1.00  0.00    -0.348 N 
HETATM   12  C26 UNL     1      16.240 -26.389 -12.372  1.00  0.00     0.107 A 
ATOM     13  H5  UNL     1      14.972 -25.111 -13.290  1.00  0.00     0.167 HD
HETATM   14  C27 UNL     1      17.494 -26.555 -11.780  1.00  0.00     0.107 A 
HETATM   15  N6  UNL     1      18.309 -25.505 -11.727  1.00  0.00    -0.348 N 
HETATM   16  C28 UNL     1      17.967 -24.305 -12.220  1.00  0.00     0.146 A 
ATOM     17  H6  UNL     1      19.227 -25.616 -11.296  1.00  0.00     0.167 HD
BRANCH  16  18
HETATM   18  N7  UNL     1      18.906 -23.204 -12.073  1.00  0.00    -0.373 N 
ATOM     19  H7  UNL     1      18.928 -22.673 -11.202  1.00  0.00     0.161 HD
BRANCH  18  20
HETATM   20  C29 UNL     1      19.809 -22.850 -13.150  1.00  0.00     0.123 C 
BRANCH  20  21
HETATM   21  C30 UNL     1      19.731 -21.382 -13.393  1.00  0.00     0.050 C 
BRANCH  21  22
HETATM   22  C31 UNL     1      21.041 -20.679 -13.011  1.00  0.00     0.273 C 
BRANCH  22  23
HETATM   23  N8  UNL     1      21.049 -20.536 -11.589  1.00  0.00     0.080 N 
HETATM   24  C32 UNL     1      22.216 -21.082 -10.958  1.00  0.00     0.309 C 
HETATM   25  C33 UNL     1      20.670 -19.238 -11.127  1.00  0.00     0.309 C 
ENDBRANCH  22  23
ENDBRANCH  21  22
ENDBRANCH  20  21
ENDBRANCH  18  20
ENDBRANCH  16  18
ENDBRANCH   8  10
ENDBRANCH   7   8
BRANCH   6  26
HETATM   26  C17 UNL     1      17.257 -23.197 -15.920  1.00  0.00     0.315 C 
BRANCH  26  27
HETATM   27  N2  UNL     1      17.450 -23.095 -17.351  1.00  0.00     0.122 N 
HETATM   28  C18 UNL     1      18.828 -23.533 -17.655  1.00  0.00     0.305 C 
HETATM   29  C19 UNL     1      18.717 -25.020 -17.524  1.00  0.00     0.306 C 
HETATM   30  N3  UNL     1      17.400 -25.337 -18.042  1.00  0.00     0.129 N 
HETATM   31  C23 UNL     1      16.640 -24.131 -18.037  1.00  0.00     0.544 C 
BRANCH  30  32
HETATM   32  C20 UNL     1      17.568 -25.940 -19.334  1.00  0.00     0.282 C 
HETATM   33  C21 UNL     1      18.878 -26.664 -19.516  1.00  0.00     0.050 C 
BRANCH  32  34
HETATM   34  C22 UNL     1      17.262 -25.049 -20.466  1.00  0.00     0.266 C 
HETATM   35  O3  UNL     1      18.118 -24.389 -21.013  1.00  0.00    -0.305 OA
ENDBRANCH  32  34
ENDBRANCH  30  32
ENDBRANCH  26  27
ENDBRANCH   6  26
BRANCH   4  36
HETATM   36  C5  UNL     1      13.859 -19.801 -17.065  1.00  0.00     0.249 C 
HETATM   37  O1  UNL     1      14.622 -19.447 -18.025  1.00  0.00    -0.281 OA
BRANCH  36  38
HETATM   38  C6  UNL     1      12.513 -19.350 -17.103  1.00  0.00     0.294 C 
HETATM   39  O2  UNL     1      12.045 -18.642 -16.166  1.00  0.00    -0.264 OA
HETATM   40  N1  UNL     1      11.571 -19.634 -18.169  1.00  0.00    -0.345 N 
HETATM   41  C7  UNL     1      10.205 -19.142 -18.008  1.00  0.00     0.127 C 
HETATM   42  C14 UNL     1      11.934 -20.331 -19.346  1.00  0.00     0.131 C 
HETATM   43  C8  UNL     1       9.788 -18.491 -19.286  1.00  0.00     0.029 C 
HETATM   44  C9  UNL     1       9.720 -19.587 -20.337  1.00  0.00    -0.041 C 
HETATM   45  C10 UNL     1       8.577 -20.516 -19.960  1.00  0.00     0.015 C 
HETATM   46  C11 UNL     1       9.319 -18.939 -21.645  1.00  0.00     0.015 C 
HETATM   47  C12 UNL     1      11.023 -20.276 -20.516  1.00  0.00     0.007 C 
HETATM   48  C13 UNL     1      10.732 -21.721 -20.959  1.00  0.00     0.012 C 
ENDBRANCH  36  38
ENDBRANCH   4  36
TORSDOF 13
ENDMDL
MODEL 2
REMARK VINA RESULT: -8.891464947      4.285     12.346
REMARK  13 active torsions:
REMARK  status: ('A' for Active; 'I' for Inactive)
REMARK    1  A    between atoms: C4_4  and  C5_5 
REMARK    2  A    between atoms: C5_5  and  C6_7 
REMARK       I    between atoms: C6_7  and  N1_9 
REMARK    3  A    between atoms: C16_19  and  C17_20 
REMARK    4  A    between atoms: C17_20  and  N2_21 
REMARK    5  A    between atoms: N3_24  and  C20_25 
REMARK    6  A    between atoms: C20_25  and  C22_27 
REMARK    7  A    between atoms: C24_30  and  N4_31 
REMARK    8  A    between atoms: N4_31  and  C25_33 
REMARK    9  A    between atoms: C28_40  and  N7_41 
REMARK   10  A    between atoms: N7_41  and  C29_43 
REMARK   11  A    between atoms: C29_43  and  C30_44 
REMARK   12  A    between atoms: C30_44  and  C31_45 
REMARK   13  A    between atoms: C31_45  and  N8_46 
ROOT
HETATM    1  C1  UNL     1      10.111 -21.660 -21.923  1.00  0.00     0.050 C 
HETATM    2  C2  UNL     1      10.428 -21.104 -20.570  1.00  0.00    -0.034 A 
HETATM    3  C3  UNL     1      11.177 -21.808 -19.658  1.00  0.00     0.024 A 
HETATM    4  C4  UNL     1      11.507 -21.385 -18.407  1.00  0.00     0.021 A 
HETATM    5  C15 UNL     1      11.005 -20.104 -18.078  1.00  0.00     0.027 A 
HETATM    6  C16 UNL     1      10.255 -19.344 -18.921  1.00  0.00    -0.002 A 
HETATM    7  C24 UNL     1       9.956 -19.846 -20.194  1.00  0.00     0.048 A 
ENDROOT
BRANCH   7   8
HETATM    8  N4  UNL     1       9.249 -19.095 -21.035  1.00  0.00    -0.338 N 
ATOM      9  H4  UNL     1       9.915 -18.951 -21.794  1.00  0.00     0.167 HD
BRANCH   8  10
HETATM   10  C25 UNL     1       8.283 -18.482 -21.434  1.00  0.00     0.150 A 
HETATM   11  N5  UNL     1       8.486 -17.219 -21.953  1.00  0.00    -0.348 N 
HETATM   12  C26 UNL     1       7.492 -16.496 -22.426  1.00  0.00     0.107 A 
ATOM     13  H5  UNL     1       9.431 -16.836 -21.971  1.00  0.00     0.167 HD
HETATM   14  C27 UNL     1       6.191 -17.002 -22.411  1.00  0.00     0.107 A 
HETATM   15  N6  UNL     1       5.994 -18.219 -21.910  1.00  0.00    -0.348 N 
HETATM   16  C28 UNL     1       6.997 -18.966 -21.425  1.00  0.00     0.146 A 
ATOM     17  H6  UNL     1       5.047 -18.598 -21.894  1.00  0.00     0.167 HD
BRANCH  16  18
HETATM   18  N7  UNL     1       6.678 -20.265 -20.853  1.00  0.00    -0.373 N 
ATOM     19  H7  UNL     1       6.688 -21.094 -21.448  1.00  0.00     0.161 HD
BRANCH  18  20
HETATM   20  C29 UNL     1       6.347 -20.395 -19.448  1.00  0.00     0.123 C 
BRANCH  20  21
HETATM   21  C30 UNL     1       4.865 -20.362 -19.289  1.00  0.00     0.050 C 
BRANCH  21  22
HETATM   22  C31 UNL     1       4.406 -19.089 -18.564  1.00  0.00     0.273 C 
BRANCH  22  23
HETATM   23  N8  UNL     1       3.051 -19.295 -18.158  1.00  0.00     0.080 N 
HETATM   24  C32 UNL     1       2.487 -18.189 -17.438  1.00  0.00     0.309 C 
HETATM   25  C33 UNL     1       2.208 -19.838 -19.176  1.00  0.00     0.309 C 
ENDBRANCH  22  23
ENDBRANCH  21  22
ENDBRANCH  20  21
ENDBRANCH  18  20
ENDBRANCH  16  18
ENDBRANCH   8  10
ENDBRANCH   7   8
BRANCH   6  26
HETATM   26  C17 UNL     1       9.778 -17.985 -18.544  1.00  0.00     0.315 C 
BRANCH  26  27
HETATM   27  N2  UNL     1       8.635 -18.101 -17.663  1.00  0.00     0.122 N 
HETATM   28  C18 UNL     1       9.010 -17.525 -16.356  1.00  0.00     0.305 C 
HETATM   29  C19 UNL     1       8.957 -16.055 -16.637  1.00  0.00     0.306 C 
HETATM   30  N3  UNL     1       7.840 -15.896 -17.550  1.00  0.00     0.129 N 
HETATM   31  C23 UNL     1       7.566 -17.177 -18.112  1.00  0.00     0.544 C 
BRANCH  30  32
HETATM   32  C20 UNL     1       6.754 -15.311 -16.817  1.00  0.00     0.282 C 
HETATM   33  C21 UNL     1       7.163 -14.627 -15.538  1.00  0.00     0.050 C 
BRANCH  32  34
HETATM   34  C22 UNL     1       5.598 -16.204 -16.627  1.00  0.00     0.266 C 
HETATM   35  O3  UNL     1       5.285 -16.625 -15.534  1.00  0.00    -0.305 OA
ENDBRANCH  32  34
ENDBRANCH  30  32
ENDBRANCH  26  27
ENDBRANCH   6  26
BRANCH   4  36
HETATM   36  C5  UNL     1      12.291 -22.084 -17.424  1.00  0.00     0.249 C 
HETATM   37  O1  UNL     1      11.672 -22.897 -16.659  1.00  0.00    -0.281 OA
BRANCH  36  38
HETATM   38  C6  UNL     1      13.691 -21.946 -17.229  1.00  0.00     0.294 C 
HETATM   39  O2  UNL     1      14.151 -21.031 -16.486  1.00  0.00    -0.264 OA
HETATM   40  N1  UNL     1      14.702 -22.797 -17.828  1.00  0.00    -0.345 N 
HETATM   41  C7  UNL     1      16.101 -22.465 -17.569  1.00  0.00     0.127 C 
HETATM   42  C14 UNL     1      14.381 -23.930 -18.614  1.00  0.00     0.131 C 
HETATM   43  C8  UNL     1      16.818 -23.721 -17.195  1.00  0.00     0.029 C 
HETATM   44  C9  UNL     1      16.819 -24.612 -18.427  1.00  0.00    -0.041 C 
HETATM   45  C10 UNL     1      17.688 -23.942 -19.479  1.00  0.00     0.015 C 
HETATM   46  C11 UNL     1      17.524 -25.899 -18.058  1.00  0.00     0.015 C 
HETATM   47  C12 UNL     1      15.444 -24.927 -18.892  1.00  0.00     0.007 C 
HETATM   48  C13 UNL     1      15.504 -25.144 -20.415  1.00  0.00     0.012 C 
ENDBRANCH  36  38
ENDBRANCH   4  36
TORSDOF 13
ENDMDL
MODEL 3
REMARK VINA RESULT: -8.870237736      1.431      3.842
REMARK  13 active torsions:
REMARK  status: ('A' for Active; 'I' for Inactive)
REMARK    1  A    between atoms: C4_4  and  C5_5 
REMARK    2  A    between atoms: C5_5  and  C6_7 
REMARK       I    between atoms: C6_7  and  N1_9 
REMARK    3  A    between atoms: C16_19  and  C17_20 
REMARK    4  A    between atoms: C17_20  and  N2_21 
REMARK    5  A    between atoms: N3_24  and  C20_25 
REMARK    6  A    between atoms: C20_25  and  C22_27 
REMARK    7  A    between atoms: C24_30  and  N4_31 
REMARK    8  A    between atoms: N4_31  and  C25_33 
REMARK    9  A    between atoms: C28_40  and  N7_41 
REMARK   10  A    between atoms: N7_41  and  C29_43 
REMARK   11  A    between atoms: C29_43  and  C30_44 
REMARK   12  A    between atoms: C30_44  and  C31_45 
REMARK   13  A    between atoms: C31_45  and  N8_46 
ROOT
HETATM    1  C1  UNL     1      14.147 -21.529 -12.444  1.00  0.00     0.050 C 
HETATM    2  C2  UNL     1      14.603 -21.531 -13.868  1.00  0.00    -0.034 A 
HETATM    3  C3  UNL     1      14.048 -20.693 -14.805  1.00  0.00     0.024 A 
HETATM    4  C4  UNL     1      14.395 -20.632 -16.120  1.00  0.00     0.021 A 
HETATM    5  C15 UNL     1      15.419 -21.534 -16.492  1.00  0.00     0.027 A 
HETATM    6  C16 UNL     1      16.020 -22.397 -15.627  1.00  0.00    -0.002 A 
HETATM    7  C24 UNL     1      15.610 -22.402 -14.288  1.00  0.00     0.048 A 
ENDROOT
BRANCH   7   8
HETATM    8  N4  UNL     1      16.214 -23.222 -13.431  1.00  0.00    -0.338 N 
ATOM      9  H4  UNL     1      15.417 -23.655 -12.962  1.00  0.00     0.167 HD
BRANCH   8  10
HETATM   10  C25 UNL     1      17.148 -23.759 -12.877  1.00  0.00     0.150 A 
HETATM   11  N5  UNL     1      18.293 -23.016 -12.672  1.00  0.00    -0.348 N 
HETATM   12  C26 UNL     1      19.345 -23.520 -12.059  1.00  0.00     0.107 A 
ATOM     13  H5  UNL     1      18.326 -22.052 -13.003  1.00  0.00     0.167 HD
HETATM   14  C27 UNL     1      19.321 -24.838 -11.597  1.00  0.00     0.107 A 
HETATM   15  N6  UNL     1      18.217 -25.554 -11.796  1.00  0.00    -0.348 N 
HETATM   16  C28 UNL     1      17.140 -25.054 -12.418  1.00  0.00     0.146 A 
ATOM     17  H6  UNL     1      18.190 -26.518 -11.463  1.00  0.00     0.167 HD
BRANCH  16  18
HETATM   18  N7  UNL     1      15.997 -25.928 -12.633  1.00  0.00    -0.373 N 
ATOM     19  H7  UNL     1      15.127 -25.541 -13.000  1.00  0.00     0.161 HD
BRANCH  18  20
HETATM   20  C29 UNL     1      16.079 -27.344 -12.330  1.00  0.00     0.123 C 
BRANCH  20  21
HETATM   21  C30 UNL     1      15.283 -27.629 -11.103  1.00  0.00     0.050 C 
BRANCH  21  22
HETATM   22  C31 UNL     1      13.791 -27.789 -11.426  1.00  0.00     0.273 C 
BRANCH  22  23
HETATM   23  N8  UNL     1      13.136 -28.197 -10.223  1.00  0.00     0.080 N 
HETATM   24  C32 UNL     1      14.031 -28.441  -9.129  1.00  0.00     0.309 C 
HETATM   25  C33 UNL     1      11.981 -27.424  -9.890  1.00  0.00     0.309 C 
ENDBRANCH  22  23
ENDBRANCH  21  22
ENDBRANCH  20  21
ENDBRANCH  18  20
ENDBRANCH  16  18
ENDBRANCH   8  10
ENDBRANCH   7   8
BRANCH   6  26
HETATM   26  C17 UNL     1      17.120 -23.304 -16.056  1.00  0.00     0.315 C 
BRANCH  26  27
HETATM   27  N2  UNL     1      17.302 -23.198 -17.488  1.00  0.00     0.122 N 
HETATM   28  C18 UNL     1      18.691 -23.593 -17.799  1.00  0.00     0.305 C 
HETATM   29  C19 UNL     1      18.627 -25.083 -17.667  1.00  0.00     0.306 C 
HETATM   30  N3  UNL     1      17.317 -25.441 -18.177  1.00  0.00     0.129 N 
HETATM   31  C23 UNL     1      16.521 -24.259 -18.168  1.00  0.00     0.544 C 
BRANCH  30  32
HETATM   32  C20 UNL     1      17.497 -26.041 -19.469  1.00  0.00     0.282 C 
HETATM   33  C21 UNL     1      18.811 -26.757 -19.644  1.00  0.00     0.050 C 
BRANCH  32  34
HETATM   34  C22 UNL     1      17.193 -25.148 -20.601  1.00  0.00     0.266 C 
HETATM   35  O3  UNL     1      18.019 -24.388 -21.058  1.00  0.00    -0.305 OA
ENDBRANCH  32  34
ENDBRANCH  30  32
ENDBRANCH  26  27
ENDBRANCH   6  26
BRANCH   4  36
HETATM   36  C5  UNL     1      13.845 -19.768 -17.132  1.00  0.00     0.249 C 
HETATM   37  O1  UNL     1      14.629 -19.399 -18.069  1.00  0.00    -0.281 OA
BRANCH  36  38
HETATM   38  C6  UNL     1      12.508 -19.290 -17.176  1.00  0.00     0.294 C 
HETATM   39  O2  UNL     1      12.060 -18.546 -16.258  1.00  0.00    -0.264 OA
HETATM   40  N1  UNL     1      11.555 -19.585 -18.230  1.00  0.00    -0.345 N 
HETATM   41  C7  UNL     1      10.200 -19.061 -18.076  1.00  0.00     0.127 C 
HETATM   42  C14 UNL     1      11.897 -20.323 -19.388  1.00  0.00     0.131 C 
HETATM   43  C8  UNL     1       9.790 -18.438 -19.371  1.00  0.00     0.029 C 
HETATM   44  C9  UNL     1       9.693 -19.561 -20.390  1.00  0.00    -0.041 C 
HETATM   45  C10 UNL     1       8.533 -20.455 -19.981  1.00  0.00     0.015 C 
HETATM   46  C11 UNL     1       9.300 -18.943 -21.713  1.00  0.00     0.015 C 
HETATM   47  C12 UNL     1      10.982 -20.282 -20.554  1.00  0.00     0.007 C 
HETATM   48  C13 UNL     1      10.658 -21.732 -20.955  1.00  0.00     0.012 C 
ENDBRANCH  36  38
ENDBRANCH   4  36
TORSDOF 13
ENDMDL
MODEL 4
REMARK VINA RESULT: -8.863021742      3.750     12.474
REMARK  13 active torsions:
REMARK  status: ('A' for Active; 'I' for Inactive)
REMARK    1  A    between atoms: C4_4  and  C5_5 
REMARK    2  A    between atoms: C5_5  and  C6_7 
REMARK       I    between atoms: C6_7  and  N1_9 
REMARK    3  A    between atoms: C16_19  and  C17_20 
REMARK    4  A    between atoms: C17_20  and  N2_21 
REMARK    5  A    between atoms: N3_24  and  C20_25 
REMARK    6  A    between atoms: C20_25  and  C22_27 
REMARK    7  A    between atoms: C24_30  and  N4_31 
REMARK    8  A    between atoms: N4_31  and  C25_33 
REMARK    9  A    between atoms: C28_40  and  N7_41 
REMARK   10  A    between atoms: N7_41  and  C29_43 
REMARK   11  A    between atoms: C29_43  and  C30_44 
REMARK   12  A    between atoms: C30_44  and  C31_45 
REMARK   13  A    between atoms: C31_45  and  N8_46 
ROOT
HETATM    1  C1  UNL     1      10.040 -21.858 -21.747  1.00  0.00     0.050 C 
HETATM    2  C2  UNL     1      10.484 -21.070 -20.555  1.00  0.00    -0.034 A 
HETATM    3  C3  UNL     1      11.801 -21.036 -20.163  1.00  0.00     0.024 A 
HETATM    4  C4  UNL     1      12.293 -20.354 -19.093  1.00  0.00     0.021 A 
HETATM    5  C15 UNL     1      11.314 -19.641 -18.361  1.00  0.00     0.027 A 
HETATM    6  C16 UNL     1       9.992 -19.623 -18.681  1.00  0.00    -0.002 A 
HETATM    7  C24 UNL     1       9.560 -20.349 -19.798  1.00  0.00     0.048 A 
ENDROOT
BRANCH   7   8
HETATM    8  N4  UNL     1       8.273 -20.312 -20.134  1.00  0.00    -0.338 N 
ATOM      9  H4  UNL     1       8.193 -21.129 -20.740  1.00  0.00     0.167 HD
BRANCH   8  10
HETATM   10  C25 UNL     1       7.139 -19.883 -20.148  1.00  0.00     0.150 A 
HETATM   11  N5  UNL     1       6.184 -20.554 -19.411  1.00  0.00    -0.348 N 
HETATM   12  C26 UNL     1       4.935 -20.141 -19.357  1.00  0.00     0.107 A 
ATOM     13  H5  UNL     1       6.453 -21.391 -18.895  1.00  0.00     0.167 HD
HETATM   14  C27 UNL     1       4.546 -18.996 -20.056  1.00  0.00     0.107 A 
HETATM   15  N6  UNL     1       5.466 -18.349 -20.767  1.00  0.00    -0.348 N 
HETATM   16  C28 UNL     1       6.742 -18.759 -20.832  1.00  0.00     0.146 A 
ATOM     17  H6  UNL     1       5.192 -17.512 -21.282  1.00  0.00     0.167 HD
BRANCH  16  18
HETATM   18  N7  UNL     1       7.666 -18.016 -21.674  1.00  0.00    -0.373 N 
ATOM     19  H7  UNL     1       8.484 -18.485 -22.062  1.00  0.00     0.161 HD
BRANCH  18  20
HETATM   20  C29 UNL     1       7.437 -16.615 -21.968  1.00  0.00     0.123 C 
BRANCH  20  21
HETATM   21  C30 UNL     1       7.426 -16.420 -23.445  1.00  0.00     0.050 C 
BRANCH  21  22
HETATM   22  C31 UNL     1       6.167 -17.023 -24.082  1.00  0.00     0.273 C 
BRANCH  22  23
HETATM   23  N8  UNL     1       6.288 -16.867 -25.498  1.00  0.00     0.080 N 
HETATM   24  C32 UNL     1       7.639 -16.695 -25.949  1.00  0.00     0.309 C 
HETATM   25  C33 UNL     1       5.516 -17.796 -26.261  1.00  0.00     0.309 C 
ENDBRANCH  22  23
ENDBRANCH  21  22
ENDBRANCH  20  21
ENDBRANCH  18  20
ENDBRANCH  16  18
ENDBRANCH   8  10
ENDBRANCH   7   8
BRANCH   6  26
HETATM   26  C17 UNL     1       9.003 -18.828 -17.902  1.00  0.00     0.315 C 
BRANCH  26  27
HETATM   27  N2  UNL     1       9.504 -17.482 -17.717  1.00  0.00     0.122 N 
HETATM   28  C18 UNL     1       8.605 -16.561 -18.440  1.00  0.00     0.305 C 
HETATM   29  C19 UNL     1       7.416 -16.509 -17.533  1.00  0.00     0.306 C 
HETATM   30  N3  UNL     1       7.974 -16.563 -16.194  1.00  0.00     0.129 N 
HETATM   31  C23 UNL     1       9.302 -17.066 -16.308  1.00  0.00     0.544 C 
BRANCH  30  32
HETATM   32  C20 UNL     1       7.870 -15.251 -15.621  1.00  0.00     0.282 C 
HETATM   33  C21 UNL     1       8.463 -15.126 -14.241  1.00  0.00     0.050 C 
BRANCH  32  34
HETATM   34  C22 UNL     1       6.525 -14.656 -15.706  1.00  0.00     0.266 C 
HETATM   35  O3  UNL     1       5.616 -15.018 -14.990  1.00  0.00    -0.305 OA
ENDBRANCH  32  34
ENDBRANCH  30  32
ENDBRANCH  26  27
ENDBRANCH   6  26
BRANCH   4  36
HETATM   36  C5  UNL     1      13.661 -20.286 -18.650  1.00  0.00     0.249 C 
HETATM   37  O1  UNL     1      14.168 -19.124 -18.509  1.00  0.00    -0.281 OA
BRANCH  36  38
HETATM   38  C6  UNL     1      14.493 -21.399 -18.360  1.00  0.00     0.294 C 
HETATM   39  O2  UNL     1      14.779 -22.242 -19.259  1.00  0.00    -0.264 OA
HETATM   40  N1  UNL     1      15.084 -21.681 -17.064  1.00  0.00    -0.345 N 
HETATM   41  C7  UNL     1      15.861 -22.910 -16.933  1.00  0.00     0.127 C 
HETATM   42  C14 UNL     1      14.957 -20.806 -15.958  1.00  0.00     0.131 C 
HETATM   43  C8  UNL     1      17.139 -22.583 -16.231  1.00  0.00     0.029 C 
HETATM   44  C9  UNL     1      16.771 -22.164 -14.817  1.00  0.00    -0.041 C 
HETATM   45  C10 UNL     1      16.215 -23.387 -14.104  1.00  0.00     0.015 C 
HETATM   46  C11 UNL     1      18.055 -21.808 -14.099  1.00  0.00     0.015 C 
HETATM   47  C12 UNL     1      15.862 -20.990 -14.798  1.00  0.00     0.007 C 
HETATM   48  C13 UNL     1      14.995 -21.091 -13.531  1.00  0.00     0.012 C 
ENDBRANCH  36  38
ENDBRANCH   4  36
TORSDOF 13
ENDMDL
MODEL 5
REMARK VINA RESULT: -8.839508047      4.298     12.424
REMARK  13 active torsions:
REMARK  status: ('A' for Active; 'I' for Inactive)
REMARK    1  A    between atoms: C4_4  and  C5_5 
REMARK    2  A    between atoms: C5_5  and  C6_7 
REMARK       I    between atoms: C6_7  and  N1_9 
REMARK    3  A    between atoms: C16_19  and  C17_20 
REMARK    4  A    between atoms: C17_20  and  N2_21 
REMARK    5  A    between atoms: N3_24  and  C20_25 
REMARK    6  A    between atoms: C20_25  and  C22_27 
REMARK    7  A    between atoms: C24_30  and  N4_31 
REMARK    8  A    between atoms: N4_31  and  C25_33 
REMARK    9  A    between atoms: C28_40  and  N7_41 
REMARK   10  A    between atoms: N7_41  and  C29_43 
REMARK   11  A    between atoms: C29_43  and  C30_44 
REMARK   12  A    between atoms: C30_44  and  C31_45 
REMARK   13  A    between atoms: C31_45  and  N8_46 
ROOT
HETATM    1  C1  UNL     1       9.990 -21.649 -21.920  1.00  0.00     0.050 C 
HETATM    2  C2  UNL     1      10.312 -21.088 -20.571  1.00  0.00    -0.034 A 
HETATM    3  C3  UNL     1      11.071 -21.786 -19.662  1.00  0.00     0.024 A 
HETATM    4  C4  UNL     1      11.406 -21.358 -18.414  1.00  0.00     0.021 A 
HETATM    5  C15 UNL     1      10.900 -20.079 -18.084  1.00  0.00     0.027 A 
HETATM    6  C16 UNL     1      10.141 -19.324 -18.925  1.00  0.00    -0.002 A 
HETATM    7  C24 UNL     1       9.837 -19.830 -20.195  1.00  0.00     0.048 A 
ENDROOT
BRANCH   7   8
HETATM    8  N4  UNL     1       9.122 -19.085 -21.034  1.00  0.00    -0.338 N 
ATOM      9  H4  UNL     1       9.822 -18.824 -21.728  1.00  0.00     0.167 HD
BRANCH   8  10
HETATM   10  C25 UNL     1       8.131 -18.533 -21.461  1.00  0.00     0.150 A 
HETATM   11  N5  UNL     1       8.302 -17.386 -22.210  1.00  0.00    -0.348 N 
HETATM   12  C26 UNL     1       7.278 -16.738 -22.727  1.00  0.00     0.107 A 
ATOM     13  H5  UNL     1       9.244 -17.030 -22.367  1.00  0.00     0.167 HD
HETATM   14  C27 UNL     1       5.979 -17.208 -22.525  1.00  0.00     0.107 A 
HETATM   15  N6  UNL     1       5.814 -18.313 -21.802  1.00  0.00    -0.348 N 
HETATM   16  C28 UNL     1       6.847 -18.982 -21.270  1.00  0.00     0.146 A 
ATOM     17  H6  UNL     1       4.869 -18.664 -21.648  1.00  0.00     0.167 HD
BRANCH  16  18
HETATM   18  N7  UNL     1       6.566 -20.153 -20.454  1.00  0.00    -0.373 N 
ATOM     19  H7  UNL     1       6.980 -21.052 -20.701  1.00  0.00     0.161 HD
BRANCH  18  20
HETATM   20  C29 UNL     1       5.703 -20.058 -19.293  1.00  0.00     0.123 C 
BRANCH  20  21
HETATM   21  C30 UNL     1       4.309 -20.403 -19.688  1.00  0.00     0.050 C 
BRANCH  21  22
HETATM   22  C31 UNL     1       3.571 -21.138 -18.561  1.00  0.00     0.273 C 
BRANCH  22  23
HETATM   23  N8  UNL     1       3.376 -22.488 -18.988  1.00  0.00     0.080 N 
HETATM   24  C32 UNL     1       3.693 -23.465 -17.986  1.00  0.00     0.309 C 
HETATM   25  C33 UNL     1       2.145 -22.716 -19.677  1.00  0.00     0.309 C 
ENDBRANCH  22  23
ENDBRANCH  21  22
ENDBRANCH  20  21
ENDBRANCH  18  20
ENDBRANCH  16  18
ENDBRANCH   8  10
ENDBRANCH   7   8
BRANCH   6  26
HETATM   26  C17 UNL     1       9.661 -17.966 -18.548  1.00  0.00     0.315 C 
BRANCH  26  27
HETATM   27  N2  UNL     1       8.550 -18.086 -17.628  1.00  0.00     0.122 N 
HETATM   28  C18 UNL     1       8.945 -17.451 -16.355  1.00  0.00     0.305 C 
HETATM   29  C19 UNL     1       8.838 -15.995 -16.686  1.00  0.00     0.306 C 
HETATM   30  N3  UNL     1       7.689 -15.903 -17.568  1.00  0.00     0.129 N 
HETATM   31  C23 UNL     1       7.439 -17.211 -18.076  1.00  0.00     0.544 C 
BRANCH  30  32
HETATM   32  C20 UNL     1       6.607 -15.325 -16.822  1.00  0.00     0.282 C 
HETATM   33  C21 UNL     1       7.032 -14.601 -15.570  1.00  0.00     0.050 C 
BRANCH  32  34
HETATM   34  C22 UNL     1       5.478 -16.240 -16.582  1.00  0.00     0.266 C 
HETATM   35  O3  UNL     1       5.181 -16.615 -15.468  1.00  0.00    -0.305 OA
ENDBRANCH  32  34
ENDBRANCH  30  32
ENDBRANCH  26  27
ENDBRANCH   6  26
BRANCH   4  36
HETATM   36  C5  UNL     1      12.200 -22.052 -17.434  1.00  0.00     0.249 C 
HETATM   37  O1  UNL     1      11.593 -22.881 -16.677  1.00  0.00    -0.281 OA
BRANCH  36  38
HETATM   38  C6  UNL     1      13.597 -21.890 -17.234  1.00  0.00     0.294 C 
HETATM   39  O2  UNL     1      14.039 -20.961 -16.498  1.00  0.00    -0.264 OA
HETATM   40  N1  UNL     1      14.623 -22.732 -17.819  1.00  0.00    -0.345 N 
HETATM   41  C7  UNL     1      16.015 -22.376 -17.556  1.00  0.00     0.127 C 
HETATM   42  C14 UNL     1      14.324 -23.878 -18.595  1.00  0.00     0.131 C 
HETATM   43  C8  UNL     1      16.750 -23.618 -17.166  1.00  0.00     0.029 C 
HETATM   44  C9  UNL     1      16.770 -24.520 -18.389  1.00  0.00    -0.041 C 
HETATM   45  C10 UNL     1      17.634 -23.848 -19.444  1.00  0.00     0.015 C 
HETATM   46  C11 UNL     1      17.492 -25.793 -18.004  1.00  0.00     0.015 C 
HETATM   47  C12 UNL     1      15.402 -24.861 -18.857  1.00  0.00     0.007 C 
HETATM   48  C13 UNL     1      15.473 -25.093 -20.377  1.00  0.00     0.012 C 
ENDBRANCH  36  38
ENDBRANCH   4  36
TORSDOF 13
ENDMDL
