MODEL 1
REMARK VINA RESULT: -10.090849583      0.000      0.000
REMARK  13 active torsions:
REMARK  status: ('A' for Active; 'I' for Inactive)
REMARK    1  A    between atoms: C2_2  and  C3_3 
REMARK    2  A    between atoms: C3_3  and  C4_4 
REMARK    3  A    between atoms: C4_4  and  N1_5 
REMARK    4  A    between atoms: C4_4  and  C22_33 
REMARK       I    between atoms: N1_5  and  C5_7 
REMARK    5  A    between atoms: C5_7  and  C6_9 
REMARK    6  A    between atoms: C6_9  and  C7_10 
REMARK    7  A    between atoms: C6_9  and  N2_17 
REMARK    8  A    between atoms: C7_10  and  C8_11 
REMARK    9  A    between atoms: C15_19  and  C16_20 
REMARK   10  A    between atoms: C16_20  and  C17_21 
REMARK   11  A    between atoms: C22_33  and  C23_35 
REMARK       I    between atoms: C23_35  and  N6_37 
REMARK       I    between atoms: N7_40  and  C26_41 
REMARK   12  A    between atoms: C26_41  and  O6_43 
REMARK   13  A    between atoms: O6_43  and  C27_44 
ROOT
HETATM    1  C6  UNL     1     -13.269  21.695 -18.055  1.00  0.00     0.201 C 
ENDROOT
BRANCH   1   2
HETATM    2  C5  UNL     1     -11.963  21.120 -17.722  1.00  0.00     0.243 C 
HETATM    3  N1  UNL     1     -11.472  19.971 -18.364  1.00  0.00    -0.347 N 
ATOM      4  H1  UNL     1     -12.063  19.547 -19.078  1.00  0.00     0.163 HD
HETATM    5  O1  UNL     1     -11.335  21.743 -16.820  1.00  0.00    -0.271 OA
BRANCH   3   6
HETATM    6  C4  UNL     1     -10.191  19.334 -18.097  1.00  0.00     0.164 C 
BRANCH   6   7
HETATM    7  C3  UNL     1      -9.577  18.814 -19.368  1.00  0.00     0.033 C 
BRANCH   7   8
HETATM    8  C2  UNL     1      -9.535  19.726 -20.529  1.00  0.00    -0.002 C 
HETATM    9  C1  UNL     1      -8.723  20.989 -20.349  1.00  0.00     0.005 C 
ENDBRANCH   7   8
ENDBRANCH   6   7
BRANCH   6  10
HETATM   10  C22 UNL     1     -10.569  18.088 -17.305  1.00  0.00     0.239 C 
HETATM   11  O3  UNL     1     -11.727  17.671 -17.638  1.00  0.00    -0.285 OA
BRANCH  10  12
HETATM   12  C23 UNL     1      -9.716  17.498 -16.330  1.00  0.00     0.291 C 
HETATM   13  O4  UNL     1      -9.877  17.924 -15.122  1.00  0.00    -0.264 OA
HETATM   14  N6  UNL     1      -8.731  16.530 -16.479  1.00  0.00    -0.342 N 
HETATM   15  C24 UNL     1      -7.958  16.118 -15.282  1.00  0.00     0.146 C 
HETATM   16  C30 UNL     1      -8.407  15.902 -17.733  1.00  0.00     0.146 C 
HETATM   17  C25 UNL     1      -6.559  15.793 -15.744  1.00  0.00     0.148 C 
HETATM   18  N7  UNL     1      -6.190  16.394 -16.986  1.00  0.00    -0.325 N 
HETATM   19  C26 UNL     1      -4.881  16.942 -17.136  1.00  0.00     0.362 C 
HETATM   20  C29 UNL     1      -7.064  16.496 -18.147  1.00  0.00     0.148 C 
HETATM   21  O5  UNL     1      -4.087  16.891 -16.182  1.00  0.00    -0.238 OA
BRANCH  19  22
HETATM   22  O6  UNL     1      -4.462  17.534 -18.320  1.00  0.00    -0.304 OA
BRANCH  22  23
HETATM   23  C27 UNL     1      -4.219  18.898 -18.476  1.00  0.00     0.176 C 
HETATM   24  C28 UNL     1      -5.336  19.639 -19.166  1.00  0.00     0.034 C 
ENDBRANCH  22  23
ENDBRANCH  19  22
ENDBRANCH  10  12
ENDBRANCH   6  10
ENDBRANCH   3   6
ENDBRANCH   1   2
BRANCH   1  25
HETATM   25  C7  UNL     1     -13.434  23.150 -18.034  1.00  0.00     0.041 C 
BRANCH  25  26
HETATM   26  C8  UNL     1     -14.017  23.850 -19.213  1.00  0.00    -0.012 C 
HETATM   27  C9  UNL     1     -14.780  22.819 -20.086  1.00  0.00     0.005 C 
HETATM   28  C10 UNL     1     -15.014  23.499 -21.413  1.00  0.00     0.000 C 
HETATM   29  C11 UNL     1     -15.996  24.625 -21.201  1.00  0.00     0.000 C 
HETATM   30  C12 UNL     1     -16.259  24.845 -19.754  1.00  0.00     0.000 C 
HETATM   31  C13 UNL     1     -14.994  24.964 -18.905  1.00  0.00     0.005 C 
ENDBRANCH  25  26
ENDBRANCH   1  25
BRANCH   1  32
HETATM   32  N2  UNL     1     -14.254  21.031 -17.174  1.00  0.00    -0.273 N 
HETATM   33  C14 UNL     1     -15.077  21.593 -16.278  1.00  0.00     0.139 A 
HETATM   34  C15 UNL     1     -15.820  20.579 -15.683  1.00  0.00     0.044 A 
HETATM   35  N4  UNL     1     -15.394  19.460 -16.264  1.00  0.00    -0.289 N 
HETATM   36  N5  UNL     1     -14.445  19.740 -17.168  1.00  0.00    -0.240 N 
ATOM     37  H4  UNL     1     -15.741  18.524 -16.052  1.00  0.00     0.188 HD
ATOM     38  H5  UNL     1     -13.956  19.061 -17.751  1.00  0.00     0.208 HD
BRANCH  34  39
HETATM   39  C16 UNL     1     -16.836  20.833 -14.644  1.00  0.00     0.065 C 
BRANCH  39  40
HETATM   40  C17 UNL     1     -17.858  21.855 -15.037  1.00  0.00    -0.004 C 
HETATM   41  C18 UNL     1     -19.175  21.532 -14.373  1.00  0.00     0.010 C 
HETATM   42  C19 UNL     1     -19.856  22.858 -14.099  1.00  0.00     0.066 C 
HETATM   43  C20 UNL     1     -18.857  23.909 -14.467  1.00  0.00     0.179 A 
HETATM   44  C21 UNL     1     -17.539  23.207 -14.393  1.00  0.00     0.070 C 
HETATM   45  N3  UNL     1     -19.109  25.216 -14.277  1.00  0.00    -0.262 N 
HETATM   46  O2  UNL     1     -19.063  24.657 -15.620  1.00  0.00    -0.247 OA
ATOM     47  H3  UNL     1     -19.238  26.012 -13.652  1.00  0.00     0.191 HD
ENDBRANCH  39  40
ENDBRANCH  34  39
ENDBRANCH   1  32
TORSDOF 13
ENDMDL
MODEL 2
REMARK VINA RESULT: -9.935043895      2.673      5.487
REMARK  13 active torsions:
REMARK  status: ('A' for Active; 'I' for Inactive)
REMARK    1  A    between atoms: C2_2  and  C3_3 
REMARK    2  A    between atoms: C3_3  and  C4_4 
REMARK    3  A    between atoms: C4_4  and  N1_5 
REMARK    4  A    between atoms: C4_4  and  C22_33 
REMARK       I    between atoms: N1_5  and  C5_7 
REMARK    5  A    between atoms: C5_7  and  C6_9 
REMARK    6  A    between atoms: C6_9  and  C7_10 
REMARK    7  A    between atoms: C6_9  and  N2_17 
REMARK    8  A    between atoms: C7_10  and  C8_11 
REMARK    9  A    between atoms: C15_19  and  C16_20 
REMARK   10  A    between atoms: C16_20  and  C17_21 
REMARK   11  A    between atoms: C22_33  and  C23_35 
REMARK       I    between atoms: C23_35  and  N6_37 
REMARK       I    between atoms: N7_40  and  C26_41 
REMARK   12  A    between atoms: C26_41  and  O6_43 
REMARK   13  A    between atoms: O6_43  and  C27_44 
ROOT
HETATM    1  C6  UNL     1     -12.105  19.630 -15.756  1.00  0.00     0.201 C 
ENDROOT
BRANCH   1   2
HETATM    2  C5  UNL     1     -11.590  20.576 -16.750  1.00  0.00     0.243 C 
HETATM    3  N1  UNL     1     -11.526  20.256 -18.116  1.00  0.00    -0.347 N 
ATOM      4  H1  UNL     1     -11.854  19.332 -18.395  1.00  0.00     0.163 HD
HETATM    5  O1  UNL     1     -11.217  21.683 -16.269  1.00  0.00    -0.271 OA
BRANCH   3   6
HETATM    6  C4  UNL     1     -11.031  21.131 -19.168  1.00  0.00     0.164 C 
BRANCH   6   7
HETATM    7  C3  UNL     1     -12.157  21.600 -20.048  1.00  0.00     0.033 C 
BRANCH   7   8
HETATM    8  C2  UNL     1     -13.179  22.477 -19.441  1.00  0.00    -0.002 C 
HETATM    9  C1  UNL     1     -14.556  21.875 -19.283  1.00  0.00     0.005 C 
ENDBRANCH   7   8
ENDBRANCH   6   7
BRANCH   6  10
HETATM   10  C22 UNL     1     -10.205  20.201 -20.049  1.00  0.00     0.239 C 
HETATM   11  O3  UNL     1     -10.959  19.485 -20.786  1.00  0.00    -0.285 OA
BRANCH  10  12
HETATM   12  C23 UNL     1      -8.782  20.165 -20.022  1.00  0.00     0.291 C 
HETATM   13  O4  UNL     1      -8.194  21.283 -20.289  1.00  0.00    -0.264 OA
HETATM   14  N6  UNL     1      -7.925  19.106 -19.755  1.00  0.00    -0.342 N 
HETATM   15  C24 UNL     1      -6.462  19.343 -19.834  1.00  0.00     0.146 C 
HETATM   16  C30 UNL     1      -8.369  17.780 -19.409  1.00  0.00     0.146 C 
HETATM   17  C25 UNL     1      -5.828  18.067 -20.331  1.00  0.00     0.148 C 
HETATM   18  N7  UNL     1      -6.717  17.200 -21.037  1.00  0.00    -0.325 N 
HETATM   19  C26 UNL     1      -6.259  16.536 -22.214  1.00  0.00     0.362 C 
HETATM   20  C29 UNL     1      -8.094  16.927 -20.643  1.00  0.00     0.148 C 
HETATM   21  O5  UNL     1      -5.096  16.728 -22.606  1.00  0.00    -0.238 OA
BRANCH  19  22
HETATM   22  O6  UNL     1      -7.074  15.677 -22.941  1.00  0.00    -0.304 OA
BRANCH  22  23
HETATM   23  C27 UNL     1      -7.696  16.011 -24.142  1.00  0.00     0.176 C 
HETATM   24  C28 UNL     1      -6.898  15.634 -25.365  1.00  0.00     0.034 C 
ENDBRANCH  22  23
ENDBRANCH  19  22
ENDBRANCH  10  12
ENDBRANCH   6  10
ENDBRANCH   3   6
ENDBRANCH   1   2
BRANCH   1  25
HETATM   25  C7  UNL     1     -11.739  18.216 -15.859  1.00  0.00     0.041 C 
BRANCH  25  26
HETATM   26  C8  UNL     1     -10.347  17.784 -15.553  1.00  0.00    -0.012 C 
HETATM   27  C9  UNL     1     -10.319  17.123 -14.149  1.00  0.00     0.005 C 
HETATM   28  C10 UNL     1      -8.864  17.055 -13.756  1.00  0.00     0.000 C 
HETATM   29  C11 UNL     1      -8.175  16.064 -14.661  1.00  0.00     0.000 C 
HETATM   30  C12 UNL     1      -9.070  15.632 -15.766  1.00  0.00     0.000 C 
HETATM   31  C13 UNL     1      -9.737  16.786 -16.513  1.00  0.00     0.005 C 
ENDBRANCH  25  26
ENDBRANCH   1  25
BRANCH   1  32
HETATM   32  N2  UNL     1     -13.575  19.803 -15.739  1.00  0.00    -0.273 N 
HETATM   33  C14 UNL     1     -14.311  20.563 -14.916  1.00  0.00     0.139 A 
HETATM   34  C15 UNL     1     -15.646  20.410 -15.272  1.00  0.00     0.044 A 
HETATM   35  N4  UNL     1     -15.630  19.561 -16.296  1.00  0.00    -0.289 N 
HETATM   36  N5  UNL     1     -14.371  19.196 -16.576  1.00  0.00    -0.240 N 
ATOM     37  H4  UNL     1     -16.457  19.234 -16.796  1.00  0.00     0.188 HD
ATOM     38  H5  UNL     1     -14.084  18.555 -17.315  1.00  0.00     0.208 HD
BRANCH  34  39
HETATM   39  C16 UNL     1     -16.746  21.106 -14.577  1.00  0.00     0.065 C 
BRANCH  39  40
HETATM   40  C17 UNL     1     -17.732  21.750 -15.503  1.00  0.00    -0.004 C 
HETATM   41  C18 UNL     1     -18.724  22.557 -14.700  1.00  0.00     0.010 C 
HETATM   42  C19 UNL     1     -19.112  23.742 -15.562  1.00  0.00     0.066 C 
HETATM   43  C20 UNL     1     -18.227  23.675 -16.766  1.00  0.00     0.179 A 
HETATM   44  C21 UNL     1     -17.058  22.858 -16.318  1.00  0.00     0.070 C 
HETATM   45  N3  UNL     1     -18.255  24.627 -17.713  1.00  0.00    -0.262 N 
HETATM   46  O2  UNL     1     -18.778  23.297 -17.984  1.00  0.00    -0.247 OA
ATOM     47  H3  UNL     1     -18.056  25.580 -18.018  1.00  0.00     0.191 HD
ENDBRANCH  39  40
ENDBRANCH  34  39
ENDBRANCH   1  32
TORSDOF 13
ENDMDL
MODEL 3
REMARK VINA RESULT: -9.898343170      2.313     11.168
REMARK  13 active torsions:
REMARK  status: ('A' for Active; 'I' for Inactive)
REMARK    1  A    between atoms: C2_2  and  C3_3 
REMARK    2  A    between atoms: C3_3  and  C4_4 
REMARK    3  A    between atoms: C4_4  and  N1_5 
REMARK    4  A    between atoms: C4_4  and  C22_33 
REMARK       I    between atoms: N1_5  and  C5_7 
REMARK    5  A    between atoms: C5_7  and  C6_9 
REMARK    6  A    between atoms: C6_9  and  C7_10 
REMARK    7  A    between atoms: C6_9  and  N2_17 
REMARK    8  A    between atoms: C7_10  and  C8_11 
REMARK    9  A    between atoms: C15_19  and  C16_20 
REMARK   10  A    between atoms: C16_20  and  C17_21 
REMARK   11  A    between atoms: C22_33  and  C23_35 
REMARK       I    between atoms: C23_35  and  N6_37 
REMARK       I    between atoms: N7_40  and  C26_41 
REMARK   12  A    between atoms: C26_41  and  O6_43 
REMARK   13  A    between atoms: O6_43  and  C27_44 
ROOT
HETATM    1  C6  UNL     1     -12.083  18.928 -16.523  1.00  0.00     0.201 C 
ENDROOT
BRANCH   1   2
HETATM    2  C5  UNL     1     -12.693  20.250 -16.352  1.00  0.00     0.243 C 
HETATM    3  N1  UNL     1     -14.061  20.472 -16.577  1.00  0.00    -0.347 N 
ATOM      4  H1  UNL     1     -14.622  19.671 -16.866  1.00  0.00     0.163 HD
HETATM    5  O1  UNL     1     -11.885  21.152 -15.992  1.00  0.00    -0.271 OA
BRANCH   3   6
HETATM    6  C4  UNL     1     -14.748  21.746 -16.432  1.00  0.00     0.164 C 
BRANCH   6   7
HETATM    7  C3  UNL     1     -16.016  21.584 -15.638  1.00  0.00     0.033 C 
BRANCH   7   8
HETATM    8  C2  UNL     1     -15.902  21.029 -14.274  1.00  0.00    -0.002 C 
HETATM    9  C1  UNL     1     -14.823  21.632 -13.403  1.00  0.00     0.005 C 
ENDBRANCH   7   8
ENDBRANCH   6   7
BRANCH   6  10
HETATM   10  C22 UNL     1     -15.209  22.068 -17.848  1.00  0.00     0.239 C 
HETATM   11  O3  UNL     1     -15.375  21.001 -18.525  1.00  0.00    -0.285 OA
BRANCH  10  12
HETATM   12  C23 UNL     1     -15.415  23.397 -18.316  1.00  0.00     0.291 C 
HETATM   13  O4  UNL     1     -14.350  24.024 -18.689  1.00  0.00    -0.264 OA
HETATM   14  N6  UNL     1     -16.591  24.126 -18.432  1.00  0.00    -0.342 N 
HETATM   15  C24 UNL     1     -16.510  25.524 -18.923  1.00  0.00     0.146 C 
HETATM   16  C30 UNL     1     -17.893  23.610 -18.096  1.00  0.00     0.146 C 
HETATM   17  C25 UNL     1     -17.592  26.308 -18.220  1.00  0.00     0.148 C 
HETATM   18  N7  UNL     1     -18.044  25.727 -16.997  1.00  0.00    -0.325 N 
HETATM   19  C26 UNL     1     -18.296  26.569 -15.873  1.00  0.00     0.362 C 
HETATM   20  C29 UNL     1     -18.279  24.303 -16.794  1.00  0.00     0.148 C 
HETATM   21  O5  UNL     1     -18.112  27.794 -15.978  1.00  0.00    -0.238 OA
BRANCH  19  22
HETATM   22  O6  UNL     1     -18.743  26.065 -14.658  1.00  0.00    -0.304 OA
BRANCH  22  23
HETATM   23  C27 UNL     1     -18.019  26.120 -13.469  1.00  0.00     0.176 C 
HETATM   24  C28 UNL     1     -17.329  24.826 -13.117  1.00  0.00     0.034 C 
ENDBRANCH  22  23
ENDBRANCH  19  22
ENDBRANCH  10  12
ENDBRANCH   6  10
ENDBRANCH   3   6
ENDBRANCH   1   2
BRANCH   1  25
HETATM   25  C7  UNL     1     -10.993  18.524 -15.633  1.00  0.00     0.041 C 
BRANCH  25  26
HETATM   26  C8  UNL     1     -10.470  17.130 -15.683  1.00  0.00    -0.012 C 
HETATM   27  C9  UNL     1      -9.013  17.155 -16.216  1.00  0.00     0.005 C 
HETATM   28  C10 UNL     1      -8.688  15.730 -16.588  1.00  0.00     0.000 C 
HETATM   29  C11 UNL     1      -8.620  14.914 -15.321  1.00  0.00     0.000 C 
HETATM   30  C12 UNL     1      -9.090  15.698 -14.149  1.00  0.00     0.000 C 
HETATM   31  C13 UNL     1     -10.436  16.389 -14.365  1.00  0.00     0.005 C 
ENDBRANCH  25  26
ENDBRANCH   1  25
BRANCH   1  32
HETATM   32  N2  UNL     1     -11.677  18.837 -17.943  1.00  0.00    -0.273 N 
HETATM   33  C14 UNL     1     -10.497  19.158 -18.491  1.00  0.00     0.139 A 
HETATM   34  C15 UNL     1     -10.577  18.909 -19.856  1.00  0.00     0.044 A 
HETATM   35  N4  UNL     1     -11.811  18.451 -20.047  1.00  0.00    -0.289 N 
HETATM   36  N5  UNL     1     -12.474  18.408 -18.883  1.00  0.00    -0.240 N 
ATOM     37  H4  UNL     1     -12.197  18.171 -20.949  1.00  0.00     0.188 HD
ATOM     38  H5  UNL     1     -13.436  18.094 -18.754  1.00  0.00     0.208 HD
BRANCH  34  39
HETATM   39  C16 UNL     1      -9.452  19.146 -20.781  1.00  0.00     0.065 C 
BRANCH  39  40
HETATM   40  C17 UNL     1      -8.106  18.909 -20.167  1.00  0.00    -0.004 C 
HETATM   41  C18 UNL     1      -7.221  18.191 -21.157  1.00  0.00     0.010 C 
HETATM   42  C19 UNL     1      -5.808  18.676 -20.900  1.00  0.00     0.066 C 
HETATM   43  C20 UNL     1      -5.932  19.766 -19.884  1.00  0.00     0.179 A 
HETATM   44  C21 UNL     1      -7.347  20.230 -20.013  1.00  0.00     0.070 C 
HETATM   45  N3  UNL     1      -4.864  20.474 -19.478  1.00  0.00    -0.262 N 
HETATM   46  O2  UNL     1      -5.507  19.524 -18.584  1.00  0.00    -0.247 OA
ATOM     47  H3  UNL     1      -4.138  21.167 -19.661  1.00  0.00     0.191 HD
ENDBRANCH  39  40
ENDBRANCH  34  39
ENDBRANCH   1  32
TORSDOF 13
ENDMDL
MODEL 4
REMARK VINA RESULT: -9.879748032      0.819      1.246
REMARK  13 active torsions:
REMARK  status: ('A' for Active; 'I' for Inactive)
REMARK    1  A    between atoms: C2_2  and  C3_3 
REMARK    2  A    between atoms: C3_3  and  C4_4 
REMARK    3  A    between atoms: C4_4  and  N1_5 
REMARK    4  A    between atoms: C4_4  and  C22_33 
REMARK       I    between atoms: N1_5  and  C5_7 
REMARK    5  A    between atoms: C5_7  and  C6_9 
REMARK    6  A    between atoms: C6_9  and  C7_10 
REMARK    7  A    between atoms: C6_9  and  N2_17 
REMARK    8  A    between atoms: C7_10  and  C8_11 
REMARK    9  A    between atoms: C15_19  and  C16_20 
REMARK   10  A    between atoms: C16_20  and  C17_21 
REMARK   11  A    between atoms: C22_33  and  C23_35 
REMARK       I    between atoms: C23_35  and  N6_37 
REMARK       I    between atoms: N7_40  and  C26_41 
REMARK   12  A    between atoms: C26_41  and  O6_43 
REMARK   13  A    between atoms: O6_43  and  C27_44 
ROOT
HETATM    1  C6  UNL     1     -13.246  21.476 -18.136  1.00  0.00     0.201 C 
ENDROOT
BRANCH   1   2
HETATM    2  C5  UNL     1     -11.923  21.015 -17.708  1.00  0.00     0.243 C 
HETATM    3  N1  UNL     1     -11.363  19.818 -18.183  1.00  0.00    -0.347 N 
ATOM      4  H1  UNL     1     -11.917  19.275 -18.845  1.00  0.00     0.163 HD
HETATM    5  O1  UNL     1     -11.347  21.782 -16.886  1.00  0.00    -0.271 OA
BRANCH   3   6
HETATM    6  C4  UNL     1     -10.060  19.286 -17.813  1.00  0.00     0.164 C 
BRANCH   6   7
HETATM    7  C3  UNL     1      -9.287  18.866 -19.034  1.00  0.00     0.033 C 
BRANCH   7   8
HETATM    8  C2  UNL     1      -9.512  19.625 -20.280  1.00  0.00    -0.002 C 
HETATM    9  C1  UNL     1      -8.733  20.913 -20.419  1.00  0.00     0.005 C 
ENDBRANCH   7   8
ENDBRANCH   6   7
BRANCH   6  10
HETATM   10  C22 UNL     1     -10.395  17.987 -17.092  1.00  0.00     0.239 C 
HETATM   11  O3  UNL     1     -11.503  17.510 -17.505  1.00  0.00    -0.285 OA
BRANCH  10  12
HETATM   12  C23 UNL     1      -9.557  17.412 -16.095  1.00  0.00     0.291 C 
HETATM   13  O4  UNL     1      -9.716  17.878 -14.902  1.00  0.00    -0.264 OA
HETATM   14  N6  UNL     1      -8.590  16.423 -16.209  1.00  0.00    -0.342 N 
HETATM   15  C24 UNL     1      -7.829  16.035 -14.996  1.00  0.00     0.146 C 
HETATM   16  C30 UNL     1      -8.270  15.750 -17.441  1.00  0.00     0.146 C 
HETATM   17  C25 UNL     1      -6.434  15.670 -15.440  1.00  0.00     0.148 C 
HETATM   18  N7  UNL     1      -6.048  16.226 -16.698  1.00  0.00    -0.325 N 
HETATM   19  C26 UNL     1      -4.730  16.745 -16.858  1.00  0.00     0.362 C 
HETATM   20  C29 UNL     1      -6.915  16.307 -17.867  1.00  0.00     0.148 C 
HETATM   21  O5  UNL     1      -3.941  16.710 -15.899  1.00  0.00    -0.238 OA
BRANCH  19  22
HETATM   22  O6  UNL     1      -4.294  17.294 -18.058  1.00  0.00    -0.304 OA
BRANCH  22  23
HETATM   23  C27 UNL     1      -4.026  18.647 -18.254  1.00  0.00     0.176 C 
HETATM   24  C28 UNL     1      -5.115  19.381 -18.997  1.00  0.00     0.034 C 
ENDBRANCH  22  23
ENDBRANCH  19  22
ENDBRANCH  10  12
ENDBRANCH   6  10
ENDBRANCH   3   6
ENDBRANCH   1   2
BRANCH   1  25
HETATM   25  C7  UNL     1     -13.499  22.913 -18.255  1.00  0.00     0.041 C 
BRANCH  25  26
HETATM   26  C8  UNL     1     -14.724  23.399 -18.949  1.00  0.00    -0.012 C 
HETATM   27  C9  UNL     1     -14.713  24.950 -18.969  1.00  0.00     0.005 C 
HETATM   28  C10 UNL     1     -16.116  25.366 -19.336  1.00  0.00     0.000 C 
HETATM   29  C11 UNL     1     -16.369  24.965 -20.769  1.00  0.00     0.000 C 
HETATM   30  C12 UNL     1     -15.265  24.119 -21.294  1.00  0.00     0.000 C 
HETATM   31  C13 UNL     1     -14.893  22.949 -20.384  1.00  0.00     0.005 C 
ENDBRANCH  25  26
ENDBRANCH   1  25
BRANCH   1  32
HETATM   32  N2  UNL     1     -14.225  20.833 -17.231  1.00  0.00    -0.273 N 
HETATM   33  C14 UNL     1     -14.622  21.237 -16.017  1.00  0.00     0.139 A 
HETATM   34  C15 UNL     1     -15.551  20.318 -15.542  1.00  0.00     0.044 A 
HETATM   35  N4  UNL     1     -15.656  19.411 -16.508  1.00  0.00    -0.289 N 
HETATM   36  N5  UNL     1     -14.850  19.728 -17.531  1.00  0.00    -0.240 N 
ATOM     37  H4  UNL     1     -16.263  18.591 -16.476  1.00  0.00     0.188 HD
ATOM     38  H5  UNL     1     -14.744  19.196 -18.396  1.00  0.00     0.208 HD
BRANCH  34  39
HETATM   39  C16 UNL     1     -16.206  20.449 -14.226  1.00  0.00     0.065 C 
BRANCH  39  40
HETATM   40  C17 UNL     1     -17.305  21.467 -14.198  1.00  0.00    -0.004 C 
HETATM   41  C18 UNL     1     -16.714  22.849 -14.346  1.00  0.00     0.010 C 
HETATM   42  C19 UNL     1     -17.737  23.675 -15.100  1.00  0.00     0.066 C 
HETATM   43  C20 UNL     1     -18.815  22.719 -15.501  1.00  0.00     0.179 A 
HETATM   44  C21 UNL     1     -18.148  21.381 -15.474  1.00  0.00     0.070 C 
HETATM   45  N3  UNL     1     -19.855  23.108 -16.258  1.00  0.00    -0.262 N 
HETATM   46  O2  UNL     1     -20.042  22.780 -14.853  1.00  0.00    -0.247 OA
ATOM     47  H3  UNL     1     -20.234  23.410 -17.155  1.00  0.00     0.191 HD
ENDBRANCH  39  40
ENDBRANCH  34  39
ENDBRANCH   1  32
TORSDOF 13
ENDMDL
MODEL 5
REMARK VINA RESULT: -9.877940919      2.316      4.829
REMARK  13 active torsions:
REMARK  status: ('A' for Active; 'I' for Inactive)
REMARK    1  A    between atoms: C2_2  and  C3_3 
REMARK    2  A    between atoms: C3_3  and  C4_4 
REMARK    3  A    between atoms: C4_4  and  N1_5 
REMARK    4  A    between atoms: C4_4  and  C22_33 
REMARK       I    between atoms: N1_5  and  C5_7 
REMARK    5  A    between atoms: C5_7  and  C6_9 
REMARK    6  A    between atoms: C6_9  and  C7_10 
REMARK    7  A    between atoms: C6_9  and  N2_17 
REMARK    8  A    between atoms: C7_10  and  C8_11 
REMARK    9  A    between atoms: C15_19  and  C16_20 
REMARK   10  A    between atoms: C16_20  and  C17_21 
REMARK   11  A    between atoms: C22_33  and  C23_35 
REMARK       I    between atoms: C23_35  and  N6_37 
REMARK       I    between atoms: N7_40  and  C26_41 
REMARK   12  A    between atoms: C26_41  and  O6_43 
REMARK   13  A    between atoms: O6_43  and  C27_44 
ROOT
HETATM    1  C6  UNL     1     -13.590  20.130 -17.484  1.00  0.00     0.201 C 
ENDROOT
BRANCH   1   2
HETATM    2  C5  UNL     1     -12.650  19.103 -17.939  1.00  0.00     0.243 C 
HETATM    3  N1  UNL     1     -11.261  19.245 -17.785  1.00  0.00    -0.347 N 
ATOM      4  H1  UNL     1     -10.927  20.100 -17.340  1.00  0.00     0.163 HD
HETATM    5  O1  UNL     1     -13.197  18.097 -18.473  1.00  0.00    -0.271 OA
BRANCH   3   6
HETATM    6  C4  UNL     1     -10.258  18.279 -18.205  1.00  0.00     0.164 C 
BRANCH   6   7
HETATM    7  C3  UNL     1      -9.288  17.995 -17.091  1.00  0.00     0.033 C 
BRANCH   7   8
HETATM    8  C2  UNL     1      -9.768  18.172 -15.706  1.00  0.00    -0.002 C 
HETATM    9  C1  UNL     1     -10.117  16.904 -14.960  1.00  0.00     0.005 C 
ENDBRANCH   7   8
ENDBRANCH   6   7
BRANCH   6  10
HETATM   10  C22 UNL     1      -9.447  19.035 -19.250  1.00  0.00     0.239 C 
HETATM   11  O3  UNL     1      -9.710  20.282 -19.214  1.00  0.00    -0.285 OA
BRANCH  10  12
HETATM   12  C23 UNL     1      -8.528  18.399 -20.133  1.00  0.00     0.291 C 
HETATM   13  O4  UNL     1      -9.058  17.625 -21.020  1.00  0.00    -0.264 OA
HETATM   14  N6  UNL     1      -7.143  18.482 -20.184  1.00  0.00    -0.342 N 
HETATM   15  C24 UNL     1      -6.425  17.671 -21.198  1.00  0.00     0.146 C 
HETATM   16  C30 UNL     1      -6.355  19.306 -19.306  1.00  0.00     0.146 C 
HETATM   17  C25 UNL     1      -5.105  17.263 -20.590  1.00  0.00     0.148 C 
HETATM   18  N7  UNL     1      -5.077  17.291 -19.162  1.00  0.00    -0.325 N 
HETATM   19  C26 UNL     1      -4.424  16.238 -18.455  1.00  0.00     0.362 C 
HETATM   20  C29 UNL     1      -5.676  18.336 -18.343  1.00  0.00     0.148 C 
HETATM   21  O5  UNL     1      -3.895  15.313 -19.094  1.00  0.00    -0.238 OA
BRANCH  19  22
HETATM   22  O6  UNL     1      -4.358  16.211 -17.068  1.00  0.00    -0.304 OA
BRANCH  22  23
HETATM   23  C27 UNL     1      -5.012  15.278 -16.266  1.00  0.00     0.176 C 
HETATM   24  C28 UNL     1      -6.234  15.824 -15.570  1.00  0.00     0.034 C 
ENDBRANCH  22  23
ENDBRANCH  19  22
ENDBRANCH  10  12
ENDBRANCH   6  10
ENDBRANCH   3   6
ENDBRANCH   1   2
BRANCH   1  25
HETATM   25  C7  UNL     1     -14.817  19.722 -16.798  1.00  0.00     0.041 C 
BRANCH  25  26
HETATM   26  C8  UNL     1     -15.140  20.282 -15.456  1.00  0.00    -0.012 C 
HETATM   27  C9  UNL     1     -13.914  21.073 -14.929  1.00  0.00     0.005 C 
HETATM   28  C10 UNL     1     -14.163  21.285 -13.456  1.00  0.00     0.000 C 
HETATM   29  C11 UNL     1     -15.326  22.234 -13.305  1.00  0.00     0.000 C 
HETATM   30  C12 UNL     1     -15.983  22.493 -14.613  1.00  0.00     0.000 C 
HETATM   31  C13 UNL     1     -16.321  21.227 -15.400  1.00  0.00     0.005 C 
ENDBRANCH  25  26
ENDBRANCH   1  25
BRANCH   1  32
HETATM   32  N2  UNL     1     -13.891  20.971 -18.664  1.00  0.00    -0.273 N 
HETATM   33  C14 UNL     1     -14.285  22.252 -18.691  1.00  0.00     0.139 A 
HETATM   34  C15 UNL     1     -14.449  22.622 -20.021  1.00  0.00     0.044 A 
HETATM   35  N4  UNL     1     -14.141  21.531 -20.718  1.00  0.00    -0.289 N 
HETATM   36  N5  UNL     1     -13.803  20.533 -19.890  1.00  0.00    -0.240 N 
ATOM     37  H4  UNL     1     -14.160  21.464 -21.736  1.00  0.00     0.188 HD
ATOM     38  H5  UNL     1     -13.524  19.593 -20.170  1.00  0.00     0.208 HD
BRANCH  34  39
HETATM   39  C16 UNL     1     -14.876  23.974 -20.430  1.00  0.00     0.065 C 
BRANCH  39  40
HETATM   40  C17 UNL     1     -16.251  24.341 -19.958  1.00  0.00    -0.004 C 
HETATM   41  C18 UNL     1     -16.149  25.111 -18.664  1.00  0.00     0.010 C 
HETATM   42  C19 UNL     1     -17.299  26.098 -18.661  1.00  0.00     0.066 C 
HETATM   43  C20 UNL     1     -17.938  25.982 -20.008  1.00  0.00     0.179 A 
HETATM   44  C21 UNL     1     -16.866  25.402 -20.875  1.00  0.00     0.070 C 
HETATM   45  N3  UNL     1     -18.956  26.778 -20.376  1.00  0.00    -0.262 N 
HETATM   46  O2  UNL     1     -19.178  25.364 -20.113  1.00  0.00    -0.247 OA
ATOM     47  H3  UNL     1     -19.312  27.696 -20.643  1.00  0.00     0.191 HD
ENDBRANCH  39  40
ENDBRANCH  34  39
ENDBRANCH   1  32
TORSDOF 13
ENDMDL
