MODEL 1
REMARK VINA RESULT: -8.640609827      0.000      0.000
REMARK  14 active torsions:
REMARK  status: ('A' for Active; 'I' for Inactive)
REMARK    1  A    between atoms: C2_2  and  N1_3 
REMARK    2  A    between atoms: C3_5  and  S1_6 
REMARK    3  A    between atoms: C3_5  and  N5_39 
REMARK    4  A    between atoms: S1_6  and  S2_7 
REMARK    5  A    between atoms: S2_7  and  C4_8 
REMARK    6  A    between atoms: C4_8  and  C5_9 
REMARK    7  A    between atoms: C4_8  and  C21_30 
REMARK    8  A    between atoms: C5_9  and  C6_10 
REMARK    9  A    between atoms: C6_10  and  N2_13 
REMARK       I    between atoms: N2_13  and  C9_15 
REMARK   10  A    between atoms: C9_15  and  C10_17 
REMARK       I    between atoms: N3_20  and  C13_21 
REMARK   11  A    between atoms: C13_21  and  C14_23 
REMARK       I    between atoms: C21_30  and  N4_32 
REMARK   12  A    between atoms: N4_32  and  C22_34 
REMARK   13  A    between atoms: C22_34  and  C23_35 
REMARK   14  A    between atoms: C22_34  and  C24_37 
ROOT
HETATM    1  C4  UNL     1      -6.966 -17.023  18.918  1.00  0.00     0.153 C 
ENDROOT
BRANCH   1   2
HETATM    2  S2  UNL     1      -5.431 -16.187  19.118  1.00  0.00    -0.075 SA
BRANCH   2   3
HETATM    3  S1  UNL     1      -3.883 -17.521  19.600  1.00  0.00    -0.020 SA
BRANCH   3   4
HETATM    4  C3  UNL     1      -3.135 -18.154  18.144  1.00  0.00     0.157 C 
HETATM    5  N1  UNL     1      -3.035 -19.469  18.067  1.00  0.00    -0.370 N 
ATOM      6  H1  UNL     1      -2.611 -19.906  17.248  1.00  0.00     0.161 HD
BRANCH   5   7
HETATM    7  C2  UNL     1      -3.526 -20.272  19.142  1.00  0.00     0.117 C 
HETATM    8  C1  UNL     1      -3.399 -21.728  18.704  1.00  0.00     0.026 C 
ENDBRANCH   5   7
BRANCH   4   9
HETATM    9  N5  UNL     1      -2.647 -17.410  17.044  1.00  0.00    -0.274 N 
HETATM   10  C26 UNL     1      -1.305 -17.038  16.696  1.00  0.00     0.304 C 
HETATM   11  O5  UNL     1      -1.328 -16.570  15.374  1.00  0.00    -0.362 OA
HETATM   12  C27 UNL     1      -2.579 -15.987  15.180  1.00  0.00     0.273 C 
HETATM   13  C28 UNL     1      -3.464 -16.864  15.987  1.00  0.00     0.251 C 
HETATM   14  O6  UNL     1      -4.665 -17.069  15.772  1.00  0.00    -0.270 OA
ENDBRANCH   4   9
ENDBRANCH   3   4
ENDBRANCH   2   3
ENDBRANCH   1   2
BRANCH   1  15
HETATM   15  C5  UNL     1      -7.919 -16.888  20.046  1.00  0.00     0.055 C 
BRANCH  15  16
HETATM   16  C6  UNL     1      -8.239 -18.024  20.929  1.00  0.00     0.027 C 
HETATM   17  C7  UNL     1      -7.650 -19.349  20.532  1.00  0.00     0.038 C 
HETATM   18  C8  UNL     1      -8.179 -17.729  22.411  1.00  0.00     0.038 C 
BRANCH  16  19
HETATM   19  N2  UNL     1      -9.717 -18.248  20.697  1.00  0.00    -0.352 N 
HETATM   20  C9  UNL     1     -10.207 -18.887  19.548  1.00  0.00     0.224 C 
HETATM   21  O1  UNL     1      -9.522 -19.344  18.609  1.00  0.00    -0.273 OA
ATOM     22  H2  UNL     1     -10.380 -17.924  21.401  1.00  0.00     0.163 HD
BRANCH  20  23
HETATM   23  C10 UNL     1     -11.706 -19.049  19.416  1.00  0.00     0.097 C 
HETATM   24  C11 UNL     1     -12.232 -18.382  18.189  1.00  0.00     0.035 C 
HETATM   25  C12 UNL     1     -13.220 -19.343  17.575  1.00  0.00     0.127 C 
HETATM   26  N3  UNL     1     -13.153 -20.573  18.350  1.00  0.00    -0.351 N 
HETATM   27  C13 UNL     1     -14.079 -21.628  18.243  1.00  0.00     0.224 C 
HETATM   28  C20 UNL     1     -11.994 -20.524  19.195  1.00  0.00     0.139 C 
HETATM   29  O2  UNL     1     -15.038 -21.509  17.387  1.00  0.00    -0.273 OA
BRANCH  27  30
HETATM   30  C14 UNL     1     -14.051 -22.883  19.045  1.00  0.00     0.078 C 
HETATM   31  C15 UNL     1     -14.715 -22.687  20.363  1.00  0.00     0.014 C 
HETATM   32  C16 UNL     1     -15.192 -23.980  21.006  1.00  0.00     0.001 C 
HETATM   33  C17 UNL     1     -15.985 -24.811  20.022  1.00  0.00     0.000 C 
HETATM   34  C18 UNL     1     -14.994 -25.221  18.931  1.00  0.00     0.001 C 
HETATM   35  C19 UNL     1     -14.632 -23.973  18.192  1.00  0.00     0.014 C 
ENDBRANCH  27  30
ENDBRANCH  20  23
ENDBRANCH  16  19
ENDBRANCH  15  16
ENDBRANCH   1  15
BRANCH   1  36
HETATM   36  C21 UNL     1      -7.722 -16.492  17.702  1.00  0.00     0.233 C 
HETATM   37  O3  UNL     1      -7.906 -15.252  17.561  1.00  0.00    -0.272 OA
HETATM   38  N4  UNL     1      -8.225 -17.366  16.722  1.00  0.00    -0.349 N 
ATOM     39  H4  UNL     1      -8.070 -18.367  16.842  1.00  0.00     0.163 HD
BRANCH  38  40
HETATM   40  C22 UNL     1      -8.940 -16.926  15.566  1.00  0.00     0.145 C 
BRANCH  40  41
HETATM   41  C23 UNL     1     -10.113 -17.757  15.223  1.00  0.00     0.256 C 
HETATM   42  O4  UNL     1     -10.147 -18.971  15.332  1.00  0.00    -0.305 OA
ENDBRANCH  40  41
BRANCH  40  43
HETATM   43  C24 UNL     1      -7.969 -16.884  14.403  1.00  0.00     0.028 C 
HETATM   44  C25 UNL     1      -7.553 -15.461  14.093  1.00  0.00     0.007 C 
ENDBRANCH  40  43
ENDBRANCH  38  40
ENDBRANCH   1  36
TORSDOF 14
ENDMDL
MODEL 2
REMARK VINA RESULT: -8.479612470      3.309     10.295
REMARK  14 active torsions:
REMARK  status: ('A' for Active; 'I' for Inactive)
REMARK    1  A    between atoms: C2_2  and  N1_3 
REMARK    2  A    between atoms: C3_5  and  S1_6 
REMARK    3  A    between atoms: C3_5  and  N5_39 
REMARK    4  A    between atoms: S1_6  and  S2_7 
REMARK    5  A    between atoms: S2_7  and  C4_8 
REMARK    6  A    between atoms: C4_8  and  C5_9 
REMARK    7  A    between atoms: C4_8  and  C21_30 
REMARK    8  A    between atoms: C5_9  and  C6_10 
REMARK    9  A    between atoms: C6_10  and  N2_13 
REMARK       I    between atoms: N2_13  and  C9_15 
REMARK   10  A    between atoms: C9_15  and  C10_17 
REMARK       I    between atoms: N3_20  and  C13_21 
REMARK   11  A    between atoms: C13_21  and  C14_23 
REMARK       I    between atoms: C21_30  and  N4_32 
REMARK   12  A    between atoms: N4_32  and  C22_34 
REMARK   13  A    between atoms: C22_34  and  C23_35 
REMARK   14  A    between atoms: C22_34  and  C24_37 
ROOT
HETATM    1  C4  UNL     1     -11.766 -20.283  17.204  1.00  0.00     0.153 C 
ENDROOT
BRANCH   1   2
HETATM    2  S2  UNL     1     -12.845 -21.540  16.609  1.00  0.00    -0.075 SA
BRANCH   2   3
HETATM    3  S1  UNL     1     -14.849 -21.114  17.062  1.00  0.00    -0.020 SA
BRANCH   3   4
HETATM    4  C3  UNL     1     -15.733 -22.589  17.416  1.00  0.00     0.157 C 
HETATM    5  N1  UNL     1     -16.325 -23.171  16.389  1.00  0.00    -0.370 N 
ATOM      6  H1  UNL     1     -16.856 -24.033  16.521  1.00  0.00     0.161 HD
BRANCH   5   7
HETATM    7  C2  UNL     1     -16.216 -22.582  15.092  1.00  0.00     0.117 C 
HETATM    8  C1  UNL     1     -17.608 -22.088  14.708  1.00  0.00     0.026 C 
ENDBRANCH   5   7
BRANCH   4   9
HETATM    9  N5  UNL     1     -15.860 -23.224  18.673  1.00  0.00    -0.274 N 
HETATM   10  C26 UNL     1     -14.907 -23.381  19.736  1.00  0.00     0.304 C 
HETATM   11  O5  UNL     1     -15.610 -23.816  20.870  1.00  0.00    -0.362 OA
HETATM   12  C27 UNL     1     -16.683 -24.575  20.406  1.00  0.00     0.273 C 
HETATM   13  C28 UNL     1     -17.060 -23.861  19.160  1.00  0.00     0.251 C 
HETATM   14  O6  UNL     1     -18.191 -23.834  18.661  1.00  0.00    -0.270 OA
ENDBRANCH   4   9
ENDBRANCH   3   4
ENDBRANCH   2   3
ENDBRANCH   1   2
BRANCH   1  15
HETATM   15  C5  UNL     1     -10.590 -20.761  17.970  1.00  0.00     0.055 C 
BRANCH  15  16
HETATM   16  C6  UNL     1     -10.454 -20.512  19.417  1.00  0.00     0.027 C 
HETATM   17  C7  UNL     1     -11.686 -20.003  20.112  1.00  0.00     0.038 C 
HETATM   18  C8  UNL     1      -9.690 -21.567  20.185  1.00  0.00     0.038 C 
BRANCH  16  19
HETATM   19  N2  UNL     1      -9.529 -19.318  19.486  1.00  0.00    -0.352 N 
HETATM   20  C9  UNL     1      -9.185 -18.707  20.701  1.00  0.00     0.224 C 
HETATM   21  O1  UNL     1      -9.570 -19.054  21.838  1.00  0.00    -0.273 OA
ATOM     22  H2  UNL     1      -9.142 -18.944  18.620  1.00  0.00     0.163 HD
BRANCH  20  23
HETATM   23  C10 UNL     1      -8.259 -17.510  20.652  1.00  0.00     0.097 C 
HETATM   24  C11 UNL     1      -7.396 -17.424  21.866  1.00  0.00     0.035 C 
HETATM   25  C12 UNL     1      -6.010 -17.080  21.378  1.00  0.00     0.127 C 
HETATM   26  N3  UNL     1      -6.055 -17.109  19.923  1.00  0.00    -0.351 N 
HETATM   27  C13 UNL     1      -5.030 -16.621  19.090  1.00  0.00     0.224 C 
HETATM   28  C20 UNL     1      -7.281 -17.729  19.511  1.00  0.00     0.139 C 
HETATM   29  O2  UNL     1      -3.972 -16.137  19.649  1.00  0.00    -0.273 OA
BRANCH  27  30
HETATM   30  C14 UNL     1      -5.063 -16.611  17.600  1.00  0.00     0.078 C 
HETATM   31  C15 UNL     1      -5.855 -15.456  17.094  1.00  0.00     0.014 C 
HETATM   32  C16 UNL     1      -5.521 -15.066  15.663  1.00  0.00     0.001 C 
HETATM   33  C17 UNL     1      -4.027 -14.932  15.475  1.00  0.00     0.000 C 
HETATM   34  C18 UNL     1      -3.454 -16.337  15.675  1.00  0.00     0.001 C 
HETATM   35  C19 UNL     1      -3.642 -16.672  17.120  1.00  0.00     0.014 C 
ENDBRANCH  27  30
ENDBRANCH  20  23
ENDBRANCH  16  19
ENDBRANCH  15  16
ENDBRANCH   1  15
BRANCH   1  36
HETATM   36  C21 UNL     1     -11.179 -19.476  16.049  1.00  0.00     0.233 C 
HETATM   37  O3  UNL     1     -11.740 -19.483  14.919  1.00  0.00    -0.272 OA
HETATM   38  N4  UNL     1     -10.009 -18.714  16.217  1.00  0.00    -0.349 N 
ATOM     39  H4  UNL     1      -9.561 -18.711  17.134  1.00  0.00     0.163 HD
BRANCH  38  40
HETATM   40  C22 UNL     1      -9.415 -17.942  15.173  1.00  0.00     0.145 C 
BRANCH  40  41
HETATM   41  C23 UNL     1      -7.942 -18.043  15.104  1.00  0.00     0.256 C 
HETATM   42  O4  UNL     1      -7.337 -18.638  14.229  1.00  0.00    -0.305 OA
ENDBRANCH  40  41
BRANCH  40  43
HETATM   43  C24 UNL     1      -9.832 -16.497  15.363  1.00  0.00     0.028 C 
HETATM   44  C25 UNL     1      -9.067 -15.583  14.429  1.00  0.00     0.007 C 
ENDBRANCH  40  43
ENDBRANCH  38  40
ENDBRANCH   1  36
TORSDOF 14
ENDMDL
MODEL 3
REMARK VINA RESULT: -8.478452015      3.339     10.047
REMARK  14 active torsions:
REMARK  status: ('A' for Active; 'I' for Inactive)
REMARK    1  A    between atoms: C2_2  and  N1_3 
REMARK    2  A    between atoms: C3_5  and  S1_6 
REMARK    3  A    between atoms: C3_5  and  N5_39 
REMARK    4  A    between atoms: S1_6  and  S2_7 
REMARK    5  A    between atoms: S2_7  and  C4_8 
REMARK    6  A    between atoms: C4_8  and  C5_9 
REMARK    7  A    between atoms: C4_8  and  C21_30 
REMARK    8  A    between atoms: C5_9  and  C6_10 
REMARK    9  A    between atoms: C6_10  and  N2_13 
REMARK       I    between atoms: N2_13  and  C9_15 
REMARK   10  A    between atoms: C9_15  and  C10_17 
REMARK       I    between atoms: N3_20  and  C13_21 
REMARK   11  A    between atoms: C13_21  and  C14_23 
REMARK       I    between atoms: C21_30  and  N4_32 
REMARK   12  A    between atoms: N4_32  and  C22_34 
REMARK   13  A    between atoms: C22_34  and  C23_35 
REMARK   14  A    between atoms: C22_34  and  C24_37 
ROOT
HETATM    1  C4  UNL     1     -12.176 -20.553  18.655  1.00  0.00     0.153 C 
ENDROOT
BRANCH   1   2
HETATM    2  S2  UNL     1     -12.881 -22.164  18.595  1.00  0.00    -0.075 SA
BRANCH   2   3
HETATM    3  S1  UNL     1     -14.782 -22.208  19.483  1.00  0.00    -0.020 SA
BRANCH   3   4
HETATM    4  C3  UNL     1     -15.851 -23.291  18.608  1.00  0.00     0.157 C 
HETATM    5  N1  UNL     1     -16.206 -24.394  19.241  1.00  0.00    -0.370 N 
ATOM      6  H1  UNL     1     -16.826 -25.069  18.794  1.00  0.00     0.161 HD
BRANCH   5   7
HETATM    7  C2  UNL     1     -15.712 -24.632  20.561  1.00  0.00     0.117 C 
HETATM    8  C1  UNL     1     -16.807 -25.379  21.318  1.00  0.00     0.026 C 
ENDBRANCH   5   7
BRANCH   4   9
HETATM    9  N5  UNL     1     -16.382 -23.099  17.312  1.00  0.00    -0.274 N 
HETATM   10  C26 UNL     1     -15.717 -22.921  16.051  1.00  0.00     0.304 C 
HETATM   11  O5  UNL     1     -16.679 -23.071  15.042  1.00  0.00    -0.362 OA
HETATM   12  C27 UNL     1     -17.888 -22.625  15.575  1.00  0.00     0.273 C 
HETATM   13  C28 UNL     1     -17.789 -23.062  16.990  1.00  0.00     0.251 C 
HETATM   14  O6  UNL     1     -18.744 -23.335  17.728  1.00  0.00    -0.270 OA
ENDBRANCH   4   9
ENDBRANCH   3   4
ENDBRANCH   2   3
ENDBRANCH   1   2
BRANCH   1  15
HETATM   15  C5  UNL     1     -10.702 -20.506  18.800  1.00  0.00     0.055 C 
BRANCH  15  16
HETATM   16  C6  UNL     1     -10.059 -19.980  20.018  1.00  0.00     0.027 C 
HETATM   17  C7  UNL     1     -10.960 -19.240  20.967  1.00  0.00     0.038 C 
HETATM   18  C8  UNL     1      -9.075 -20.915  20.686  1.00  0.00     0.038 C 
BRANCH  16  19
HETATM   19  N2  UNL     1      -9.164 -18.876  19.499  1.00  0.00    -0.352 N 
HETATM   20  C9  UNL     1      -8.420 -18.051  20.355  1.00  0.00     0.224 C 
HETATM   21  O1  UNL     1      -8.388 -18.117  21.602  1.00  0.00    -0.273 OA
ATOM     22  H2  UNL     1      -9.100 -18.727  18.492  1.00  0.00     0.163 HD
BRANCH  20  23
HETATM   23  C10 UNL     1      -7.565 -16.971  19.726  1.00  0.00     0.097 C 
HETATM   24  C11 UNL     1      -6.142 -17.062  20.165  1.00  0.00     0.035 C 
HETATM   25  C12 UNL     1      -5.302 -16.854  18.928  1.00  0.00     0.127 C 
HETATM   26  N3  UNL     1      -6.221 -16.787  17.800  1.00  0.00    -0.351 N 
HETATM   27  C13 UNL     1      -5.855 -16.372  16.506  1.00  0.00     0.224 C 
HETATM   28  C20 UNL     1      -7.515 -17.232  18.231  1.00  0.00     0.139 C 
HETATM   29  O2  UNL     1      -4.622 -16.051  16.297  1.00  0.00    -0.273 OA
BRANCH  27  30
HETATM   30  C14 UNL     1      -6.780 -16.266  15.342  1.00  0.00     0.078 C 
HETATM   31  C15 UNL     1      -7.463 -17.565  15.087  1.00  0.00     0.014 C 
HETATM   32  C16 UNL     1      -8.759 -17.429  14.303  1.00  0.00     0.001 C 
HETATM   33  C17 UNL     1      -9.645 -16.362  14.905  1.00  0.00     0.000 C 
HETATM   34  C18 UNL     1      -8.895 -15.042  14.714  1.00  0.00     0.001 C 
HETATM   35  C19 UNL     1      -7.692 -15.103  15.599  1.00  0.00     0.014 C 
ENDBRANCH  27  30
ENDBRANCH  20  23
ENDBRANCH  16  19
ENDBRANCH  15  16
ENDBRANCH   1  15
BRANCH   1  36
HETATM   36  C21 UNL     1     -12.468 -19.781  17.371  1.00  0.00     0.233 C 
HETATM   37  O3  UNL     1     -11.950 -18.647  17.180  1.00  0.00    -0.272 OA
HETATM   38  N4  UNL     1     -13.313 -20.313  16.381  1.00  0.00    -0.349 N 
ATOM     39  H4  UNL     1     -13.726 -21.232  16.541  1.00  0.00     0.163 HD
BRANCH  38  40
HETATM   40  C22 UNL     1     -13.622 -19.636  15.162  1.00  0.00     0.145 C 
BRANCH  40  41
HETATM   41  C23 UNL     1     -15.057 -19.648  14.806  1.00  0.00     0.256 C 
HETATM   42  O4  UNL     1     -15.964 -19.603  15.619  1.00  0.00    -0.305 OA
ENDBRANCH  40  41
BRANCH  40  43
HETATM   43  C24 UNL     1     -12.803 -20.268  14.054  1.00  0.00     0.028 C 
HETATM   44  C25 UNL     1     -13.619 -20.409  12.787  1.00  0.00     0.007 C 
ENDBRANCH  40  43
ENDBRANCH  38  40
ENDBRANCH   1  36
TORSDOF 14
ENDMDL
MODEL 4
REMARK VINA RESULT: -8.429166148      3.824     10.519
REMARK  14 active torsions:
REMARK  status: ('A' for Active; 'I' for Inactive)
REMARK    1  A    between atoms: C2_2  and  N1_3 
REMARK    2  A    between atoms: C3_5  and  S1_6 
REMARK    3  A    between atoms: C3_5  and  N5_39 
REMARK    4  A    between atoms: S1_6  and  S2_7 
REMARK    5  A    between atoms: S2_7  and  C4_8 
REMARK    6  A    between atoms: C4_8  and  C5_9 
REMARK    7  A    between atoms: C4_8  and  C21_30 
REMARK    8  A    between atoms: C5_9  and  C6_10 
REMARK    9  A    between atoms: C6_10  and  N2_13 
REMARK       I    between atoms: N2_13  and  C9_15 
REMARK   10  A    between atoms: C9_15  and  C10_17 
REMARK       I    between atoms: N3_20  and  C13_21 
REMARK   11  A    between atoms: C13_21  and  C14_23 
REMARK       I    between atoms: C21_30  and  N4_32 
REMARK   12  A    between atoms: N4_32  and  C22_34 
REMARK   13  A    between atoms: C22_34  and  C23_35 
REMARK   14  A    between atoms: C22_34  and  C24_37 
ROOT
HETATM    1  C4  UNL     1     -13.214 -20.481  19.096  1.00  0.00     0.153 C 
ENDROOT
BRANCH   1   2
HETATM    2  S2  UNL     1     -14.582 -21.558  19.352  1.00  0.00    -0.075 SA
BRANCH   2   3
HETATM    3  S1  UNL     1     -14.555 -23.171  18.009  1.00  0.00    -0.020 SA
BRANCH   3   4
HETATM    4  C3  UNL     1     -16.185 -23.743  17.695  1.00  0.00     0.157 C 
HETATM    5  N1  UNL     1     -16.622 -23.601  16.457  1.00  0.00    -0.370 N 
ATOM      6  H1  UNL     1     -17.559 -23.913  16.202  1.00  0.00     0.161 HD
BRANCH   5   7
HETATM    7  C2  UNL     1     -15.768 -23.006  15.478  1.00  0.00     0.117 C 
HETATM    8  C1  UNL     1     -16.529 -23.020  14.155  1.00  0.00     0.026 C 
ENDBRANCH   5   7
BRANCH   4   9
HETATM    9  N5  UNL     1     -17.065 -24.353  18.618  1.00  0.00    -0.274 N 
HETATM   10  C26 UNL     1     -17.096 -24.292  20.053  1.00  0.00     0.304 C 
HETATM   11  O5  UNL     1     -18.327 -24.819  20.470  1.00  0.00    -0.362 OA
HETATM   12  C27 UNL     1     -18.686 -25.784  19.531  1.00  0.00     0.273 C 
HETATM   13  C28 UNL     1     -18.184 -25.193  18.264  1.00  0.00     0.251 C 
HETATM   14  O6  UNL     1     -18.653 -25.399  17.138  1.00  0.00    -0.270 OA
ENDBRANCH   4   9
ENDBRANCH   3   4
ENDBRANCH   2   3
ENDBRANCH   1   2
BRANCH   1  15
HETATM   15  C5  UNL     1     -11.886 -21.137  19.041  1.00  0.00     0.055 C 
BRANCH  15  16
HETATM   16  C6  UNL     1     -10.703 -20.548  19.693  1.00  0.00     0.027 C 
HETATM   17  C7  UNL     1     -10.983 -19.568  20.798  1.00  0.00     0.038 C 
HETATM   18  C8  UNL     1      -9.576 -21.514  19.983  1.00  0.00     0.038 C 
BRANCH  16  19
HETATM   19  N2  UNL     1     -10.110 -19.661  18.621  1.00  0.00    -0.352 N 
HETATM   20  C9  UNL     1     -10.031 -20.060  17.279  1.00  0.00     0.224 C 
HETATM   21  O1  UNL     1     -10.428 -21.146  16.806  1.00  0.00    -0.273 OA
ATOM     22  H2  UNL     1      -9.756 -18.742  18.883  1.00  0.00     0.163 HD
BRANCH  20  23
HETATM   23  C10 UNL     1      -9.409 -19.095  16.291  1.00  0.00     0.097 C 
HETATM   24  C11 UNL     1     -10.438 -18.415  15.453  1.00  0.00     0.035 C 
HETATM   25  C12 UNL     1     -10.037 -16.962  15.384  1.00  0.00     0.127 C 
HETATM   26  N3  UNL     1      -8.894 -16.797  16.271  1.00  0.00    -0.351 N 
HETATM   27  C13 UNL     1      -8.084 -15.646  16.311  1.00  0.00     0.224 C 
HETATM   28  C20 UNL     1      -8.767 -17.971  17.085  1.00  0.00     0.139 C 
HETATM   29  O2  UNL     1      -8.385 -14.664  15.529  1.00  0.00    -0.273 OA
BRANCH  27  30
HETATM   30  C14 UNL     1      -6.892 -15.462  17.186  1.00  0.00     0.078 C 
HETATM   31  C15 UNL     1      -7.222 -15.767  18.606  1.00  0.00     0.014 C 
HETATM   32  C16 UNL     1      -6.009 -16.114  19.455  1.00  0.00     0.001 C 
HETATM   33  C17 UNL     1      -5.154 -17.158  18.773  1.00  0.00     0.000 C 
HETATM   34  C18 UNL     1      -4.609 -16.488  17.510  1.00  0.00     0.001 C 
HETATM   35  C19 UNL     1      -5.776 -16.278  16.600  1.00  0.00     0.014 C 
ENDBRANCH  27  30
ENDBRANCH  20  23
ENDBRANCH  16  19
ENDBRANCH  15  16
ENDBRANCH   1  15
BRANCH   1  36
HETATM   36  C21 UNL     1     -13.341 -19.743  17.765  1.00  0.00     0.233 C 
HETATM   37  O3  UNL     1     -13.165 -18.495  17.711  1.00  0.00    -0.272 OA
HETATM   38  N4  UNL     1     -13.655 -20.433  16.580  1.00  0.00    -0.349 N 
ATOM     39  H4  UNL     1     -13.794 -21.443  16.632  1.00  0.00     0.163 HD
BRANCH  38  40
HETATM   40  C22 UNL     1     -13.788 -19.796  15.309  1.00  0.00     0.145 C 
BRANCH  40  41
HETATM   41  C23 UNL     1     -15.185 -19.645  14.848  1.00  0.00     0.256 C 
HETATM   42  O4  UNL     1     -16.139 -19.496  15.591  1.00  0.00    -0.305 OA
ENDBRANCH  40  41
BRANCH  40  43
HETATM   43  C24 UNL     1     -12.986 -20.593  14.300  1.00  0.00     0.028 C 
HETATM   44  C25 UNL     1     -13.627 -20.535  12.929  1.00  0.00     0.007 C 
ENDBRANCH  40  43
ENDBRANCH  38  40
ENDBRANCH   1  36
TORSDOF 14
ENDMDL
MODEL 5
REMARK VINA RESULT: -8.428297741      5.091      8.835
REMARK  14 active torsions:
REMARK  status: ('A' for Active; 'I' for Inactive)
REMARK    1  A    between atoms: C2_2  and  N1_3 
REMARK    2  A    between atoms: C3_5  and  S1_6 
REMARK    3  A    between atoms: C3_5  and  N5_39 
REMARK    4  A    between atoms: S1_6  and  S2_7 
REMARK    5  A    between atoms: S2_7  and  C4_8 
REMARK    6  A    between atoms: C4_8  and  C5_9 
REMARK    7  A    between atoms: C4_8  and  C21_30 
REMARK    8  A    between atoms: C5_9  and  C6_10 
REMARK    9  A    between atoms: C6_10  and  N2_13 
REMARK       I    between atoms: N2_13  and  C9_15 
REMARK   10  A    between atoms: C9_15  and  C10_17 
REMARK       I    between atoms: N3_20  and  C13_21 
REMARK   11  A    between atoms: C13_21  and  C14_23 
REMARK       I    between atoms: C21_30  and  N4_32 
REMARK   12  A    between atoms: N4_32  and  C22_34 
REMARK   13  A    between atoms: C22_34  and  C23_35 
REMARK   14  A    between atoms: C22_34  and  C24_37 
ROOT
HETATM    1  C4  UNL     1     -14.498 -22.888  18.081  1.00  0.00     0.153 C 
ENDROOT
BRANCH   1   2
HETATM    2  S2  UNL     1     -13.521 -21.715  18.957  1.00  0.00    -0.075 SA
BRANCH   2   3
HETATM    3  S1  UNL     1     -11.475 -21.967  18.563  1.00  0.00    -0.020 SA
BRANCH   3   4
HETATM    4  C3  UNL     1     -10.635 -20.428  18.637  1.00  0.00     0.157 C 
HETATM    5  N1  UNL     1      -9.686 -20.327  19.551  1.00  0.00    -0.370 N 
ATOM      6  H1  UNL     1      -9.156 -19.461  19.650  1.00  0.00     0.161 HD
BRANCH   5   7
HETATM    7  C2  UNL     1      -9.411 -21.443  20.399  1.00  0.00     0.117 C 
HETATM    8  C1  UNL     1      -8.629 -20.910  21.597  1.00  0.00     0.026 C 
ENDBRANCH   5   7
BRANCH   4   9
HETATM    9  N5  UNL     1     -10.853 -19.299  17.815  1.00  0.00    -0.274 N 
HETATM   10  C26 UNL     1     -12.045 -18.847  17.153  1.00  0.00     0.304 C 
HETATM   11  O5  UNL     1     -11.813 -17.534  16.716  1.00  0.00    -0.362 OA
HETATM   12  C27 UNL     1     -10.451 -17.444  16.434  1.00  0.00     0.273 C 
HETATM   13  C28 UNL     1      -9.854 -18.313  17.480  1.00  0.00     0.251 C 
HETATM   14  O6  UNL     1      -8.717 -18.192  17.953  1.00  0.00    -0.270 OA
ENDBRANCH   4   9
ENDBRANCH   3   4
ENDBRANCH   2   3
ENDBRANCH   1   2
BRANCH   1  15
HETATM   15  C5  UNL     1     -15.725 -23.343  18.776  1.00  0.00     0.055 C 
BRANCH  15  16
HETATM   16  C6  UNL     1     -16.034 -24.775  18.946  1.00  0.00     0.027 C 
HETATM   17  C7  UNL     1     -14.889 -25.723  18.721  1.00  0.00     0.038 C 
HETATM   18  C8  UNL     1     -16.903 -25.112  20.137  1.00  0.00     0.038 C 
BRANCH  16  19
HETATM   19  N2  UNL     1     -16.941 -25.084  17.777  1.00  0.00    -0.352 N 
HETATM   20  C9  UNL     1     -18.182 -24.453  17.604  1.00  0.00     0.224 C 
HETATM   21  O1  UNL     1     -18.679 -23.584  18.352  1.00  0.00    -0.273 OA
ATOM     22  H2  UNL     1     -16.641 -25.776  17.090  1.00  0.00     0.163 HD
BRANCH  20  23
HETATM   23  C10 UNL     1     -19.014 -24.848  16.403  1.00  0.00     0.097 C 
HETATM   24  C11 UNL     1     -19.632 -23.663  15.740  1.00  0.00     0.035 C 
HETATM   25  C12 UNL     1     -19.457 -23.868  14.255  1.00  0.00     0.127 C 
HETATM   26  N3  UNL     1     -18.640 -25.061  14.086  1.00  0.00    -0.351 N 
HETATM   27  C13 UNL     1     -18.444 -25.718  12.856  1.00  0.00     0.224 C 
HETATM   28  C20 UNL     1     -18.072 -25.415  15.355  1.00  0.00     0.139 C 
HETATM   29  O2  UNL     1     -19.005 -25.219  11.806  1.00  0.00    -0.273 OA
BRANCH  27  30
HETATM   30  C14 UNL     1     -17.639 -26.956  12.661  1.00  0.00     0.078 C 
HETATM   31  C15 UNL     1     -18.332 -27.901  11.741  1.00  0.00     0.014 C 
HETATM   32  C16 UNL     1     -17.400 -28.908  11.084  1.00  0.00     0.001 C 
HETATM   33  C17 UNL     1     -16.196 -28.218  10.484  1.00  0.00     0.000 C 
HETATM   34  C18 UNL     1     -15.421 -27.632  11.666  1.00  0.00     0.001 C 
HETATM   35  C19 UNL     1     -16.265 -26.535  12.229  1.00  0.00     0.014 C 
ENDBRANCH  27  30
ENDBRANCH  20  23
ENDBRANCH  16  19
ENDBRANCH  15  16
ENDBRANCH   1  15
BRANCH   1  36
HETATM   36  C21 UNL     1     -14.990 -22.308  16.757  1.00  0.00     0.233 C 
HETATM   37  O3  UNL     1     -16.221 -22.108  16.570  1.00  0.00    -0.272 OA
HETATM   38  N4  UNL     1     -14.089 -21.986  15.726  1.00  0.00    -0.349 N 
ATOM     39  H4  UNL     1     -13.094 -22.149  15.886  1.00  0.00     0.163 HD
BRANCH  38  40
HETATM   40  C22 UNL     1     -14.492 -21.443  14.469  1.00  0.00     0.145 C 
BRANCH  40  41
HETATM   41  C23 UNL     1     -14.776 -22.457  13.431  1.00  0.00     0.256 C 
HETATM   42  O4  UNL     1     -15.754 -23.184  13.434  1.00  0.00    -0.305 OA
ENDBRANCH  40  41
BRANCH  40  43
HETATM   43  C24 UNL     1     -13.405 -20.500  13.995  1.00  0.00     0.028 C 
HETATM   44  C25 UNL     1     -13.588 -20.149  12.533  1.00  0.00     0.007 C 
ENDBRANCH  40  43
ENDBRANCH  38  40
ENDBRANCH   1  36
TORSDOF 14
ENDMDL
