MODEL 1
REMARK VINA RESULT: -8.478872644      0.000      0.000
REMARK  8 active torsions:
REMARK  status: ('A' for Active; 'I' for Inactive)
REMARK    1  A    between atoms: O1_2  and  C2_3 
REMARK    2  A    between atoms: C4_5  and  C5_6 
REMARK    3  A    between atoms: N1_7  and  C6_9 
REMARK    4  A    between atoms: C9_12  and  O2_13 
REMARK    5  A    between atoms: C11_17  and  O4_18 
REMARK    6  A    between atoms: C19_27  and  O5_28 
REMARK    7  A    between atoms: C21_30  and  O6_31 
REMARK    8  A    between atoms: C23_33  and  O7_34 
ROOT
HETATM    1  C6  UNL     1       8.689  93.378  38.732  1.00  0.00     0.052 A 
HETATM    2  C7  UNL     1       8.087  94.282  39.580  1.00  0.00    -0.017 A 
HETATM    3  C8  UNL     1       7.091  95.122  39.131  1.00  0.00    -0.009 A 
HETATM    4  C9  UNL     1       6.725  95.013  37.788  1.00  0.00     0.107 A 
HETATM    5  C10 UNL     1       7.324  94.109  36.934  1.00  0.00     0.124 A 
HETATM    6  O3  UNL     1       7.112  93.868  35.649  1.00  0.00    -0.284 OA
HETATM    7  C11 UNL     1       7.909  92.919  35.227  1.00  0.00     0.184 A 
HETATM    8  C12 UNL     1       8.695  92.515  36.313  1.00  0.00     0.080 A 
HETATM    9  C13 UNL     1       8.314  93.282  37.398  1.00  0.00     0.033 A 
HETATM   10  C14 UNL     1       6.663  95.948  40.257  1.00  0.00     0.019 C 
HETATM   11  C15 UNL     1       6.374  97.388  39.936  1.00  0.00     0.015 C 
HETATM   12  C16 UNL     1       7.848  95.934  41.193  1.00  0.00     0.018 C 
HETATM   13  C17 UNL     1       8.358  94.523  41.035  1.00  0.00     0.018 C 
HETATM   14  C18 UNL     1       7.567  93.617  41.922  1.00  0.00     0.015 C 
ENDROOT
BRANCH   1  15
HETATM   15  N1  UNL     1       9.702  92.523  39.188  1.00  0.00    -0.364 N 
HETATM   16  C5  UNL     1       9.465  91.318  39.564  1.00  0.00     0.102 C 
ATOM     17  H1  UNL     1      10.661  92.870  39.221  1.00  0.00     0.165 HD
BRANCH  16  18
HETATM   18  C4  UNL     1      10.560  90.478  40.028  1.00  0.00     0.018 A 
HETATM   19  C3  UNL     1      10.735  90.215  41.382  1.00  0.00     0.055 A 
HETATM   20  C2  UNL     1      11.804  89.401  41.770  1.00  0.00     0.105 A 
HETATM   21  C23 UNL     1      12.649  88.885  40.810  1.00  0.00     0.138 A 
HETATM   22  C21 UNL     1      12.478  89.146  39.448  1.00  0.00     0.138 A 
HETATM   23  C19 UNL     1      11.418  89.950  39.084  1.00  0.00     0.116 A 
BRANCH  20  24
HETATM   24  O1  UNL     1      12.011  89.118  43.097  1.00  0.00    -0.353 OA
HETATM   25  C1  UNL     1      10.935  89.207  44.010  1.00  0.00     0.210 C 
ENDBRANCH  20  24
BRANCH  21  26
HETATM   26  O7  UNL     1      13.698  88.080  41.256  1.00  0.00    -0.351 OA
HETATM   27  C24 UNL     1      14.959  88.679  41.452  1.00  0.00     0.210 C 
ENDBRANCH  21  26
BRANCH  22  28
HETATM   28  O6  UNL     1      13.334  88.618  38.514  1.00  0.00    -0.351 OA
HETATM   29  C22 UNL     1      13.275  87.287  38.050  1.00  0.00     0.210 C 
ENDBRANCH  22  28
BRANCH  23  30
HETATM   30  O5  UNL     1      11.217  90.230  37.756  1.00  0.00    -0.352 OA
HETATM   31  C20 UNL     1      10.571  89.413  36.829  1.00  0.00     0.210 C 
ENDBRANCH  23  30
ENDBRANCH  16  18
ENDBRANCH   1  15
BRANCH   4  32
HETATM   32  O2  UNL     1       5.741  95.816  37.281  1.00  0.00    -0.357 OA
ATOM     33  H2  UNL     1       5.781  96.757  37.414  1.00  0.00     0.217 HD
ENDBRANCH   4  32
BRANCH   7  34
HETATM   34  O4  UNL     1       7.951  92.417  33.931  1.00  0.00    -0.341 OA
ATOM     35  H4  UNL     1       8.689  92.486  33.338  1.00  0.00     0.220 HD
ENDBRANCH   7  34
TORSDOF 8
ENDMDL
MODEL 2
REMARK VINA RESULT: -8.204377738      1.320      1.846
REMARK  8 active torsions:
REMARK  status: ('A' for Active; 'I' for Inactive)
REMARK    1  A    between atoms: O1_2  and  C2_3 
REMARK    2  A    between atoms: C4_5  and  C5_6 
REMARK    3  A    between atoms: N1_7  and  C6_9 
REMARK    4  A    between atoms: C9_12  and  O2_13 
REMARK    5  A    between atoms: C11_17  and  O4_18 
REMARK    6  A    between atoms: C19_27  and  O5_28 
REMARK    7  A    between atoms: C21_30  and  O6_31 
REMARK    8  A    between atoms: C23_33  and  O7_34 
ROOT
HETATM    1  C6  UNL     1       8.604  93.452  38.984  1.00  0.00     0.052 A 
HETATM    2  C7  UNL     1       8.389  94.110  40.175  1.00  0.00    -0.017 A 
HETATM    3  C8  UNL     1       7.449  95.112  40.273  1.00  0.00    -0.009 A 
HETATM    4  C9  UNL     1       6.730  95.425  39.117  1.00  0.00     0.107 A 
HETATM    5  C10 UNL     1       6.941  94.769  37.921  1.00  0.00     0.124 A 
HETATM    6  O3  UNL     1       6.365  94.928  36.739  1.00  0.00    -0.284 OA
HETATM    7  C11 UNL     1       6.871  94.089  35.870  1.00  0.00     0.184 A 
HETATM    8  C12 UNL     1       7.844  93.333  36.533  1.00  0.00     0.080 A 
HETATM    9  C13 UNL     1       7.882  93.775  37.842  1.00  0.00     0.033 A 
HETATM   10  C14 UNL     1       7.462  95.603  41.648  1.00  0.00     0.019 C 
HETATM   11  C15 UNL     1       7.319  97.090  41.811  1.00  0.00     0.015 C 
HETATM   12  C16 UNL     1       8.835  95.233  42.156  1.00  0.00     0.018 C 
HETATM   13  C17 UNL     1       9.066  93.897  41.496  1.00  0.00     0.018 C 
HETATM   14  C18 UNL     1       8.410  92.830  42.310  1.00  0.00     0.015 C 
ENDROOT
BRANCH   1  15
HETATM   15  N1  UNL     1       9.561  92.432  38.883  1.00  0.00    -0.364 N 
HETATM   16  C5  UNL     1       9.312  91.221  39.232  1.00  0.00     0.102 C 
ATOM     17  H1  UNL     1      10.487  92.660  38.519  1.00  0.00     0.165 HD
BRANCH  16  18
HETATM   18  C4  UNL     1      10.348  90.206  39.104  1.00  0.00     0.018 A 
HETATM   19  C3  UNL     1      11.198  89.914  40.165  1.00  0.00     0.055 A 
HETATM   20  C2  UNL     1      12.174  88.929  39.986  1.00  0.00     0.105 A 
HETATM   21  C23 UNL     1      12.269  88.278  38.773  1.00  0.00     0.138 A 
HETATM   22  C21 UNL     1      11.417  88.568  37.703  1.00  0.00     0.138 A 
HETATM   23  C19 UNL     1      10.460  89.542  37.899  1.00  0.00     0.116 A 
BRANCH  20  24
HETATM   24  O1  UNL     1      13.032  88.612  41.008  1.00  0.00    -0.353 OA
HETATM   25  C1  UNL     1      12.644  88.841  42.348  1.00  0.00     0.210 C 
ENDBRANCH  20  24
BRANCH  21  26
HETATM   26  O7  UNL     1      13.261  87.305  38.651  1.00  0.00    -0.351 OA
HETATM   27  C24 UNL     1      14.463  87.659  38.004  1.00  0.00     0.210 C 
ENDBRANCH  21  26
BRANCH  22  28
HETATM   28  O6  UNL     1      11.533  87.904  36.507  1.00  0.00    -0.351 OA
HETATM   29  C22 UNL     1      10.787  86.757  36.164  1.00  0.00     0.210 C 
ENDBRANCH  22  28
BRANCH  23  30
HETATM   30  O5  UNL     1       9.605  89.854  36.872  1.00  0.00    -0.352 OA
HETATM   31  C20 UNL     1       9.913  90.613  35.743  1.00  0.00     0.210 C 
ENDBRANCH  23  30
ENDBRANCH  16  18
ENDBRANCH   1  15
BRANCH   4  32
HETATM   32  O2  UNL     1       5.781  96.408  39.148  1.00  0.00    -0.357 OA
ATOM     33  H2  UNL     1       5.518  96.788  39.979  1.00  0.00     0.217 HD
ENDBRANCH   4  32
BRANCH   7  34
HETATM   34  O4  UNL     1       6.495  93.985  34.536  1.00  0.00    -0.341 OA
ATOM     35  H4  UNL     1       6.934  94.404  33.805  1.00  0.00     0.220 HD
ENDBRANCH   7  34
TORSDOF 8
ENDMDL
MODEL 3
REMARK VINA RESULT: -8.080441145      3.543      7.075
REMARK  8 active torsions:
REMARK  status: ('A' for Active; 'I' for Inactive)
REMARK    1  A    between atoms: O1_2  and  C2_3 
REMARK    2  A    between atoms: C4_5  and  C5_6 
REMARK    3  A    between atoms: N1_7  and  C6_9 
REMARK    4  A    between atoms: C9_12  and  O2_13 
REMARK    5  A    between atoms: C11_17  and  O4_18 
REMARK    6  A    between atoms: C19_27  and  O5_28 
REMARK    7  A    between atoms: C21_30  and  O6_31 
REMARK    8  A    between atoms: C23_33  and  O7_34 
ROOT
HETATM    1  C6  UNL     1      12.732  89.024  40.502  1.00  0.00     0.052 A 
HETATM    2  C7  UNL     1      11.632  89.854  40.523  1.00  0.00    -0.017 A 
HETATM    3  C8  UNL     1      10.769  89.916  39.450  1.00  0.00    -0.009 A 
HETATM    4  C9  UNL     1      11.061  89.104  38.351  1.00  0.00     0.107 A 
HETATM    5  C10 UNL     1      12.161  88.272  38.325  1.00  0.00     0.124 A 
HETATM    6  O3  UNL     1      12.592  87.445  37.384  1.00  0.00    -0.284 OA
HETATM    7  C11 UNL     1      13.687  86.842  37.775  1.00  0.00     0.184 A 
HETATM    8  C12 UNL     1      13.989  87.311  39.059  1.00  0.00     0.080 A 
HETATM    9  C13 UNL     1      13.010  88.224  39.400  1.00  0.00     0.033 A 
HETATM   10  C14 UNL     1       9.717  90.874  39.780  1.00  0.00     0.019 C 
HETATM   11  C15 UNL     1       9.276  91.769  38.656  1.00  0.00     0.015 C 
HETATM   12  C16 UNL     1      10.344  91.759  40.830  1.00  0.00     0.018 C 
HETATM   13  C17 UNL     1      11.179  90.778  41.613  1.00  0.00     0.018 C 
HETATM   14  C18 UNL     1      10.311  90.093  42.619  1.00  0.00     0.015 C 
ENDROOT
BRANCH   1  15
HETATM   15  N1  UNL     1      13.611  88.961  41.592  1.00  0.00    -0.364 N 
HETATM   16  C5  UNL     1      13.788  87.883  42.267  1.00  0.00     0.102 C 
ATOM     17  H1  UNL     1      14.128  89.799  41.857  1.00  0.00     0.165 HD
BRANCH  16  18
HETATM   18  C4  UNL     1      14.715  87.879  43.390  1.00  0.00     0.018 A 
HETATM   19  C3  UNL     1      16.057  88.193  43.210  1.00  0.00     0.055 A 
HETATM   20  C2  UNL     1      16.903  88.173  44.324  1.00  0.00     0.105 A 
HETATM   21  C23 UNL     1      16.388  87.846  45.562  1.00  0.00     0.138 A 
HETATM   22  C21 UNL     1      15.040  87.530  45.748  1.00  0.00     0.138 A 
HETATM   23  C19 UNL     1      14.222  87.554  44.638  1.00  0.00     0.116 A 
BRANCH  20  24
HETATM   24  O1  UNL     1      18.234  88.477  44.187  1.00  0.00    -0.353 OA
HETATM   25  C1  UNL     1      19.197  87.443  44.213  1.00  0.00     0.210 C 
ENDBRANCH  20  24
BRANCH  21  26
HETATM   26  O7  UNL     1      17.277  87.843  46.637  1.00  0.00    -0.351 OA
HETATM   27  C24 UNL     1      17.194  88.895  47.572  1.00  0.00     0.210 C 
ENDBRANCH  21  26
BRANCH  22  28
HETATM   28  O6  UNL     1      14.555  87.209  46.992  1.00  0.00    -0.351 OA
HETATM   29  C22 UNL     1      14.485  85.894  47.498  1.00  0.00     0.210 C 
ENDBRANCH  22  28
BRANCH  23  30
HETATM   30  O5  UNL     1      12.892  87.250  44.781  1.00  0.00    -0.352 OA
HETATM   31  C20 UNL     1      11.908  88.077  45.323  1.00  0.00     0.210 C 
ENDBRANCH  23  30
ENDBRANCH  16  18
ENDBRANCH   1  15
BRANCH   4  32
HETATM   32  O2  UNL     1      10.242  89.118  37.256  1.00  0.00    -0.357 OA
ATOM     33  H2  UNL     1       9.492  88.535  37.217  1.00  0.00     0.217 HD
ENDBRANCH   4  32
BRANCH   7  34
HETATM   34  O4  UNL     1      14.403  85.909  37.034  1.00  0.00    -0.341 OA
ATOM     35  H4  UNL     1      14.444  84.978  37.213  1.00  0.00     0.220 HD
ENDBRANCH   7  34
TORSDOF 8
ENDMDL
MODEL 4
REMARK VINA RESULT: -8.016192894      1.731      2.824
REMARK  8 active torsions:
REMARK  status: ('A' for Active; 'I' for Inactive)
REMARK    1  A    between atoms: O1_2  and  C2_3 
REMARK    2  A    between atoms: C4_5  and  C5_6 
REMARK    3  A    between atoms: N1_7  and  C6_9 
REMARK    4  A    between atoms: C9_12  and  O2_13 
REMARK    5  A    between atoms: C11_17  and  O4_18 
REMARK    6  A    between atoms: C19_27  and  O5_28 
REMARK    7  A    between atoms: C21_30  and  O6_31 
REMARK    8  A    between atoms: C23_33  and  O7_34 
ROOT
HETATM    1  C6  UNL     1       8.454  93.037  40.067  1.00  0.00     0.052 A 
HETATM    2  C7  UNL     1       8.417  93.457  41.379  1.00  0.00    -0.017 A 
HETATM    3  C8  UNL     1       7.414  94.287  41.830  1.00  0.00    -0.009 A 
HETATM    4  C9  UNL     1       6.447  94.678  40.902  1.00  0.00     0.107 A 
HETATM    5  C10 UNL     1       6.479  94.261  39.588  1.00  0.00     0.124 A 
HETATM    6  O3  UNL     1       5.661  94.526  38.579  1.00  0.00    -0.284 OA
HETATM    7  C11 UNL     1       6.066  93.919  37.493  1.00  0.00     0.184 A 
HETATM    8  C12 UNL     1       7.229  93.210  37.816  1.00  0.00     0.080 A 
HETATM    9  C13 UNL     1       7.485  93.435  39.155  1.00  0.00     0.033 A 
HETATM   10  C14 UNL     1       7.654  94.545  43.247  1.00  0.00     0.019 C 
HETATM   11  C15 UNL     1       7.389  95.951  43.708  1.00  0.00     0.015 C 
HETATM   12  C16 UNL     1       9.133  94.295  43.421  1.00  0.00     0.018 C 
HETATM   13  C17 UNL     1       9.367  93.131  42.492  1.00  0.00     0.018 C 
HETATM   14  C18 UNL     1       9.007  91.864  43.198  1.00  0.00     0.015 C 
ENDROOT
BRANCH   1  15
HETATM   15  N1  UNL     1       9.474  92.192  39.606  1.00  0.00    -0.364 N 
HETATM   16  C5  UNL     1       9.397  90.913  39.694  1.00  0.00     0.102 C 
ATOM     17  H1  UNL     1      10.306  92.608  39.186  1.00  0.00     0.165 HD
BRANCH  16  18
HETATM   18  C4  UNL     1      10.489  90.088  39.197  1.00  0.00     0.018 A 
HETATM   19  C3  UNL     1      11.437  89.561  40.066  1.00  0.00     0.055 A 
HETATM   20  C2  UNL     1      12.465  88.775  39.534  1.00  0.00     0.105 A 
HETATM   21  C23 UNL     1      12.511  88.546  38.174  1.00  0.00     0.138 A 
HETATM   22  C21 UNL     1      11.561  89.075  37.297  1.00  0.00     0.138 A 
HETATM   23  C19 UNL     1      10.555  89.846  37.839  1.00  0.00     0.116 A 
BRANCH  20  24
HETATM   24  O1  UNL     1      13.420  88.236  40.358  1.00  0.00    -0.353 OA
HETATM   25  C1  UNL     1      13.349  88.454  41.753  1.00  0.00     0.210 C 
ENDBRANCH  20  24
BRANCH  21  26
HETATM   26  O7  UNL     1      13.558  87.755  37.700  1.00  0.00    -0.351 OA
HETATM   27  C24 UNL     1      13.356  86.363  37.619  1.00  0.00     0.210 C 
ENDBRANCH  21  26
BRANCH  22  28
HETATM   28  O6  UNL     1      11.631  88.830  35.948  1.00  0.00    -0.351 OA
HETATM   29  C22 UNL     1      10.901  87.818  35.289  1.00  0.00     0.210 C 
ENDBRANCH  22  28
BRANCH  23  30
HETATM   30  O5  UNL     1       9.602  90.383  37.011  1.00  0.00    -0.352 OA
HETATM   31  C20 UNL     1       9.789  91.428  36.107  1.00  0.00     0.210 C 
ENDBRANCH  23  30
ENDBRANCH  16  18
ENDBRANCH   1  15
BRANCH   4  32
HETATM   32  O2  UNL     1       5.424  95.500  41.288  1.00  0.00    -0.357 OA
ATOM     33  H2  UNL     1       5.224  96.278  40.780  1.00  0.00     0.217 HD
ENDBRANCH   4  32
BRANCH   7  34
HETATM   34  O4  UNL     1       5.441  93.981  36.253  1.00  0.00    -0.341 OA
ATOM     35  H4  UNL     1       5.484  93.312  35.580  1.00  0.00     0.220 HD
ENDBRANCH   7  34
TORSDOF 8
ENDMDL
MODEL 5
REMARK VINA RESULT: -8.006398833      1.315      2.938
REMARK  8 active torsions:
REMARK  status: ('A' for Active; 'I' for Inactive)
REMARK    1  A    between atoms: O1_2  and  C2_3 
REMARK    2  A    between atoms: C4_5  and  C5_6 
REMARK    3  A    between atoms: N1_7  and  C6_9 
REMARK    4  A    between atoms: C9_12  and  O2_13 
REMARK    5  A    between atoms: C11_17  and  O4_18 
REMARK    6  A    between atoms: C19_27  and  O5_28 
REMARK    7  A    between atoms: C21_30  and  O6_31 
REMARK    8  A    between atoms: C23_33  and  O7_34 
ROOT
HETATM    1  C6  UNL     1       8.645  93.385  38.916  1.00  0.00     0.052 A 
HETATM    2  C7  UNL     1       8.452  94.044  40.111  1.00  0.00    -0.017 A 
HETATM    3  C8  UNL     1       7.523  95.056  40.221  1.00  0.00    -0.009 A 
HETATM    4  C9  UNL     1       6.794  95.378  39.074  1.00  0.00     0.107 A 
HETATM    5  C10 UNL     1       6.983  94.721  37.876  1.00  0.00     0.124 A 
HETATM    6  O3  UNL     1       6.394  94.886  36.700  1.00  0.00    -0.284 OA
HETATM    7  C11 UNL     1       6.880  94.043  35.825  1.00  0.00     0.184 A 
HETATM    8  C12 UNL     1       7.854  93.276  36.475  1.00  0.00     0.080 A 
HETATM    9  C13 UNL     1       7.912  93.716  37.783  1.00  0.00     0.033 A 
HETATM   10  C14 UNL     1       7.559  95.545  41.596  1.00  0.00     0.019 C 
HETATM   11  C15 UNL     1       7.433  97.034  41.762  1.00  0.00     0.015 C 
HETATM   12  C16 UNL     1       8.934  95.160  42.087  1.00  0.00     0.018 C 
HETATM   13  C17 UNL     1       9.143  93.823  41.422  1.00  0.00     0.018 C 
HETATM   14  C18 UNL     1       8.485  92.762  42.244  1.00  0.00     0.015 C 
ENDROOT
BRANCH   1  15
HETATM   15  N1  UNL     1       9.590  92.355  38.802  1.00  0.00    -0.364 N 
HETATM   16  C5  UNL     1       9.288  91.123  39.003  1.00  0.00     0.102 C 
ATOM     17  H1  UNL     1      10.549  92.593  38.551  1.00  0.00     0.165 HD
BRANCH  16  18
HETATM   18  C4  UNL     1      10.314  90.098  38.870  1.00  0.00     0.018 A 
HETATM   19  C3  UNL     1      10.490  89.415  37.672  1.00  0.00     0.055 A 
HETATM   20  C2  UNL     1      11.491  88.441  37.601  1.00  0.00     0.105 A 
HETATM   21  C23 UNL     1      12.270  88.184  38.711  1.00  0.00     0.138 A 
HETATM   22  C21 UNL     1      12.096  88.867  39.917  1.00  0.00     0.138 A 
HETATM   23  C19 UNL     1      11.105  89.825  39.968  1.00  0.00     0.116 A 
BRANCH  20  24
HETATM   24  O1  UNL     1      11.697  87.745  36.436  1.00  0.00    -0.353 OA
HETATM   25  C1  UNL     1      10.732  86.811  35.995  1.00  0.00     0.210 C 
ENDBRANCH  20  24
BRANCH  21  26
HETATM   26  O7  UNL     1      13.253  87.202  38.581  1.00  0.00    -0.351 OA
HETATM   27  C24 UNL     1      14.431  87.529  37.880  1.00  0.00     0.210 C 
ENDBRANCH  21  26
BRANCH  22  28
HETATM   28  O6  UNL     1      12.887  88.592  41.005  1.00  0.00    -0.351 OA
HETATM   29  C22 UNL     1      14.203  89.072  41.168  1.00  0.00     0.210 C 
ENDBRANCH  22  28
BRANCH  23  30
HETATM   30  O5  UNL     1      10.904  90.517  41.135  1.00  0.00    -0.352 OA
HETATM   31  C20 UNL     1      10.441  89.988  42.340  1.00  0.00     0.210 C 
ENDBRANCH  23  30
ENDBRANCH  16  18
ENDBRANCH   1  15
BRANCH   4  32
HETATM   32  O2  UNL     1       5.856  96.371  39.118  1.00  0.00    -0.357 OA
ATOM     33  H2  UNL     1       5.676  96.889  38.342  1.00  0.00     0.217 HD
ENDBRANCH   4  32
BRANCH   7  34
HETATM   34  O4  UNL     1       6.486  93.945  34.495  1.00  0.00    -0.341 OA
ATOM     35  H4  UNL     1       7.062  94.016  33.743  1.00  0.00     0.220 HD
ENDBRANCH   7  34
TORSDOF 8
ENDMDL
