MODEL 1
REMARK VINA RESULT: -9.841179242      0.000      0.000
REMARK  12 active torsions:
REMARK  status: ('A' for Active; 'I' for Inactive)
REMARK    1  A    between atoms: C14_17  and  C15_18 
REMARK    2  A    between atoms: C15_18  and  C16_19 
REMARK    3  A    between atoms: C15_18  and  N5_26 
REMARK    4  A    between atoms: C16_19  and  N2_20 
REMARK    5  A    between atoms: N2_20  and  N3_22 
REMARK    6  A    between atoms: N3_22  and  N4_23 
REMARK    7  A    between atoms: N5_26  and  C17_28 
REMARK    8  A    between atoms: C17_28  and  C18_29 
REMARK    9  A    between atoms: C17_28  and  C25_36 
REMARK   10  A    between atoms: C18_29  and  C19_30 
REMARK   11  A    between atoms: C25_36  and  O2_37 
REMARK   12  A    between atoms: C25_36  and  C26_39 
REMARK       I    between atoms: C26_39  and  N6_41 
ROOT
HETATM    1  C15 UNL     1       5.674  14.003  -0.539  1.00  0.00     0.064 C 
ENDROOT
BRANCH   1   2
HETATM    2  C14 UNL     1       6.828  14.231   0.009  1.00  0.00     0.057 A 
HETATM    3  C13 UNL     1       7.434  15.462   0.037  1.00  0.00     0.011 A 
HETATM    4  C3  UNL     1       8.740  15.715   0.362  1.00  0.00     0.095 A 
HETATM    5  C12 UNL     1       6.474  16.483  -0.078  1.00  0.00     0.016 C 
HETATM    6  N1  UNL     1       9.522  14.692   0.696  1.00  0.00    -0.350 N 
HETATM    7  C4  UNL     1       9.448  16.923   0.393  1.00  0.00     0.210 C 
HETATM    8  C2  UNL     1       9.003  13.480   0.700  1.00  0.00     0.074 A 
ATOM      9  H1  UNL     1      10.500  14.842   0.944  1.00  0.00     0.166 HD
HETATM   10  C1  UNL     1       9.837  12.483   1.052  1.00  0.00     0.047 C 
HETATM   11  C28 UNL     1       7.667  13.201   0.366  1.00  0.00     0.211 A 
HETATM   12  O4  UNL     1       7.401  11.990   0.441  1.00  0.00    -0.285 OA
HETATM   13  O1  UNL     1      10.534  16.942   0.983  1.00  0.00    -0.285 OA
HETATM   14  C5  UNL     1       9.040  18.109  -0.181  1.00  0.00     0.027 A 
HETATM   15  C6  UNL     1      10.118  18.984  -0.308  1.00  0.00     0.016 A 
HETATM   16  C10 UNL     1       7.804  18.508  -0.612  1.00  0.00    -0.022 A 
HETATM   17  C7  UNL     1       9.968  20.244  -0.858  1.00  0.00     0.001 A 
HETATM   18  C8  UNL     1       8.708  20.613  -1.282  1.00  0.00     0.001 A 
HETATM   19  C9  UNL     1       7.615  19.756  -1.165  1.00  0.00     0.012 A 
HETATM   20  C11 UNL     1       6.621  17.749  -0.554  1.00  0.00     0.013 C 
ENDBRANCH   1   2
BRANCH   1  21
HETATM   21  C16 UNL     1       4.472  13.850   0.360  1.00  0.00     0.135 C 
BRANCH  21  22
HETATM   22  N2  UNL     1       4.331  12.617   0.990  1.00  0.00    -0.294 N 
ATOM     23  H2  UNL     1       4.379  11.714   0.518  1.00  0.00     0.183 HD
BRANCH  22  24
HETATM   24  N3  UNL     1       4.118  12.788   2.332  1.00  0.00    -0.030 NA
BRANCH  24  25
HETATM   25  N4  UNL     1       5.291  13.048   3.051  1.00  0.00    -0.329 N 
ATOM     26  H42 UNL     1       6.106  13.492   2.626  1.00  0.00     0.174 HD
ATOM     27  H41 UNL     1       5.242  12.751   4.025  1.00  0.00     0.174 HD
ENDBRANCH  24  25
ENDBRANCH  22  24
ENDBRANCH  21  22
ENDBRANCH   1  21
BRANCH   1  28
HETATM   28  N5  UNL     1       5.362  13.699  -1.905  1.00  0.00    -0.358 N 
ATOM     29  H5  UNL     1       5.807  12.854  -2.262  1.00  0.00     0.165 HD
BRANCH  28  30
HETATM   30  C17 UNL     1       4.535  14.377  -2.849  1.00  0.00     0.029 C 
BRANCH  30  31
HETATM   31  C18 UNL     1       5.207  15.227  -3.844  1.00  0.00     0.094 C 
BRANCH  31  32
HETATM   32  C19 UNL     1       5.043  16.675  -3.751  1.00  0.00    -0.053 A 
HETATM   33  C20 UNL     1       4.025  17.221  -2.998  1.00  0.00     0.007 A 
HETATM   34  C21 UNL     1       3.849  18.570  -2.804  1.00  0.00     0.001 A 
HETATM   35  C22 UNL     1       4.727  19.457  -3.385  1.00  0.00     0.000 A 
HETATM   36  C23 UNL     1       5.759  18.952  -4.145  1.00  0.00     0.001 A 
HETATM   37  C24 UNL     1       5.924  17.605  -4.331  1.00  0.00     0.007 A 
ENDBRANCH  31  32
ENDBRANCH  30  31
BRANCH  30  38
HETATM   38  C25 UNL     1       3.439  13.540  -3.377  1.00  0.00     0.255 C 
BRANCH  38  39
HETATM   39  O2  UNL     1       3.679  12.158  -3.251  1.00  0.00    -0.380 OA
ATOM     40  H2  UNL     1       3.121  11.625  -3.805  1.00  0.00     0.211 HD
ENDBRANCH  38  39
BRANCH  38  41
HETATM   41  C26 UNL     1       3.128  13.743  -4.823  1.00  0.00     0.251 C 
HETATM   42  O3  UNL     1       2.351  14.650  -5.196  1.00  0.00    -0.270 OA
HETATM   43  N6  UNL     1       3.698  12.921  -5.832  1.00  0.00    -0.363 N 
HETATM   44  C27 UNL     1       3.406  13.107  -7.237  1.00  0.00     0.149 C 
ATOM     45  H6  UNL     1       4.335  12.174  -5.557  1.00  0.00     0.162 HD
ENDBRANCH  38  41
ENDBRANCH  30  38
ENDBRANCH  28  30
ENDBRANCH   1  28
TORSDOF 12
ENDMDL
MODEL 2
REMARK VINA RESULT: -9.772998613      2.196      6.490
REMARK  12 active torsions:
REMARK  status: ('A' for Active; 'I' for Inactive)
REMARK    1  A    between atoms: C14_17  and  C15_18 
REMARK    2  A    between atoms: C15_18  and  C16_19 
REMARK    3  A    between atoms: C15_18  and  N5_26 
REMARK    4  A    between atoms: C16_19  and  N2_20 
REMARK    5  A    between atoms: N2_20  and  N3_22 
REMARK    6  A    between atoms: N3_22  and  N4_23 
REMARK    7  A    between atoms: N5_26  and  C17_28 
REMARK    8  A    between atoms: C17_28  and  C18_29 
REMARK    9  A    between atoms: C17_28  and  C25_36 
REMARK   10  A    between atoms: C18_29  and  C19_30 
REMARK   11  A    between atoms: C25_36  and  O2_37 
REMARK   12  A    between atoms: C25_36  and  C26_39 
REMARK       I    between atoms: C26_39  and  N6_41 
ROOT
HETATM    1  C15 UNL     1       6.726  14.191   0.434  1.00  0.00     0.064 C 
ENDROOT
BRANCH   1   2
HETATM    2  C14 UNL     1       5.505  13.752   0.417  1.00  0.00     0.057 A 
HETATM    3  C13 UNL     1       4.692  13.790  -0.688  1.00  0.00     0.011 A 
HETATM    4  C3  UNL     1       3.338  13.588  -0.705  1.00  0.00     0.095 A 
HETATM    5  C12 UNL     1       5.464  13.824  -1.863  1.00  0.00     0.016 C 
HETATM    6  N1  UNL     1       2.720  13.318   0.442  1.00  0.00    -0.350 N 
HETATM    7  C4  UNL     1       2.428  13.631  -1.770  1.00  0.00     0.210 C 
HETATM    8  C2  UNL     1       3.442  13.258   1.544  1.00  0.00     0.074 A 
ATOM      9  H1  UNL     1       1.713  13.163   0.468  1.00  0.00     0.166 HD
HETATM   10  C1  UNL     1       2.768  12.976   2.675  1.00  0.00     0.047 C 
HETATM   11  C28 UNL     1       4.830  13.466   1.581  1.00  0.00     0.211 A 
HETATM   12  O4  UNL     1       5.298  13.358   2.727  1.00  0.00    -0.285 OA
HETATM   13  O1  UNL     1       1.307  13.143  -1.593  1.00  0.00    -0.285 OA
HETATM   14  C5  UNL     1       2.673  14.175  -3.014  1.00  0.00     0.027 A 
HETATM   15  C6  UNL     1       1.474  14.406  -3.687  1.00  0.00     0.016 A 
HETATM   16  C10 UNL     1       3.853  14.493  -3.628  1.00  0.00    -0.022 A 
HETATM   17  C7  UNL     1       1.450  14.951  -4.958  1.00  0.00     0.001 A 
HETATM   18  C8  UNL     1       2.659  15.260  -5.547  1.00  0.00     0.001 A 
HETATM   19  C9  UNL     1       3.870  15.037  -4.893  1.00  0.00     0.012 A 
HETATM   20  C11 UNL     1       5.141  14.322  -3.087  1.00  0.00     0.013 C 
ENDBRANCH   1   2
BRANCH   1  21
HETATM   21  C16 UNL     1       7.839  13.200   0.674  1.00  0.00     0.135 C 
BRANCH  21  22
HETATM   22  N2  UNL     1       9.063  13.735   1.062  1.00  0.00    -0.294 N 
ATOM     23  H2  UNL     1       9.244  14.180   1.962  1.00  0.00     0.183 HD
BRANCH  22  24
HETATM   24  N3  UNL     1       9.990  13.582   0.066  1.00  0.00    -0.030 NA
BRANCH  24  25
HETATM   25  N4  UNL     1      11.173  14.295   0.295  1.00  0.00    -0.329 N 
ATOM     26  H42 UNL     1      11.827  14.525  -0.454  1.00  0.00     0.174 HD
ATOM     27  H41 UNL     1      11.306  14.553   1.273  1.00  0.00     0.174 HD
ENDBRANCH  24  25
ENDBRANCH  22  24
ENDBRANCH  21  22
ENDBRANCH   1  21
BRANCH   1  28
HETATM   28  N5  UNL     1       7.206  15.542   0.424  1.00  0.00    -0.358 N 
ATOM     29  H5  UNL     1       7.622  15.850   1.302  1.00  0.00     0.165 HD
BRANCH  28  30
HETATM   30  C17 UNL     1       7.201  16.529  -0.607  1.00  0.00     0.029 C 
BRANCH  30  31
HETATM   31  C18 UNL     1       6.265  17.654  -0.456  1.00  0.00     0.094 C 
BRANCH  31  32
HETATM   32  C19 UNL     1       5.064  17.680  -1.286  1.00  0.00    -0.053 A 
HETATM   33  C20 UNL     1       3.862  17.212  -0.799  1.00  0.00     0.007 A 
HETATM   34  C21 UNL     1       2.676  17.268  -1.492  1.00  0.00     0.001 A 
HETATM   35  C22 UNL     1       2.655  17.820  -2.753  1.00  0.00     0.000 A 
HETATM   36  C23 UNL     1       3.836  18.300  -3.275  1.00  0.00     0.001 A 
HETATM   37  C24 UNL     1       5.011  18.238  -2.575  1.00  0.00     0.007 A 
ENDBRANCH  31  32
ENDBRANCH  30  31
BRANCH  30  38
HETATM   38  C25 UNL     1       8.552  16.895  -1.076  1.00  0.00     0.255 C 
BRANCH  38  39
HETATM   39  O2  UNL     1       9.303  15.795  -1.535  1.00  0.00    -0.380 OA
ATOM     40  H2  UNL     1      10.231  15.979  -1.616  1.00  0.00     0.211 HD
ENDBRANCH  38  39
BRANCH  38  41
HETATM   41  C26 UNL     1       9.421  17.551  -0.054  1.00  0.00     0.251 C 
HETATM   42  O3  UNL     1       9.941  16.890   0.872  1.00  0.00    -0.270 OA
HETATM   43  N6  UNL     1       9.694  18.945  -0.090  1.00  0.00    -0.363 N 
HETATM   44  C27 UNL     1      10.535  19.593   0.894  1.00  0.00     0.149 C 
ATOM     45  H6  UNL     1       9.284  19.508  -0.835  1.00  0.00     0.162 HD
ENDBRANCH  38  41
ENDBRANCH  30  38
ENDBRANCH  28  30
ENDBRANCH   1  28
TORSDOF 12
ENDMDL
MODEL 3
REMARK VINA RESULT: -9.751151801      1.996      6.446
REMARK  12 active torsions:
REMARK  status: ('A' for Active; 'I' for Inactive)
REMARK    1  A    between atoms: C14_17  and  C15_18 
REMARK    2  A    between atoms: C15_18  and  C16_19 
REMARK    3  A    between atoms: C15_18  and  N5_26 
REMARK    4  A    between atoms: C16_19  and  N2_20 
REMARK    5  A    between atoms: N2_20  and  N3_22 
REMARK    6  A    between atoms: N3_22  and  N4_23 
REMARK    7  A    between atoms: N5_26  and  C17_28 
REMARK    8  A    between atoms: C17_28  and  C18_29 
REMARK    9  A    between atoms: C17_28  and  C25_36 
REMARK   10  A    between atoms: C18_29  and  C19_30 
REMARK   11  A    between atoms: C25_36  and  O2_37 
REMARK   12  A    between atoms: C25_36  and  C26_39 
REMARK       I    between atoms: C26_39  and  N6_41 
ROOT
HETATM    1  C15 UNL     1       7.573  14.440  -0.008  1.00  0.00     0.064 C 
ENDROOT
BRANCH   1   2
HETATM    2  C14 UNL     1       6.360  13.981   0.042  1.00  0.00     0.057 A 
HETATM    3  C13 UNL     1       5.440  14.137  -0.964  1.00  0.00     0.011 A 
HETATM    4  C3  UNL     1       4.092  13.910  -0.871  1.00  0.00     0.095 A 
HETATM    5  C12 UNL     1       6.089  14.332  -2.196  1.00  0.00     0.016 C 
HETATM    6  N1  UNL     1       3.596  13.489   0.289  1.00  0.00    -0.350 N 
HETATM    7  C4  UNL     1       3.080  14.065  -1.827  1.00  0.00     0.210 C 
HETATM    8  C2  UNL     1       4.426  13.309   1.298  1.00  0.00     0.074 A 
ATOM      9  H1  UNL     1       2.598  13.311   0.396  1.00  0.00     0.166 HD
HETATM   10  C1  UNL     1       3.872  12.877   2.447  1.00  0.00     0.047 C 
HETATM   11  C28 UNL     1       5.810  13.540   1.223  1.00  0.00     0.211 A 
HETATM   12  O4  UNL     1       6.391  13.301   2.295  1.00  0.00    -0.285 OA
HETATM   13  O1  UNL     1       1.986  13.536  -1.601  1.00  0.00    -0.285 OA
HETATM   14  C5  UNL     1       3.193  14.763  -3.012  1.00  0.00     0.027 A 
HETATM   15  C6  UNL     1       1.930  15.050  -3.528  1.00  0.00     0.016 A 
HETATM   16  C10 UNL     1       4.303  15.179  -3.695  1.00  0.00    -0.022 A 
HETATM   17  C7  UNL     1       1.774  15.746  -4.713  1.00  0.00     0.001 A 
HETATM   18  C8  UNL     1       2.914  16.151  -5.376  1.00  0.00     0.001 A 
HETATM   19  C9  UNL     1       4.187  15.874  -4.879  1.00  0.00     0.012 A 
HETATM   20  C11 UNL     1       5.639  14.969  -3.311  1.00  0.00     0.013 C 
ENDBRANCH   1   2
BRANCH   1  21
HETATM   21  C16 UNL     1       8.670  13.514  -0.474  1.00  0.00     0.135 C 
BRANCH  21  22
HETATM   22  N2  UNL     1       9.791  14.122  -1.029  1.00  0.00    -0.294 N 
ATOM     23  H2  UNL     1       9.834  14.515  -1.969  1.00  0.00     0.183 HD
BRANCH  22  24
HETATM   24  N3  UNL     1      10.829  14.119  -0.135  1.00  0.00    -0.030 NA
BRANCH  24  25
HETATM   25  N4  UNL     1      10.911  12.941   0.615  1.00  0.00    -0.329 N 
ATOM     26  H42 UNL     1      11.737  12.696   1.162  1.00  0.00     0.174 HD
ATOM     27  H41 UNL     1      10.071  12.365   0.556  1.00  0.00     0.174 HD
ENDBRANCH  24  25
ENDBRANCH  22  24
ENDBRANCH  21  22
ENDBRANCH   1  21
BRANCH   1  28
HETATM   28  N5  UNL     1       8.095  15.683   0.480  1.00  0.00    -0.358 N 
ATOM     29  H5  UNL     1       8.422  15.655   1.445  1.00  0.00     0.165 HD
BRANCH  28  30
HETATM   30  C17 UNL     1       8.233  16.953  -0.155  1.00  0.00     0.029 C 
BRANCH  30  31
HETATM   31  C18 UNL     1       7.166  17.939   0.072  1.00  0.00     0.094 C 
BRANCH  31  32
HETATM   32  C19 UNL     1       6.208  18.192  -1.001  1.00  0.00    -0.053 A 
HETATM   33  C20 UNL     1       4.921  17.704  -0.926  1.00  0.00     0.007 A 
HETATM   34  C21 UNL     1       3.945  17.959  -1.860  1.00  0.00     0.001 A 
HETATM   35  C22 UNL     1       4.240  18.747  -2.949  1.00  0.00     0.000 A 
HETATM   36  C23 UNL     1       5.515  19.255  -3.061  1.00  0.00     0.001 A 
HETATM   37  C24 UNL     1       6.479  18.994  -2.124  1.00  0.00     0.007 A 
ENDBRANCH  31  32
ENDBRANCH  30  31
BRANCH  30  38
HETATM   38  C25 UNL     1       9.607  17.492  -0.097  1.00  0.00     0.255 C 
BRANCH  38  39
HETATM   39  O2  UNL     1      10.413  16.867   0.875  1.00  0.00    -0.380 OA
ATOM     40  H2  UNL     1      11.322  17.138   0.843  1.00  0.00     0.211 HD
ENDBRANCH  38  39
BRANCH  38  41
HETATM   41  C26 UNL     1       9.703  18.950   0.207  1.00  0.00     0.251 C 
HETATM   42  O3  UNL     1       9.803  19.359   1.385  1.00  0.00    -0.270 OA
HETATM   43  N6  UNL     1       9.686  19.930  -0.822  1.00  0.00    -0.363 N 
HETATM   44  C27 UNL     1       9.779  21.347  -0.542  1.00  0.00     0.149 C 
ATOM     45  H6  UNL     1       9.606  19.624  -1.792  1.00  0.00     0.162 HD
ENDBRANCH  38  41
ENDBRANCH  30  38
ENDBRANCH  28  30
ENDBRANCH   1  28
TORSDOF 12
ENDMDL
MODEL 4
REMARK VINA RESULT: -9.750923521      2.544      7.391
REMARK  12 active torsions:
REMARK  status: ('A' for Active; 'I' for Inactive)
REMARK    1  A    between atoms: C14_17  and  C15_18 
REMARK    2  A    between atoms: C15_18  and  C16_19 
REMARK    3  A    between atoms: C15_18  and  N5_26 
REMARK    4  A    between atoms: C16_19  and  N2_20 
REMARK    5  A    between atoms: N2_20  and  N3_22 
REMARK    6  A    between atoms: N3_22  and  N4_23 
REMARK    7  A    between atoms: N5_26  and  C17_28 
REMARK    8  A    between atoms: C17_28  and  C18_29 
REMARK    9  A    between atoms: C17_28  and  C25_36 
REMARK   10  A    between atoms: C18_29  and  C19_30 
REMARK   11  A    between atoms: C25_36  and  O2_37 
REMARK   12  A    between atoms: C25_36  and  C26_39 
REMARK       I    between atoms: C26_39  and  N6_41 
ROOT
HETATM    1  C15 UNL     1       6.539  15.653  -1.061  1.00  0.00     0.064 C 
ENDROOT
BRANCH   1   2
HETATM    2  C14 UNL     1       5.797  16.360  -1.856  1.00  0.00     0.057 A 
HETATM    3  C13 UNL     1       4.978  15.825  -2.819  1.00  0.00     0.011 A 
HETATM    4  C3  UNL     1       4.379  16.508  -3.844  1.00  0.00     0.095 A 
HETATM    5  C12 UNL     1       4.623  14.506  -2.482  1.00  0.00     0.016 C 
HETATM    6  N1  UNL     1       4.583  17.819  -3.940  1.00  0.00    -0.350 N 
HETATM    7  C4  UNL     1       3.554  16.048  -4.879  1.00  0.00     0.210 C 
HETATM    8  C2  UNL     1       5.354  18.402  -3.043  1.00  0.00     0.074 A 
ATOM      9  H1  UNL     1       4.155  18.360  -4.691  1.00  0.00     0.166 HD
HETATM   10  C1  UNL     1       5.523  19.730  -3.185  1.00  0.00     0.047 C 
HETATM   11  C28 UNL     1       5.979  17.717  -1.987  1.00  0.00     0.211 A 
HETATM   12  O4  UNL     1       6.655  18.470  -1.266  1.00  0.00    -0.285 OA
HETATM   13  O1  UNL     1       2.910  16.885  -5.520  1.00  0.00    -0.285 OA
HETATM   14  C5  UNL     1       3.394  14.730  -5.254  1.00  0.00     0.027 A 
HETATM   15  C6  UNL     1       2.834  14.652  -6.528  1.00  0.00     0.016 A 
HETATM   16  C10 UNL     1       3.692  13.574  -4.584  1.00  0.00    -0.022 A 
HETATM   17  C7  UNL     1       2.575  13.435  -7.131  1.00  0.00     0.001 A 
HETATM   18  C8  UNL     1       2.888  12.289  -6.428  1.00  0.00     0.001 A 
HETATM   19  C9  UNL     1       3.448  12.343  -5.153  1.00  0.00     0.012 A 
HETATM   20  C11 UNL     1       4.256  13.482  -3.299  1.00  0.00     0.013 C 
ENDBRANCH   1   2
BRANCH   1  21
HETATM   21  C16 UNL     1       7.830  15.086  -1.600  1.00  0.00     0.135 C 
BRANCH  21  22
HETATM   22  N2  UNL     1       8.951  15.901  -1.487  1.00  0.00    -0.294 N 
ATOM     23  H2  UNL     1       9.609  16.093  -2.242  1.00  0.00     0.183 HD
BRANCH  22  24
HETATM   24  N3  UNL     1       9.047  16.408  -0.218  1.00  0.00    -0.030 NA
BRANCH  24  25
HETATM   25  N4  UNL     1       9.294  17.786  -0.189  1.00  0.00    -0.329 N 
ATOM     26  H42 UNL     1       9.251  18.368  -1.026  1.00  0.00     0.174 HD
ATOM     27  H41 UNL     1       9.518  18.136   0.742  1.00  0.00     0.174 HD
ENDBRANCH  24  25
ENDBRANCH  22  24
ENDBRANCH  21  22
ENDBRANCH   1  21
BRANCH   1  28
HETATM   28  N5  UNL     1       6.248  15.163   0.255  1.00  0.00    -0.358 N 
ATOM     29  H5  UNL     1       5.844  15.856   0.884  1.00  0.00     0.165 HD
BRANCH  28  30
HETATM   30  C17 UNL     1       6.429  13.871   0.834  1.00  0.00     0.029 C 
BRANCH  30  31
HETATM   31  C18 UNL     1       7.689  13.626   1.552  1.00  0.00     0.094 C 
BRANCH  31  32
HETATM   32  C19 UNL     1       8.640  12.672   0.988  1.00  0.00    -0.053 A 
HETATM   33  C20 UNL     1       9.906  13.075   0.619  1.00  0.00     0.007 A 
HETATM   34  C21 UNL     1      10.878  12.224   0.149  1.00  0.00     0.001 A 
HETATM   35  C22 UNL     1      10.601  10.881   0.027  1.00  0.00     0.000 A 
HETATM   36  C23 UNL     1       9.347  10.438   0.386  1.00  0.00     0.001 A 
HETATM   37  C24 UNL     1       8.386  11.295   0.853  1.00  0.00     0.007 A 
ENDBRANCH  31  32
ENDBRANCH  30  31
BRANCH  30  38
HETATM   38  C25 UNL     1       5.216  13.351   1.498  1.00  0.00     0.255 C 
BRANCH  38  39
HETATM   39  O2  UNL     1       5.107  11.947   1.442  1.00  0.00    -0.380 OA
ATOM     40  H2  UNL     1       4.230  11.630   1.621  1.00  0.00     0.211 HD
ENDBRANCH  38  39
BRANCH  38  41
HETATM   41  C26 UNL     1       3.925  13.857   0.945  1.00  0.00     0.251 C 
HETATM   42  O3  UNL     1       3.582  15.051   1.095  1.00  0.00    -0.270 OA
HETATM   43  N6  UNL     1       3.037  13.010   0.229  1.00  0.00    -0.363 N 
HETATM   44  C27 UNL     1       1.783  13.487  -0.313  1.00  0.00     0.149 C 
ATOM     45  H6  UNL     1       3.292  12.032   0.091  1.00  0.00     0.162 HD
ENDBRANCH  38  41
ENDBRANCH  30  38
ENDBRANCH  28  30
ENDBRANCH   1  28
TORSDOF 12
ENDMDL
MODEL 5
REMARK VINA RESULT: -9.691824818      2.618      5.849
REMARK  12 active torsions:
REMARK  status: ('A' for Active; 'I' for Inactive)
REMARK    1  A    between atoms: C14_17  and  C15_18 
REMARK    2  A    between atoms: C15_18  and  C16_19 
REMARK    3  A    between atoms: C15_18  and  N5_26 
REMARK    4  A    between atoms: C16_19  and  N2_20 
REMARK    5  A    between atoms: N2_20  and  N3_22 
REMARK    6  A    between atoms: N3_22  and  N4_23 
REMARK    7  A    between atoms: N5_26  and  C17_28 
REMARK    8  A    between atoms: C17_28  and  C18_29 
REMARK    9  A    between atoms: C17_28  and  C25_36 
REMARK   10  A    between atoms: C18_29  and  C19_30 
REMARK   11  A    between atoms: C25_36  and  O2_37 
REMARK   12  A    between atoms: C25_36  and  C26_39 
REMARK       I    between atoms: C26_39  and  N6_41 
ROOT
HETATM    1  C15 UNL     1       7.365  13.040   0.907  1.00  0.00     0.064 C 
ENDROOT
BRANCH   1   2
HETATM    2  C14 UNL     1       6.163  13.531   0.898  1.00  0.00     0.057 A 
HETATM    3  C13 UNL     1       5.680  14.358  -0.084  1.00  0.00     0.011 A 
HETATM    4  C3  UNL     1       4.534  15.105  -0.023  1.00  0.00     0.095 A 
HETATM    5  C12 UNL     1       6.388  14.161  -1.283  1.00  0.00     0.016 C 
HETATM    6  N1  UNL     1       3.790  15.039   1.078  1.00  0.00    -0.350 N 
HETATM    7  C4  UNL     1       3.978  15.990  -0.956  1.00  0.00     0.210 C 
HETATM    8  C2  UNL     1       4.190  14.256   2.060  1.00  0.00     0.074 A 
ATOM      9  H1  UNL     1       2.930  15.582   1.160  1.00  0.00     0.166 HD
HETATM   10  C1  UNL     1       3.397  14.223   3.148  1.00  0.00     0.047 C 
HETATM   11  C28 UNL     1       5.364  13.486   2.016  1.00  0.00     0.211 A 
HETATM   12  O4  UNL     1       5.538  12.825   3.054  1.00  0.00    -0.285 OA
HETATM   13  O1  UNL     1       2.802  16.333  -0.798  1.00  0.00    -0.285 OA
HETATM   14  C5  UNL     1       4.631  16.520  -2.049  1.00  0.00     0.027 A 
HETATM   15  C6  UNL     1       3.946  17.634  -2.531  1.00  0.00     0.016 A 
HETATM   16  C10 UNL     1       5.781  16.122  -2.676  1.00  0.00    -0.022 A 
HETATM   17  C7  UNL     1       4.402  18.347  -3.626  1.00  0.00     0.001 A 
HETATM   18  C8  UNL     1       5.565  17.918  -4.233  1.00  0.00     0.001 A 
HETATM   19  C9  UNL     1       6.266  16.807  -3.769  1.00  0.00     0.012 A 
HETATM   20  C11 UNL     1       6.584  15.025  -2.315  1.00  0.00     0.013 C 
ENDBRANCH   1   2
BRANCH   1  21
HETATM   21  C16 UNL     1       7.527  11.543   0.800  1.00  0.00     0.135 C 
BRANCH  21  22
HETATM   22  N2  UNL     1       8.541  10.980   1.569  1.00  0.00    -0.294 N 
ATOM     23  H2  UNL     1       8.959  11.418   2.390  1.00  0.00     0.183 HD
BRANCH  22  24
HETATM   24  N3  UNL     1       8.898   9.757   1.069  1.00  0.00    -0.030 NA
BRANCH  24  25
HETATM   25  N4  UNL     1       7.958   8.754   1.333  1.00  0.00    -0.329 N 
ATOM     26  H42 UNL     1       8.222   7.777   1.465  1.00  0.00     0.174 HD
ATOM     27  H41 UNL     1       6.999   9.100   1.377  1.00  0.00     0.174 HD
ENDBRANCH  24  25
ENDBRANCH  22  24
ENDBRANCH  21  22
ENDBRANCH   1  21
BRANCH   1  28
HETATM   28  N5  UNL     1       8.611  13.695   1.173  1.00  0.00    -0.358 N 
ATOM     29  H5  UNL     1       9.115  13.333   1.982  1.00  0.00     0.165 HD
BRANCH  28  30
HETATM   30  C17 UNL     1       9.267  14.768   0.499  1.00  0.00     0.029 C 
BRANCH  30  31
HETATM   31  C18 UNL     1       9.378  16.046   1.219  1.00  0.00     0.094 C 
BRANCH  31  32
HETATM   32  C19 UNL     1       9.192  17.287   0.472  1.00  0.00    -0.053 A 
HETATM   33  C20 UNL     1       8.051  17.495  -0.274  1.00  0.00     0.007 A 
HETATM   34  C21 UNL     1       7.771  18.662  -0.945  1.00  0.00     0.001 A 
HETATM   35  C22 UNL     1       8.667  19.706  -0.889  1.00  0.00     0.000 A 
HETATM   36  C23 UNL     1       9.820  19.538  -0.154  1.00  0.00     0.001 A 
HETATM   37  C24 UNL     1      10.087  18.371   0.511  1.00  0.00     0.007 A 
ENDBRANCH  31  32
ENDBRANCH  30  31
BRANCH  30  38
HETATM   38  C25 UNL     1      10.483  14.350  -0.227  1.00  0.00     0.255 C 
BRANCH  38  39
HETATM   39  O2  UNL     1      10.423  14.606  -1.612  1.00  0.00    -0.380 OA
ATOM     40  H2  UNL     1       9.810  15.294  -1.842  1.00  0.00     0.211 HD
ENDBRANCH  38  39
BRANCH  38  41
HETATM   41  C26 UNL     1      10.816  12.899  -0.121  1.00  0.00     0.251 C 
HETATM   42  O3  UNL     1      11.121  12.385   0.978  1.00  0.00    -0.270 OA
HETATM   43  N6  UNL     1      10.800  12.044  -1.257  1.00  0.00    -0.363 N 
HETATM   44  C27 UNL     1      11.120  10.636  -1.168  1.00  0.00     0.149 C 
ATOM     45  H6  UNL     1      10.554  12.437  -2.166  1.00  0.00     0.162 HD
ENDBRANCH  38  41
ENDBRANCH  30  38
ENDBRANCH  28  30
ENDBRANCH   1  28
TORSDOF 12
ENDMDL
