MODEL 1
REMARK VINA RESULT: -9.182677866      0.000      0.000
REMARK  15 active torsions:
REMARK  status: ('A' for Active; 'I' for Inactive)
REMARK    1  A    between atoms: N2_4  and  C3_5 
REMARK    2  A    between atoms: N2_4  and  C18_26 
REMARK    3  A    between atoms: C3_5  and  C4_6 
REMARK    4  A    between atoms: C5_7  and  C6_8 
REMARK    5  A    between atoms: C6_8  and  C7_9 
REMARK    6  A    between atoms: C9_11  and  C10_12 
REMARK    7  A    between atoms: C11_13  and  C12_14 
REMARK    8  A    between atoms: C12_14  and  O1_17 
REMARK    9  A    between atoms: C15_19  and  O2_20 
REMARK   10  A    between atoms: C17_23  and  O3_24 
REMARK   11  A    between atoms: C18_26  and  C19_27 
REMARK   12  A    between atoms: C19_27  and  N3_28 
REMARK       I    between atoms: N3_28  and  C20_30 
REMARK   13  A    between atoms: C20_30  and  C21_32 
REMARK   14  A    between atoms: C21_32  and  N4_33 
REMARK   15  A    between atoms: C24_36  and  C25_37 
ROOT
HETATM    1  C1  UNL     1       8.694  18.287  -0.239  1.00  0.00     0.135 C 
HETATM    2  N1  UNL     1       7.911  18.086  -1.423  1.00  0.00    -0.184 NA
HETATM    3  C2  UNL     1       6.473  17.990  -1.106  1.00  0.00     0.373 C 
HETATM    4  N2  UNL     1       6.383  16.846  -1.939  1.00  0.00     0.043 N 
HETATM    5  N7  UNL     1       7.776  16.718  -1.803  1.00  0.00     0.050 NA
ENDROOT
BRANCH   4   6
HETATM    6  C3  UNL     1       6.023  17.314  -3.303  1.00  0.00     0.290 C 
BRANCH   6   7
HETATM    7  C4  UNL     1       4.969  16.497  -3.927  1.00  0.00    -0.001 C 
HETATM    8  C5  UNL     1       4.133  17.050  -4.781  1.00  0.00    -0.024 C 
BRANCH   8   9
HETATM    9  C6  UNL     1       3.060  16.276  -5.432  1.00  0.00     0.068 C 
BRANCH   9  10
HETATM   10  C7  UNL     1       2.998  14.913  -4.914  1.00  0.00    -0.020 A 
HETATM   11  C8  UNL     1       2.763  14.769  -3.549  1.00  0.00     0.033 A 
HETATM   12  C9  UNL     1       2.687  13.524  -2.963  1.00  0.00     0.051 A 
HETATM   13  C15 UNL     1       2.855  12.435  -3.789  1.00  0.00     0.087 A 
HETATM   14  C16 UNL     1       3.088  12.559  -5.143  1.00  0.00     0.075 A 
HETATM   15  C17 UNL     1       3.162  13.805  -5.719  1.00  0.00     0.075 A 
BRANCH  12  16
HETATM   16  C10 UNL     1       2.439  13.406  -1.542  1.00  0.00    -0.061 C 
HETATM   17  C11 UNL     1       2.252  13.302  -0.355  1.00  0.00    -0.064 C 
BRANCH  17  18
HETATM   18  C12 UNL     1       2.039  13.152   1.099  1.00  0.00     0.114 C 
HETATM   19  C13 UNL     1       2.315  14.438   1.834  1.00  0.00     0.060 C 
HETATM   20  C14 UNL     1       0.616  12.742   1.313  1.00  0.00     0.060 C 
BRANCH  18  21
HETATM   21  O1  UNL     1       2.928  12.187   1.560  1.00  0.00    -0.378 OA
ATOM     22  H1  UNL     1       3.734  12.629   1.803  1.00  0.00     0.211 HD
ENDBRANCH  18  21
ENDBRANCH  17  18
ENDBRANCH  12  16
BRANCH  13  23
HETATM   23  O2  UNL     1       2.783  11.170  -3.224  1.00  0.00    -0.359 OA
ATOM     24  H2  UNL     1       1.924  10.827  -3.004  1.00  0.00     0.217 HD
ENDBRANCH  13  23
BRANCH  15  25
HETATM   25  O3  UNL     1       3.396  13.981  -7.077  1.00  0.00    -0.360 OA
ATOM     26  H3  UNL     1       4.290  14.003  -7.395  1.00  0.00     0.217 HD
ENDBRANCH  15  25
ENDBRANCH   9  10
ENDBRANCH   8   9
ENDBRANCH   6   7
ENDBRANCH   4   6
BRANCH   4  27
HETATM   27  C18 UNL     1       5.592  15.732  -1.644  1.00  0.00     0.283 C 
BRANCH  27  28
HETATM   28  C19 UNL     1       5.466  15.167  -0.309  1.00  0.00     0.152 C 
BRANCH  28  29
HETATM   29  N3  UNL     1       6.657  14.760   0.391  1.00  0.00    -0.358 N 
HETATM   30  C20 UNL     1       6.710  13.593   1.206  1.00  0.00     0.235 C 
HETATM   31  O4  UNL     1       5.691  12.872   1.338  1.00  0.00    -0.272 OA
ATOM     32  H3  UNL     1       7.498  15.331   0.300  1.00  0.00     0.162 HD
BRANCH  30  33
HETATM   33  C21 UNL     1       7.961  13.220   1.902  1.00  0.00     0.230 C 
BRANCH  33  34
HETATM   34  N4  UNL     1       8.846  12.422   1.093  1.00  0.00    -0.358 N 
HETATM   35  C22 UNL     1       9.787  12.992   0.323  1.00  0.00     0.092 A 
HETATM   36  C23 UNL     1      10.644  12.238  -0.460  1.00  0.00     0.032 A 
HETATM   37  C24 UNL     1      10.557  10.858  -0.473  1.00  0.00     0.007 A 
HETATM   38  C26 UNL     1       9.591  10.288   0.319  1.00  0.00     0.032 A 
HETATM   39  C27 UNL     1       8.761  11.084   1.081  1.00  0.00     0.092 A 
BRANCH  37  40
HETATM   40  C25 UNL     1      11.463  10.060  -1.302  1.00  0.00     0.120 C 
HETATM   41  N5  UNL     1      11.696  10.337  -2.529  1.00  0.00    -0.387 N 
ATOM     42  H52 UNL     1      11.230  11.144  -2.942  1.00  0.00     0.157 HD
ATOM     43  H51 UNL     1      12.328   9.781  -3.106  1.00  0.00     0.157 HD
HETATM   44  N6  UNL     1      12.112   8.937  -0.725  1.00  0.00    -0.082 NA
ENDBRANCH  37  40
ENDBRANCH  33  34
ENDBRANCH  30  33
ENDBRANCH  28  29
ENDBRANCH  27  28
ENDBRANCH   4  27
TORSDOF 15
ENDMDL
MODEL 2
REMARK VINA RESULT: -9.151669544      3.060      7.130
REMARK  15 active torsions:
REMARK  status: ('A' for Active; 'I' for Inactive)
REMARK    1  A    between atoms: N2_4  and  C3_5 
REMARK    2  A    between atoms: N2_4  and  C18_26 
REMARK    3  A    between atoms: C3_5  and  C4_6 
REMARK    4  A    between atoms: C5_7  and  C6_8 
REMARK    5  A    between atoms: C6_8  and  C7_9 
REMARK    6  A    between atoms: C9_11  and  C10_12 
REMARK    7  A    between atoms: C11_13  and  C12_14 
REMARK    8  A    between atoms: C12_14  and  O1_17 
REMARK    9  A    between atoms: C15_19  and  O2_20 
REMARK   10  A    between atoms: C17_23  and  O3_24 
REMARK   11  A    between atoms: C18_26  and  C19_27 
REMARK   12  A    between atoms: C19_27  and  N3_28 
REMARK       I    between atoms: N3_28  and  C20_30 
REMARK   13  A    between atoms: C20_30  and  C21_32 
REMARK   14  A    between atoms: C21_32  and  N4_33 
REMARK   15  A    between atoms: C24_36  and  C25_37 
ROOT
HETATM    1  C1  UNL     1      10.468  10.382  -0.321  1.00  0.00     0.135 C 
HETATM    2  N1  UNL     1      10.323  11.797  -0.499  1.00  0.00    -0.184 NA
HETATM    3  C2  UNL     1      10.542  12.524   0.766  1.00  0.00     0.373 C 
HETATM    4  N2  UNL     1       9.370  13.281   0.515  1.00  0.00     0.043 N 
HETATM    5  N7  UNL     1       8.981  12.263  -0.373  1.00  0.00     0.050 NA
ENDROOT
BRANCH   4   6
HETATM    6  C3  UNL     1       9.779  14.503  -0.225  1.00  0.00     0.290 C 
BRANCH   6   7
HETATM    7  C4  UNL     1       8.940  15.671   0.095  1.00  0.00    -0.001 C 
HETATM    8  C5  UNL     1       8.789  16.631  -0.795  1.00  0.00    -0.024 C 
BRANCH   8   9
HETATM    9  C6  UNL     1       7.962  17.820  -0.523  1.00  0.00     0.068 C 
BRANCH   9  10
HETATM   10  C7  UNL     1       6.878  17.947  -1.492  1.00  0.00    -0.020 A 
HETATM   11  C8  UNL     1       6.271  16.767  -1.915  1.00  0.00     0.033 A 
HETATM   12  C9  UNL     1       5.239  16.779  -2.827  1.00  0.00     0.051 A 
HETATM   13  C15 UNL     1       4.839  18.010  -3.298  1.00  0.00     0.087 A 
HETATM   14  C16 UNL     1       5.428  19.189  -2.890  1.00  0.00     0.075 A 
HETATM   15  C17 UNL     1       6.457  19.167  -1.979  1.00  0.00     0.075 A 
BRANCH  12  16
HETATM   16  C10 UNL     1       4.627  15.537  -3.246  1.00  0.00    -0.061 C 
HETATM   17  C11 UNL     1       4.112  14.510  -3.613  1.00  0.00    -0.064 C 
BRANCH  17  18
HETATM   18  C12 UNL     1       3.462  13.267  -4.075  1.00  0.00     0.114 C 
HETATM   19  C13 UNL     1       1.980  13.281  -3.799  1.00  0.00     0.060 C 
HETATM   20  C14 UNL     1       3.701  13.143  -5.547  1.00  0.00     0.060 C 
BRANCH  18  21
HETATM   21  O1  UNL     1       4.025  12.208  -3.370  1.00  0.00    -0.378 OA
ATOM     22  H1  UNL     1       4.920  12.102  -3.674  1.00  0.00     0.211 HD
ENDBRANCH  18  21
ENDBRANCH  17  18
ENDBRANCH  12  16
BRANCH  13  23
HETATM   23  O2  UNL     1       3.801  18.051  -4.218  1.00  0.00    -0.359 OA
ATOM     24  H2  UNL     1       3.495  18.902  -4.509  1.00  0.00     0.217 HD
ENDBRANCH  13  23
BRANCH  15  25
HETATM   25  O3  UNL     1       7.081  20.327  -1.539  1.00  0.00    -0.360 OA
ATOM     26  H3  UNL     1       6.550  21.071  -1.282  1.00  0.00     0.217 HD
ENDBRANCH  15  25
ENDBRANCH   9  10
ENDBRANCH   8   9
ENDBRANCH   6   7
ENDBRANCH   4   6
BRANCH   4  27
HETATM   27  C18 UNL     1       8.466  13.663   1.510  1.00  0.00     0.283 C 
BRANCH  27  28
HETATM   28  C19 UNL     1       7.264  12.910   1.835  1.00  0.00     0.152 C 
BRANCH  28  29
HETATM   29  N3  UNL     1       6.017  13.617   1.986  1.00  0.00    -0.358 N 
HETATM   30  C20 UNL     1       5.209  13.996   0.876  1.00  0.00     0.235 C 
HETATM   31  O4  UNL     1       5.573  13.716  -0.293  1.00  0.00    -0.272 OA
ATOM     32  H3  UNL     1       5.701  13.856   2.926  1.00  0.00     0.162 HD
BRANCH  30  33
HETATM   33  C21 UNL     1       3.936  14.719   1.088  1.00  0.00     0.230 C 
BRANCH  33  34
HETATM   34  N4  UNL     1       3.134  14.162   2.147  1.00  0.00    -0.358 N 
HETATM   35  C22 UNL     1       3.089  14.737   3.360  1.00  0.00     0.092 A 
HETATM   36  C23 UNL     1       2.324  14.213   4.388  1.00  0.00     0.032 A 
HETATM   37  C24 UNL     1       1.573  13.067   4.195  1.00  0.00     0.007 A 
HETATM   38  C26 UNL     1       1.628  12.491   2.950  1.00  0.00     0.032 A 
HETATM   39  C27 UNL     1       2.407  13.052   1.959  1.00  0.00     0.092 A 
BRANCH  37  40
HETATM   40  C25 UNL     1       0.764  12.513   5.281  1.00  0.00     0.120 C 
HETATM   41  N5  UNL     1       1.183  12.451   6.489  1.00  0.00    -0.387 N 
ATOM     42  H52 UNL     1       2.117  12.803   6.698  1.00  0.00     0.157 HD
ATOM     43  H51 UNL     1       0.619  12.065   7.246  1.00  0.00     0.157 HD
HETATM   44  N6  UNL     1      -0.537  12.024   4.990  1.00  0.00    -0.082 NA
ENDBRANCH  37  40
ENDBRANCH  33  34
ENDBRANCH  30  33
ENDBRANCH  28  29
ENDBRANCH  27  28
ENDBRANCH   4  27
TORSDOF 15
ENDMDL
MODEL 3
REMARK VINA RESULT: -9.054603247      2.651      7.137
REMARK  15 active torsions:
REMARK  status: ('A' for Active; 'I' for Inactive)
REMARK    1  A    between atoms: N2_4  and  C3_5 
REMARK    2  A    between atoms: N2_4  and  C18_26 
REMARK    3  A    between atoms: C3_5  and  C4_6 
REMARK    4  A    between atoms: C5_7  and  C6_8 
REMARK    5  A    between atoms: C6_8  and  C7_9 
REMARK    6  A    between atoms: C9_11  and  C10_12 
REMARK    7  A    between atoms: C11_13  and  C12_14 
REMARK    8  A    between atoms: C12_14  and  O1_17 
REMARK    9  A    between atoms: C15_19  and  O2_20 
REMARK   10  A    between atoms: C17_23  and  O3_24 
REMARK   11  A    between atoms: C18_26  and  C19_27 
REMARK   12  A    between atoms: C19_27  and  N3_28 
REMARK       I    between atoms: N3_28  and  C20_30 
REMARK   13  A    between atoms: C20_30  and  C21_32 
REMARK   14  A    between atoms: C21_32  and  N4_33 
REMARK   15  A    between atoms: C24_36  and  C25_37 
ROOT
HETATM    1  C1  UNL     1      10.557  10.333  -0.307  1.00  0.00     0.135 C 
HETATM    2  N1  UNL     1      10.387  11.746  -0.478  1.00  0.00    -0.184 NA
HETATM    3  C2  UNL     1      10.560  12.467   0.798  1.00  0.00     0.373 C 
HETATM    4  N2  UNL     1       9.379  13.202   0.523  1.00  0.00     0.043 N 
HETATM    5  N7  UNL     1       9.033  12.183  -0.381  1.00  0.00     0.050 NA
ENDROOT
BRANCH   4   6
HETATM    6  C3  UNL     1       9.780  14.438  -0.198  1.00  0.00     0.290 C 
BRANCH   6   7
HETATM    7  C4  UNL     1       8.914  15.588   0.115  1.00  0.00    -0.001 C 
HETATM    8  C5  UNL     1       8.790  16.569  -0.755  1.00  0.00    -0.024 C 
BRANCH   8   9
HETATM    9  C6  UNL     1       7.937  17.742  -0.489  1.00  0.00     0.068 C 
BRANCH   9  10
HETATM   10  C7  UNL     1       6.932  17.915  -1.532  1.00  0.00    -0.020 A 
HETATM   11  C8  UNL     1       6.311  16.761  -2.005  1.00  0.00     0.033 A 
HETATM   12  C9  UNL     1       5.348  16.818  -2.989  1.00  0.00     0.051 A 
HETATM   13  C15 UNL     1       5.031  18.065  -3.479  1.00  0.00     0.087 A 
HETATM   14  C16 UNL     1       5.634  19.219  -3.022  1.00  0.00     0.075 A 
HETATM   15  C17 UNL     1       6.594  19.152  -2.040  1.00  0.00     0.075 A 
BRANCH  12  16
HETATM   16  C10 UNL     1       4.720  15.603  -3.459  1.00  0.00    -0.061 C 
HETATM   17  C11 UNL     1       4.189  14.586  -3.832  1.00  0.00    -0.064 C 
BRANCH  17  18
HETATM   18  C12 UNL     1       3.547  13.328  -4.266  1.00  0.00     0.114 C 
HETATM   19  C13 UNL     1       2.072  13.325  -3.958  1.00  0.00     0.060 C 
HETATM   20  C14 UNL     1       3.757  13.192  -5.742  1.00  0.00     0.060 C 
BRANCH  18  21
HETATM   21  O1  UNL     1       4.141  12.285  -3.563  1.00  0.00    -0.378 OA
ATOM     22  H1  UNL     1       4.072  11.501  -4.096  1.00  0.00     0.211 HD
ENDBRANCH  18  21
ENDBRANCH  17  18
ENDBRANCH  12  16
BRANCH  13  23
HETATM   23  O2  UNL     1       4.064  18.151  -4.470  1.00  0.00    -0.359 OA
ATOM     24  H2  UNL     1       3.899  19.001  -4.862  1.00  0.00     0.217 HD
ENDBRANCH  13  23
BRANCH  15  25
HETATM   25  O3  UNL     1       7.230  20.285  -1.548  1.00  0.00    -0.360 OA
ATOM     26  H3  UNL     1       6.746  20.886  -0.994  1.00  0.00     0.217 HD
ENDBRANCH  15  25
ENDBRANCH   9  10
ENDBRANCH   8   9
ENDBRANCH   6   7
ENDBRANCH   4   6
BRANCH   4  27
HETATM   27  C18 UNL     1       8.443  13.558   1.498  1.00  0.00     0.283 C 
BRANCH  27  28
HETATM   28  C19 UNL     1       7.123  12.953   1.603  1.00  0.00     0.152 C 
BRANCH  28  29
HETATM   29  N3  UNL     1       5.996  13.790   1.928  1.00  0.00    -0.358 N 
HETATM   30  C20 UNL     1       4.652  13.319   1.890  1.00  0.00     0.235 C 
HETATM   31  O4  UNL     1       4.411  12.131   1.563  1.00  0.00    -0.272 OA
ATOM     32  H3  UNL     1       6.168  14.759   2.195  1.00  0.00     0.162 HD
BRANCH  30  33
HETATM   33  C21 UNL     1       3.532  14.221   2.236  1.00  0.00     0.230 C 
BRANCH  33  34
HETATM   34  N4  UNL     1       2.901  14.811   1.083  1.00  0.00    -0.358 N 
HETATM   35  C22 UNL     1       1.699  14.389   0.657  1.00  0.00     0.092 A 
HETATM   36  C23 UNL     1       1.080  14.947  -0.449  1.00  0.00     0.032 A 
HETATM   37  C24 UNL     1       1.687  15.968  -1.157  1.00  0.00     0.007 A 
HETATM   38  C26 UNL     1       2.915  16.389  -0.710  1.00  0.00     0.032 A 
HETATM   39  C27 UNL     1       3.490  15.801   0.397  1.00  0.00     0.092 A 
BRANCH  37  40
HETATM   40  C25 UNL     1       1.033  16.556  -2.327  1.00  0.00     0.120 C 
HETATM   41  N5  UNL     1       1.526  17.551  -2.963  1.00  0.00    -0.387 N 
ATOM     42  H52 UNL     1       2.409  17.947  -2.638  1.00  0.00     0.157 HD
ATOM     43  H51 UNL     1       1.071  17.962  -3.778  1.00  0.00     0.157 HD
HETATM   44  N6  UNL     1      -0.195  16.005  -2.778  1.00  0.00    -0.082 NA
ENDBRANCH  37  40
ENDBRANCH  33  34
ENDBRANCH  30  33
ENDBRANCH  28  29
ENDBRANCH  27  28
ENDBRANCH   4  27
TORSDOF 15
ENDMDL
MODEL 4
REMARK VINA RESULT: -8.850760216      2.890      6.949
REMARK  15 active torsions:
REMARK  status: ('A' for Active; 'I' for Inactive)
REMARK    1  A    between atoms: N2_4  and  C3_5 
REMARK    2  A    between atoms: N2_4  and  C18_26 
REMARK    3  A    between atoms: C3_5  and  C4_6 
REMARK    4  A    between atoms: C5_7  and  C6_8 
REMARK    5  A    between atoms: C6_8  and  C7_9 
REMARK    6  A    between atoms: C9_11  and  C10_12 
REMARK    7  A    between atoms: C11_13  and  C12_14 
REMARK    8  A    between atoms: C12_14  and  O1_17 
REMARK    9  A    between atoms: C15_19  and  O2_20 
REMARK   10  A    between atoms: C17_23  and  O3_24 
REMARK   11  A    between atoms: C18_26  and  C19_27 
REMARK   12  A    between atoms: C19_27  and  N3_28 
REMARK       I    between atoms: N3_28  and  C20_30 
REMARK   13  A    between atoms: C20_30  and  C21_32 
REMARK   14  A    between atoms: C21_32  and  N4_33 
REMARK   15  A    between atoms: C24_36  and  C25_37 
ROOT
HETATM    1  C1  UNL     1      10.486  10.385  -0.322  1.00  0.00     0.135 C 
HETATM    2  N1  UNL     1      10.377  11.798  -0.540  1.00  0.00    -0.184 NA
HETATM    3  C2  UNL     1      10.646  12.555   0.699  1.00  0.00     0.373 C 
HETATM    4  N2  UNL     1       9.490  13.338   0.452  1.00  0.00     0.043 N 
HETATM    5  N7  UNL     1       9.051  12.306  -0.396  1.00  0.00     0.050 NA
ENDROOT
BRANCH   4   6
HETATM    6  C3  UNL     1       9.915  14.525  -0.334  1.00  0.00     0.290 C 
BRANCH   6   7
HETATM    7  C4  UNL     1       9.136  15.733  -0.010  1.00  0.00    -0.001 C 
HETATM    8  C5  UNL     1       8.806  16.575  -0.967  1.00  0.00    -0.024 C 
BRANCH   8   9
HETATM    9  C6  UNL     1       8.029  17.797  -0.694  1.00  0.00     0.068 C 
BRANCH   9  10
HETATM   10  C7  UNL     1       6.890  17.917  -1.599  1.00  0.00    -0.020 A 
HETATM   11  C8  UNL     1       6.288  16.731  -2.013  1.00  0.00     0.033 A 
HETATM   12  C9  UNL     1       5.207  16.736  -2.867  1.00  0.00     0.051 A 
HETATM   13  C15 UNL     1       4.752  17.965  -3.289  1.00  0.00     0.087 A 
HETATM   14  C16 UNL     1       5.335  19.150  -2.889  1.00  0.00     0.075 A 
HETATM   15  C17 UNL     1       6.414  19.135  -2.037  1.00  0.00     0.075 A 
BRANCH  12  16
HETATM   16  C10 UNL     1       4.602  15.488  -3.278  1.00  0.00    -0.061 C 
HETATM   17  C11 UNL     1       4.089  14.456  -3.637  1.00  0.00    -0.064 C 
BRANCH  17  18
HETATM   18  C12 UNL     1       3.438  13.207  -4.082  1.00  0.00     0.114 C 
HETATM   19  C13 UNL     1       1.971  13.196  -3.742  1.00  0.00     0.060 C 
HETATM   20  C14 UNL     1       3.616  13.102  -5.565  1.00  0.00     0.060 C 
BRANCH  18  21
HETATM   21  O1  UNL     1       4.049  12.151  -3.414  1.00  0.00    -0.378 OA
ATOM     22  H1  UNL     1       3.495  11.915  -2.679  1.00  0.00     0.211 HD
ENDBRANCH  18  21
ENDBRANCH  17  18
ENDBRANCH  12  16
BRANCH  13  23
HETATM   23  O2  UNL     1       3.664  17.999  -4.149  1.00  0.00    -0.359 OA
ATOM     24  H2  UNL     1       3.690  18.608  -4.879  1.00  0.00     0.217 HD
ENDBRANCH  13  23
BRANCH  15  25
HETATM   25  O3  UNL     1       7.034  20.301  -1.607  1.00  0.00    -0.360 OA
ATOM     26  H3  UNL     1       6.884  21.109  -2.083  1.00  0.00     0.217 HD
ENDBRANCH  15  25
ENDBRANCH   9  10
ENDBRANCH   8   9
ENDBRANCH   6   7
ENDBRANCH   4   6
BRANCH   4  27
HETATM   27  C18 UNL     1       8.621  13.775   1.455  1.00  0.00     0.283 C 
BRANCH  27  28
HETATM   28  C19 UNL     1       7.426  13.047   1.856  1.00  0.00     0.152 C 
BRANCH  28  29
HETATM   29  N3  UNL     1       6.148  13.706   1.777  1.00  0.00    -0.358 N 
HETATM   30  C20 UNL     1       5.516  14.011   0.537  1.00  0.00     0.235 C 
HETATM   31  O4  UNL     1       6.073  13.705  -0.545  1.00  0.00    -0.272 OA
ATOM     32  H3  UNL     1       5.677  13.965   2.644  1.00  0.00     0.162 HD
BRANCH  30  33
HETATM   33  C21 UNL     1       4.201  14.688   0.514  1.00  0.00     0.230 C 
BRANCH  33  34
HETATM   34  N4  UNL     1       3.129  13.868   1.015  1.00  0.00    -0.358 N 
HETATM   35  C22 UNL     1       2.581  14.100   2.220  1.00  0.00     0.092 A 
HETATM   36  C23 UNL     1       1.551  13.319   2.715  1.00  0.00     0.032 A 
HETATM   37  C24 UNL     1       1.047  12.264   1.977  1.00  0.00     0.007 A 
HETATM   38  C26 UNL     1       1.615  12.039   0.748  1.00  0.00     0.032 A 
HETATM   39  C27 UNL     1       2.641  12.845   0.299  1.00  0.00     0.092 A 
BRANCH  37  40
HETATM   40  C25 UNL     1      -0.042  11.439   2.501  1.00  0.00     0.120 C 
HETATM   41  N5  UNL     1      -1.134  11.939   2.941  1.00  0.00    -0.387 N 
ATOM     42  H52 UNL     1      -1.246  12.952   2.925  1.00  0.00     0.157 HD
ATOM     43  H51 UNL     1      -1.894  11.363   3.306  1.00  0.00     0.157 HD
HETATM   44  N6  UNL     1       0.114  10.027   2.523  1.00  0.00    -0.082 NA
ENDBRANCH  37  40
ENDBRANCH  33  34
ENDBRANCH  30  33
ENDBRANCH  28  29
ENDBRANCH  27  28
ENDBRANCH   4  27
TORSDOF 15
ENDMDL
MODEL 5
REMARK VINA RESULT: -8.772274722      3.026      5.169
REMARK  15 active torsions:
REMARK  status: ('A' for Active; 'I' for Inactive)
REMARK    1  A    between atoms: N2_4  and  C3_5 
REMARK    2  A    between atoms: N2_4  and  C18_26 
REMARK    3  A    between atoms: C3_5  and  C4_6 
REMARK    4  A    between atoms: C5_7  and  C6_8 
REMARK    5  A    between atoms: C6_8  and  C7_9 
REMARK    6  A    between atoms: C9_11  and  C10_12 
REMARK    7  A    between atoms: C11_13  and  C12_14 
REMARK    8  A    between atoms: C12_14  and  O1_17 
REMARK    9  A    between atoms: C15_19  and  O2_20 
REMARK   10  A    between atoms: C17_23  and  O3_24 
REMARK   11  A    between atoms: C18_26  and  C19_27 
REMARK   12  A    between atoms: C19_27  and  N3_28 
REMARK       I    between atoms: N3_28  and  C20_30 
REMARK   13  A    between atoms: C20_30  and  C21_32 
REMARK   14  A    between atoms: C21_32  and  N4_33 
REMARK   15  A    between atoms: C24_36  and  C25_37 
ROOT
HETATM    1  C1  UNL     1       5.398  19.913  -3.433  1.00  0.00     0.135 C 
HETATM    2  N1  UNL     1       4.568  18.857  -2.930  1.00  0.00    -0.184 NA
HETATM    3  C2  UNL     1       5.285  18.038  -1.934  1.00  0.00     0.373 C 
HETATM    4  N2  UNL     1       4.826  16.868  -2.591  1.00  0.00     0.043 N 
HETATM    5  N7  UNL     1       4.597  17.670  -3.722  1.00  0.00     0.050 NA
ENDROOT
BRANCH   4   6
HETATM    6  C3  UNL     1       3.543  16.472  -1.953  1.00  0.00     0.290 C 
BRANCH   6   7
HETATM    7  C4  UNL     1       3.670  15.268  -1.115  1.00  0.00    -0.001 C 
HETATM    8  C5  UNL     1       2.600  14.556  -0.825  1.00  0.00    -0.024 C 
BRANCH   8   9
HETATM    9  C6  UNL     1       2.674  13.344   0.010  1.00  0.00     0.068 C 
BRANCH   9  10
HETATM   10  C7  UNL     1       2.610  13.672   1.430  1.00  0.00    -0.020 A 
HETATM   11  C8  UNL     1       1.556  14.485   1.841  1.00  0.00     0.033 A 
HETATM   12  C9  UNL     1       1.406  14.852   3.161  1.00  0.00     0.051 A 
HETATM   13  C15 UNL     1       2.346  14.378   4.049  1.00  0.00     0.087 A 
HETATM   14  C16 UNL     1       3.395  13.571   3.661  1.00  0.00     0.075 A 
HETATM   15  C17 UNL     1       3.536  13.210   2.342  1.00  0.00     0.075 A 
BRANCH  12  16
HETATM   16  C10 UNL     1       0.301  15.697   3.558  1.00  0.00    -0.061 C 
HETATM   17  C11 UNL     1      -0.614  16.416   3.876  1.00  0.00    -0.064 C 
BRANCH  17  18
HETATM   18  C12 UNL     1      -1.717  17.317   4.267  1.00  0.00     0.114 C 
HETATM   19  C13 UNL     1      -1.343  18.764   4.078  1.00  0.00     0.060 C 
HETATM   20  C14 UNL     1      -2.903  16.985   3.415  1.00  0.00     0.060 C 
BRANCH  18  21
HETATM   21  O1  UNL     1      -1.978  17.106   5.617  1.00  0.00    -0.378 OA
ATOM     22  H1  UNL     1      -2.898  17.290   5.766  1.00  0.00     0.211 HD
ENDBRANCH  18  21
ENDBRANCH  17  18
ENDBRANCH  12  16
BRANCH  13  23
HETATM   23  O2  UNL     1       2.219  14.732   5.385  1.00  0.00    -0.359 OA
ATOM     24  H2  UNL     1       1.793  15.557   5.590  1.00  0.00     0.217 HD
ENDBRANCH  13  23
BRANCH  15  25
HETATM   25  O3  UNL     1       4.576  12.401   1.903  1.00  0.00    -0.360 OA
ATOM     26  H3  UNL     1       5.458  12.567   2.215  1.00  0.00     0.217 HD
ENDBRANCH  15  25
ENDBRANCH   9  10
ENDBRANCH   8   9
ENDBRANCH   6   7
ENDBRANCH   4   6
BRANCH   4  27
HETATM   27  C18 UNL     1       5.600  15.715  -2.751  1.00  0.00     0.283 C 
BRANCH  27  28
HETATM   28  C19 UNL     1       7.049  15.732  -2.882  1.00  0.00     0.152 C 
BRANCH  28  29
HETATM   29  N3  UNL     1       7.854  15.301  -1.768  1.00  0.00    -0.358 N 
HETATM   30  C20 UNL     1       8.628  16.204  -0.983  1.00  0.00     0.235 C 
HETATM   31  O4  UNL     1       8.626  17.430  -1.251  1.00  0.00    -0.272 OA
ATOM     32  H3  UNL     1       7.872  14.309  -1.533  1.00  0.00     0.162 HD
BRANCH  30  33
HETATM   33  C21 UNL     1       9.437  15.707   0.151  1.00  0.00     0.230 C 
BRANCH  33  34
HETATM   34  N4  UNL     1       9.658  14.284   0.113  1.00  0.00    -0.358 N 
HETATM   35  C22 UNL     1       9.132  13.474   1.047  1.00  0.00     0.092 A 
HETATM   36  C23 UNL     1       9.337  12.105   1.023  1.00  0.00     0.032 A 
HETATM   37  C24 UNL     1      10.098  11.523   0.026  1.00  0.00     0.007 A 
HETATM   38  C26 UNL     1      10.629  12.363  -0.921  1.00  0.00     0.032 A 
HETATM   39  C27 UNL     1      10.396  13.721  -0.853  1.00  0.00     0.092 A 
BRANCH  37  40
HETATM   40  C25 UNL     1      10.316  10.075   0.002  1.00  0.00     0.120 C 
HETATM   41  N5  UNL     1       9.582   9.258   0.659  1.00  0.00    -0.387 N 
ATOM     42  H52 UNL     1       8.819   9.634   1.221  1.00  0.00     0.157 HD
ATOM     43  H51 UNL     1       9.734   8.250   0.642  1.00  0.00     0.157 HD
HETATM   44  N6  UNL     1      11.379   9.553  -0.781  1.00  0.00    -0.082 NA
ENDBRANCH  37  40
ENDBRANCH  33  34
ENDBRANCH  30  33
ENDBRANCH  28  29
ENDBRANCH  27  28
ENDBRANCH   4  27
TORSDOF 15
ENDMDL
