MODEL 1
REMARK VINA RESULT: -7.201001178      0.000      0.000
REMARK  4 active torsions:
REMARK  status: ('A' for Active; 'I' for Inactive)
REMARK    1  A    between atoms: N2_11  and  O2_13 
REMARK    2  A    between atoms: O2_13  and  C7_14 
REMARK    3  A    between atoms: C7_14  and  C8_15 
REMARK    4  A    between atoms: C8_15  and  O3_18 
ROOT
HETATM    1  C1  UNL     1      60.105  12.278   7.565  1.00  0.00     0.080 C 
HETATM    2  C2  UNL     1      60.646  11.699   6.297  1.00  0.00     0.091 A 
HETATM    3  O1  UNL     1      61.830  11.945   5.799  1.00  0.00    -0.241 OA
HETATM    4  N1  UNL     1      62.014  11.295   4.687  1.00  0.00    -0.263 N 
ATOM      5  H1  UNL     1      62.864  11.332   4.122  1.00  0.00     0.194 HD
HETATM    6  C3  UNL     1      60.912  10.561   4.389  1.00  0.00     0.066 A 
HETATM    7  C4  UNL     1      60.033  10.820   5.424  1.00  0.00     0.058 A 
HETATM    8  S1  UNL     1      58.391  10.188   5.677  1.00  0.00    -0.120 SA
HETATM    9  C5  UNL     1      58.134   8.760   4.559  1.00  0.00     0.134 C 
HETATM   10  C6  UNL     1      58.333   9.195   3.164  1.00  0.00     0.021 C 
HETATM   11  N2  UNL     1      57.381   8.883   2.364  1.00  0.00    -0.274 N 
ATOM     12  H2  UNL     1      57.477   9.164   1.389  1.00  0.00     0.193 HD
HETATM   13  C11 UNL     1      59.438   9.923   2.545  1.00  0.00     0.077 C 
HETATM   14  C12 UNL     1      60.772   9.691   3.184  1.00  0.00     0.116 C 
HETATM   15 BR1  UNL     1      62.114  10.306   1.903  1.00  0.00    -0.084 Br
ENDROOT
BRANCH  11  16
HETATM   16  O2  UNL     1      56.259   8.210   2.709  1.00  0.00    -0.278 OA
BRANCH  16  17
HETATM   17  C7  UNL     1      55.787   7.161   1.904  1.00  0.00     0.238 C 
BRANCH  17  18
HETATM   18  C8  UNL     1      55.128   7.666   0.640  1.00  0.00     0.074 C 
HETATM   19  C9  UNL     1      53.634   7.526   0.811  1.00  0.00     0.047 C 
HETATM   20  C10 UNL     1      55.516   6.817  -0.557  1.00  0.00     0.047 C 
BRANCH  18  21
HETATM   21  O3  UNL     1      55.424   8.982   0.368  1.00  0.00    -0.388 OA
ATOM     22  H3  UNL     1      55.333   9.201  -0.551  1.00  0.00     0.210 HD
ENDBRANCH  18  21
ENDBRANCH  17  18
ENDBRANCH  16  17
ENDBRANCH  11  16
TORSDOF 4
ENDMDL
MODEL 2
REMARK VINA RESULT: -7.104644831      0.750      1.192
REMARK  4 active torsions:
REMARK  status: ('A' for Active; 'I' for Inactive)
REMARK    1  A    between atoms: N2_11  and  O2_13 
REMARK    2  A    between atoms: O2_13  and  C7_14 
REMARK    3  A    between atoms: C7_14  and  C8_15 
REMARK    4  A    between atoms: C8_15  and  O3_18 
ROOT
HETATM    1  C1  UNL     1      59.887  12.127   7.626  1.00  0.00     0.080 C 
HETATM    2  C2  UNL     1      60.597  11.651   6.400  1.00  0.00     0.091 A 
HETATM    3  O1  UNL     1      61.825  11.956   6.072  1.00  0.00    -0.241 OA
HETATM    4  N1  UNL     1      62.165  11.391   4.951  1.00  0.00    -0.263 N 
ATOM      5  H1  UNL     1      63.076  11.485   4.500  1.00  0.00     0.194 HD
HETATM    6  C3  UNL     1      61.130  10.658   4.467  1.00  0.00     0.066 A 
HETATM    7  C4  UNL     1      60.123  10.824   5.399  1.00  0.00     0.058 A 
HETATM    8  S1  UNL     1      58.481  10.141   5.400  1.00  0.00    -0.120 SA
HETATM    9  C5  UNL     1      58.407   8.792   4.164  1.00  0.00     0.134 C 
HETATM   10  C6  UNL     1      58.764   9.329   2.839  1.00  0.00     0.021 C 
HETATM   11  N2  UNL     1      57.927   9.055   1.906  1.00  0.00    -0.274 N 
ATOM     12  H2  UNL     1      58.135   9.407   0.972  1.00  0.00     0.193 HD
HETATM   13  C11 UNL     1      59.915  10.122   2.414  1.00  0.00     0.077 C 
HETATM   14  C12 UNL     1      61.166   9.873   3.197  1.00  0.00     0.116 C 
HETATM   15 BR1  UNL     1      62.638  10.605   2.140  1.00  0.00    -0.084 Br
ENDROOT
BRANCH  11  16
HETATM   16  O2  UNL     1      56.792   8.336   2.061  1.00  0.00    -0.278 OA
BRANCH  16  17
HETATM   17  C7  UNL     1      55.704   8.537   1.196  1.00  0.00     0.238 C 
BRANCH  17  18
HETATM   18  C8  UNL     1      55.025   7.237   0.826  1.00  0.00     0.074 C 
HETATM   19  C9  UNL     1      55.647   6.741  -0.458  1.00  0.00     0.047 C 
HETATM   20  C10 UNL     1      53.548   7.450   0.548  1.00  0.00     0.047 C 
BRANCH  18  21
HETATM   21  O3  UNL     1      55.161   6.266   1.791  1.00  0.00    -0.388 OA
ATOM     22  H3  UNL     1      55.835   6.468   2.429  1.00  0.00     0.210 HD
ENDBRANCH  18  21
ENDBRANCH  17  18
ENDBRANCH  16  17
ENDBRANCH  11  16
TORSDOF 4
ENDMDL
MODEL 3
REMARK VINA RESULT: -6.901469132      3.039      3.482
REMARK  4 active torsions:
REMARK  status: ('A' for Active; 'I' for Inactive)
REMARK    1  A    between atoms: N2_11  and  O2_13 
REMARK    2  A    between atoms: O2_13  and  C7_14 
REMARK    3  A    between atoms: C7_14  and  C8_15 
REMARK    4  A    between atoms: C8_15  and  O3_18 
ROOT
HETATM    1  C1  UNL     1      61.383  11.556   5.911  1.00  0.00     0.080 C 
HETATM    2  C2  UNL     1      60.775  10.785   4.785  1.00  0.00     0.091 A 
HETATM    3  O1  UNL     1      61.390  10.445   3.682  1.00  0.00    -0.241 OA
HETATM    4  N1  UNL     1      60.601   9.779   2.891  1.00  0.00    -0.263 N 
ATOM      5  H1  UNL     1      60.864   9.410   1.976  1.00  0.00     0.194 HD
HETATM    6  C3  UNL     1      59.376   9.645   3.461  1.00  0.00     0.066 A 
HETATM    7  C4  UNL     1      59.488  10.291   4.678  1.00  0.00     0.058 A 
HETATM    8  S1  UNL     1      58.259  10.503   5.945  1.00  0.00    -0.120 SA
HETATM    9  C5  UNL     1      56.870   9.356   5.613  1.00  0.00     0.134 C 
HETATM   10  C6  UNL     1      56.317   9.640   4.276  1.00  0.00     0.021 C 
HETATM   11  N2  UNL     1      55.046   9.806   4.246  1.00  0.00    -0.274 N 
ATOM     12  H2  UNL     1      54.621  10.004   3.340  1.00  0.00     0.193 HD
HETATM   13  C11 UNL     1      56.981   9.763   2.980  1.00  0.00     0.077 C 
HETATM   14  C12 UNL     1      58.220   8.936   2.835  1.00  0.00     0.116 C 
HETATM   15 BR1  UNL     1      58.604   8.844   0.920  1.00  0.00    -0.084 Br
ENDROOT
BRANCH  11  16
HETATM   16  O2  UNL     1      54.224   9.739   5.317  1.00  0.00    -0.278 OA
BRANCH  16  17
HETATM   17  C7  UNL     1      53.112   8.881   5.303  1.00  0.00     0.238 C 
BRANCH  17  18
HETATM   18  C8  UNL     1      51.985   9.423   4.452  1.00  0.00     0.074 C 
HETATM   19  C9  UNL     1      50.887   9.885   5.380  1.00  0.00     0.047 C 
HETATM   20  C10 UNL     1      51.392   8.338   3.572  1.00  0.00     0.047 C 
BRANCH  18  21
HETATM   21  O3  UNL     1      52.371  10.479   3.659  1.00  0.00    -0.388 OA
ATOM     22  H3  UNL     1      52.248  10.312   2.732  1.00  0.00     0.210 HD
ENDBRANCH  18  21
ENDBRANCH  17  18
ENDBRANCH  16  17
ENDBRANCH  11  16
TORSDOF 4
ENDMDL
MODEL 4
REMARK VINA RESULT: -6.867885546      2.733      3.281
REMARK  4 active torsions:
REMARK  status: ('A' for Active; 'I' for Inactive)
REMARK    1  A    between atoms: N2_11  and  O2_13 
REMARK    2  A    between atoms: O2_13  and  C7_14 
REMARK    3  A    between atoms: C7_14  and  C8_15 
REMARK    4  A    between atoms: C8_15  and  O3_18 
ROOT
HETATM    1  C1  UNL     1      61.649  10.962   4.801  1.00  0.00     0.080 C 
HETATM    2  C2  UNL     1      60.304  10.974   5.452  1.00  0.00     0.091 A 
HETATM    3  O1  UNL     1      60.036  11.489   6.623  1.00  0.00    -0.241 OA
HETATM    4  N1  UNL     1      58.777  11.348   6.921  1.00  0.00    -0.263 N 
ATOM      5  H1  UNL     1      58.340  11.674   7.783  1.00  0.00     0.194 HD
HETATM    6  C3  UNL     1      58.132  10.704   5.915  1.00  0.00     0.066 A 
HETATM    7  C4  UNL     1      59.112  10.464   4.971  1.00  0.00     0.058 A 
HETATM    8  S1  UNL     1      58.968   9.655   3.395  1.00  0.00    -0.120 SA
HETATM    9  C5  UNL     1      57.193   9.526   2.962  1.00  0.00     0.134 C 
HETATM   10  C6  UNL     1      56.491   8.774   4.017  1.00  0.00     0.021 C 
HETATM   11  N2  UNL     1      55.771   7.801   3.594  1.00  0.00    -0.274 N 
ATOM     12  H2  UNL     1      55.267   7.253   4.291  1.00  0.00     0.193 HD
HETATM   13  C11 UNL     1      56.480   8.957   5.467  1.00  0.00     0.077 C 
HETATM   14  C12 UNL     1      56.675  10.371   5.917  1.00  0.00     0.116 C 
HETATM   15 BR1  UNL     1      56.098  10.444   7.783  1.00  0.00    -0.084 Br
ENDROOT
BRANCH  11  16
HETATM   16  O2  UNL     1      55.627   7.442   2.298  1.00  0.00    -0.278 OA
BRANCH  16  17
HETATM   17  C7  UNL     1      56.086   6.190   1.855  1.00  0.00     0.238 C 
BRANCH  17  18
HETATM   18  C8  UNL     1      56.640   6.253   0.449  1.00  0.00     0.074 C 
HETATM   19  C9  UNL     1      55.514   6.663  -0.472  1.00  0.00     0.047 C 
HETATM   20  C10 UNL     1      57.114   4.888  -0.015  1.00  0.00     0.047 C 
BRANCH  18  21
HETATM   21  O3  UNL     1      57.672   7.153   0.317  1.00  0.00    -0.388 OA
ATOM     22  H3  UNL     1      57.535   7.774  -0.388  1.00  0.00     0.210 HD
ENDBRANCH  18  21
ENDBRANCH  17  18
ENDBRANCH  16  17
ENDBRANCH  11  16
TORSDOF 4
ENDMDL
MODEL 5
REMARK VINA RESULT: -6.854157609      2.418      2.838
REMARK  4 active torsions:
REMARK  status: ('A' for Active; 'I' for Inactive)
REMARK    1  A    between atoms: N2_11  and  O2_13 
REMARK    2  A    between atoms: O2_13  and  C7_14 
REMARK    3  A    between atoms: C7_14  and  C8_15 
REMARK    4  A    between atoms: C8_15  and  O3_18 
ROOT
HETATM    1  C1  UNL     1      62.183  11.521   5.195  1.00  0.00     0.080 C 
HETATM    2  C2  UNL     1      60.788  11.402   5.719  1.00  0.00     0.091 A 
HETATM    3  O1  UNL     1      60.356  11.914   6.842  1.00  0.00    -0.241 OA
HETATM    4  N1  UNL     1      59.097  11.643   7.027  1.00  0.00    -0.263 N 
ATOM      5  H1  UNL     1      58.547  11.941   7.833  1.00  0.00     0.194 HD
HETATM    6  C3  UNL     1      58.623  10.907   5.990  1.00  0.00     0.066 A 
HETATM    7  C4  UNL     1      59.709  10.753   5.149  1.00  0.00     0.058 A 
HETATM    8  S1  UNL     1      59.803   9.894   3.595  1.00  0.00    -0.120 SA
HETATM    9  C5  UNL     1      58.101   9.560   3.005  1.00  0.00     0.134 C 
HETATM   10  C6  UNL     1      57.386   8.762   4.018  1.00  0.00     0.021 C 
HETATM   11  N2  UNL     1      56.818   7.705   3.564  1.00  0.00    -0.274 N 
ATOM     12  H2  UNL     1      56.311   7.123   4.231  1.00  0.00     0.193 HD
HETATM   13  C11 UNL     1      57.217   8.979   5.453  1.00  0.00     0.077 C 
HETATM   14  C12 UNL     1      57.217  10.417   5.869  1.00  0.00     0.116 C 
HETATM   15 BR1  UNL     1      56.459  10.473   7.670  1.00  0.00    -0.084 Br
ENDROOT
BRANCH  11  16
HETATM   16  O2  UNL     1      56.838   7.300   2.274  1.00  0.00    -0.278 OA
BRANCH  16  17
HETATM   17  C7  UNL     1      55.719   6.660   1.717  1.00  0.00     0.238 C 
BRANCH  17  18
HETATM   18  C8  UNL     1      55.207   7.377   0.487  1.00  0.00     0.074 C 
HETATM   19  C9  UNL     1      53.719   7.577   0.657  1.00  0.00     0.047 C 
HETATM   20  C10 UNL     1      55.400   6.532  -0.759  1.00  0.00     0.047 C 
BRANCH  18  21
HETATM   21  O3  UNL     1      55.802   8.602   0.293  1.00  0.00    -0.388 OA
ATOM     22  H3  UNL     1      55.175   9.310   0.213  1.00  0.00     0.210 HD
ENDBRANCH  18  21
ENDBRANCH  17  18
ENDBRANCH  16  17
ENDBRANCH  11  16
TORSDOF 4
ENDMDL
