MODEL 1
REMARK VINA RESULT: -8.977087491      0.000      0.000
REMARK  5 active torsions:
REMARK  status: ('A' for Active; 'I' for Inactive)
REMARK    1  A    between atoms: C1_2  and  O1_4 
REMARK    2  A    between atoms: O1_4  and  C2_5 
REMARK    3  A    between atoms: C3_10  and  N3_11 
REMARK    4  A    between atoms: C10_18  and  N4_19 
REMARK    5  A    between atoms: N4_19  and  C11_21 
ROOT
HETATM    1  C2  UNL     1      -2.769  -9.603  18.457  1.00  0.00     0.244 A 
HETATM    2  N1  UNL     1      -2.589  -9.366  19.765  1.00  0.00    -0.263 N 
ATOM      3  H1  UNL     1      -3.402  -9.107  20.324  1.00  0.00     0.190 HD
HETATM    4  N2  UNL     1      -1.419  -9.448  20.371  1.00  0.00    -0.279 N 
ATOM      5  H2  UNL     1      -1.328  -9.259  21.369  1.00  0.00     0.189 HD
HETATM    6  C3  UNL     1      -0.351  -9.790  19.629  1.00  0.00     0.163 A 
HETATM    7  C10 UNL     1      -0.462 -10.048  18.279  1.00  0.00     0.150 A 
HETATM    8  N5  UNL     1      -1.675  -9.946  17.730  1.00  0.00    -0.304 N 
ATOM      9  H5  UNL     1      -1.783 -10.133  16.734  1.00  0.00     0.171 HD
ENDROOT
BRANCH   7  10
HETATM   10  N4  UNL     1       0.543 -10.360  17.628  1.00  0.00    -0.368 N 
ATOM     11  H4  UNL     1       0.818 -11.326  17.804  1.00  0.00     0.161 HD
BRANCH  10  12
HETATM   12  C11 UNL     1       1.403  -9.742  16.715  1.00  0.00     0.083 C 
HETATM   13  C12 UNL     1       0.596  -9.240  15.506  1.00  0.00     0.031 C 
HETATM   14  C13 UNL     1       1.572  -8.286  14.798  1.00  0.00     0.081 C 
HETATM   15  C14 UNL     1       2.573  -9.163  14.093  1.00  0.00     0.243 C 
HETATM   16  F3  UNL     1       3.724  -8.391  13.913  1.00  0.00    -0.206 F 
HETATM   17  F4  UNL     1       2.078  -9.424  12.829  1.00  0.00    -0.206 F 
HETATM   18  C15 UNL     1       2.857 -10.456  14.789  1.00  0.00     0.081 C 
HETATM   19  C16 UNL     1       2.616 -10.442  16.264  1.00  0.00     0.031 C 
ENDBRANCH  10  12
ENDBRANCH   7  10
BRANCH   6  20
HETATM   20  N3  UNL     1       0.900  -9.869  20.324  1.00  0.00    -0.362 N 
HETATM   21  C4  UNL     1       1.605  -8.635  20.557  1.00  0.00     0.129 C 
HETATM   22  C5  UNL     1       3.089  -8.930  20.666  1.00  0.00     0.004 C 
HETATM   23  C6  UNL     1       3.283  -9.885  21.850  1.00  0.00     0.012 C 
HETATM   24  C8  UNL     1       3.484 -10.099  19.770  1.00  0.00     0.012 C 
HETATM   25  C7  UNL     1       2.945 -11.010  20.871  1.00  0.00     0.004 C 
HETATM   26  C9  UNL     1       1.448 -11.135  20.780  1.00  0.00     0.129 C 
ENDBRANCH   6  20
BRANCH   1  27
HETATM   27  O1  UNL     1      -4.009  -9.508  17.848  1.00  0.00    -0.257 OA
BRANCH  27  28
HETATM   28  C1  UNL     1      -4.160  -9.311  16.456  1.00  0.00     0.507 C 
HETATM   29  F1  UNL     1      -5.159 -10.143  15.944  1.00  0.00    -0.184 F 
HETATM   30  F2  UNL     1      -4.522  -7.998  16.219  1.00  0.00    -0.184 F 
ENDBRANCH  27  28
ENDBRANCH   1  27
TORSDOF 5
ENDMDL
MODEL 2
REMARK VINA RESULT: -8.869730394      0.595      1.447
REMARK  5 active torsions:
REMARK  status: ('A' for Active; 'I' for Inactive)
REMARK    1  A    between atoms: C1_2  and  O1_4 
REMARK    2  A    between atoms: O1_4  and  C2_5 
REMARK    3  A    between atoms: C3_10  and  N3_11 
REMARK    4  A    between atoms: C10_18  and  N4_19 
REMARK    5  A    between atoms: N4_19  and  C11_21 
ROOT
HETATM    1  C2  UNL     1      -2.721  -9.598  18.736  1.00  0.00     0.244 A 
HETATM    2  N1  UNL     1      -2.512  -9.436  20.051  1.00  0.00    -0.263 N 
ATOM      3  H1  UNL     1      -3.315  -9.222  20.642  1.00  0.00     0.190 HD
HETATM    4  N2  UNL     1      -1.327  -9.535  20.623  1.00  0.00    -0.279 N 
ATOM      5  H2  UNL     1      -1.214  -9.404  21.628  1.00  0.00     0.189 HD
HETATM    6  C3  UNL     1      -0.272  -9.817  19.837  1.00  0.00     0.163 A 
HETATM    7  C10 UNL     1      -0.412  -9.996  18.478  1.00  0.00     0.150 A 
HETATM    8  N5  UNL     1      -1.640  -9.882  17.964  1.00  0.00    -0.304 N 
ATOM      9  H5  UNL     1      -1.769 -10.011  16.961  1.00  0.00     0.171 HD
ENDROOT
BRANCH   7  10
HETATM   10  N4  UNL     1       0.581 -10.255  17.786  1.00  0.00    -0.368 N 
ATOM     11  H4  UNL     1       1.324 -10.677  18.342  1.00  0.00     0.161 HD
BRANCH  10  12
HETATM   12  C11 UNL     1       0.956 -10.121  16.445  1.00  0.00     0.083 C 
HETATM   13  C12 UNL     1       2.481 -10.276  16.320  1.00  0.00     0.031 C 
HETATM   14  C13 UNL     1       2.695 -10.480  14.811  1.00  0.00     0.081 C 
HETATM   15  C14 UNL     1       2.521  -9.124  14.180  1.00  0.00     0.243 C 
HETATM   16  F3  UNL     1       2.177  -9.346  12.844  1.00  0.00    -0.206 F 
HETATM   17  F4  UNL     1       3.760  -8.511  14.165  1.00  0.00    -0.206 F 
HETATM   18  C15 UNL     1       1.541  -8.239  14.881  1.00  0.00     0.081 C 
HETATM   19  C16 UNL     1       0.496  -8.959  15.670  1.00  0.00     0.031 C 
ENDBRANCH  10  12
ENDBRANCH   7  10
BRANCH   6  20
HETATM   20  N3  UNL     1       0.996  -9.917  20.497  1.00  0.00    -0.362 N 
HETATM   21  C4  UNL     1       1.708  -8.691  20.750  1.00  0.00     0.129 C 
HETATM   22  C5  UNL     1       3.194  -8.989  20.811  1.00  0.00     0.004 C 
HETATM   23  C6  UNL     1       3.418  -9.979  21.960  1.00  0.00     0.012 C 
HETATM   24  C8  UNL     1       3.565 -10.130  19.870  1.00  0.00     0.012 C 
HETATM   25  C7  UNL     1       3.054 -11.075  20.956  1.00  0.00     0.004 C 
HETATM   26  C9  UNL     1       1.554 -11.196  20.900  1.00  0.00     0.129 C 
ENDBRANCH   6  20
BRANCH   1  27
HETATM   27  O1  UNL     1      -3.976  -9.487  18.162  1.00  0.00    -0.257 OA
BRANCH  27  28
HETATM   28  C1  UNL     1      -4.445  -8.285  17.585  1.00  0.00     0.507 C 
HETATM   29  F1  UNL     1      -3.859  -7.177  18.205  1.00  0.00    -0.184 F 
HETATM   30  F2  UNL     1      -4.111  -8.262  16.244  1.00  0.00    -0.184 F 
ENDBRANCH  27  28
ENDBRANCH   1  27
TORSDOF 5
ENDMDL
MODEL 3
REMARK VINA RESULT: -8.853962013      3.371      5.793
REMARK  5 active torsions:
REMARK  status: ('A' for Active; 'I' for Inactive)
REMARK    1  A    between atoms: C1_2  and  O1_4 
REMARK    2  A    between atoms: O1_4  and  C2_5 
REMARK    3  A    between atoms: C3_10  and  N3_11 
REMARK    4  A    between atoms: C10_18  and  N4_19 
REMARK    5  A    between atoms: N4_19  and  C11_21 
ROOT
HETATM    1  C2  UNL     1       0.907  -9.401  15.025  1.00  0.00     0.244 A 
HETATM    2  N1  UNL     1       0.282  -8.217  15.115  1.00  0.00    -0.263 N 
ATOM      3  H1  UNL     1       0.170  -7.667  14.263  1.00  0.00     0.190 HD
HETATM    4  N2  UNL     1      -0.195  -7.723  16.242  1.00  0.00    -0.279 N 
ATOM      5  H2  UNL     1      -0.664  -6.817  16.263  1.00  0.00     0.189 HD
HETATM    6  C3  UNL     1      -0.043  -8.453  17.361  1.00  0.00     0.163 A 
HETATM    7  C10 UNL     1       0.589  -9.678  17.344  1.00  0.00     0.150 A 
HETATM    8  N5  UNL     1       1.047 -10.118  16.169  1.00  0.00    -0.304 N 
ATOM      9  H5  UNL     1       1.518 -11.022  16.130  1.00  0.00     0.171 HD
ENDROOT
BRANCH   7  10
HETATM   10  N4  UNL     1       0.710 -10.323  18.393  1.00  0.00    -0.368 N 
ATOM     11  H4  UNL     1      -0.197 -10.597  18.770  1.00  0.00     0.161 HD
BRANCH  10  12
HETATM   12  C11 UNL     1       1.758 -10.775  19.201  1.00  0.00     0.083 C 
HETATM   13  C12 UNL     1       1.197 -11.269  20.544  1.00  0.00     0.031 C 
HETATM   14  C13 UNL     1       2.369 -12.057  21.151  1.00  0.00     0.081 C 
HETATM   15  C14 UNL     1       3.351 -11.027  21.646  1.00  0.00     0.243 C 
HETATM   16  F3  UNL     1       4.598 -11.655  21.695  1.00  0.00    -0.206 F 
HETATM   17  F4  UNL     1       3.015 -10.727  22.953  1.00  0.00    -0.206 F 
HETATM   18  C15 UNL     1       3.378  -9.766  20.841  1.00  0.00     0.081 C 
HETATM   19  C16 UNL     1       2.932  -9.916  19.423  1.00  0.00     0.031 C 
ENDBRANCH  10  12
ENDBRANCH   7  10
BRANCH   6  20
HETATM   20  N3  UNL     1      -0.575  -7.882  18.563  1.00  0.00    -0.362 N 
HETATM   21  C4  UNL     1       0.257  -6.947  19.275  1.00  0.00     0.129 C 
HETATM   22  C5  UNL     1      -0.124  -6.969  20.743  1.00  0.00     0.004 C 
HETATM   23  C6  UNL     1      -1.597  -6.552  20.842  1.00  0.00     0.012 C 
HETATM   24  C8  UNL     1      -0.579  -8.359  21.172  1.00  0.00     0.012 C 
HETATM   25  C7  UNL     1      -1.929  -8.015  20.547  1.00  0.00     0.004 C 
HETATM   26  C9  UNL     1      -1.899  -8.223  19.056  1.00  0.00     0.129 C 
ENDBRANCH   6  20
BRANCH   1  27
HETATM   27  O1  UNL     1       1.399  -9.894  13.829  1.00  0.00    -0.257 OA
BRANCH  27  28
HETATM   28  C1  UNL     1       2.748 -10.283  13.663  1.00  0.00     0.507 C 
HETATM   29  F1  UNL     1       3.597  -9.444  14.390  1.00  0.00    -0.184 F 
HETATM   30  F2  UNL     1       2.909 -11.576  14.126  1.00  0.00    -0.184 F 
ENDBRANCH  27  28
ENDBRANCH   1  27
TORSDOF 5
ENDMDL
MODEL 4
REMARK VINA RESULT: -8.828540301      0.860      1.534
REMARK  5 active torsions:
REMARK  status: ('A' for Active; 'I' for Inactive)
REMARK    1  A    between atoms: C1_2  and  O1_4 
REMARK    2  A    between atoms: O1_4  and  C2_5 
REMARK    3  A    between atoms: C3_10  and  N3_11 
REMARK    4  A    between atoms: C10_18  and  N4_19 
REMARK    5  A    between atoms: N4_19  and  C11_21 
ROOT
HETATM    1  C2  UNL     1      -2.623  -9.539  19.022  1.00  0.00     0.244 A 
HETATM    2  N1  UNL     1      -2.229  -9.458  20.302  1.00  0.00    -0.263 N 
ATOM      3  H1  UNL     1      -2.923  -9.198  21.003  1.00  0.00     0.190 HD
HETATM    4  N2  UNL     1      -0.995  -9.695  20.706  1.00  0.00    -0.279 N 
ATOM      5  H2  UNL     1      -0.741  -9.622  21.691  1.00  0.00     0.189 HD
HETATM    6  C3  UNL     1      -0.086 -10.037  19.777  1.00  0.00     0.163 A 
HETATM    7  C10 UNL     1      -0.419 -10.139  18.443  1.00  0.00     0.150 A 
HETATM    8  N5  UNL     1      -1.686  -9.886  18.103  1.00  0.00    -0.304 N 
ATOM      9  H5  UNL     1      -1.957  -9.956  17.123  1.00  0.00     0.171 HD
ENDROOT
BRANCH   7  10
HETATM   10  N4  UNL     1       0.445 -10.456  17.616  1.00  0.00    -0.368 N 
ATOM     11  H4  UNL     1       0.557 -11.468  17.562  1.00  0.00     0.161 HD
BRANCH  10  12
HETATM   12  C11 UNL     1       1.309  -9.797  16.735  1.00  0.00     0.083 C 
HETATM   13  C12 UNL     1       0.521  -9.315  15.506  1.00  0.00     0.031 C 
HETATM   14  C13 UNL     1       1.481  -8.318  14.836  1.00  0.00     0.081 C 
HETATM   15  C14 UNL     1       2.536  -9.150  14.156  1.00  0.00     0.243 C 
HETATM   16  F3  UNL     1       3.661  -8.333  14.017  1.00  0.00    -0.206 F 
HETATM   17  F4  UNL     1       2.091  -9.418  12.875  1.00  0.00    -0.206 F 
HETATM   18  C15 UNL     1       2.847 -10.438  14.850  1.00  0.00     0.081 C 
HETATM   19  C16 UNL     1       2.560 -10.447  16.316  1.00  0.00     0.031 C 
ENDBRANCH  10  12
ENDBRANCH   7  10
BRANCH   6  20
HETATM   20  N3  UNL     1       1.242 -10.286  20.256  1.00  0.00    -0.362 N 
HETATM   21  C4  UNL     1       1.543 -11.620  20.704  1.00  0.00     0.129 C 
HETATM   22  C5  UNL     1       2.657 -11.555  21.732  1.00  0.00     0.004 C 
HETATM   23  C6  UNL     1       3.881 -10.935  21.045  1.00  0.00     0.012 C 
HETATM   24  C8  UNL     1       2.575 -10.270  22.550  1.00  0.00     0.012 C 
HETATM   25  C7  UNL     1       3.254  -9.578  21.369  1.00  0.00     0.004 C 
HETATM   26  C9  UNL     1       2.253  -9.243  20.295  1.00  0.00     0.129 C 
ENDBRANCH   6  20
BRANCH   1  27
HETATM   27  O1  UNL     1      -3.925  -9.284  18.627  1.00  0.00    -0.257 OA
BRANCH  27  28
HETATM   28  C1  UNL     1      -4.331  -8.035  18.104  1.00  0.00     0.507 C 
HETATM   29  F1  UNL     1      -3.475  -7.017  18.533  1.00  0.00    -0.184 F 
HETATM   30  F2  UNL     1      -4.292  -8.085  16.723  1.00  0.00    -0.184 F 
ENDBRANCH  27  28
ENDBRANCH   1  27
TORSDOF 5
ENDMDL
MODEL 5
REMARK VINA RESULT: -8.798396907      3.287      5.698
REMARK  5 active torsions:
REMARK  status: ('A' for Active; 'I' for Inactive)
REMARK    1  A    between atoms: C1_2  and  O1_4 
REMARK    2  A    between atoms: O1_4  and  C2_5 
REMARK    3  A    between atoms: C3_10  and  N3_11 
REMARK    4  A    between atoms: C10_18  and  N4_19 
REMARK    5  A    between atoms: N4_19  and  C11_21 
ROOT
HETATM    1  C2  UNL     1       0.498  -9.214  15.374  1.00  0.00     0.244 A 
HETATM    2  N1  UNL     1      -0.090  -8.068  15.747  1.00  0.00    -0.263 N 
ATOM      3  H1  UNL     1      -0.300  -7.378  15.025  1.00  0.00     0.190 HD
HETATM    4  N2  UNL     1      -0.412  -7.780  16.994  1.00  0.00    -0.279 N 
ATOM      5  H2  UNL     1      -0.859  -6.894  17.232  1.00  0.00     0.189 HD
HETATM    6  C3  UNL     1      -0.132  -8.693  17.940  1.00  0.00     0.163 A 
HETATM    7  C10 UNL     1       0.472  -9.893  17.630  1.00  0.00     0.150 A 
HETATM    8  N5  UNL     1       0.770 -10.119  16.349  1.00  0.00    -0.304 N 
ATOM      9  H5  UNL     1       1.217 -11.000  16.094  1.00  0.00     0.171 HD
ENDROOT
BRANCH   7  10
HETATM   10  N4  UNL     1       0.715 -10.709  18.528  1.00  0.00    -0.368 N 
ATOM     11  H4  UNL     1      -0.074 -11.336  18.687  1.00  0.00     0.161 HD
BRANCH  10  12
HETATM   12  C11 UNL     1       1.782 -11.001  19.384  1.00  0.00     0.083 C 
HETATM   13  C12 UNL     1       1.252 -11.220  20.811  1.00  0.00     0.031 C 
HETATM   14  C13 UNL     1       2.437 -11.881  21.533  1.00  0.00     0.081 C 
HETATM   15  C14 UNL     1       3.432 -10.780  21.794  1.00  0.00     0.243 C 
HETATM   16  F3  UNL     1       4.679 -11.394  21.936  1.00  0.00    -0.206 F 
HETATM   17  F4  UNL     1       3.127 -10.229  23.024  1.00  0.00    -0.206 F 
HETATM   18  C15 UNL     1       3.442  -9.702  20.758  1.00  0.00     0.081 C 
HETATM   19  C16 UNL     1       2.962 -10.123  19.407  1.00  0.00     0.031 C 
ENDBRANCH  10  12
ENDBRANCH   7  10
BRANCH   6  20
HETATM   20  N3  UNL     1      -0.497  -8.342  19.282  1.00  0.00    -0.362 N 
HETATM   21  C4  UNL     1      -1.763  -8.826  19.769  1.00  0.00     0.129 C 
HETATM   22  C5  UNL     1      -2.269  -7.881  20.843  1.00  0.00     0.004 C 
HETATM   23  C6  UNL     1      -1.233  -7.870  21.973  1.00  0.00     0.012 C 
HETATM   24  C8  UNL     1      -1.844  -6.445  20.556  1.00  0.00     0.012 C 
HETATM   25  C7  UNL     1      -0.486  -6.822  21.146  1.00  0.00     0.004 C 
HETATM   26  C9  UNL     1       0.364  -7.532  20.126  1.00  0.00     0.129 C 
ENDBRANCH   6  20
BRANCH   1  27
HETATM   27  O1  UNL     1       0.825  -9.489  14.057  1.00  0.00    -0.257 OA
BRANCH  27  28
HETATM   28  C1  UNL     1       2.158  -9.477  13.586  1.00  0.00     0.507 C 
HETATM   29  F1  UNL     1       2.930  -8.562  14.307  1.00  0.00    -0.184 F 
HETATM   30  F2  UNL     1       2.709 -10.734  13.746  1.00  0.00    -0.184 F 
ENDBRANCH  27  28
ENDBRANCH   1  27
TORSDOF 5
ENDMDL
