MODEL 1
REMARK VINA RESULT: -6.970691546      0.000      0.000
REMARK  9 active torsions:
REMARK  status: ('A' for Active; 'I' for Inactive)
REMARK    1  A    between atoms: C4_4  and  C6_6 
REMARK    2  A    between atoms: C7_7  and  C8_8 
REMARK    3  A    between atoms: C9_9  and  O1_10 
REMARK    4  A    between atoms: C9_9  and  C12_14 
REMARK    5  A    between atoms: O1_10  and  C10_11 
REMARK    6  A    between atoms: C15_18  and  C17_20 
REMARK    7  A    between atoms: C20_26  and  C22_28 
REMARK    8  A    between atoms: C22_28  and  C23_29 
REMARK    9  A    between atoms: C23_29  and  O5_31 
ROOT
HETATM    1  C1  UNL     1      -9.526 -35.686  16.759  1.00  0.00     0.017 C 
HETATM    2  C2  UNL     1      -9.090 -34.715  15.988  1.00  0.00    -0.052 C 
HETATM    3  C3  UNL     1      -7.725 -34.689  15.323  1.00  0.00     0.078 C 
HETATM    4  C4  UNL     1      -7.426 -33.218  15.510  1.00  0.00     0.080 C 
HETATM    5  C5  UNL     1      -6.636 -32.735  14.321  1.00  0.00     0.051 C 
HETATM    6  O3  UNL     1      -8.604 -32.557  15.591  1.00  0.00    -0.361 OA
HETATM    7  C15 UNL     1      -9.690 -33.425  15.556  1.00  0.00     0.088 C 
HETATM    8  C16 UNL     1     -10.637 -32.988  16.599  1.00  0.00     0.051 C 
ENDROOT
BRANCH   7   9
HETATM    9  C17 UNL     1     -10.247 -33.595  14.176  1.00  0.00     0.061 C 
HETATM   10  C18 UNL     1     -11.176 -34.765  14.027  1.00  0.00     0.113 C 
HETATM   11  C19 UNL     1     -12.513 -34.127  14.040  1.00  0.00     0.218 C 
HETATM   12  O4  UNL     1     -13.645 -34.716  13.905  1.00  0.00    -0.274 OA
HETATM   13  N1  UNL     1     -12.353 -32.724  14.231  1.00  0.00    -0.352 N 
HETATM   14  C20 UNL     1     -11.048 -32.481  13.622  1.00  0.00     0.038 C 
ATOM     15  H1  UNL     1     -12.987 -32.061  14.678  1.00  0.00     0.163 HD
HETATM   16  C21 UNL     1     -11.245 -32.765  12.128  1.00  0.00     0.039 C 
BRANCH  14  17
HETATM   17  C22 UNL     1     -10.567 -31.095  13.788  1.00  0.00     0.062 C 
BRANCH  17  18
HETATM   18  C23 UNL     1     -11.564 -30.001  13.480  1.00  0.00     0.116 C 
HETATM   19  C24 UNL     1     -11.808 -29.225  14.777  1.00  0.00     0.039 C 
BRANCH  18  20
HETATM   20  O5  UNL     1     -10.978 -29.080  12.621  1.00  0.00    -0.396 OA
ATOM     21  H5  UNL     1     -11.424 -28.246  12.709  1.00  0.00     0.210 HD
ENDBRANCH  18  20
ENDBRANCH  17  18
ENDBRANCH  14  17
ENDBRANCH   7   9
BRANCH   4  22
HETATM   22  C6  UNL     1      -6.611 -32.966  16.723  1.00  0.00     0.011 C 
HETATM   23  C7  UNL     1      -5.814 -31.924  16.854  1.00  0.00     0.001 C 
BRANCH  23  24
HETATM   24  C8  UNL     1      -5.033 -31.711  18.052  1.00  0.00     0.033 C 
HETATM   25  C9  UNL     1      -5.398 -30.947  19.054  1.00  0.00     0.060 C 
BRANCH  25  26
HETATM   26  O1  UNL     1      -4.485 -30.874  20.138  1.00  0.00    -0.283 OA
BRANCH  26  27
HETATM   27  C10 UNL     1      -3.266 -30.234  20.036  1.00  0.00     0.259 C 
HETATM   28  C11 UNL     1      -2.191 -30.418  21.070  1.00  0.00     0.126 C 
HETATM   29  O2  UNL     1      -3.074 -29.484  19.046  1.00  0.00    -0.265 OA
ENDBRANCH  26  27
ENDBRANCH  25  26
BRANCH  25  30
HETATM   30  C12 UNL     1      -6.659 -30.201  19.092  1.00  0.00     0.035 C 
HETATM   31  C13 UNL     1      -7.741 -30.961  19.848  1.00  0.00     0.016 C 
HETATM   32  C14 UNL     1      -6.456 -28.827  19.709  1.00  0.00     0.016 C 
ENDBRANCH  25  30
ENDBRANCH  23  24
ENDBRANCH   4  22
TORSDOF 9
ENDMDL
MODEL 2
REMARK VINA RESULT: -6.833913629      1.458      1.718
REMARK  9 active torsions:
REMARK  status: ('A' for Active; 'I' for Inactive)
REMARK    1  A    between atoms: C4_4  and  C6_6 
REMARK    2  A    between atoms: C7_7  and  C8_8 
REMARK    3  A    between atoms: C9_9  and  O1_10 
REMARK    4  A    between atoms: C9_9  and  C12_14 
REMARK    5  A    between atoms: O1_10  and  C10_11 
REMARK    6  A    between atoms: C15_18  and  C17_20 
REMARK    7  A    between atoms: C20_26  and  C22_28 
REMARK    8  A    between atoms: C22_28  and  C23_29 
REMARK    9  A    between atoms: C23_29  and  O5_31 
ROOT
HETATM    1  C1  UNL     1      -8.799 -35.437  17.634  1.00  0.00     0.017 C 
HETATM    2  C2  UNL     1      -8.812 -34.549  16.665  1.00  0.00    -0.052 C 
HETATM    3  C3  UNL     1      -7.910 -34.591  15.443  1.00  0.00     0.078 C 
HETATM    4  C4  UNL     1      -7.626 -33.110  15.338  1.00  0.00     0.080 C 
HETATM    5  C5  UNL     1      -7.496 -32.750  13.880  1.00  0.00     0.051 C 
HETATM    6  O3  UNL     1      -8.663 -32.443  15.896  1.00  0.00    -0.361 OA
HETATM    7  C15 UNL     1      -9.602 -33.307  16.446  1.00  0.00     0.088 C 
HETATM    8  C16 UNL     1      -9.980 -32.767  17.764  1.00  0.00     0.051 C 
ENDROOT
BRANCH   7   9
HETATM    9  C17 UNL     1     -10.724 -33.615  15.502  1.00  0.00     0.061 C 
HETATM   10  C18 UNL     1     -11.758 -34.549  16.060  1.00  0.00     0.113 C 
HETATM   11  C19 UNL     1     -12.866 -33.635  16.424  1.00  0.00     0.218 C 
HETATM   12  O4  UNL     1     -14.004 -33.967  16.914  1.00  0.00    -0.274 OA
HETATM   13  N1  UNL     1     -12.469 -32.295  16.142  1.00  0.00    -0.352 N 
HETATM   14  C20 UNL     1     -11.545 -32.480  15.026  1.00  0.00     0.038 C 
ATOM     15  H1  UNL     1     -12.758 -31.431  16.602  1.00  0.00     0.163 HD
HETATM   16  C21 UNL     1     -12.410 -33.000  13.872  1.00  0.00     0.039 C 
BRANCH  14  17
HETATM   17  C22 UNL     1     -10.876 -31.234  14.601  1.00  0.00     0.062 C 
BRANCH  17  18
HETATM   18  C23 UNL     1     -11.737 -30.230  13.871  1.00  0.00     0.116 C 
HETATM   19  C24 UNL     1     -11.981 -29.056  14.824  1.00  0.00     0.039 C 
BRANCH  18  20
HETATM   20  O5  UNL     1     -11.011 -29.686  12.819  1.00  0.00    -0.396 OA
ATOM     21  H5  UNL     1     -10.518 -28.938  13.135  1.00  0.00     0.210 HD
ENDBRANCH  18  20
ENDBRANCH  17  18
ENDBRANCH  14  17
ENDBRANCH   7   9
BRANCH   4  22
HETATM   22  C6  UNL     1      -6.355 -32.738  16.007  1.00  0.00     0.011 C 
HETATM   23  C7  UNL     1      -6.290 -31.883  17.008  1.00  0.00     0.001 C 
BRANCH  23  24
HETATM   24  C8  UNL     1      -5.032 -31.544  17.636  1.00  0.00     0.033 C 
HETATM   25  C9  UNL     1      -4.623 -32.019  18.788  1.00  0.00     0.060 C 
BRANCH  25  26
HETATM   26  O1  UNL     1      -3.354 -31.559  19.228  1.00  0.00    -0.283 OA
BRANCH  26  27
HETATM   27  C10 UNL     1      -3.180 -30.326  19.822  1.00  0.00     0.259 C 
HETATM   28  C11 UNL     1      -3.269 -30.148  21.312  1.00  0.00     0.126 C 
HETATM   29  O2  UNL     1      -2.943 -29.340  19.078  1.00  0.00    -0.265 OA
ENDBRANCH  26  27
ENDBRANCH  25  26
BRANCH  25  30
HETATM   30  C12 UNL     1      -5.392 -32.966  19.599  1.00  0.00     0.035 C 
HETATM   31  C13 UNL     1      -4.486 -33.936  20.346  1.00  0.00     0.016 C 
HETATM   32  C14 UNL     1      -6.293 -32.232  20.578  1.00  0.00     0.016 C 
ENDBRANCH  25  30
ENDBRANCH  23  24
ENDBRANCH   4  22
TORSDOF 9
ENDMDL
MODEL 3
REMARK VINA RESULT: -6.753715282      1.015      1.347
REMARK  9 active torsions:
REMARK  status: ('A' for Active; 'I' for Inactive)
REMARK    1  A    between atoms: C4_4  and  C6_6 
REMARK    2  A    between atoms: C7_7  and  C8_8 
REMARK    3  A    between atoms: C9_9  and  O1_10 
REMARK    4  A    between atoms: C9_9  and  C12_14 
REMARK    5  A    between atoms: O1_10  and  C10_11 
REMARK    6  A    between atoms: C15_18  and  C17_20 
REMARK    7  A    between atoms: C20_26  and  C22_28 
REMARK    8  A    between atoms: C22_28  and  C23_29 
REMARK    9  A    between atoms: C23_29  and  O5_31 
ROOT
HETATM    1  C1  UNL     1      -9.784 -35.940  16.838  1.00  0.00     0.017 C 
HETATM    2  C2  UNL     1      -9.324 -34.910  16.162  1.00  0.00    -0.052 C 
HETATM    3  C3  UNL     1      -7.905 -34.789  15.634  1.00  0.00     0.078 C 
HETATM    4  C4  UNL     1      -7.696 -33.319  15.923  1.00  0.00     0.080 C 
HETATM    5  C5  UNL     1      -6.822 -32.738  14.842  1.00  0.00     0.051 C 
HETATM    6  O3  UNL     1      -8.907 -32.715  15.923  1.00  0.00    -0.361 OA
HETATM    7  C15 UNL     1      -9.942 -33.625  15.740  1.00  0.00     0.088 C 
HETATM    8  C16 UNL     1     -11.003 -33.287  16.706  1.00  0.00     0.051 C 
ENDROOT
BRANCH   7   9
HETATM    9  C17 UNL     1     -10.357 -33.744  14.305  1.00  0.00     0.061 C 
HETATM   10  C18 UNL     1     -11.283 -34.892  14.025  1.00  0.00     0.113 C 
HETATM   11  C19 UNL     1     -12.605 -34.231  13.923  1.00  0.00     0.218 C 
HETATM   12  O4  UNL     1     -13.726 -34.795  13.655  1.00  0.00    -0.274 OA
HETATM   13  N1  UNL     1     -12.445 -32.837  14.173  1.00  0.00    -0.352 N 
HETATM   14  C20 UNL     1     -11.081 -32.599  13.708  1.00  0.00     0.038 C 
ATOM     15  H1  UNL     1     -13.111 -32.176  14.574  1.00  0.00     0.163 HD
HETATM   16  C21 UNL     1     -11.128 -32.835  12.193  1.00  0.00     0.039 C 
BRANCH  14  17
HETATM   17  C22 UNL     1     -10.599 -31.228  13.965  1.00  0.00     0.062 C 
BRANCH  17  18
HETATM   18  C23 UNL     1     -11.546 -30.108  13.602  1.00  0.00     0.116 C 
HETATM   19  C24 UNL     1     -11.799 -29.290  14.870  1.00  0.00     0.039 C 
BRANCH  18  20
HETATM   20  O5  UNL     1     -10.903 -29.231  12.737  1.00  0.00    -0.396 OA
ATOM     21  H5  UNL     1     -11.159 -29.431  11.844  1.00  0.00     0.210 HD
ENDBRANCH  18  20
ENDBRANCH  17  18
ENDBRANCH  14  17
ENDBRANCH   7   9
BRANCH   4  22
HETATM   22  C6  UNL     1      -7.012 -33.098  17.220  1.00  0.00     0.011 C 
HETATM   23  C7  UNL     1      -7.541 -32.402  18.207  1.00  0.00     0.001 C 
BRANCH  23  24
HETATM   24  C8  UNL     1      -6.843 -32.207  19.458  1.00  0.00     0.033 C 
HETATM   25  C9  UNL     1      -6.282 -31.082  19.831  1.00  0.00     0.060 C 
BRANCH  25  26
HETATM   26  O1  UNL     1      -5.646 -31.101  21.100  1.00  0.00    -0.283 OA
BRANCH  26  27
HETATM   27  C10 UNL     1      -4.365 -31.582  21.278  1.00  0.00     0.259 C 
HETATM   28  C11 UNL     1      -3.159 -30.709  21.072  1.00  0.00     0.126 C 
HETATM   29  O2  UNL     1      -4.228 -32.784  21.620  1.00  0.00    -0.265 OA
ENDBRANCH  26  27
ENDBRANCH  25  26
BRANCH  25  30
HETATM   30  C12 UNL     1      -6.290 -29.860  19.022  1.00  0.00     0.035 C 
HETATM   31  C13 UNL     1      -6.307 -28.608  19.890  1.00  0.00     0.016 C 
HETATM   32  C14 UNL     1      -5.098 -29.827  18.081  1.00  0.00     0.016 C 
ENDBRANCH  25  30
ENDBRANCH  23  24
ENDBRANCH   4  22
TORSDOF 9
ENDMDL
MODEL 4
REMARK VINA RESULT: -6.638753170      2.944      8.703
REMARK  9 active torsions:
REMARK  status: ('A' for Active; 'I' for Inactive)
REMARK    1  A    between atoms: C4_4  and  C6_6 
REMARK    2  A    between atoms: C7_7  and  C8_8 
REMARK    3  A    between atoms: C9_9  and  O1_10 
REMARK    4  A    between atoms: C9_9  and  C12_14 
REMARK    5  A    between atoms: O1_10  and  C10_11 
REMARK    6  A    between atoms: C15_18  and  C17_20 
REMARK    7  A    between atoms: C20_26  and  C22_28 
REMARK    8  A    between atoms: C22_28  and  C23_29 
REMARK    9  A    between atoms: C23_29  and  O5_31 
ROOT
HETATM    1  C1  UNL     1      -5.499 -31.932  16.912  1.00  0.00     0.017 C 
HETATM    2  C2  UNL     1      -6.045 -31.972  18.107  1.00  0.00    -0.052 C 
HETATM    3  C3  UNL     1      -6.977 -33.069  18.593  1.00  0.00     0.078 C 
HETATM    4  C4  UNL     1      -7.944 -32.198  19.364  1.00  0.00     0.080 C 
HETATM    5  C5  UNL     1      -8.431 -32.970  20.564  1.00  0.00     0.051 C 
HETATM    6  O3  UNL     1      -7.285 -31.084  19.757  1.00  0.00    -0.361 OA
HETATM    7  C15 UNL     1      -5.982 -31.054  19.275  1.00  0.00     0.088 C 
HETATM    8  C16 UNL     1      -5.728 -29.692  18.774  1.00  0.00     0.051 C 
ENDROOT
BRANCH   7   9
HETATM    9  C17 UNL     1      -4.992 -31.600  20.258  1.00  0.00     0.061 C 
HETATM   10  C18 UNL     1      -3.564 -31.532  19.797  1.00  0.00     0.113 C 
HETATM   11  C19 UNL     1      -3.034 -30.365  20.540  1.00  0.00     0.218 C 
HETATM   12  O4  UNL     1      -1.831 -29.919  20.509  1.00  0.00    -0.274 OA
HETATM   13  N1  UNL     1      -4.085 -29.793  21.314  1.00  0.00    -0.352 N 
HETATM   14  C20 UNL     1      -4.927 -30.956  21.589  1.00  0.00     0.038 C 
ATOM     15  H1  UNL     1      -4.216 -28.823  21.602  1.00  0.00     0.163 HD
HETATM   16  C21 UNL     1      -4.075 -31.861  22.489  1.00  0.00     0.039 C 
BRANCH  14  17
HETATM   17  C22 UNL     1      -6.182 -30.624  22.292  1.00  0.00     0.062 C 
BRANCH  17  18
HETATM   18  C23 UNL     1      -6.241 -29.263  22.946  1.00  0.00     0.116 C 
HETATM   19  C24 UNL     1      -7.107 -28.365  22.059  1.00  0.00     0.039 C 
BRANCH  18  20
HETATM   20  O5  UNL     1      -6.942 -29.363  24.141  1.00  0.00    -0.396 OA
ATOM     21  H5  UNL     1      -6.327 -29.495  24.853  1.00  0.00     0.210 HD
ENDBRANCH  18  20
ENDBRANCH  17  18
ENDBRANCH  14  17
ENDBRANCH   7   9
BRANCH   4  22
HETATM   22  C6  UNL     1      -9.132 -31.834  18.553  1.00  0.00     0.011 C 
HETATM   23  C7  UNL     1      -9.473 -32.466  17.447  1.00  0.00     0.001 C 
BRANCH  23  24
HETATM   24  C8  UNL     1     -10.638 -32.082  16.683  1.00  0.00     0.033 C 
HETATM   25  C9  UNL     1     -10.840 -32.395  15.425  1.00  0.00     0.060 C 
BRANCH  25  26
HETATM   26  O1  UNL     1     -12.052 -31.919  14.858  1.00  0.00    -0.283 OA
BRANCH  26  27
HETATM   27  C10 UNL     1     -12.281 -30.579  14.623  1.00  0.00     0.259 C 
HETATM   28  C11 UNL     1     -11.410 -29.780  13.695  1.00  0.00     0.126 C 
HETATM   29  O2  UNL     1     -13.249 -30.034  15.212  1.00  0.00    -0.265 OA
ENDBRANCH  26  27
ENDBRANCH  25  26
BRANCH  25  30
HETATM   30  C12 UNL     1      -9.904 -33.186  14.621  1.00  0.00     0.035 C 
HETATM   31  C13 UNL     1     -10.628 -34.042  13.591  1.00  0.00     0.016 C 
HETATM   32  C14 UNL     1      -8.889 -32.287  13.934  1.00  0.00     0.016 C 
ENDBRANCH  25  30
ENDBRANCH  23  24
ENDBRANCH   4  22
TORSDOF 9
ENDMDL
MODEL 5
REMARK VINA RESULT: -6.578516591      1.944      3.165
REMARK  9 active torsions:
REMARK  status: ('A' for Active; 'I' for Inactive)
REMARK    1  A    between atoms: C4_4  and  C6_6 
REMARK    2  A    between atoms: C7_7  and  C8_8 
REMARK    3  A    between atoms: C9_9  and  O1_10 
REMARK    4  A    between atoms: C9_9  and  C12_14 
REMARK    5  A    between atoms: O1_10  and  C10_11 
REMARK    6  A    between atoms: C15_18  and  C17_20 
REMARK    7  A    between atoms: C20_26  and  C22_28 
REMARK    8  A    between atoms: C22_28  and  C23_29 
REMARK    9  A    between atoms: C23_29  and  O5_31 
ROOT
HETATM    1  C1  UNL     1     -10.796 -31.471  17.262  1.00  0.00     0.017 C 
HETATM    2  C2  UNL     1      -9.998 -32.462  16.932  1.00  0.00    -0.052 C 
HETATM    3  C3  UNL     1      -9.124 -33.228  17.911  1.00  0.00     0.078 C 
HETATM    4  C4  UNL     1      -7.903 -33.379  17.032  1.00  0.00     0.080 C 
HETATM    5  C5  UNL     1      -7.253 -34.704  17.338  1.00  0.00     0.051 C 
HETATM    6  O3  UNL     1      -8.308 -33.342  15.741  1.00  0.00    -0.361 OA
HETATM    7  C15 UNL     1      -9.673 -33.104  15.631  1.00  0.00     0.088 C 
HETATM    8  C16 UNL     1      -9.862 -32.102  14.566  1.00  0.00     0.051 C 
ENDROOT
BRANCH   7   9
HETATM    9  C17 UNL     1     -10.469 -34.367  15.509  1.00  0.00     0.061 C 
HETATM   10  C18 UNL     1     -11.948 -34.152  15.371  1.00  0.00     0.113 C 
HETATM   11  C19 UNL     1     -12.176 -34.358  13.921  1.00  0.00     0.218 C 
HETATM   12  O4  UNL     1     -13.303 -34.315  13.309  1.00  0.00    -0.274 OA
HETATM   13  N1  UNL     1     -10.925 -34.617  13.289  1.00  0.00    -0.352 N 
HETATM   14  C20 UNL     1     -10.168 -35.255  14.364  1.00  0.00     0.038 C 
ATOM     15  H1  UNL     1     -10.634 -34.411  12.334  1.00  0.00     0.163 HD
HETATM   16  C21 UNL     1     -10.885 -36.586  14.623  1.00  0.00     0.039 C 
BRANCH  14  17
HETATM   17  C22 UNL     1      -8.760 -35.529  14.014  1.00  0.00     0.062 C 
BRANCH  17  18
HETATM   18  C23 UNL     1      -8.239 -34.853  12.767  1.00  0.00     0.116 C 
HETATM   19  C24 UNL     1      -6.715 -34.778  12.888  1.00  0.00     0.039 C 
BRANCH  18  20
HETATM   20  O5  UNL     1      -8.467 -35.679  11.673  1.00  0.00    -0.396 OA
ATOM     21  H5  UNL     1      -9.394 -35.884  11.626  1.00  0.00     0.210 HD
ENDBRANCH  18  20
ENDBRANCH  17  18
ENDBRANCH  14  17
ENDBRANCH   7   9
BRANCH   4  22
HETATM   22  C6  UNL     1      -6.900 -32.317  17.287  1.00  0.00     0.011 C 
HETATM   23  C7  UNL     1      -6.824 -31.652  18.424  1.00  0.00     0.001 C 
BRANCH  23  24
HETATM   24  C8  UNL     1      -5.832 -30.623  18.637  1.00  0.00     0.033 C 
HETATM   25  C9  UNL     1      -5.700 -29.933  19.744  1.00  0.00     0.060 C 
BRANCH  25  26
HETATM   26  O1  UNL     1      -4.660 -28.966  19.748  1.00  0.00    -0.283 OA
BRANCH  26  27
HETATM   27  C10 UNL     1      -3.337 -29.305  19.556  1.00  0.00     0.259 C 
HETATM   28  C11 UNL     1      -2.635 -30.287  20.451  1.00  0.00     0.126 C 
HETATM   29  O2  UNL     1      -2.722 -28.765  18.601  1.00  0.00    -0.265 OA
ENDBRANCH  26  27
ENDBRANCH  25  26
BRANCH  25  30
HETATM   30  C12 UNL     1      -6.548 -30.117  20.925  1.00  0.00     0.035 C 
HETATM   31  C13 UNL     1      -5.902 -31.047  21.944  1.00  0.00     0.016 C 
HETATM   32  C14 UNL     1      -6.875 -28.781  21.570  1.00  0.00     0.016 C 
ENDBRANCH  25  30
ENDBRANCH  23  24
ENDBRANCH   4  22
TORSDOF 9
ENDMDL
