MODEL 1
REMARK VINA RESULT: -7.779765475      0.000      0.000
REMARK  9 active torsions:
REMARK  status: ('A' for Active; 'I' for Inactive)
REMARK    1  A    between atoms: C2_2  and  C3_3 
REMARK    2  A    between atoms: C4_4  and  C5_5 
REMARK    3  A    between atoms: C5_5  and  O1_6 
REMARK    4  A    between atoms: C6_8  and  O2_9 
REMARK    5  A    between atoms: C7_11  and  O3_12 
REMARK    6  A    between atoms: C8_14  and  O4_15 
REMARK    7  A    between atoms: O4_15  and  C9_16 
REMARK    8  A    between atoms: C21_31  and  C22_32 
REMARK    9  A    between atoms: C22_32  and  O7_33 
ROOT
HETATM    1  C9  UNL     1      18.018 -41.029 -15.491  1.00  0.00     0.140 C 
HETATM    2  C10 UNL     1      16.769 -40.746 -14.669  1.00  0.00     0.022 C 
HETATM    3  C11 UNL     1      16.916 -41.125 -13.240  1.00  0.00     0.010 C 
HETATM    4  C12 UNL     1      16.576 -42.505 -12.866  1.00  0.00     0.034 C 
HETATM    5  C13 UNL     1      16.883 -43.539 -13.925  1.00  0.00     0.102 C 
HETATM    6 CL1  UNL     1      17.049 -45.105 -13.060  1.00  0.00    -0.110 Cl
HETATM    7  C14 UNL     1      18.230 -43.216 -14.462  1.00  0.00     0.160 C 
HETATM    8  O5  UNL     1      19.226 -43.574 -13.850  1.00  0.00    -0.295 OA
HETATM    9  C15 UNL     1      18.278 -42.461 -15.742  1.00  0.00     0.116 C 
HETATM   10  C16 UNL     1      17.451 -43.097 -16.807  1.00  0.00     0.141 C 
HETATM   11  O6  UNL     1      18.069 -44.296 -17.231  1.00  0.00    -0.384 OA
HETATM   12  C17 UNL     1      17.141 -45.105 -16.536  1.00  0.00     0.175 C 
HETATM   13  C18 UNL     1      16.300 -43.894 -16.346  1.00  0.00     0.046 C 
HETATM   14  C19 UNL     1      15.816 -43.604 -14.955  1.00  0.00     0.025 C 
HETATM   15  C20 UNL     1      14.900 -42.421 -14.991  1.00  0.00     0.014 C 
HETATM   16  C21 UNL     1      15.514 -41.131 -15.344  1.00  0.00     0.016 C 
ENDROOT
BRANCH   1  17
HETATM   17  O4  UNL     1      17.943 -40.330 -16.696  1.00  0.00    -0.376 OA
BRANCH  17  18
HETATM   18  C8  UNL     1      18.465 -39.044 -16.546  1.00  0.00     0.161 C 
HETATM   19  C3  UNL     1      18.498 -38.423 -17.946  1.00  0.00     0.048 C 
HETATM   20  C4  UNL     1      17.135 -37.811 -18.035  1.00  0.00     0.051 C 
HETATM   21  C6  UNL     1      16.993 -37.122 -16.702  1.00  0.00     0.156 C 
HETATM   22  C7  UNL     1      17.566 -38.154 -15.746  1.00  0.00     0.176 C 
BRANCH  19  23
HETATM   23  C2  UNL     1      19.582 -37.416 -17.932  1.00  0.00    -0.029 C 
HETATM   24  C1  UNL     1      20.737 -37.723 -17.392  1.00  0.00     0.007 C 
ENDBRANCH  19  23
BRANCH  20  25
HETATM   25  C5  UNL     1      17.004 -36.852 -19.196  1.00  0.00     0.172 C 
BRANCH  25  26
HETATM   26  O1  UNL     1      15.704 -36.420 -19.324  1.00  0.00    -0.400 OA
ATOM     27  H1  UNL     1      15.652 -35.476 -19.224  1.00  0.00     0.209 HD
ENDBRANCH  25  26
ENDBRANCH  20  25
BRANCH  21  28
HETATM   28  O2  UNL     1      15.639 -36.882 -16.386  1.00  0.00    -0.392 OA
ATOM     29  H2  UNL     1      15.090 -36.915 -17.160  1.00  0.00     0.210 HD
ENDBRANCH  21  28
BRANCH  22  30
HETATM   30  O3  UNL     1      18.271 -37.536 -14.715  1.00  0.00    -0.390 OA
ATOM     31  H3  UNL     1      18.561 -36.670 -14.976  1.00  0.00     0.210 HD
ENDBRANCH  22  30
ENDBRANCH  17  18
ENDBRANCH   1  17
BRANCH  16  32
HETATM   32  C22 UNL     1      14.439 -40.050 -15.139  1.00  0.00     0.169 C 
BRANCH  32  33
HETATM   33  O7  UNL     1      14.090 -39.561 -16.396  1.00  0.00    -0.400 OA
ATOM     34  H7  UNL     1      13.523 -38.810 -16.264  1.00  0.00     0.209 HD
ENDBRANCH  32  33
ENDBRANCH  16  32
TORSDOF 9
ENDMDL
MODEL 2
REMARK VINA RESULT: -7.664954057      1.427      1.733
REMARK  9 active torsions:
REMARK  status: ('A' for Active; 'I' for Inactive)
REMARK    1  A    between atoms: C2_2  and  C3_3 
REMARK    2  A    between atoms: C4_4  and  C5_5 
REMARK    3  A    between atoms: C5_5  and  O1_6 
REMARK    4  A    between atoms: C6_8  and  O2_9 
REMARK    5  A    between atoms: C7_11  and  O3_12 
REMARK    6  A    between atoms: C8_14  and  O4_15 
REMARK    7  A    between atoms: O4_15  and  C9_16 
REMARK    8  A    between atoms: C21_31  and  C22_32 
REMARK    9  A    between atoms: C22_32  and  O7_33 
ROOT
HETATM    1  C9  UNL     1      17.408 -40.868 -15.425  1.00  0.00     0.140 C 
HETATM    2  C10 UNL     1      16.816 -40.847 -14.024  1.00  0.00     0.022 C 
HETATM    3  C11 UNL     1      17.806 -41.190 -12.970  1.00  0.00     0.010 C 
HETATM    4  C12 UNL     1      17.973 -42.612 -12.635  1.00  0.00     0.034 C 
HETATM    5  C13 UNL     1      17.796 -43.559 -13.799  1.00  0.00     0.102 C 
HETATM    6 CL1  UNL     1      18.681 -45.059 -13.360  1.00  0.00    -0.110 Cl
HETATM    7  C14 UNL     1      18.528 -42.967 -14.949  1.00  0.00     0.160 C 
HETATM    8  O5  UNL     1      19.738 -43.115 -15.035  1.00  0.00    -0.295 OA
HETATM    9  C15 UNL     1      17.717 -42.216 -15.943  1.00  0.00     0.116 C 
HETATM   10  C16 UNL     1      16.554 -43.005 -16.439  1.00  0.00     0.141 C 
HETATM   11  O6  UNL     1      17.015 -44.051 -17.271  1.00  0.00    -0.384 OA
HETATM   12  C17 UNL     1      16.793 -45.035 -16.279  1.00  0.00     0.175 C 
HETATM   13  C18 UNL     1      16.018 -44.021 -15.516  1.00  0.00     0.046 C 
HETATM   14  C19 UNL     1      16.363 -43.839 -14.067  1.00  0.00     0.025 C 
HETATM   15  C20 UNL     1      15.404 -42.868 -13.453  1.00  0.00     0.014 C 
HETATM   16  C21 UNL     1      15.485 -41.479 -13.932  1.00  0.00     0.016 C 
ENDROOT
BRANCH   1  17
HETATM   17  O4  UNL     1      16.550 -40.195 -16.296  1.00  0.00    -0.376 OA
BRANCH  17  18
HETATM   18  C8  UNL     1      16.896 -38.846 -16.377  1.00  0.00     0.161 C 
HETATM   19  C3  UNL     1      18.141 -38.770 -17.267  1.00  0.00     0.048 C 
HETATM   20  C4  UNL     1      17.530 -38.648 -18.627  1.00  0.00     0.051 C 
HETATM   21  C6  UNL     1      16.456 -37.611 -18.418  1.00  0.00     0.156 C 
HETATM   22  C7  UNL     1      15.859 -38.033 -17.087  1.00  0.00     0.176 C 
BRANCH  19  23
HETATM   23  C2  UNL     1      18.876 -37.553 -16.855  1.00  0.00    -0.029 C 
HETATM   24  C1  UNL     1      20.102 -37.666 -16.402  1.00  0.00     0.007 C 
ENDBRANCH  19  23
BRANCH  20  25
HETATM   25  C5  UNL     1      18.533 -38.234 -19.679  1.00  0.00     0.172 C 
BRANCH  25  26
HETATM   26  O1  UNL     1      18.437 -39.044 -20.788  1.00  0.00    -0.400 OA
ATOM     27  H1  UNL     1      19.241 -39.534 -20.917  1.00  0.00     0.209 HD
ENDBRANCH  25  26
ENDBRANCH  20  25
BRANCH  21  28
HETATM   28  O2  UNL     1      15.470 -37.678 -19.425  1.00  0.00    -0.392 OA
ATOM     29  H2  UNL     1      14.718 -38.185 -19.142  1.00  0.00     0.210 HD
ENDBRANCH  21  28
BRANCH  22  30
HETATM   30  O3  UNL     1      15.499 -36.920 -16.331  1.00  0.00    -0.390 OA
ATOM     31  H3  UNL     1      15.358 -37.160 -15.422  1.00  0.00     0.210 HD
ENDBRANCH  22  30
ENDBRANCH  17  18
ENDBRANCH   1  17
BRANCH  16  32
HETATM   32  C22 UNL     1      14.551 -40.641 -13.042  1.00  0.00     0.169 C 
BRANCH  32  33
HETATM   33  O7  UNL     1      14.145 -39.534 -13.785  1.00  0.00    -0.400 OA
ATOM     34  H7  UNL     1      14.151 -38.782 -13.205  1.00  0.00     0.209 HD
ENDBRANCH  32  33
ENDBRANCH  16  32
TORSDOF 9
ENDMDL
MODEL 3
REMARK VINA RESULT: -7.417406656      1.484      1.873
REMARK  9 active torsions:
REMARK  status: ('A' for Active; 'I' for Inactive)
REMARK    1  A    between atoms: C2_2  and  C3_3 
REMARK    2  A    between atoms: C4_4  and  C5_5 
REMARK    3  A    between atoms: C5_5  and  O1_6 
REMARK    4  A    between atoms: C6_8  and  O2_9 
REMARK    5  A    between atoms: C7_11  and  O3_12 
REMARK    6  A    between atoms: C8_14  and  O4_15 
REMARK    7  A    between atoms: O4_15  and  C9_16 
REMARK    8  A    between atoms: C21_31  and  C22_32 
REMARK    9  A    between atoms: C22_32  and  O7_33 
ROOT
HETATM    1  C9  UNL     1      16.621 -40.917 -15.325  1.00  0.00     0.140 C 
HETATM    2  C10 UNL     1      15.743 -40.630 -14.116  1.00  0.00     0.022 C 
HETATM    3  C11 UNL     1      16.396 -40.982 -12.828  1.00  0.00     0.010 C 
HETATM    4  C12 UNL     1      16.232 -42.359 -12.340  1.00  0.00     0.034 C 
HETATM    5  C13 UNL     1      16.157 -43.408 -13.424  1.00  0.00     0.102 C 
HETATM    6 CL1  UNL     1      16.645 -44.957 -12.655  1.00  0.00    -0.110 Cl
HETATM    7  C14 UNL     1      17.220 -43.082 -14.411  1.00  0.00     0.160 C 
HETATM    8  O5  UNL     1      18.373 -43.419 -14.189  1.00  0.00    -0.295 OA
HETATM    9  C15 UNL     1      16.797 -42.350 -15.633  1.00  0.00     0.116 C 
HETATM   10  C16 UNL     1      15.654 -43.013 -16.325  1.00  0.00     0.141 C 
HETATM   11  O6  UNL     1      16.099 -44.213 -16.925  1.00  0.00    -0.384 OA
HETATM   12  C17 UNL     1      15.492 -45.019 -15.934  1.00  0.00     0.175 C 
HETATM   13  C18 UNL     1      14.756 -43.812 -15.473  1.00  0.00     0.046 C 
HETATM   14  C19 UNL     1      14.794 -43.502 -14.006  1.00  0.00     0.025 C 
HETATM   15  C20 UNL     1      13.908 -42.329 -13.729  1.00  0.00     0.014 C 
HETATM   16  C21 UNL     1      14.336 -41.040 -14.294  1.00  0.00     0.016 C 
ENDROOT
BRANCH   1  17
HETATM   17  O4  UNL     1      16.111 -40.239 -16.434  1.00  0.00    -0.376 OA
BRANCH  17  18
HETATM   18  C8  UNL     1      16.512 -38.903 -16.415  1.00  0.00     0.161 C 
HETATM   19  C3  UNL     1      17.833 -38.835 -17.187  1.00  0.00     0.048 C 
HETATM   20  C4  UNL     1      17.352 -38.624 -18.588  1.00  0.00     0.051 C 
HETATM   21  C6  UNL     1      16.302 -37.555 -18.422  1.00  0.00     0.156 C 
HETATM   22  C7  UNL     1      15.573 -38.016 -17.171  1.00  0.00     0.176 C 
BRANCH  19  23
HETATM   23  C2  UNL     1      18.572 -37.670 -16.651  1.00  0.00    -0.029 C 
HETATM   24  C1  UNL     1      19.721 -37.861 -16.046  1.00  0.00     0.007 C 
ENDBRANCH  19  23
BRANCH  20  25
HETATM   25  C5  UNL     1      18.460 -38.202 -19.526  1.00  0.00     0.172 C 
BRANCH  25  26
HETATM   26  O1  UNL     1      18.444 -38.964 -20.672  1.00  0.00    -0.400 OA
ATOM     27  H1  UNL     1      17.861 -38.583 -21.319  1.00  0.00     0.209 HD
ENDBRANCH  25  26
ENDBRANCH  20  25
BRANCH  21  28
HETATM   28  O2  UNL     1      15.408 -37.534 -19.513  1.00  0.00    -0.392 OA
ATOM     29  H2  UNL     1      15.049 -36.666 -19.652  1.00  0.00     0.210 HD
ENDBRANCH  21  28
BRANCH  22  30
HETATM   30  O3  UNL     1      15.187 -36.926 -16.395  1.00  0.00    -0.390 OA
ATOM     31  H3  UNL     1      15.660 -36.143 -16.651  1.00  0.00     0.210 HD
ENDBRANCH  22  30
ENDBRANCH  17  18
ENDBRANCH   1  17
BRANCH  16  32
HETATM   32  C22 UNL     1      13.387 -39.966 -13.734  1.00  0.00     0.169 C 
BRANCH  32  33
HETATM   33  O7  UNL     1      13.556 -38.815 -14.501  1.00  0.00    -0.400 OA
ATOM     34  H7  UNL     1      13.177 -38.090 -14.018  1.00  0.00     0.209 HD
ENDBRANCH  32  33
ENDBRANCH  16  32
TORSDOF 9
ENDMDL
MODEL 4
REMARK VINA RESULT: -6.862558481      1.690      3.517
REMARK  9 active torsions:
REMARK  status: ('A' for Active; 'I' for Inactive)
REMARK    1  A    between atoms: C2_2  and  C3_3 
REMARK    2  A    between atoms: C4_4  and  C5_5 
REMARK    3  A    between atoms: C5_5  and  O1_6 
REMARK    4  A    between atoms: C6_8  and  O2_9 
REMARK    5  A    between atoms: C7_11  and  O3_12 
REMARK    6  A    between atoms: C8_14  and  O4_15 
REMARK    7  A    between atoms: O4_15  and  C9_16 
REMARK    8  A    between atoms: C21_31  and  C22_32 
REMARK    9  A    between atoms: C22_32  and  O7_33 
ROOT
HETATM    1  C9  UNL     1      15.626 -41.348 -15.991  1.00  0.00     0.140 C 
HETATM    2  C10 UNL     1      15.803 -42.846 -16.192  1.00  0.00     0.022 C 
HETATM    3  C11 UNL     1      14.696 -43.645 -15.604  1.00  0.00     0.010 C 
HETATM    4  C12 UNL     1      14.823 -44.046 -14.196  1.00  0.00     0.034 C 
HETATM    5  C13 UNL     1      15.541 -43.047 -13.318  1.00  0.00     0.102 C 
HETATM    6 CL1  UNL     1      14.995 -43.376 -11.638  1.00  0.00    -0.110 Cl
HETATM    7  C14 UNL     1      15.009 -41.705 -13.672  1.00  0.00     0.160 C 
HETATM    8  O5  UNL     1      13.947 -41.333 -13.197  1.00  0.00    -0.295 OA
HETATM    9  C15 UNL     1      15.827 -40.885 -14.603  1.00  0.00     0.116 C 
HETATM   10  C16 UNL     1      17.244 -40.763 -14.156  1.00  0.00     0.141 C 
HETATM   11  O6  UNL     1      17.308 -39.934 -13.013  1.00  0.00    -0.384 OA
HETATM   12  C17 UNL     1      17.510 -41.029 -12.141  1.00  0.00     0.175 C 
HETATM   13  C18 UNL     1      17.765 -41.873 -13.339  1.00  0.00     0.046 C 
HETATM   14  C19 UNL     1      17.016 -43.169 -13.438  1.00  0.00     0.025 C 
HETATM   15  C20 UNL     1      17.491 -43.919 -14.643  1.00  0.00     0.014 C 
HETATM   16  C21 UNL     1      17.179 -43.320 -15.950  1.00  0.00     0.016 C 
ENDROOT
BRANCH   1  17
HETATM   17  O4  UNL     1      16.477 -40.665 -16.861  1.00  0.00    -0.376 OA
BRANCH  17  18
HETATM   18  C8  UNL     1      16.615 -39.335 -16.463  1.00  0.00     0.161 C 
HETATM   19  C3  UNL     1      17.948 -38.846 -17.038  1.00  0.00     0.048 C 
HETATM   20  C4  UNL     1      17.529 -38.352 -18.386  1.00  0.00     0.051 C 
HETATM   21  C6  UNL     1      16.288 -37.555 -18.078  1.00  0.00     0.156 C 
HETATM   22  C7  UNL     1      15.578 -38.446 -17.074  1.00  0.00     0.176 C 
BRANCH  19  23
HETATM   23  C2  UNL     1      18.416 -37.762 -16.147  1.00  0.00    -0.029 C 
HETATM   24  C1  UNL     1      19.412 -37.991 -15.324  1.00  0.00     0.007 C 
ENDBRANCH  19  23
BRANCH  20  25
HETATM   25  C5  UNL     1      18.597 -37.517 -19.057  1.00  0.00     0.172 C 
BRANCH  25  26
HETATM   26  O1  UNL     1      19.332 -38.282 -19.934  1.00  0.00    -0.400 OA
ATOM     27  H1  UNL     1      20.244 -38.012 -19.931  1.00  0.00     0.209 HD
ENDBRANCH  25  26
ENDBRANCH  20  25
BRANCH  21  28
HETATM   28  O2  UNL     1      15.480 -37.391 -19.223  1.00  0.00    -0.392 OA
ATOM     29  H2  UNL     1      14.569 -37.584 -19.037  1.00  0.00     0.210 HD
ENDBRANCH  21  28
BRANCH  22  30
HETATM   30  O3  UNL     1      14.942 -37.683 -16.097  1.00  0.00    -0.390 OA
ATOM     31  H3  UNL     1      15.570 -37.158 -15.616  1.00  0.00     0.210 HD
ENDBRANCH  22  30
ENDBRANCH  17  18
ENDBRANCH   1  17
BRANCH  16  32
HETATM   32  C22 UNL     1      17.595 -44.340 -17.023  1.00  0.00     0.169 C 
BRANCH  32  33
HETATM   33  O7  UNL     1      18.836 -43.948 -17.518  1.00  0.00    -0.400 OA
ATOM     34  H7  UNL     1      19.421 -44.693 -17.450  1.00  0.00     0.209 HD
ENDBRANCH  32  33
ENDBRANCH  16  32
TORSDOF 9
ENDMDL
MODEL 5
REMARK VINA RESULT: -6.856262280      1.767      4.021
REMARK  9 active torsions:
REMARK  status: ('A' for Active; 'I' for Inactive)
REMARK    1  A    between atoms: C2_2  and  C3_3 
REMARK    2  A    between atoms: C4_4  and  C5_5 
REMARK    3  A    between atoms: C5_5  and  O1_6 
REMARK    4  A    between atoms: C6_8  and  O2_9 
REMARK    5  A    between atoms: C7_11  and  O3_12 
REMARK    6  A    between atoms: C8_14  and  O4_15 
REMARK    7  A    between atoms: O4_15  and  C9_16 
REMARK    8  A    between atoms: C21_31  and  C22_32 
REMARK    9  A    between atoms: C22_32  and  O7_33 
ROOT
HETATM    1  C9  UNL     1      16.403 -41.291 -16.559  1.00  0.00     0.140 C 
HETATM    2  C10 UNL     1      16.633 -42.794 -16.614  1.00  0.00     0.022 C 
HETATM    3  C11 UNL     1      15.388 -43.579 -16.407  1.00  0.00     0.010 C 
HETATM    4  C12 UNL     1      15.019 -43.912 -15.024  1.00  0.00     0.034 C 
HETATM    5  C13 UNL     1      15.392 -42.864 -14.002  1.00  0.00     0.102 C 
HETATM    6 CL1  UNL     1      14.298 -43.122 -12.600  1.00  0.00    -0.110 Cl
HETATM    7  C14 UNL     1      15.020 -41.547 -14.582  1.00  0.00     0.160 C 
HETATM    8  O5  UNL     1      13.860 -41.168 -14.522  1.00  0.00    -0.295 OA
HETATM    9  C15 UNL     1      16.113 -40.760 -15.212  1.00  0.00     0.116 C 
HETATM   10  C16 UNL     1      17.288 -40.598 -14.309  1.00  0.00     0.141 C 
HETATM   11  O6  UNL     1      16.955 -39.716 -13.256  1.00  0.00    -0.384 OA
HETATM   12  C17 UNL     1      16.839 -40.766 -12.316  1.00  0.00     0.175 C 
HETATM   13  C18 UNL     1      17.490 -41.662 -13.309  1.00  0.00     0.046 C 
HETATM   14  C19 UNL     1      16.817 -42.971 -13.598  1.00  0.00     0.025 C 
HETATM   15  C20 UNL     1      17.677 -43.770 -14.526  1.00  0.00     0.014 C 
HETATM   16  C21 UNL     1      17.839 -43.237 -15.888  1.00  0.00     0.016 C 
ENDROOT
BRANCH   1  17
HETATM   17  O4  UNL     1      17.504 -40.637 -17.113  1.00  0.00    -0.376 OA
BRANCH  17  18
HETATM   18  C8  UNL     1      17.151 -39.352 -17.527  1.00  0.00     0.161 C 
HETATM   19  C3  UNL     1      18.044 -38.384 -16.745  1.00  0.00     0.048 C 
HETATM   20  C4  UNL     1      19.242 -38.293 -17.637  1.00  0.00     0.051 C 
HETATM   21  C6  UNL     1      18.627 -38.115 -19.002  1.00  0.00     0.156 C 
HETATM   22  C7  UNL     1      17.478 -39.107 -18.966  1.00  0.00     0.176 C 
BRANCH  19  23
HETATM   23  C2  UNL     1      17.299 -37.109 -16.651  1.00  0.00    -0.029 C 
HETATM   24  C1  UNL     1      15.987 -37.131 -16.638  1.00  0.00     0.007 C 
ENDBRANCH  19  23
BRANCH  20  25
HETATM   25  C5  UNL     1      20.159 -37.150 -17.265  1.00  0.00     0.172 C 
BRANCH  25  26
HETATM   26  O1  UNL     1      21.412 -37.337 -17.804  1.00  0.00    -0.400 OA
ATOM     27  H1  UNL     1      22.074 -36.915 -17.268  1.00  0.00     0.209 HD
ENDBRANCH  25  26
ENDBRANCH  20  25
BRANCH  21  28
HETATM   28  O2  UNL     1      19.530 -38.469 -20.027  1.00  0.00    -0.392 OA
ATOM     29  H2  UNL     1      19.075 -38.762 -20.807  1.00  0.00     0.210 HD
ENDBRANCH  21  28
BRANCH  22  30
HETATM   30  O3  UNL     1      16.371 -38.606 -19.648  1.00  0.00    -0.390 OA
ATOM     31  H3  UNL     1      16.215 -37.697 -19.418  1.00  0.00     0.210 HD
ENDBRANCH  22  30
ENDBRANCH  17  18
ENDBRANCH   1  17
BRANCH  16  32
HETATM   32  C22 UNL     1      18.597 -44.300 -16.701  1.00  0.00     0.169 C 
BRANCH  32  33
HETATM   33  O7  UNL     1      18.564 -43.909 -18.038  1.00  0.00    -0.400 OA
ATOM     34  H7  UNL     1      19.445 -43.996 -18.383  1.00  0.00     0.209 HD
ENDBRANCH  32  33
ENDBRANCH  16  32
TORSDOF 9
ENDMDL
