MODEL 1
REMARK VINA RESULT: -8.241204789      0.000      0.000
REMARK  8 active torsions:
REMARK  status: ('A' for Active; 'I' for Inactive)
REMARK    1  A    between atoms: C3_3  and  C4_4 
REMARK    2  A    between atoms: C5_5  and  C6_6 
REMARK    3  A    between atoms: C6_6  and  C7_7 
REMARK    4  A    between atoms: C8_9  and  N1_10 
REMARK    5  A    between atoms: N1_10  and  C9_12 
REMARK    6  A    between atoms: C12_17  and  C13_18 
REMARK    7  A    between atoms: C16_25  and  O2_26 
REMARK    8  A    between atoms: C17_28  and  C18_29 
ROOT
HETATM    1  C7  UNL     1       4.205 -27.840 -17.347  1.00  0.00     0.180 C 
HETATM    2  O1  UNL     1       4.334 -27.458 -16.022  1.00  0.00    -0.355 OA
HETATM    3  C8  UNL     1       3.280 -26.754 -15.504  1.00  0.00     0.248 C 
HETATM    4  C15 UNL     1       2.612 -25.804 -16.452  1.00  0.00     0.288 C 
HETATM    5  N3  UNL     1       3.515 -25.511 -17.542  1.00  0.00    -0.042 N 
ATOM      6  H31 UNL     1       4.391 -25.079 -17.245  1.00  0.00     0.280 HD
ATOM      7  H32 UNL     1       3.201 -24.746 -18.141  1.00  0.00     0.280 HD
HETATM    8  C16 UNL     1       3.696 -26.783 -18.256  1.00  0.00     0.348 C 
ENDROOT
BRANCH   3   9
HETATM    9  N1  UNL     1       3.815 -26.005 -14.357  1.00  0.00    -0.343 N 
ATOM     10  H1  UNL     1       3.253 -25.302 -13.878  1.00  0.00     0.164 HD
BRANCH   9  11
HETATM   11  C9  UNL     1       5.044 -26.271 -13.970  1.00  0.00     0.147 A 
HETATM   12  N2  UNL     1       6.180 -25.916 -14.570  1.00  0.00    -0.340 N 
HETATM   13  C10 UNL     1       7.310 -26.276 -14.031  1.00  0.00     0.020 A 
ATOM     14  H2  UNL     1       6.165 -25.374 -15.434  1.00  0.00     0.168 HD
HETATM   15  C11 UNL     1       8.664 -25.923 -14.633  1.00  0.00     0.069 C 
HETATM   16  C12 UNL     1       7.275 -26.997 -12.877  1.00  0.00     0.008 A 
HETATM   17  S1  UNL     1       5.594 -27.136 -12.602  1.00  0.00    -0.057 SA
BRANCH  16  18
HETATM   18  C13 UNL     1       8.348 -27.551 -12.023  1.00  0.00     0.043 C 
HETATM   19  C14 UNL     1       8.815 -28.900 -12.396  1.00  0.00     0.010 C 
ENDBRANCH  16  18
ENDBRANCH   9  11
ENDBRANCH   3   9
BRANCH   1  20
HETATM   20  C6  UNL     1       3.439 -29.128 -17.400  1.00  0.00     0.042 C 
BRANCH  20  21
HETATM   21  C5  UNL     1       2.660 -29.293 -18.683  1.00  0.00     0.011 A 
HETATM   22  C4  UNL     1       2.301 -30.754 -19.023  1.00  0.00     0.027 A 
HETATM   23  C17 UNL     1       3.286 -30.003 -19.825  1.00  0.00     0.099 A 
BRANCH  22  24
HETATM   24  C3  UNL     1       0.929 -31.019 -19.535  1.00  0.00    -0.025 C 
HETATM   25  C2  UNL     1       0.078 -31.828 -18.966  1.00  0.00    -0.035 C 
HETATM   26  C1  UNL     1       0.419 -32.575 -17.723  1.00  0.00     0.036 C 
ENDBRANCH  22  24
BRANCH  23  27
HETATM   27  C18 UNL     1       2.997 -29.491 -21.159  1.00  0.00     0.178 C 
HETATM   28  O3  UNL     1       3.056 -28.265 -21.398  1.00  0.00    -0.648 OA
HETATM   29  O4  UNL     1       2.652 -30.339 -22.193  1.00  0.00    -0.648 OA
ENDBRANCH  23  27
ENDBRANCH  20  21
ENDBRANCH   1  20
BRANCH   8  30
HETATM   30  O2  UNL     1       4.588 -26.490 -19.313  1.00  0.00    -0.368 OA
ATOM     31  H2  UNL     1       4.246 -25.841 -19.916  1.00  0.00     0.212 HD
ENDBRANCH   8  30
TORSDOF 8
ENDMDL
MODEL 2
REMARK VINA RESULT: -8.103119494      1.165      1.426
REMARK  8 active torsions:
REMARK  status: ('A' for Active; 'I' for Inactive)
REMARK    1  A    between atoms: C3_3  and  C4_4 
REMARK    2  A    between atoms: C5_5  and  C6_6 
REMARK    3  A    between atoms: C6_6  and  C7_7 
REMARK    4  A    between atoms: C8_9  and  N1_10 
REMARK    5  A    between atoms: N1_10  and  C9_12 
REMARK    6  A    between atoms: C12_17  and  C13_18 
REMARK    7  A    between atoms: C16_25  and  O2_26 
REMARK    8  A    between atoms: C17_28  and  C18_29 
ROOT
HETATM    1  C7  UNL     1       4.915 -26.390 -18.423  1.00  0.00     0.180 C 
HETATM    2  O1  UNL     1       5.244 -26.233 -17.086  1.00  0.00    -0.355 OA
HETATM    3  C8  UNL     1       4.206 -26.365 -16.203  1.00  0.00     0.248 C 
HETATM    4  C15 UNL     1       2.887 -25.831 -16.674  1.00  0.00     0.288 C 
HETATM    5  N3  UNL     1       3.114 -24.892 -17.750  1.00  0.00    -0.042 N 
ATOM      6  H31 UNL     1       3.688 -24.093 -17.482  1.00  0.00     0.280 HD
ATOM      7  H32 UNL     1       2.283 -24.361 -18.013  1.00  0.00     0.280 HD
HETATM    8  C16 UNL     1       3.680 -25.684 -18.850  1.00  0.00     0.348 C 
ENDROOT
BRANCH   3   9
HETATM    9  N1  UNL     1       4.615 -25.651 -14.984  1.00  0.00    -0.343 N 
ATOM     10  H1  UNL     1       4.070 -24.868 -14.624  1.00  0.00     0.164 HD
BRANCH   9  11
HETATM   11  C9  UNL     1       5.708 -26.056 -14.374  1.00  0.00     0.147 A 
HETATM   12  N2  UNL     1       6.969 -25.748 -14.675  1.00  0.00    -0.340 N 
HETATM   13  C10 UNL     1       7.926 -26.250 -13.949  1.00  0.00     0.020 A 
ATOM     14  H2  UNL     1       7.181 -25.130 -15.459  1.00  0.00     0.168 HD
HETATM   15  C11 UNL     1       9.400 -25.963 -14.205  1.00  0.00     0.069 C 
HETATM   16  C12 UNL     1       7.589 -27.068 -12.913  1.00  0.00     0.008 A 
HETATM   17  S1  UNL     1       5.884 -27.086 -13.021  1.00  0.00    -0.057 SA
BRANCH  16  18
HETATM   18  C13 UNL     1       8.409 -27.787 -11.913  1.00  0.00     0.043 C 
HETATM   19  C14 UNL     1       8.990 -29.062 -12.376  1.00  0.00     0.010 C 
ENDBRANCH  16  18
ENDBRANCH   9  11
ENDBRANCH   3   9
BRANCH   1  20
HETATM   20  C6  UNL     1       4.943 -27.851 -18.753  1.00  0.00     0.042 C 
BRANCH  20  21
HETATM   21  C5  UNL     1       3.625 -28.355 -19.292  1.00  0.00     0.011 A 
HETATM   22  C4  UNL     1       2.916 -29.376 -18.378  1.00  0.00     0.027 A 
HETATM   23  C17 UNL     1       3.495 -29.782 -19.673  1.00  0.00     0.099 A 
BRANCH  22  24
HETATM   24  C3  UNL     1       1.446 -29.229 -18.202  1.00  0.00    -0.025 C 
HETATM   25  C2  UNL     1       0.667 -30.162 -17.728  1.00  0.00    -0.035 C 
HETATM   26  C1  UNL     1       1.201 -31.490 -17.312  1.00  0.00     0.036 C 
ENDBRANCH  22  24
BRANCH  23  27
HETATM   27  C18 UNL     1       2.683 -30.082 -20.846  1.00  0.00     0.178 C 
HETATM   28  O3  UNL     1       1.996 -31.125 -20.897  1.00  0.00    -0.648 OA
HETATM   29  O4  UNL     1       2.649 -29.227 -21.930  1.00  0.00    -0.648 OA
ENDBRANCH  23  27
ENDBRANCH  20  21
ENDBRANCH   1  20
BRANCH   8  30
HETATM   30  O2  UNL     1       3.909 -24.757 -19.893  1.00  0.00    -0.368 OA
ATOM     31  H2  UNL     1       3.254 -24.803 -20.579  1.00  0.00     0.212 HD
ENDBRANCH   8  30
TORSDOF 8
ENDMDL
MODEL 3
REMARK VINA RESULT: -8.099925120      0.852      1.451
REMARK  8 active torsions:
REMARK  status: ('A' for Active; 'I' for Inactive)
REMARK    1  A    between atoms: C3_3  and  C4_4 
REMARK    2  A    between atoms: C5_5  and  C6_6 
REMARK    3  A    between atoms: C6_6  and  C7_7 
REMARK    4  A    between atoms: C8_9  and  N1_10 
REMARK    5  A    between atoms: N1_10  and  C9_12 
REMARK    6  A    between atoms: C12_17  and  C13_18 
REMARK    7  A    between atoms: C16_25  and  O2_26 
REMARK    8  A    between atoms: C17_28  and  C18_29 
ROOT
HETATM    1  C7  UNL     1       3.965 -28.180 -17.337  1.00  0.00     0.180 C 
HETATM    2  O1  UNL     1       4.066 -27.903 -15.983  1.00  0.00    -0.355 OA
HETATM    3  C8  UNL     1       3.021 -27.200 -15.445  1.00  0.00     0.248 C 
HETATM    4  C15 UNL     1       2.418 -26.157 -16.337  1.00  0.00     0.288 C 
HETATM    5  N3  UNL     1       3.365 -25.818 -17.376  1.00  0.00    -0.042 N 
ATOM      6  H31 UNL     1       4.245 -25.443 -17.021  1.00  0.00     0.280 HD
ATOM      7  H32 UNL     1       3.097 -25.000 -17.923  1.00  0.00     0.280 HD
HETATM    8  C16 UNL     1       3.523 -27.039 -18.178  1.00  0.00     0.348 C 
ENDROOT
BRANCH   3   9
HETATM    9  N1  UNL     1       3.545 -26.559 -14.229  1.00  0.00    -0.343 N 
ATOM     10  H1  UNL     1       2.920 -26.116 -13.556  1.00  0.00     0.164 HD
BRANCH   9  11
HETATM   11  C9  UNL     1       4.846 -26.576 -14.040  1.00  0.00     0.147 A 
HETATM   12  N2  UNL     1       5.527 -27.270 -13.128  1.00  0.00    -0.340 N 
HETATM   13  C10 UNL     1       6.824 -27.155 -13.095  1.00  0.00     0.020 A 
ATOM     14  H2  UNL     1       5.042 -27.879 -12.469  1.00  0.00     0.168 HD
HETATM   15  C11 UNL     1       7.697 -27.904 -12.096  1.00  0.00     0.069 C 
HETATM   16  C12 UNL     1       7.423 -26.330 -13.998  1.00  0.00     0.008 A 
HETATM   17  S1  UNL     1       6.081 -25.739 -14.875  1.00  0.00    -0.057 SA
BRANCH  16  18
HETATM   18  C13 UNL     1       8.841 -25.981 -14.230  1.00  0.00     0.043 C 
HETATM   19  C14 UNL     1       9.361 -24.877 -13.400  1.00  0.00     0.010 C 
ENDBRANCH  16  18
ENDBRANCH   9  11
ENDBRANCH   3   9
BRANCH   1  20
HETATM   20  C6  UNL     1       3.157 -29.431 -17.509  1.00  0.00     0.042 C 
BRANCH  20  21
HETATM   21  C5  UNL     1       2.452 -29.492 -18.844  1.00  0.00     0.011 A 
HETATM   22  C4  UNL     1       2.140 -30.922 -19.331  1.00  0.00     0.027 A 
HETATM   23  C17 UNL     1       3.153 -30.089 -20.007  1.00  0.00     0.099 A 
BRANCH  22  24
HETATM   24  C3  UNL     1       0.804 -31.160 -19.940  1.00  0.00    -0.025 C 
HETATM   25  C2  UNL     1      -0.152 -31.838 -19.367  1.00  0.00    -0.035 C 
HETATM   26  C1  UNL     1       0.019 -32.448 -18.019  1.00  0.00     0.036 C 
ENDBRANCH  22  24
BRANCH  23  27
HETATM   27  C18 UNL     1       2.928 -29.464 -21.305  1.00  0.00     0.178 C 
HETATM   28  O3  UNL     1       3.104 -28.236 -21.461  1.00  0.00    -0.648 OA
HETATM   29  O4  UNL     1       2.517 -30.206 -22.395  1.00  0.00    -0.648 OA
ENDBRANCH  23  27
ENDBRANCH  20  21
ENDBRANCH   1  20
BRANCH   8  30
HETATM   30  O2  UNL     1       4.459 -26.702 -19.183  1.00  0.00    -0.368 OA
ATOM     31  H2  UNL     1       4.567 -27.387 -19.832  1.00  0.00     0.212 HD
ENDBRANCH   8  30
TORSDOF 8
ENDMDL
MODEL 4
REMARK VINA RESULT: -7.989894569      3.130      5.301
REMARK  8 active torsions:
REMARK  status: ('A' for Active; 'I' for Inactive)
REMARK    1  A    between atoms: C3_3  and  C4_4 
REMARK    2  A    between atoms: C5_5  and  C6_6 
REMARK    3  A    between atoms: C6_6  and  C7_7 
REMARK    4  A    between atoms: C8_9  and  N1_10 
REMARK    5  A    between atoms: N1_10  and  C9_12 
REMARK    6  A    between atoms: C12_17  and  C13_18 
REMARK    7  A    between atoms: C16_25  and  O2_26 
REMARK    8  A    between atoms: C17_28  and  C18_29 
ROOT
HETATM    1  C7  UNL     1       3.174 -27.726 -17.842  1.00  0.00     0.180 C 
HETATM    2  O1  UNL     1       2.973 -26.658 -18.702  1.00  0.00    -0.355 OA
HETATM    3  C8  UNL     1       4.074 -25.884 -18.951  1.00  0.00     0.248 C 
HETATM    4  C15 UNL     1       5.002 -25.691 -17.789  1.00  0.00     0.288 C 
HETATM    5  N3  UNL     1       4.291 -25.977 -16.563  1.00  0.00    -0.042 N 
ATOM      6  H31 UNL     1       3.481 -25.376 -16.409  1.00  0.00     0.280 HD
ATOM      7  H32 UNL     1       4.802 -25.710 -15.721  1.00  0.00     0.280 HD
HETATM    8  C16 UNL     1       3.962 -27.408 -16.624  1.00  0.00     0.348 C 
ENDROOT
BRANCH   3   9
HETATM    9  N1  UNL     1       3.562 -24.577 -19.390  1.00  0.00    -0.343 N 
ATOM     10  H1  UNL     1       3.861 -24.164 -20.273  1.00  0.00     0.164 HD
BRANCH   9  11
HETATM   11  C9  UNL     1       2.708 -23.958 -18.605  1.00  0.00     0.147 A 
HETATM   12  N2  UNL     1       1.478 -24.351 -18.271  1.00  0.00    -0.340 N 
HETATM   13  C10 UNL     1       0.777 -23.598 -17.474  1.00  0.00     0.020 A 
ATOM     14  H2  UNL     1       1.095 -25.225 -18.632  1.00  0.00     0.168 HD
HETATM   15  C11 UNL     1      -0.637 -23.953 -17.029  1.00  0.00     0.069 C 
HETATM   16  C12 UNL     1       1.335 -22.442 -17.019  1.00  0.00     0.008 A 
HETATM   17  S1  UNL     1       2.872 -22.479 -17.764  1.00  0.00    -0.057 SA
BRANCH  16  18
HETATM   18  C13 UNL     1       0.824 -21.383 -16.121  1.00  0.00     0.043 C 
HETATM   19  C14 UNL     1       0.145 -20.259 -16.796  1.00  0.00     0.010 C 
ENDBRANCH  16  18
ENDBRANCH   9  11
ENDBRANCH   3   9
BRANCH   1  20
HETATM   20  C6  UNL     1       3.694 -28.886 -18.635  1.00  0.00     0.042 C 
BRANCH  20  21
HETATM   21  C5  UNL     1       2.730 -29.343 -19.704  1.00  0.00     0.011 A 
HETATM   22  C4  UNL     1       2.293 -30.818 -19.575  1.00  0.00     0.027 A 
HETATM   23  C17 UNL     1       3.164 -30.372 -20.680  1.00  0.00     0.099 A 
BRANCH  22  24
HETATM   24  C3  UNL     1       0.856 -31.127 -19.801  1.00  0.00    -0.025 C 
HETATM   25  C2  UNL     1       0.122 -31.837 -18.989  1.00  0.00    -0.035 C 
HETATM   26  C1  UNL     1       0.679 -32.414 -17.733  1.00  0.00     0.036 C 
ENDBRANCH  22  24
BRANCH  23  27
HETATM   27  C18 UNL     1       2.692 -30.222 -22.052  1.00  0.00     0.178 C 
HETATM   28  O3  UNL     1       1.889 -29.313 -22.353  1.00  0.00    -0.648 OA
HETATM   29  O4  UNL     1       3.114 -31.076 -23.052  1.00  0.00    -0.648 OA
ENDBRANCH  23  27
ENDBRANCH  20  21
ENDBRANCH   1  20
BRANCH   8  30
HETATM   30  O2  UNL     1       3.257 -27.676 -15.428  1.00  0.00    -0.368 OA
ATOM     31  H2  UNL     1       3.811 -27.642 -14.657  1.00  0.00     0.212 HD
ENDBRANCH   8  30
TORSDOF 8
ENDMDL
MODEL 5
REMARK VINA RESULT: -7.843139033      1.554      2.015
REMARK  8 active torsions:
REMARK  status: ('A' for Active; 'I' for Inactive)
REMARK    1  A    between atoms: C3_3  and  C4_4 
REMARK    2  A    between atoms: C5_5  and  C6_6 
REMARK    3  A    between atoms: C6_6  and  C7_7 
REMARK    4  A    between atoms: C8_9  and  N1_10 
REMARK    5  A    between atoms: N1_10  and  C9_12 
REMARK    6  A    between atoms: C12_17  and  C13_18 
REMARK    7  A    between atoms: C16_25  and  O2_26 
REMARK    8  A    between atoms: C17_28  and  C18_29 
ROOT
HETATM    1  C7  UNL     1       4.538 -27.853 -19.229  1.00  0.00     0.180 C 
HETATM    2  O1  UNL     1       5.292 -27.349 -18.181  1.00  0.00    -0.355 OA
HETATM    3  C8  UNL     1       4.749 -26.277 -17.525  1.00  0.00     0.248 C 
HETATM    4  C15 UNL     1       3.998 -25.307 -18.387  1.00  0.00     0.288 C 
HETATM    5  N3  UNL     1       4.411 -25.478 -19.762  1.00  0.00    -0.042 N 
ATOM      6  H31 UNL     1       5.406 -25.315 -19.915  1.00  0.00     0.280 HD
ATOM      7  H32 UNL     1       4.071 -24.746 -20.386  1.00  0.00     0.280 HD
HETATM    8  C16 UNL     1       3.969 -26.828 -20.140  1.00  0.00     0.348 C 
ENDROOT
BRANCH   3   9
HETATM    9  N1  UNL     1       5.874 -25.586 -16.876  1.00  0.00    -0.343 N 
ATOM     10  H1  UNL     1       6.399 -24.861 -17.364  1.00  0.00     0.164 HD
BRANCH   9  11
HETATM   11  C9  UNL     1       6.179 -25.934 -15.645  1.00  0.00     0.147 A 
HETATM   12  N2  UNL     1       5.343 -26.288 -14.669  1.00  0.00    -0.340 N 
HETATM   13  C10 UNL     1       5.838 -26.602 -13.506  1.00  0.00     0.020 A 
ATOM     14  H2  UNL     1       4.336 -26.312 -14.829  1.00  0.00     0.168 HD
HETATM   15  C11 UNL     1       4.974 -27.022 -12.324  1.00  0.00     0.069 C 
HETATM   16  C12 UNL     1       7.190 -26.555 -13.345  1.00  0.00     0.008 A 
HETATM   17  S1  UNL     1       7.710 -26.053 -14.893  1.00  0.00    -0.057 SA
BRANCH  16  18
HETATM   18  C13 UNL     1       8.058 -26.845 -12.183  1.00  0.00     0.043 C 
HETATM   19  C14 UNL     1       8.702 -28.173 -12.194  1.00  0.00     0.010 C 
ENDBRANCH  16  18
ENDBRANCH   9  11
ENDBRANCH   3   9
BRANCH   1  20
HETATM   20  C6  UNL     1       3.535 -28.819 -18.674  1.00  0.00     0.042 C 
BRANCH  20  21
HETATM   21  C5  UNL     1       2.632 -29.399 -19.737  1.00  0.00     0.011 A 
HETATM   22  C4  UNL     1       2.344 -30.906 -19.571  1.00  0.00     0.027 A 
HETATM   23  C17 UNL     1       3.177 -30.405 -20.681  1.00  0.00     0.099 A 
BRANCH  22  24
HETATM   24  C3  UNL     1       0.947 -31.363 -19.799  1.00  0.00    -0.025 C 
HETATM   25  C2  UNL     1       0.192 -31.900 -18.879  1.00  0.00    -0.035 C 
HETATM   26  C1  UNL     1       0.681 -32.105 -17.487  1.00  0.00     0.036 C 
ENDBRANCH  22  24
BRANCH  23  27
HETATM   27  C18 UNL     1       2.705 -30.340 -22.060  1.00  0.00     0.178 C 
HETATM   28  O3  UNL     1       3.150 -31.128 -22.923  1.00  0.00    -0.648 OA
HETATM   29  O4  UNL     1       1.760 -29.412 -22.450  1.00  0.00    -0.648 OA
ENDBRANCH  23  27
ENDBRANCH  20  21
ENDBRANCH   1  20
BRANCH   8  30
HETATM   30  O2  UNL     1       4.385 -26.992 -21.481  1.00  0.00    -0.368 OA
ATOM     31  H2  UNL     1       3.837 -27.596 -21.967  1.00  0.00     0.212 HD
ENDBRANCH   8  30
TORSDOF 8
ENDMDL
