MODEL 1
REMARK VINA RESULT: -8.753890647      0.000      0.000
REMARK  13 active torsions:
REMARK  status: ('A' for Active; 'I' for Inactive)
REMARK    1  A    between atoms: C2_2  and  N2_5 
REMARK    2  A    between atoms: C4_10  and  C5_11 
REMARK    3  A    between atoms: C5_11  and  O1_12 
REMARK    4  A    between atoms: C5_11  and  N5_14 
REMARK    5  A    between atoms: N5_14  and  C6_16 
REMARK    6  A    between atoms: C6_16  and  C7_21 
REMARK    7  A    between atoms: N6_17  and  O2_19 
REMARK    8  A    between atoms: C7_21  and  O4_23 
REMARK    9  A    between atoms: O4_23  and  C8_24 
REMARK   10  A    between atoms: C8_24  and  N7_25 
REMARK   11  A    between atoms: C10_30  and  N10_31 
REMARK   12  A    between atoms: C11_36  and  N12_37 
REMARK   13  A    between atoms: C13_43  and  O5_44 
ROOT
HETATM    1  C1  UNL     1       2.673 -43.018  -2.506  1.00  0.00     0.050 C 
HETATM    2  C2  UNL     1       3.530 -42.960  -1.255  1.00  0.00     0.214 C 
HETATM    3  C3  UNL     1       4.288 -41.717  -1.286  1.00  0.00     0.086 C 
HETATM    4  N1  UNL     1       4.878 -40.730  -1.319  1.00  0.00    -0.195 NA
ENDROOT
BRANCH   2   5
HETATM    5  N2  UNL     1       2.694 -43.039  -0.050  1.00  0.00    -0.237 N 
HETATM    6  N3  UNL     1       1.573 -42.384   0.157  1.00  0.00    -0.237 N 
HETATM    7  N4  UNL     1       1.076 -42.692   1.357  1.00  0.00    -0.282 N 
ATOM      8  H3  UNL     1       1.144 -41.734  -0.503  1.00  0.00     0.208 HD
HETATM    9  C4  UNL     1       1.896 -43.576   1.955  1.00  0.00     0.127 A 
ATOM     10  H4  UNL     1       0.214 -42.318   1.756  1.00  0.00     0.188 HD
HETATM   11  C13 UNL     1       2.928 -43.788   1.041  1.00  0.00     0.188 A 
BRANCH   9  12
HETATM   12  C5  UNL     1       1.798 -44.224   3.278  1.00  0.00     0.276 C 
BRANCH  12  13
HETATM   13  O1  UNL     1       2.948 -44.979   3.500  1.00  0.00    -0.371 OA
ATOM     14  H1  UNL     1       3.571 -44.456   3.992  1.00  0.00     0.212 HD
ENDBRANCH  12  13
BRANCH  12  15
HETATM   15  N5  UNL     1       1.611 -43.224   4.305  1.00  0.00    -0.339 N 
ATOM     16  H5  UNL     1       2.437 -42.751   4.674  1.00  0.00     0.164 HD
BRANCH  15  17
HETATM   17  C6  UNL     1       0.355 -42.870   4.824  1.00  0.00     0.200 C 
HETATM   18  N6  UNL     1      -0.314 -43.755   5.468  1.00  0.00    -0.248 N 
ATOM     19  H6  UNL     1       0.091 -44.685   5.580  1.00  0.00     0.196 HD
BRANCH  18  20
HETATM   20  O2  UNL     1      -1.538 -43.512   6.010  1.00  0.00    -0.288 OA
ATOM     21  H2  UNL     1      -2.212 -43.013   5.563  1.00  0.00     0.244 HD
ENDBRANCH  18  20
BRANCH  17  22
HETATM   22  C7  UNL     1      -0.157 -41.503   4.617  1.00  0.00     0.335 C 
HETATM   23  O3  UNL     1      -0.681 -40.930   5.590  1.00  0.00    -0.255 OA
BRANCH  22  24
HETATM   24  O4  UNL     1      -0.081 -40.863   3.435  1.00  0.00    -0.266 OA
BRANCH  24  25
HETATM   25  C8  UNL     1      -0.835 -39.908   2.832  1.00  0.00     0.262 C 
BRANCH  25  26
HETATM   26  N7  UNL     1      -0.538 -39.546   1.466  1.00  0.00    -0.210 N 
HETATM   27  N8  UNL     1      -1.409 -39.465   0.453  1.00  0.00    -0.012 NA
HETATM   28  N9  UNL     1      -0.797 -39.072  -0.651  1.00  0.00    -0.277 N 
HETATM   29  C9  UNL     1       0.508 -38.883  -0.386  1.00  0.00     0.136 A 
ATOM     30  H9  UNL     1      -1.242 -38.935  -1.557  1.00  0.00     0.184 HD
HETATM   31  C10 UNL     1       1.605 -38.504  -1.120  1.00  0.00     0.146 A 
HETATM   32  C12 UNL     1       0.652 -39.188   0.956  1.00  0.00     0.174 A 
HETATM   33  N11 UNL     1       2.824 -38.426  -0.548  1.00  0.00    -0.175 N 
HETATM   34  C11 UNL     1       2.985 -38.717   0.746  1.00  0.00     0.679 A 
ATOM     35  H11 UNL     1       3.629 -38.144  -1.107  1.00  0.00     0.186 HD
HETATM   36  N13 UNL     1       1.910 -39.083   1.445  1.00  0.00    -0.173 N 
ATOM     37  H13 UNL     1       2.047 -39.303   2.432  1.00  0.00     0.186 HD
BRANCH  31  38
HETATM   38  N10 UNL     1       1.498 -38.215  -2.365  1.00  0.00    -0.383 N 
ATOM     39 2H10 UNL     1       0.637 -37.771  -2.686  1.00  0.00     0.157 HD
ATOM     40 1H10 UNL     1       2.253 -38.424  -3.018  1.00  0.00     0.157 HD
ENDBRANCH  31  38
BRANCH  34  41
HETATM   41  N12 UNL     1       4.161 -38.637   1.279  1.00  0.00    -0.234 N 
ATOM     42 2H12 UNL     1       4.882 -38.013   0.918  1.00  0.00     0.174 HD
ATOM     43 1H12 UNL     1       4.389 -39.213   2.090  1.00  0.00     0.174 HD
ENDBRANCH  34  41
ENDBRANCH  25  26
ENDBRANCH  24  25
ENDBRANCH  22  24
ENDBRANCH  17  22
ENDBRANCH  15  17
ENDBRANCH  12  15
ENDBRANCH   9  12
BRANCH  11  44
HETATM   44  O5  UNL     1       4.025 -44.627   1.205  1.00  0.00    -0.343 OA
ATOM     45  H5  UNL     1       4.179 -45.173   1.967  1.00  0.00     0.219 HD
ENDBRANCH  11  44
ENDBRANCH   2   5
TORSDOF 13
ENDMDL
MODEL 2
REMARK VINA RESULT: -8.669025135      0.750      1.918
REMARK  13 active torsions:
REMARK  status: ('A' for Active; 'I' for Inactive)
REMARK    1  A    between atoms: C2_2  and  N2_5 
REMARK    2  A    between atoms: C4_10  and  C5_11 
REMARK    3  A    between atoms: C5_11  and  O1_12 
REMARK    4  A    between atoms: C5_11  and  N5_14 
REMARK    5  A    between atoms: N5_14  and  C6_16 
REMARK    6  A    between atoms: C6_16  and  C7_21 
REMARK    7  A    between atoms: N6_17  and  O2_19 
REMARK    8  A    between atoms: C7_21  and  O4_23 
REMARK    9  A    between atoms: O4_23  and  C8_24 
REMARK   10  A    between atoms: C8_24  and  N7_25 
REMARK   11  A    between atoms: C10_30  and  N10_31 
REMARK   12  A    between atoms: C11_36  and  N12_37 
REMARK   13  A    between atoms: C13_43  and  O5_44 
ROOT
HETATM    1  C1  UNL     1       2.634 -42.987  -2.387  1.00  0.00     0.050 C 
HETATM    2  C2  UNL     1       3.441 -42.806  -1.114  1.00  0.00     0.214 C 
HETATM    3  C3  UNL     1       4.077 -41.498  -1.167  1.00  0.00     0.086 C 
HETATM    4  N1  UNL     1       4.571 -40.459  -1.218  1.00  0.00    -0.195 NA
ENDROOT
BRANCH   2   5
HETATM    5  N2  UNL     1       2.579 -42.927   0.068  1.00  0.00    -0.237 N 
HETATM    6  N3  UNL     1       1.438 -42.301   0.261  1.00  0.00    -0.237 N 
HETATM    7  N4  UNL     1       0.920 -42.643   1.442  1.00  0.00    -0.282 N 
ATOM      8  H3  UNL     1       1.011 -41.648  -0.397  1.00  0.00     0.208 HD
HETATM    9  C4  UNL     1       1.746 -43.520   2.043  1.00  0.00     0.127 A 
ATOM     10  H4  UNL     1       0.042 -42.295   1.827  1.00  0.00     0.188 HD
HETATM   11  C13 UNL     1       2.804 -43.691   1.150  1.00  0.00     0.188 A 
BRANCH   9  12
HETATM   12  C5  UNL     1       1.631 -44.196   3.351  1.00  0.00     0.276 C 
BRANCH  12  13
HETATM   13  O1  UNL     1       2.824 -44.864   3.623  1.00  0.00    -0.371 OA
ATOM     14  H1  UNL     1       3.470 -44.234   3.920  1.00  0.00     0.212 HD
ENDBRANCH  12  13
BRANCH  12  15
HETATM   15  N5  UNL     1       1.317 -43.230   4.380  1.00  0.00    -0.339 N 
ATOM     16  H5  UNL     1       2.072 -42.649   4.744  1.00  0.00     0.164 HD
BRANCH  15  17
HETATM   17  C6  UNL     1       0.027 -43.048   4.905  1.00  0.00     0.200 C 
HETATM   18  N6  UNL     1      -0.513 -44.016   5.552  1.00  0.00    -0.248 N 
ATOM     19  H6  UNL     1       0.015 -44.882   5.662  1.00  0.00     0.196 HD
BRANCH  18  20
HETATM   20  O2  UNL     1      -1.756 -43.940   6.100  1.00  0.00    -0.288 OA
ATOM     21  H2  UNL     1      -2.104 -44.600   6.689  1.00  0.00     0.244 HD
ENDBRANCH  18  20
BRANCH  17  22
HETATM   22  C7  UNL     1      -0.667 -41.764   4.701  1.00  0.00     0.335 C 
HETATM   23  O3  UNL     1      -0.864 -41.049   5.702  1.00  0.00    -0.255 OA
BRANCH  22  24
HETATM   24  O4  UNL     1      -1.087 -41.341   3.494  1.00  0.00    -0.266 OA
BRANCH  24  25
HETATM   25  C8  UNL     1      -1.157 -40.124   2.894  1.00  0.00     0.262 C 
BRANCH  25  26
HETATM   26  N7  UNL     1      -0.014 -39.646   2.156  1.00  0.00    -0.210 N 
HETATM   27  N8  UNL     1       1.266 -39.684   2.549  1.00  0.00    -0.012 NA
HETATM   28  N9  UNL     1       2.051 -39.190   1.607  1.00  0.00    -0.277 N 
HETATM   29  C9  UNL     1       1.298 -38.811   0.559  1.00  0.00     0.136 A 
ATOM     30  H9  UNL     1       3.066 -39.109   1.666  1.00  0.00     0.184 HD
HETATM   31  C10 UNL     1       1.548 -38.234  -0.661  1.00  0.00     0.146 A 
HETATM   32  C12 UNL     1      -0.003 -39.106   0.926  1.00  0.00     0.174 A 
HETATM   33  N11 UNL     1       0.540 -37.949  -1.510  1.00  0.00    -0.175 N 
HETATM   34  C11 UNL     1      -0.724 -38.226  -1.176  1.00  0.00     0.679 A 
ATOM     35  H11 UNL     1       0.742 -37.520  -2.412  1.00  0.00     0.186 HD
HETATM   36  N13 UNL     1      -0.951 -38.786   0.013  1.00  0.00    -0.173 N 
ATOM     37  H13 UNL     1      -1.920 -38.991   0.256  1.00  0.00     0.186 HD
BRANCH  31  38
HETATM   38  N10 UNL     1       2.746 -37.951  -1.024  1.00  0.00    -0.383 N 
ATOM     39 2H10 UNL     1       3.459 -37.853  -0.301  1.00  0.00     0.157 HD
ATOM     40 1H10 UNL     1       2.980 -37.828  -2.009  1.00  0.00     0.157 HD
ENDBRANCH  31  38
BRANCH  34  41
HETATM   41  N12 UNL     1      -1.681 -37.946  -2.001  1.00  0.00    -0.234 N 
ATOM     42 2H12 UNL     1      -1.526 -37.404  -2.850  1.00  0.00     0.174 HD
ATOM     43 1H12 UNL     1      -2.627 -38.274  -1.807  1.00  0.00     0.174 HD
ENDBRANCH  34  41
ENDBRANCH  25  26
ENDBRANCH  24  25
ENDBRANCH  22  24
ENDBRANCH  17  22
ENDBRANCH  15  17
ENDBRANCH  12  15
ENDBRANCH   9  12
BRANCH  11  44
HETATM   44  O5  UNL     1       3.915 -44.509   1.325  1.00  0.00    -0.343 OA
ATOM     45  H5  UNL     1       4.813 -44.201   1.364  1.00  0.00     0.219 HD
ENDBRANCH  11  44
ENDBRANCH   2   5
TORSDOF 13
ENDMDL
MODEL 3
REMARK VINA RESULT: -8.473675593      2.768      7.291
REMARK  13 active torsions:
REMARK  status: ('A' for Active; 'I' for Inactive)
REMARK    1  A    between atoms: C2_2  and  N2_5 
REMARK    2  A    between atoms: C4_10  and  C5_11 
REMARK    3  A    between atoms: C5_11  and  O1_12 
REMARK    4  A    between atoms: C5_11  and  N5_14 
REMARK    5  A    between atoms: N5_14  and  C6_16 
REMARK    6  A    between atoms: C6_16  and  C7_21 
REMARK    7  A    between atoms: N6_17  and  O2_19 
REMARK    8  A    between atoms: C7_21  and  O4_23 
REMARK    9  A    between atoms: O4_23  and  C8_24 
REMARK   10  A    between atoms: C8_24  and  N7_25 
REMARK   11  A    between atoms: C10_30  and  N10_31 
REMARK   12  A    between atoms: C11_36  and  N12_37 
REMARK   13  A    between atoms: C13_43  and  O5_44 
ROOT
HETATM    1  C1  UNL     1      -2.648 -35.236   0.543  1.00  0.00     0.050 C 
HETATM    2  C2  UNL     1      -1.596 -36.266   0.913  1.00  0.00     0.214 C 
HETATM    3  C3  UNL     1      -2.164 -37.147   1.923  1.00  0.00     0.086 C 
HETATM    4  N1  UNL     1      -2.625 -37.840   2.718  1.00  0.00    -0.195 NA
ENDROOT
BRANCH   2   5
HETATM    5  N2  UNL     1      -1.172 -37.023  -0.272  1.00  0.00    -0.237 N 
HETATM    6  N3  UNL     1      -1.965 -37.517  -1.198  1.00  0.00    -0.237 N 
HETATM    7  N4  UNL     1      -1.247 -38.147  -2.129  1.00  0.00    -0.282 N 
ATOM      8  H3  UNL     1      -2.982 -37.431  -1.203  1.00  0.00     0.208 HD
HETATM    9  C4  UNL     1       0.057 -38.064  -1.805  1.00  0.00     0.127 A 
ATOM     10  H4  UNL     1      -1.625 -38.615  -2.953  1.00  0.00     0.188 HD
HETATM   11  C13 UNL     1       0.088 -37.342  -0.612  1.00  0.00     0.188 A 
BRANCH   9  12
HETATM   12  C5  UNL     1       1.248 -38.592  -2.500  1.00  0.00     0.276 C 
BRANCH  12  13
HETATM   13  O1  UNL     1       2.325 -37.738  -2.268  1.00  0.00    -0.371 OA
ATOM     14  H1  UNL     1       2.151 -36.901  -2.683  1.00  0.00     0.212 HD
ENDBRANCH  12  13
BRANCH  12  15
HETATM   15  N5  UNL     1       1.528 -39.937  -2.049  1.00  0.00    -0.339 N 
ATOM     16  H5  UNL     1       0.826 -40.658  -2.217  1.00  0.00     0.164 HD
BRANCH  15  17
HETATM   17  C6  UNL     1       2.715 -40.304  -1.394  1.00  0.00     0.200 C 
HETATM   18  N6  UNL     1       3.801 -40.351  -2.075  1.00  0.00    -0.248 N 
ATOM     19  H6  UNL     1       3.763 -40.122  -3.069  1.00  0.00     0.196 HD
BRANCH  18  20
HETATM   20  O2  UNL     1       5.002 -40.694  -1.535  1.00  0.00    -0.288 OA
ATOM     21  H2  UNL     1       5.778 -40.150  -1.610  1.00  0.00     0.244 HD
ENDBRANCH  18  20
BRANCH  17  22
HETATM   22  C7  UNL     1       2.683 -40.620   0.045  1.00  0.00     0.335 C 
HETATM   23  O3  UNL     1       2.067 -39.839   0.795  1.00  0.00    -0.255 OA
BRANCH  22  24
HETATM   24  O4  UNL     1       3.283 -41.705   0.571  1.00  0.00    -0.266 OA
BRANCH  24  25
HETATM   25  C8  UNL     1       2.941 -43.015   0.670  1.00  0.00     0.262 C 
BRANCH  25  26
HETATM   26  N7  UNL     1       2.319 -43.482   1.886  1.00  0.00    -0.210 N 
HETATM   27  N8  UNL     1       2.733 -44.495   2.658  1.00  0.00    -0.012 NA
HETATM   28  N9  UNL     1       1.945 -44.622   3.712  1.00  0.00    -0.277 N 
HETATM   29  C9  UNL     1       0.982 -43.685   3.657  1.00  0.00     0.136 A 
ATOM     30  H9  UNL     1       2.050 -45.320   4.448  1.00  0.00     0.184 HD
HETATM   31  C10 UNL     1      -0.095 -43.349   4.439  1.00  0.00     0.146 A 
HETATM   32  C12 UNL     1       1.235 -42.975   2.496  1.00  0.00     0.174 A 
HETATM   33  N11 UNL     1      -0.913 -42.334   4.090  1.00  0.00    -0.175 N 
HETATM   34  C11 UNL     1      -0.686 -41.637   2.973  1.00  0.00     0.679 A 
ATOM     35  H11 UNL     1      -1.709 -42.098   4.682  1.00  0.00     0.186 HD
HETATM   36  N13 UNL     1       0.364 -41.975   2.224  1.00  0.00    -0.173 N 
ATOM     37  H13 UNL     1       0.525 -41.435   1.374  1.00  0.00     0.186 HD
BRANCH  31  38
HETATM   38  N10 UNL     1      -0.351 -43.991   5.520  1.00  0.00    -0.383 N 
ATOM     39 2H10 UNL     1       0.266 -43.855   6.321  1.00  0.00     0.157 HD
ATOM     40 1H10 UNL     1      -1.151 -44.621   5.578  1.00  0.00     0.157 HD
ENDBRANCH  31  38
BRANCH  34  41
HETATM   41  N12 UNL     1      -1.479 -40.666   2.652  1.00  0.00    -0.234 N 
ATOM     42 2H12 UNL     1      -1.669 -40.417   1.681  1.00  0.00     0.174 HD
ATOM     43 1H12 UNL     1      -1.938 -40.125   3.385  1.00  0.00     0.174 HD
ENDBRANCH  34  41
ENDBRANCH  25  26
ENDBRANCH  24  25
ENDBRANCH  22  24
ENDBRANCH  17  22
ENDBRANCH  15  17
ENDBRANCH  12  15
ENDBRANCH   9  12
BRANCH  11  44
HETATM   44  O5  UNL     1       1.218 -36.996   0.121  1.00  0.00    -0.343 OA
ATOM     45  H5  UNL     1       2.106 -37.248  -0.103  1.00  0.00     0.219 HD
ENDBRANCH  11  44
ENDBRANCH   2   5
TORSDOF 13
ENDMDL
MODEL 4
REMARK VINA RESULT: -8.392438761      1.263      1.562
REMARK  13 active torsions:
REMARK  status: ('A' for Active; 'I' for Inactive)
REMARK    1  A    between atoms: C2_2  and  N2_5 
REMARK    2  A    between atoms: C4_10  and  C5_11 
REMARK    3  A    between atoms: C5_11  and  O1_12 
REMARK    4  A    between atoms: C5_11  and  N5_14 
REMARK    5  A    between atoms: N5_14  and  C6_16 
REMARK    6  A    between atoms: C6_16  and  C7_21 
REMARK    7  A    between atoms: N6_17  and  O2_19 
REMARK    8  A    between atoms: C7_21  and  O4_23 
REMARK    9  A    between atoms: O4_23  and  C8_24 
REMARK   10  A    between atoms: C8_24  and  N7_25 
REMARK   11  A    between atoms: C10_30  and  N10_31 
REMARK   12  A    between atoms: C11_36  and  N12_37 
REMARK   13  A    between atoms: C13_43  and  O5_44 
ROOT
HETATM    1  C1  UNL     1       5.510 -42.253  -1.491  1.00  0.00     0.050 C 
HETATM    2  C2  UNL     1       4.179 -42.020  -0.801  1.00  0.00     0.214 C 
HETATM    3  C3  UNL     1       3.143 -41.979  -1.824  1.00  0.00     0.086 C 
HETATM    4  N1  UNL     1       2.333 -41.953  -2.641  1.00  0.00    -0.195 NA
ENDROOT
BRANCH   2   5
HETATM    5  N2  UNL     1       3.910 -43.079   0.180  1.00  0.00    -0.237 N 
HETATM    6  N3  UNL     1       4.513 -44.246   0.242  1.00  0.00    -0.237 N 
HETATM    7  N4  UNL     1       4.023 -44.963   1.256  1.00  0.00    -0.282 N 
ATOM      8  H3  UNL     1       5.249 -44.558  -0.392  1.00  0.00     0.208 HD
HETATM    9  C4  UNL     1       3.070 -44.244   1.878  1.00  0.00     0.127 A 
ATOM     10  H4  UNL     1       4.323 -45.903   1.516  1.00  0.00     0.188 HD
HETATM   11  C13 UNL     1       3.009 -43.040   1.176  1.00  0.00     0.188 A 
BRANCH   9  12
HETATM   12  C5  UNL     1       2.231 -44.581   3.045  1.00  0.00     0.276 C 
BRANCH  12  13
HETATM   13  O1  UNL     1       2.861 -44.129   4.203  1.00  0.00    -0.371 OA
ATOM     14  H1  UNL     1       2.305 -43.485   4.626  1.00  0.00     0.212 HD
ENDBRANCH  12  13
BRANCH  12  15
HETATM   15  N5  UNL     1       0.916 -43.999   2.893  1.00  0.00    -0.339 N 
ATOM     16  H5  UNL     1       0.469 -44.050   1.977  1.00  0.00     0.164 HD
BRANCH  15  17
HETATM   17  C6  UNL     1       0.221 -43.369   3.938  1.00  0.00     0.200 C 
HETATM   18  N6  UNL     1      -0.208 -44.088   4.910  1.00  0.00    -0.248 N 
ATOM     19  H6  UNL     1      -0.029 -45.093   4.888  1.00  0.00     0.196 HD
BRANCH  18  20
HETATM   20  O2  UNL     1      -0.890 -43.574   5.970  1.00  0.00    -0.288 OA
ATOM     21  H2  UNL     1      -1.817 -43.726   6.112  1.00  0.00     0.244 HD
ENDBRANCH  18  20
BRANCH  17  22
HETATM   22  C7  UNL     1       0.006 -41.911   3.893  1.00  0.00     0.335 C 
HETATM   23  O3  UNL     1       0.394 -41.240   4.867  1.00  0.00    -0.255 OA
BRANCH  22  24
HETATM   24  O4  UNL     1      -0.584 -41.290   2.855  1.00  0.00    -0.266 OA
BRANCH  24  25
HETATM   25  C8  UNL     1      -0.668 -39.993   2.458  1.00  0.00     0.262 C 
BRANCH  25  26
HETATM   26  N7  UNL     1      -0.411 -39.671   1.075  1.00  0.00    -0.210 N 
HETATM   27  N8  UNL     1      -1.286 -39.735   0.063  1.00  0.00    -0.012 NA
HETATM   28  N9  UNL     1      -0.719 -39.333  -1.062  1.00  0.00    -0.277 N 
HETATM   29  C9  UNL     1       0.558 -38.991  -0.813  1.00  0.00     0.136 A 
ATOM     30  H9  UNL     1      -1.176 -39.290  -1.972  1.00  0.00     0.184 HD
HETATM   31  C10 UNL     1       1.608 -38.533  -1.570  1.00  0.00     0.146 A 
HETATM   32  C12 UNL     1       0.733 -39.212   0.542  1.00  0.00     0.174 A 
HETATM   33  N11 UNL     1       2.812 -38.296  -1.009  1.00  0.00    -0.175 N 
HETATM   34  C11 UNL     1       3.002 -38.503   0.298  1.00  0.00     0.679 A 
ATOM     35  H11 UNL     1       3.581 -37.957  -1.585  1.00  0.00     0.186 HD
HETATM   36  N13 UNL     1       1.972 -38.948   1.019  1.00  0.00    -0.173 N 
ATOM     37  H13 UNL     1       2.132 -39.102   2.015  1.00  0.00     0.186 HD
BRANCH  31  38
HETATM   38  N10 UNL     1       1.471 -38.321  -2.828  1.00  0.00    -0.383 N 
ATOM     39 2H10 UNL     1       0.765 -38.855  -3.334  1.00  0.00     0.157 HD
ATOM     40 1H10 UNL     1       2.051 -37.634  -3.309  1.00  0.00     0.157 HD
ENDBRANCH  31  38
BRANCH  34  41
HETATM   41  N12 UNL     1       4.162 -38.270   0.821  1.00  0.00    -0.234 N 
ATOM     42 2H12 UNL     1       4.305 -38.224   1.829  1.00  0.00     0.174 HD
ATOM     43 1H12 UNL     1       4.970 -38.127   0.215  1.00  0.00     0.174 HD
ENDBRANCH  34  41
ENDBRANCH  25  26
ENDBRANCH  24  25
ENDBRANCH  22  24
ENDBRANCH  17  22
ENDBRANCH  15  17
ENDBRANCH  12  15
ENDBRANCH   9  12
BRANCH  11  44
HETATM   44  O5  UNL     1       2.169 -41.965   1.442  1.00  0.00    -0.343 OA
ATOM     45  H5  UNL     1       2.416 -41.051   1.357  1.00  0.00     0.219 HD
ENDBRANCH  11  44
ENDBRANCH   2   5
TORSDOF 13
ENDMDL
MODEL 5
REMARK VINA RESULT: -8.375675108      1.599      2.235
REMARK  13 active torsions:
REMARK  status: ('A' for Active; 'I' for Inactive)
REMARK    1  A    between atoms: C2_2  and  N2_5 
REMARK    2  A    between atoms: C4_10  and  C5_11 
REMARK    3  A    between atoms: C5_11  and  O1_12 
REMARK    4  A    between atoms: C5_11  and  N5_14 
REMARK    5  A    between atoms: N5_14  and  C6_16 
REMARK    6  A    between atoms: C6_16  and  C7_21 
REMARK    7  A    between atoms: N6_17  and  O2_19 
REMARK    8  A    between atoms: C7_21  and  O4_23 
REMARK    9  A    between atoms: O4_23  and  C8_24 
REMARK   10  A    between atoms: C8_24  and  N7_25 
REMARK   11  A    between atoms: C10_30  and  N10_31 
REMARK   12  A    between atoms: C11_36  and  N12_37 
REMARK   13  A    between atoms: C13_43  and  O5_44 
ROOT
HETATM    1  C1  UNL     1       2.811 -43.118  -2.449  1.00  0.00     0.050 C 
HETATM    2  C2  UNL     1       3.562 -42.862  -1.155  1.00  0.00     0.214 C 
HETATM    3  C3  UNL     1       4.135 -41.525  -1.224  1.00  0.00     0.086 C 
HETATM    4  N1  UNL     1       4.579 -40.465  -1.288  1.00  0.00    -0.195 NA
ENDROOT
BRANCH   2   5
HETATM    5  N2  UNL     1       2.666 -42.994   0.000  1.00  0.00    -0.237 N 
HETATM    6  N3  UNL     1       1.520 -42.368   0.165  1.00  0.00    -0.237 N 
HETATM    7  N4  UNL     1       0.967 -42.721   1.327  1.00  0.00    -0.282 N 
ATOM      8  H3  UNL     1       1.113 -41.709  -0.499  1.00  0.00     0.208 HD
HETATM    9  C4  UNL     1       1.775 -43.605   1.944  1.00  0.00     0.127 A 
ATOM     10  H4  UNL     1       0.078 -42.377   1.689  1.00  0.00     0.188 HD
HETATM   11  C13 UNL     1       2.859 -43.768   1.081  1.00  0.00     0.188 A 
BRANCH   9  12
HETATM   12  C5  UNL     1       1.621 -44.292   3.242  1.00  0.00     0.276 C 
BRANCH  12  13
HETATM   13  O1  UNL     1       2.702 -45.151   3.431  1.00  0.00    -0.371 OA
ATOM     14  H1  UNL     1       2.543 -45.684   4.201  1.00  0.00     0.212 HD
ENDBRANCH  12  13
BRANCH  12  15
HETATM   15  N5  UNL     1       1.522 -43.320   4.308  1.00  0.00    -0.339 N 
ATOM     16  H5  UNL     1       2.385 -42.933   4.690  1.00  0.00     0.164 HD
BRANCH  15  17
HETATM   17  C6  UNL     1       0.301 -42.878   4.844  1.00  0.00     0.200 C 
HETATM   18  N6  UNL     1      -0.416 -43.714   5.502  1.00  0.00    -0.248 N 
ATOM     19  H6  UNL     1      -0.074 -44.669   5.612  1.00  0.00     0.196 HD
BRANCH  18  20
HETATM   20  O2  UNL     1      -1.612 -43.386   6.062  1.00  0.00    -0.288 OA
ATOM     21  H2  UNL     1      -2.433 -43.412   5.583  1.00  0.00     0.244 HD
ENDBRANCH  18  20
BRANCH  17  22
HETATM   22  C7  UNL     1      -0.121 -41.481   4.639  1.00  0.00     0.335 C 
HETATM   23  O3  UNL     1      -0.692 -40.906   5.584  1.00  0.00    -0.255 OA
BRANCH  22  24
HETATM   24  O4  UNL     1       0.086 -40.814   3.488  1.00  0.00    -0.266 OA
BRANCH  24  25
HETATM   25  C8  UNL     1       0.943 -39.831   3.110  1.00  0.00     0.262 C 
BRANCH  25  26
HETATM   26  N7  UNL     1       0.736 -39.175   1.842  1.00  0.00    -0.210 N 
HETATM   27  N8  UNL     1       1.259 -39.531   0.662  1.00  0.00    -0.012 NA
HETATM   28  N9  UNL     1       0.828 -38.727  -0.295  1.00  0.00    -0.277 N 
HETATM   29  C9  UNL     1       0.001 -37.811   0.240  1.00  0.00     0.136 A 
ATOM     30  H9  UNL     1       1.083 -38.791  -1.280  1.00  0.00     0.184 HD
HETATM   31  C10 UNL     1      -0.714 -36.744  -0.246  1.00  0.00     0.146 A 
HETATM   32  C12 UNL     1      -0.044 -38.111   1.590  1.00  0.00     0.174 A 
HETATM   33  N11 UNL     1      -1.460 -35.980   0.579  1.00  0.00    -0.175 N 
HETATM   34  C11 UNL     1      -1.516 -36.252   1.886  1.00  0.00     0.679 A 
ATOM     35  H11 UNL     1      -1.983 -35.191   0.202  1.00  0.00     0.186 HD
HETATM   36  N13 UNL     1      -0.817 -37.292   2.342  1.00  0.00    -0.173 N 
ATOM     37  H13 UNL     1      -0.869 -37.487   3.342  1.00  0.00     0.186 HD
BRANCH  31  38
HETATM   38  N10 UNL     1      -0.689 -36.446  -1.494  1.00  0.00    -0.383 N 
ATOM     39 2H10 UNL     1      -1.056 -35.539  -1.781  1.00  0.00     0.157 HD
ATOM     40 1H10 UNL     1      -0.310 -37.099  -2.180  1.00  0.00     0.157 HD
ENDBRANCH  31  38
BRANCH  34  41
HETATM   41  N12 UNL     1      -2.236 -35.509   2.664  1.00  0.00    -0.234 N 
ATOM     42 2H12 UNL     1      -3.253 -35.583   2.698  1.00  0.00     0.174 HD
ATOM     43 1H12 UNL     1      -1.784 -34.824   3.269  1.00  0.00     0.174 HD
ENDBRANCH  34  41
ENDBRANCH  25  26
ENDBRANCH  24  25
ENDBRANCH  22  24
ENDBRANCH  17  22
ENDBRANCH  15  17
ENDBRANCH  12  15
ENDBRANCH   9  12
BRANCH  11  44
HETATM   44  O5  UNL     1       3.964 -44.588   1.281  1.00  0.00    -0.343 OA
ATOM     45  H5  UNL     1       4.816 -44.452   0.885  1.00  0.00     0.219 HD
ENDBRANCH  11  44
ENDBRANCH   2   5
TORSDOF 13
ENDMDL
