MODEL 1
REMARK VINA RESULT: -8.261926064      0.000      0.000
REMARK  12 active torsions:
REMARK  status: ('A' for Active; 'I' for Inactive)
REMARK    1  A    between atoms: C2_2  and  O1_3 
REMARK    2  A    between atoms: C2_2  and  C11_36 
REMARK    3  A    between atoms: O1_3  and  C3_4 
REMARK    4  A    between atoms: C3_4  and  C4_6 
REMARK    5  A    between atoms: C5_7  and  O3_8 
REMARK    6  A    between atoms: C6_10  and  N1_11 
REMARK    7  A    between atoms: C7_16  and  N4_17 
REMARK    8  A    between atoms: C8_22  and  N6_23 
REMARK    9  A    between atoms: C9_26  and  O4_27 
REMARK   10  A    between atoms: O4_27  and  S1_28 
REMARK   11  A    between atoms: C11_36  and  O9_37 
REMARK   12  A    between atoms: C11_36  and  O10_39 
ROOT
HETATM    1  C4  UNL     1       1.158 -42.370   2.800  1.00  0.00     0.142 A 
HETATM    2  C5  UNL     1       0.785 -41.115   2.425  1.00  0.00     0.121 A 
HETATM    3  C6  UNL     1       1.156 -40.641   1.147  1.00  0.00     0.162 A 
HETATM    4  C9  UNL     1       1.877 -41.477   0.344  1.00  0.00     0.198 A 
HETATM    5  N7  UNL     1       2.243 -42.715   0.715  1.00  0.00    -0.300 N 
ATOM      6  H7  UNL     1       2.781 -43.308   0.083  1.00  0.00     0.171 HD
HETATM    7  C10 UNL     1       1.891 -43.153   1.919  1.00  0.00     0.266 A 
HETATM    8  O8  UNL     1       2.249 -44.331   2.251  1.00  0.00    -0.267 OA
ENDROOT
BRANCH   3   9
HETATM    9  N1  UNL     1       0.787 -39.339   0.720  1.00  0.00    -0.064 N 
HETATM   10  N2  UNL     1       1.644 -38.315   0.788  1.00  0.00    -0.207 N 
HETATM   11  N3  UNL     1       1.346 -37.090   0.405  1.00  0.00    -0.117 N 
ATOM     12  H2  UNL     1       2.579 -38.491   1.157  1.00  0.00     0.210 HD
HETATM   13  C7  UNL     1       0.128 -36.816  -0.086  1.00  0.00     0.706 A 
ATOM     14  H3  UNL     1       2.043 -36.349   0.482  1.00  0.00     0.207 HD
HETATM   15  N5  UNL     1      -0.767 -37.815  -0.173  1.00  0.00    -0.020 N 
HETATM   16  C8  UNL     1      -0.442 -39.071   0.227  1.00  0.00     0.713 A 
ATOM     17  H5  UNL     1      -1.699 -37.628  -0.542  1.00  0.00     0.203 HD
BRANCH  13  18
HETATM   18  N4  UNL     1      -0.233 -35.637  -0.482  1.00  0.00    -0.233 N 
ATOM     19  H42 UNL     1       0.487 -35.009  -0.840  1.00  0.00     0.174 HD
ATOM     20  H41 UNL     1      -1.197 -35.307  -0.454  1.00  0.00     0.174 HD
ENDBRANCH  13  18
BRANCH  16  21
HETATM   21  N6  UNL     1      -1.336 -39.997   0.122  1.00  0.00    -0.232 N 
ATOM     22  H62 UNL     1      -1.319 -40.593  -0.705  1.00  0.00     0.174 HD
ATOM     23  H61 UNL     1      -2.042 -40.133   0.845  1.00  0.00     0.174 HD
ENDBRANCH  16  21
ENDBRANCH   3   9
BRANCH   2  24
HETATM   24  O3  UNL     1       0.061 -40.223   3.184  1.00  0.00    -0.357 OA
ATOM     25  H3  UNL     1      -0.138 -39.323   2.953  1.00  0.00     0.217 HD
ENDBRANCH   2  24
BRANCH   4  26
HETATM   26  O4  UNL     1       2.261 -41.049  -0.924  1.00  0.00    -0.193 OA
BRANCH  26  27
HETATM   27  S1  UNL     1       3.879 -40.683  -1.207  1.00  0.00     0.258 S 
HETATM   28  O5  UNL     1       4.186 -40.524  -2.668  1.00  0.00    -0.572 OA
HETATM   29  O6  UNL     1       4.204 -39.379  -0.542  1.00  0.00    -0.572 OA
HETATM   30  O7  UNL     1       4.882 -41.924  -0.634  1.00  0.00    -0.572 OA
ENDBRANCH  26  27
ENDBRANCH   4  26
BRANCH   1  31
HETATM   31  C3  UNL     1       0.825 -42.940   4.084  1.00  0.00     0.302 C 
HETATM   32  O2  UNL     1       1.540 -42.940   5.086  1.00  0.00    -0.259 OA
BRANCH  31  33
HETATM   33  O1  UNL     1      -0.421 -43.574   4.284  1.00  0.00    -0.307 OA
BRANCH  33  34
HETATM   34  C2  UNL     1      -1.172 -43.392   5.436  1.00  0.00     0.182 C 
HETATM   35  C1  UNL     1      -2.212 -44.483   5.643  1.00  0.00     0.045 C 
BRANCH  34  36
HETATM   36  C11 UNL     1      -1.810 -42.021   5.527  1.00  0.00     0.282 C 
BRANCH  36  37
HETATM   37  O9  UNL     1      -2.351 -41.746   4.270  1.00  0.00    -0.369 OA
ATOM     38  H9  UNL     1      -2.357 -40.800   4.176  1.00  0.00     0.212 HD
ENDBRANCH  36  37
BRANCH  36  39
HETATM   39  O10 UNL     1      -0.887 -41.025   5.812  1.00  0.00    -0.369 OA
ATOM     40  H10 UNL     1      -1.301 -40.204   6.052  1.00  0.00     0.212 HD
ENDBRANCH  36  39
ENDBRANCH  34  36
ENDBRANCH  33  34
ENDBRANCH  31  33
ENDBRANCH   1  31
TORSDOF 12
ENDMDL
MODEL 2
REMARK VINA RESULT: -8.113091496      0.608      1.233
REMARK  12 active torsions:
REMARK  status: ('A' for Active; 'I' for Inactive)
REMARK    1  A    between atoms: C2_2  and  O1_3 
REMARK    2  A    between atoms: C2_2  and  C11_36 
REMARK    3  A    between atoms: O1_3  and  C3_4 
REMARK    4  A    between atoms: C3_4  and  C4_6 
REMARK    5  A    between atoms: C5_7  and  O3_8 
REMARK    6  A    between atoms: C6_10  and  N1_11 
REMARK    7  A    between atoms: C7_16  and  N4_17 
REMARK    8  A    between atoms: C8_22  and  N6_23 
REMARK    9  A    between atoms: C9_26  and  O4_27 
REMARK   10  A    between atoms: O4_27  and  S1_28 
REMARK   11  A    between atoms: C11_36  and  O9_37 
REMARK   12  A    between atoms: C11_36  and  O10_39 
ROOT
HETATM    1  C4  UNL     1       1.055 -42.424   2.767  1.00  0.00     0.142 A 
HETATM    2  C5  UNL     1       0.714 -41.158   2.397  1.00  0.00     0.121 A 
HETATM    3  C6  UNL     1       1.060 -40.704   1.104  1.00  0.00     0.162 A 
HETATM    4  C9  UNL     1       1.726 -41.569   0.285  1.00  0.00     0.198 A 
HETATM    5  N7  UNL     1       2.060 -42.817   0.652  1.00  0.00    -0.300 N 
ATOM      6  H7  UNL     1       2.558 -43.432   0.007  1.00  0.00     0.171 HD
HETATM    7  C10 UNL     1       1.732 -43.236   1.870  1.00  0.00     0.266 A 
HETATM    8  O8  UNL     1       2.059 -44.424   2.197  1.00  0.00    -0.267 OA
ENDROOT
BRANCH   3   9
HETATM    9  N1  UNL     1       0.724 -39.392   0.681  1.00  0.00    -0.064 N 
HETATM   10  N2  UNL     1      -0.510 -39.089   0.264  1.00  0.00    -0.207 N 
HETATM   11  N3  UNL     1      -0.867 -37.886  -0.138  1.00  0.00    -0.117 N 
ATOM     12  H2  UNL     1      -1.212 -39.829   0.256  1.00  0.00     0.210 HD
HETATM   13  C7  UNL     1       0.027 -36.885  -0.142  1.00  0.00     0.706 A 
ATOM     14  H3  UNL     1      -1.824 -37.716  -0.446  1.00  0.00     0.207 HD
HETATM   15  N5  UNL     1       1.279 -37.143   0.269  1.00  0.00    -0.020 N 
HETATM   16  C8  UNL     1       1.629 -38.390   0.680  1.00  0.00     0.713 A 
ATOM     17  H5  UNL     1       1.974 -36.397   0.273  1.00  0.00     0.203 HD
BRANCH  13  18
HETATM   18  N4  UNL     1      -0.255 -35.680  -0.523  1.00  0.00    -0.233 N 
ATOM     19  H42 UNL     1      -1.186 -35.500  -0.898  1.00  0.00     0.174 HD
ATOM     20  H41 UNL     1       0.405 -34.905  -0.466  1.00  0.00     0.174 HD
ENDBRANCH  13  18
BRANCH  16  21
HETATM   21  N6  UNL     1       2.845 -38.587   1.067  1.00  0.00    -0.232 N 
ATOM     22  H62 UNL     1       3.550 -38.789   0.359  1.00  0.00     0.174 HD
ATOM     23  H61 UNL     1       3.099 -38.542   2.054  1.00  0.00     0.174 HD
ENDBRANCH  16  21
ENDBRANCH   3   9
BRANCH   2  24
HETATM   24  O3  UNL     1       0.045 -40.237   3.172  1.00  0.00    -0.357 OA
ATOM     25  H3  UNL     1      -0.689 -39.701   2.897  1.00  0.00     0.217 HD
ENDBRANCH   2  24
BRANCH   4  26
HETATM   26  O4  UNL     1       2.085 -41.161  -0.997  1.00  0.00    -0.193 OA
BRANCH  26  27
HETATM   27  S1  UNL     1       3.707 -41.204  -1.444  1.00  0.00     0.258 S 
HETATM   28  O5  UNL     1       3.892 -41.344  -2.927  1.00  0.00    -0.572 OA
HETATM   29  O6  UNL     1       4.355 -39.916  -1.037  1.00  0.00    -0.572 OA
HETATM   30  O7  UNL     1       4.488 -42.529  -0.732  1.00  0.00    -0.572 OA
ENDBRANCH  26  27
ENDBRANCH   4  26
BRANCH   1  31
HETATM   31  C3  UNL     1       0.743 -42.974   4.065  1.00  0.00     0.302 C 
HETATM   32  O2  UNL     1       1.472 -42.956   5.057  1.00  0.00    -0.259 OA
BRANCH  31  33
HETATM   33  O1  UNL     1      -0.497 -43.611   4.293  1.00  0.00    -0.307 OA
BRANCH  33  34
HETATM   34  C2  UNL     1      -1.239 -43.404   5.447  1.00  0.00     0.182 C 
HETATM   35  C1  UNL     1      -2.285 -44.484   5.680  1.00  0.00     0.045 C 
BRANCH  34  36
HETATM   36  C11 UNL     1      -1.867 -42.027   5.517  1.00  0.00     0.282 C 
BRANCH  36  37
HETATM   37  O9  UNL     1      -2.376 -41.752   4.247  1.00  0.00    -0.369 OA
ATOM     38  H9  UNL     1      -3.139 -42.307   4.132  1.00  0.00     0.212 HD
ENDBRANCH  36  37
BRANCH  36  39
HETATM   39  O10 UNL     1      -0.943 -41.038   5.821  1.00  0.00    -0.369 OA
ATOM     40  H10 UNL     1      -1.319 -40.337   6.341  1.00  0.00     0.212 HD
ENDBRANCH  36  39
ENDBRANCH  34  36
ENDBRANCH  33  34
ENDBRANCH  31  33
ENDBRANCH   1  31
TORSDOF 12
ENDMDL
MODEL 3
REMARK VINA RESULT: -7.947364077      2.383      5.995
REMARK  12 active torsions:
REMARK  status: ('A' for Active; 'I' for Inactive)
REMARK    1  A    between atoms: C2_2  and  O1_3 
REMARK    2  A    between atoms: C2_2  and  C11_36 
REMARK    3  A    between atoms: O1_3  and  C3_4 
REMARK    4  A    between atoms: C3_4  and  C4_6 
REMARK    5  A    between atoms: C5_7  and  O3_8 
REMARK    6  A    between atoms: C6_10  and  N1_11 
REMARK    7  A    between atoms: C7_16  and  N4_17 
REMARK    8  A    between atoms: C8_22  and  N6_23 
REMARK    9  A    between atoms: C9_26  and  O4_27 
REMARK   10  A    between atoms: O4_27  and  S1_28 
REMARK   11  A    between atoms: C11_36  and  O9_37 
REMARK   12  A    between atoms: C11_36  and  O10_39 
ROOT
HETATM    1  C4  UNL     1       2.081 -42.169   0.557  1.00  0.00     0.142 A 
HETATM    2  C5  UNL     1       1.502 -40.940   0.461  1.00  0.00     0.121 A 
HETATM    3  C6  UNL     1       0.564 -40.545   1.442  1.00  0.00     0.162 A 
HETATM    4  C9  UNL     1       0.286 -41.427   2.446  1.00  0.00     0.198 A 
HETATM    5  N7  UNL     1       0.860 -42.638   2.539  1.00  0.00    -0.300 N 
ATOM      6  H7  UNL     1       0.624 -43.266   3.308  1.00  0.00     0.171 HD
HETATM    7  C10 UNL     1       1.740 -43.002   1.612  1.00  0.00     0.266 A 
HETATM    8  O8  UNL     1       2.272 -44.156   1.720  1.00  0.00    -0.267 OA
ENDROOT
BRANCH   3   9
HETATM    9  N1  UNL     1      -0.063 -39.274   1.377  1.00  0.00    -0.064 N 
HETATM   10  N2  UNL     1       0.303 -38.274   2.186  1.00  0.00    -0.207 N 
HETATM   11  N3  UNL     1      -0.250 -37.079   2.161  1.00  0.00    -0.117 N 
ATOM     12  H2  UNL     1       1.050 -38.446   2.858  1.00  0.00     0.210 HD
HETATM   13  C7  UNL     1      -1.236 -36.811   1.291  1.00  0.00     0.706 A 
ATOM     14  H3  UNL     1       0.071 -36.356   2.805  1.00  0.00     0.207 HD
HETATM   15  N5  UNL     1      -1.637 -37.786   0.458  1.00  0.00    -0.020 N 
HETATM   16  C8  UNL     1      -1.055 -39.013   0.498  1.00  0.00     0.713 A 
ATOM     17  H5  UNL     1      -2.386 -37.604  -0.210  1.00  0.00     0.203 HD
BRANCH  13  18
HETATM   18  N4  UNL     1      -1.824 -35.660   1.212  1.00  0.00    -0.233 N 
ATOM     19  H42 UNL     1      -1.297 -34.831   1.486  1.00  0.00     0.174 HD
ATOM     20  H41 UNL     1      -2.784 -35.542   0.890  1.00  0.00     0.174 HD
ENDBRANCH  13  18
BRANCH  16  21
HETATM   21  N6  UNL     1      -1.474 -39.915  -0.324  1.00  0.00    -0.232 N 
ATOM     22  H62 UNL     1      -1.096 -40.859  -0.239  1.00  0.00     0.174 HD
ATOM     23  H61 UNL     1      -2.166 -39.696  -1.041  1.00  0.00     0.174 HD
ENDBRANCH  16  21
ENDBRANCH   3   9
BRANCH   2  24
HETATM   24  O3  UNL     1       1.735 -40.006  -0.523  1.00  0.00    -0.357 OA
ATOM     25  H3  UNL     1       2.291 -39.240  -0.447  1.00  0.00     0.217 HD
ENDBRANCH   2  24
BRANCH   4  26
HETATM   26  O4  UNL     1      -0.631 -41.076   3.434  1.00  0.00    -0.193 OA
BRANCH  26  27
HETATM   27  S1  UNL     1      -0.586 -41.877   4.913  1.00  0.00     0.258 S 
HETATM   28  O5  UNL     1       0.807 -42.268   5.313  1.00  0.00    -0.572 OA
HETATM   29  O6  UNL     1      -1.111 -40.961   5.976  1.00  0.00    -0.572 OA
HETATM   30  O7  UNL     1      -1.489 -43.310   4.844  1.00  0.00    -0.572 OA
ENDBRANCH  26  27
ENDBRANCH   4  26
BRANCH   1  31
HETATM   31  C3  UNL     1       3.049 -42.659  -0.396  1.00  0.00     0.302 C 
HETATM   32  O2  UNL     1       2.947 -43.679  -1.077  1.00  0.00    -0.259 OA
BRANCH  31  33
HETATM   33  O1  UNL     1       4.251 -41.952  -0.621  1.00  0.00    -0.307 OA
BRANCH  33  34
HETATM   34  C2  UNL     1       4.982 -42.080  -1.794  1.00  0.00     0.182 C 
HETATM   35  C1  UNL     1       6.483 -41.977  -1.571  1.00  0.00     0.045 C 
BRANCH  34  36
HETATM   36  C11 UNL     1       4.536 -41.129  -2.886  1.00  0.00     0.282 C 
BRANCH  36  37
HETATM   37  O9  UNL     1       5.685 -40.746  -3.578  1.00  0.00    -0.369 OA
ATOM     38  H9  UNL     1       5.880 -41.444  -4.192  1.00  0.00     0.212 HD
ENDBRANCH  36  37
BRANCH  36  39
HETATM   39  O10 UNL     1       3.949 -39.979  -2.379  1.00  0.00    -0.369 OA
ATOM     40  H10 UNL     1       3.149 -40.160  -1.898  1.00  0.00     0.212 HD
ENDBRANCH  36  39
ENDBRANCH  34  36
ENDBRANCH  33  34
ENDBRANCH  31  33
ENDBRANCH   1  31
TORSDOF 12
ENDMDL
MODEL 4
REMARK VINA RESULT: -7.763067748      2.418      5.794
REMARK  12 active torsions:
REMARK  status: ('A' for Active; 'I' for Inactive)
REMARK    1  A    between atoms: C2_2  and  O1_3 
REMARK    2  A    between atoms: C2_2  and  C11_36 
REMARK    3  A    between atoms: O1_3  and  C3_4 
REMARK    4  A    between atoms: C3_4  and  C4_6 
REMARK    5  A    between atoms: C5_7  and  O3_8 
REMARK    6  A    between atoms: C6_10  and  N1_11 
REMARK    7  A    between atoms: C7_16  and  N4_17 
REMARK    8  A    between atoms: C8_22  and  N6_23 
REMARK    9  A    between atoms: C9_26  and  O4_27 
REMARK   10  A    between atoms: O4_27  and  S1_28 
REMARK   11  A    between atoms: C11_36  and  O9_37 
REMARK   12  A    between atoms: C11_36  and  O10_39 
ROOT
HETATM    1  C4  UNL     1       1.978 -42.265  -0.188  1.00  0.00     0.142 A 
HETATM    2  C5  UNL     1       1.293 -41.090  -0.254  1.00  0.00     0.121 A 
HETATM    3  C6  UNL     1       0.827 -40.498   0.942  1.00  0.00     0.162 A 
HETATM    4  C9  UNL     1       1.090 -41.144   2.115  1.00  0.00     0.198 A 
HETATM    5  N7  UNL     1       1.767 -42.303   2.178  1.00  0.00    -0.300 N 
ATOM      6  H7  UNL     1       1.943 -42.752   3.077  1.00  0.00     0.171 HD
HETATM    7  C10 UNL     1       2.202 -42.853   1.049  1.00  0.00     0.266 A 
HETATM    8  O8  UNL     1       2.841 -43.953   1.132  1.00  0.00    -0.267 OA
ENDROOT
BRANCH   3   9
HETATM    9  N1  UNL     1       0.108 -39.275   0.914  1.00  0.00    -0.064 N 
HETATM   10  N2  UNL     1      -1.216 -39.240   1.097  1.00  0.00    -0.207 N 
HETATM   11  N3  UNL     1      -1.923 -38.129   1.079  1.00  0.00    -0.117 N 
ATOM     12  H2  UNL     1      -1.704 -40.121   1.258  1.00  0.00     0.210 HD
HETATM   13  C7  UNL     1      -1.319 -36.949   0.870  1.00  0.00     0.706 A 
ATOM     14  H3  UNL     1      -2.932 -38.166   1.223  1.00  0.00     0.207 HD
HETATM   15  N5  UNL     1       0.011 -36.935   0.682  1.00  0.00    -0.020 N 
HETATM   16  C8  UNL     1       0.725 -38.091   0.704  1.00  0.00     0.713 A 
ATOM     17  H5  UNL     1       0.490 -36.050   0.520  1.00  0.00     0.203 HD
BRANCH  13  18
HETATM   18  N4  UNL     1      -1.951 -35.820   0.840  1.00  0.00    -0.233 N 
ATOM     19  H42 UNL     1      -2.021 -35.331  -0.053  1.00  0.00     0.174 HD
ATOM     20  H41 UNL     1      -2.382 -35.396   1.662  1.00  0.00     0.174 HD
ENDBRANCH  13  18
BRANCH  16  21
HETATM   21  N6  UNL     1       2.000 -38.025   0.519  1.00  0.00    -0.232 N 
ATOM     22  H62 UNL     1       2.601 -37.909   1.334  1.00  0.00     0.174 HD
ATOM     23  H61 UNL     1       2.402 -38.088  -0.417  1.00  0.00     0.174 HD
ENDBRANCH  16  21
ENDBRANCH   3   9
BRANCH   2  24
HETATM   24  O3  UNL     1       0.993 -40.388  -1.400  1.00  0.00    -0.357 OA
ATOM     25  H3  UNL     1       0.159 -39.983  -1.606  1.00  0.00     0.217 HD
ENDBRANCH   2  24
BRANCH   4  26
HETATM   26  O4  UNL     1       0.649 -40.595   3.316  1.00  0.00    -0.193 OA
BRANCH  26  27
HETATM   27  S1  UNL     1      -0.553 -41.389   4.185  1.00  0.00     0.258 S 
HETATM   28  O5  UNL     1      -0.697 -40.861   5.582  1.00  0.00    -0.572 OA
HETATM   29  O6  UNL     1      -1.867 -41.182   3.495  1.00  0.00    -0.572 OA
HETATM   30  O7  UNL     1      -0.195 -43.040   4.327  1.00  0.00    -0.572 OA
ENDBRANCH  26  27
ENDBRANCH   4  26
BRANCH   1  31
HETATM   31  C3  UNL     1       2.493 -42.943  -1.354  1.00  0.00     0.302 C 
HETATM   32  O2  UNL     1       2.474 -44.157  -1.557  1.00  0.00    -0.259 OA
BRANCH  31  33
HETATM   33  O1  UNL     1       3.091 -42.208  -2.402  1.00  0.00    -0.307 OA
BRANCH  33  34
HETATM   34  C2  UNL     1       4.381 -41.704  -2.315  1.00  0.00     0.182 C 
HETATM   35  C1  UNL     1       5.216 -42.393  -1.246  1.00  0.00     0.045 C 
BRANCH  34  36
HETATM   36  C11 UNL     1       4.427 -40.199  -2.143  1.00  0.00     0.282 C 
BRANCH  36  37
HETATM   37  O9  UNL     1       4.453 -39.953  -0.770  1.00  0.00    -0.369 OA
ATOM     38  H9  UNL     1       3.731 -39.363  -0.585  1.00  0.00     0.212 HD
ENDBRANCH  36  37
BRANCH  36  39
HETATM   39  O10 UNL     1       3.302 -39.572  -2.660  1.00  0.00    -0.369 OA
ATOM     40  H10 UNL     1       2.921 -38.951  -2.051  1.00  0.00     0.212 HD
ENDBRANCH  36  39
ENDBRANCH  34  36
ENDBRANCH  33  34
ENDBRANCH  31  33
ENDBRANCH   1  31
TORSDOF 12
ENDMDL
MODEL 5
REMARK VINA RESULT: -7.696436660      2.646      5.947
REMARK  12 active torsions:
REMARK  status: ('A' for Active; 'I' for Inactive)
REMARK    1  A    between atoms: C2_2  and  O1_3 
REMARK    2  A    between atoms: C2_2  and  C11_36 
REMARK    3  A    between atoms: O1_3  and  C3_4 
REMARK    4  A    between atoms: C3_4  and  C4_6 
REMARK    5  A    between atoms: C5_7  and  O3_8 
REMARK    6  A    between atoms: C6_10  and  N1_11 
REMARK    7  A    between atoms: C7_16  and  N4_17 
REMARK    8  A    between atoms: C8_22  and  N6_23 
REMARK    9  A    between atoms: C9_26  and  O4_27 
REMARK   10  A    between atoms: O4_27  and  S1_28 
REMARK   11  A    between atoms: C11_36  and  O9_37 
REMARK   12  A    between atoms: C11_36  and  O10_39 
ROOT
HETATM    1  C4  UNL     1       2.152 -43.146   1.784  1.00  0.00     0.142 A 
HETATM    2  C5  UNL     1       1.510 -41.969   1.544  1.00  0.00     0.121 A 
HETATM    3  C6  UNL     1       0.708 -41.405   2.562  1.00  0.00     0.162 A 
HETATM    4  C9  UNL     1       0.619 -42.078   3.746  1.00  0.00     0.198 A 
HETATM    5  N7  UNL     1       1.254 -43.238   3.980  1.00  0.00    -0.300 N 
ATOM      6  H7  UNL     1       1.161 -43.708   4.881  1.00  0.00     0.171 HD
HETATM    7  C10 UNL     1       2.005 -43.762   3.018  1.00  0.00     0.266 A 
HETATM    8  O8  UNL     1       2.599 -44.864   3.262  1.00  0.00    -0.267 OA
ENDROOT
BRANCH   3   9
HETATM    9  N1  UNL     1       0.022 -40.181   2.351  1.00  0.00    -0.064 N 
HETATM   10  N2  UNL     1      -1.313 -40.131   2.298  1.00  0.00    -0.207 N 
HETATM   11  N3  UNL     1      -1.992 -39.019   2.103  1.00  0.00    -0.117 N 
ATOM     12  H2  UNL     1      -1.834 -41.000   2.414  1.00  0.00     0.210 HD
HETATM   13  C7  UNL     1      -1.345 -37.854   1.947  1.00  0.00     0.706 A 
ATOM     14  H3  UNL     1      -3.011 -39.044   2.072  1.00  0.00     0.207 HD
HETATM   15  N5  UNL     1      -0.002 -37.856   1.993  1.00  0.00    -0.020 N 
HETATM   16  C8  UNL     1       0.681 -39.012   2.194  1.00  0.00     0.713 A 
ATOM     17  H5  UNL     1       0.509 -36.982   1.875  1.00  0.00     0.203 HD
BRANCH  13  18
HETATM   18  N4  UNL     1      -1.947 -36.724   1.753  1.00  0.00    -0.233 N 
ATOM     19  H42 UNL     1      -2.916 -36.745   1.434  1.00  0.00     0.174 HD
ATOM     20  H41 UNL     1      -1.504 -35.819   1.904  1.00  0.00     0.174 HD
ENDBRANCH  13  18
BRANCH  16  21
HETATM   21  N6  UNL     1       1.970 -38.962   2.232  1.00  0.00    -0.232 N 
ATOM     22  H62 UNL     1       2.453 -39.479   2.966  1.00  0.00     0.174 HD
ATOM     23  H61 UNL     1       2.498 -38.421   1.546  1.00  0.00     0.174 HD
ENDBRANCH  16  21
ENDBRANCH   3   9
BRANCH   2  24
HETATM   24  O3  UNL     1       1.556 -41.242   0.376  1.00  0.00    -0.357 OA
ATOM     25  H3  UNL     1       1.898 -41.542  -0.457  1.00  0.00     0.217 HD
ENDBRANCH   2  24
BRANCH   4  26
HETATM   26  O4  UNL     1      -0.160 -41.556   4.775  1.00  0.00    -0.193 OA
BRANCH  26  27
HETATM   27  S1  UNL     1      -1.600 -42.326   5.182  1.00  0.00     0.258 S 
HETATM   28  O5  UNL     1      -2.035 -42.029   6.588  1.00  0.00    -0.572 OA
HETATM   29  O6  UNL     1      -2.684 -41.838   4.271  1.00  0.00    -0.572 OA
HETATM   30  O7  UNL     1      -1.427 -44.009   5.076  1.00  0.00    -0.572 OA
ENDBRANCH  26  27
ENDBRANCH   4  26
BRANCH   1  31
HETATM   31  C3  UNL     1       2.993 -43.797   0.806  1.00  0.00     0.302 C 
HETATM   32  O2  UNL     1       3.909 -44.584   1.044  1.00  0.00    -0.259 OA
BRANCH  31  33
HETATM   33  O1  UNL     1       2.804 -43.556  -0.573  1.00  0.00    -0.307 OA
BRANCH  33  34
HETATM   34  C2  UNL     1       3.819 -43.080  -1.391  1.00  0.00     0.182 C 
HETATM   35  C1  UNL     1       4.825 -42.216  -0.645  1.00  0.00     0.045 C 
BRANCH  34  36
HETATM   36  C11 UNL     1       3.308 -42.363  -2.624  1.00  0.00     0.282 C 
BRANCH  36  37
HETATM   37  O9  UNL     1       4.295 -41.449  -2.994  1.00  0.00    -0.369 OA
ATOM     38  H9  UNL     1       4.025 -41.076  -3.825  1.00  0.00     0.212 HD
ENDBRANCH  36  37
BRANCH  36  39
HETATM   39  O10 UNL     1       2.146 -41.647  -2.379  1.00  0.00    -0.369 OA
ATOM     40  H10 UNL     1       1.470 -41.820  -3.024  1.00  0.00     0.212 HD
ENDBRANCH  36  39
ENDBRANCH  34  36
ENDBRANCH  33  34
ENDBRANCH  31  33
ENDBRANCH   1  31
TORSDOF 12
ENDMDL
