MODEL 1
REMARK VINA RESULT: -5.744293257      0.000      0.000
REMARK  8 active torsions:
REMARK  status: ('A' for Active; 'I' for Inactive)
REMARK    1  A    between atoms: N1_1  and  C1_4 
REMARK    2  A    between atoms: C1_4  and  O1_5 
REMARK    3  A    between atoms: C1_4  and  N2_7 
REMARK    4  A    between atoms: N2_7  and  C2_9 
REMARK    5  A    between atoms: C2_9  and  C3_10 
REMARK    6  A    between atoms: C3_10  and  N3_11 
REMARK    7  A    between atoms: N4_14  and  C6_15 
REMARK    8  A    between atoms: C6_15  and  N5_16 
ROOT
HETATM    1  N3  UNL     1     -21.951  -1.267  21.432  1.00  0.00     0.092 N 
HETATM    2  C4  UNL     1     -21.148  -1.216  20.232  1.00  0.00     0.287 C 
HETATM    3  C5  UNL     1     -20.600   0.219  20.176  1.00  0.00     0.126 C 
HETATM    4  N4  UNL     1     -21.715   1.061  19.738  1.00  0.00    -0.276 NA
HETATM    5  C10 UNL     1     -22.982   0.459  19.989  1.00  0.00     0.126 C 
HETATM    6  C11 UNL     1     -23.076  -0.387  21.212  1.00  0.00     0.287 C 
ENDROOT
BRANCH   1   7
HETATM    7  C3  UNL     1     -22.367  -2.611  21.776  1.00  0.00     0.292 C 
BRANCH   7   8
HETATM    8  C2  UNL     1     -22.707  -3.299  20.453  1.00  0.00     0.153 C 
BRANCH   8   9
HETATM    9  N2  UNL     1     -22.797  -4.733  20.690  1.00  0.00    -0.355 N 
ATOM     10  H2  UNL     1     -22.336  -5.109  21.519  1.00  0.00     0.163 HD
BRANCH   9  11
HETATM   11  C1  UNL     1     -23.479  -5.636  19.851  1.00  0.00     0.210 C 
BRANCH  11  12
HETATM   12  N1  UNL     1     -23.994  -6.720  20.326  1.00  0.00    -0.366 N 
ATOM     13  H12 UNL     1     -23.645  -7.633  20.039  1.00  0.00     0.159 HD
ATOM     14  H11 UNL     1     -24.755  -6.604  20.996  1.00  0.00     0.159 HD
ENDBRANCH  11  12
BRANCH  11  15
HETATM   15  O1  UNL     1     -23.642  -5.421  18.474  1.00  0.00    -0.333 OA
ATOM     16  H1  UNL     1     -22.955  -4.928  18.040  1.00  0.00     0.220 HD
ENDBRANCH  11  15
ENDBRANCH   9  11
ENDBRANCH   8   9
ENDBRANCH   7   8
ENDBRANCH   1   7
BRANCH   4  17
HETATM   17  C6  UNL     1     -21.477   1.346  18.358  1.00  0.00     0.161 C 
BRANCH  17  18
HETATM   18  N5  UNL     1     -22.578   1.924  17.646  1.00  0.00    -0.300 N 
HETATM   19  C7  UNL     1     -23.419   1.256  16.837  1.00  0.00     0.190 A 
HETATM   20  N6  UNL     1     -24.337   2.103  16.326  1.00  0.00    -0.344 N 
HETATM   21  C8  UNL     1     -24.092   3.342  16.811  1.00  0.00     0.115 A 
ATOM     22  H6  UNL     1     -25.088   1.851  15.683  1.00  0.00     0.167 HD
HETATM   23 BR1  UNL     1     -25.088   4.921  16.417  1.00  0.00    -0.028 Br
HETATM   24  C9  UNL     1     -22.987   3.203  17.636  1.00  0.00     0.122 A 
HETATM   25 BR2  UNL     1     -22.190   4.643  18.598  1.00  0.00    -0.028 Br
ENDBRANCH  17  18
ENDBRANCH   4  17
TORSDOF 8
ENDMDL
MODEL 2
REMARK VINA RESULT: -5.701198788      4.477      6.102
REMARK  8 active torsions:
REMARK  status: ('A' for Active; 'I' for Inactive)
REMARK    1  A    between atoms: N1_1  and  C1_4 
REMARK    2  A    between atoms: C1_4  and  O1_5 
REMARK    3  A    between atoms: C1_4  and  N2_7 
REMARK    4  A    between atoms: N2_7  and  C2_9 
REMARK    5  A    between atoms: C2_9  and  C3_10 
REMARK    6  A    between atoms: C3_10  and  N3_11 
REMARK    7  A    between atoms: N4_14  and  C6_15 
REMARK    8  A    between atoms: C6_15  and  N5_16 
ROOT
HETATM    1  N3  UNL     1     -21.204  -0.401  20.521  1.00  0.00     0.092 N 
HETATM    2  C4  UNL     1     -20.454   0.132  19.406  1.00  0.00     0.287 C 
HETATM    3  C5  UNL     1     -19.172  -0.713  19.344  1.00  0.00     0.126 C 
HETATM    4  N4  UNL     1     -18.321  -0.238  20.436  1.00  0.00    -0.276 NA
HETATM    5  C10 UNL     1     -19.066   0.417  21.461  1.00  0.00     0.126 C 
HETATM    6  C11 UNL     1     -20.437  -0.107  21.711  1.00  0.00     0.287 C 
ENDROOT
BRANCH   1   7
HETATM    7  C3  UNL     1     -22.552   0.121  20.596  1.00  0.00     0.292 C 
BRANCH   7   8
HETATM    8  C2  UNL     1     -23.462  -1.090  20.810  1.00  0.00     0.153 C 
BRANCH   8   9
HETATM    9  N2  UNL     1     -23.066  -2.135  19.876  1.00  0.00    -0.355 N 
ATOM     10  H2  UNL     1     -23.035  -1.900  18.884  1.00  0.00     0.163 HD
BRANCH   9  11
HETATM   11  C1  UNL     1     -22.723  -3.448  20.252  1.00  0.00     0.210 C 
BRANCH  11  12
HETATM   12  N1  UNL     1     -21.977  -3.667  21.282  1.00  0.00    -0.366 N 
ATOM     13  H12 UNL     1     -21.639  -4.605  21.492  1.00  0.00     0.159 HD
ATOM     14  H11 UNL     1     -21.752  -2.856  21.859  1.00  0.00     0.159 HD
ENDBRANCH  11  12
BRANCH  11  15
HETATM   15  O1  UNL     1     -23.161  -4.580  19.548  1.00  0.00    -0.333 OA
ATOM     16  H1  UNL     1     -23.979  -4.966  19.837  1.00  0.00     0.220 HD
ENDBRANCH  11  15
ENDBRANCH   9  11
ENDBRANCH   8   9
ENDBRANCH   7   8
ENDBRANCH   1   7
BRANCH   4  17
HETATM   17  C6  UNL     1     -17.325   0.590  19.832  1.00  0.00     0.161 C 
BRANCH  17  18
HETATM   18  N5  UNL     1     -16.210  -0.102  19.256  1.00  0.00    -0.300 N 
HETATM   19  C7  UNL     1     -15.351  -0.889  19.927  1.00  0.00     0.190 A 
HETATM   20  N6  UNL     1     -14.419  -1.380  19.083  1.00  0.00    -0.344 N 
HETATM   21  C8  UNL     1     -14.676  -0.906  17.841  1.00  0.00     0.115 A 
ATOM     22  H6  UNL     1     -13.652  -2.002  19.337  1.00  0.00     0.167 HD
HETATM   23 BR1  UNL     1     -13.673  -1.284  16.263  1.00  0.00    -0.028 Br
HETATM   24  C9  UNL     1     -15.802  -0.110  17.976  1.00  0.00     0.122 A 
HETATM   25 BR2  UNL     1     -16.624   0.824  16.532  1.00  0.00    -0.028 Br
ENDBRANCH  17  18
ENDBRANCH   4  17
TORSDOF 8
ENDMDL
MODEL 3
REMARK VINA RESULT: -5.664433481      2.703      4.715
REMARK  8 active torsions:
REMARK  status: ('A' for Active; 'I' for Inactive)
REMARK    1  A    between atoms: N1_1  and  C1_4 
REMARK    2  A    between atoms: C1_4  and  O1_5 
REMARK    3  A    between atoms: C1_4  and  N2_7 
REMARK    4  A    between atoms: N2_7  and  C2_9 
REMARK    5  A    between atoms: C2_9  and  C3_10 
REMARK    6  A    between atoms: C3_10  and  N3_11 
REMARK    7  A    between atoms: N4_14  and  C6_15 
REMARK    8  A    between atoms: C6_15  and  N5_16 
ROOT
HETATM    1  N3  UNL     1     -23.473  -6.041  21.425  1.00  0.00     0.092 N 
HETATM    2  C4  UNL     1     -22.319  -5.308  21.892  1.00  0.00     0.287 C 
HETATM    3  C5  UNL     1     -22.796  -3.854  22.033  1.00  0.00     0.126 C 
HETATM    4  N4  UNL     1     -22.869  -3.318  20.673  1.00  0.00    -0.276 NA
HETATM    5  C10 UNL     1     -22.991  -4.343  19.690  1.00  0.00     0.126 C 
HETATM    6  C11 UNL     1     -23.761  -5.552  20.095  1.00  0.00     0.287 C 
ENDROOT
BRANCH   1   7
HETATM    7  C3  UNL     1     -23.279  -7.476  21.450  1.00  0.00     0.292 C 
BRANCH   7   8
HETATM    8  C2  UNL     1     -24.053  -8.028  20.251  1.00  0.00     0.153 C 
BRANCH   8   9
HETATM    9  N2  UNL     1     -25.173  -8.815  20.750  1.00  0.00    -0.355 N 
ATOM     10  H2  UNL     1     -24.975  -9.545  21.434  1.00  0.00     0.163 HD
BRANCH   9  11
HETATM   11  C1  UNL     1     -26.511  -8.634  20.349  1.00  0.00     0.210 C 
BRANCH  11  12
HETATM   12  N1  UNL     1     -26.843  -7.654  19.577  1.00  0.00    -0.366 N 
ATOM     13  H12 UNL     1     -27.436  -7.809  18.763  1.00  0.00     0.159 HD
ATOM     14  H11 UNL     1     -26.483  -6.734  19.832  1.00  0.00     0.159 HD
ENDBRANCH  11  12
BRANCH  11  15
HETATM   15  O1  UNL     1     -27.548  -9.489  20.752  1.00  0.00    -0.333 OA
ATOM     16  H1  UNL     1     -28.426  -9.129  20.725  1.00  0.00     0.220 HD
ENDBRANCH  11  15
ENDBRANCH   9  11
ENDBRANCH   8   9
ENDBRANCH   7   8
ENDBRANCH   1   7
BRANCH   4  17
HETATM   17  C6  UNL     1     -21.711  -2.498  20.508  1.00  0.00     0.161 C 
BRANCH  17  18
HETATM   18  N5  UNL     1     -21.961  -1.145  20.108  1.00  0.00    -0.300 N 
HETATM   19  C7  UNL     1     -23.172  -0.564  20.042  1.00  0.00     0.190 A 
HETATM   20  N6  UNL     1     -23.047   0.714  19.625  1.00  0.00    -0.344 N 
HETATM   21  C8  UNL     1     -21.734   0.970  19.419  1.00  0.00     0.115 A 
ATOM     22  H6  UNL     1     -23.813   1.375  19.489  1.00  0.00     0.167 HD
HETATM   23 BR1  UNL     1     -20.991   2.625  18.827  1.00  0.00    -0.028 Br
HETATM   24  C9  UNL     1     -21.075  -0.209  19.729  1.00  0.00     0.122 A 
HETATM   25 BR2  UNL     1     -19.186  -0.431  19.621  1.00  0.00    -0.028 Br
ENDBRANCH  17  18
ENDBRANCH   4  17
TORSDOF 8
ENDMDL
MODEL 4
REMARK VINA RESULT: -5.637465747      3.026      4.206
REMARK  8 active torsions:
REMARK  status: ('A' for Active; 'I' for Inactive)
REMARK    1  A    between atoms: N1_1  and  C1_4 
REMARK    2  A    between atoms: C1_4  and  O1_5 
REMARK    3  A    between atoms: C1_4  and  N2_7 
REMARK    4  A    between atoms: N2_7  and  C2_9 
REMARK    5  A    between atoms: C2_9  and  C3_10 
REMARK    6  A    between atoms: C3_10  and  N3_11 
REMARK    7  A    between atoms: N4_14  and  C6_15 
REMARK    8  A    between atoms: C6_15  and  N5_16 
ROOT
HETATM    1  N3  UNL     1     -22.556  -4.365  20.347  1.00  0.00     0.092 N 
HETATM    2  C4  UNL     1     -23.020  -3.058  19.940  1.00  0.00     0.287 C 
HETATM    3  C5  UNL     1     -21.867  -2.100  20.277  1.00  0.00     0.126 C 
HETATM    4  N4  UNL     1     -21.906  -1.913  21.728  1.00  0.00    -0.276 NA
HETATM    5  C10 UNL     1     -22.580  -2.977  22.396  1.00  0.00     0.126 C 
HETATM    6  C11 UNL     1     -22.435  -4.329  21.787  1.00  0.00     0.287 C 
ENDROOT
BRANCH   1   7
HETATM    7  C3  UNL     1     -23.421  -5.436  19.898  1.00  0.00     0.292 C 
BRANCH   7   8
HETATM    8  C2  UNL     1     -23.635  -6.343  21.111  1.00  0.00     0.153 C 
BRANCH   8   9
HETATM    9  N2  UNL     1     -24.644  -7.336  20.770  1.00  0.00    -0.355 N 
ATOM     10  H2  UNL     1     -25.554  -7.002  20.453  1.00  0.00     0.163 HD
BRANCH   9  11
HETATM   11  C1  UNL     1     -24.447  -8.729  20.849  1.00  0.00     0.210 C 
BRANCH  11  12
HETATM   12  N1  UNL     1     -24.915  -9.515  19.939  1.00  0.00    -0.366 N 
ATOM     13  H12 UNL     1     -24.336  -9.803  19.150  1.00  0.00     0.159 HD
ATOM     14  H11 UNL     1     -25.880  -9.824  20.059  1.00  0.00     0.159 HD
ENDBRANCH  11  12
BRANCH  11  15
HETATM   15  O1  UNL     1     -23.742  -9.339  21.897  1.00  0.00    -0.333 OA
ATOM     16  H1  UNL     1     -24.117  -9.252  22.765  1.00  0.00     0.220 HD
ENDBRANCH  11  15
ENDBRANCH   9  11
ENDBRANCH   8   9
ENDBRANCH   7   8
ENDBRANCH   1   7
BRANCH   4  17
HETATM   17  C6  UNL     1     -22.501  -0.631  21.945  1.00  0.00     0.161 C 
BRANCH  17  18
HETATM   18  N5  UNL     1     -21.692   0.496  21.586  1.00  0.00    -0.300 N 
HETATM   19  C7  UNL     1     -20.547   0.858  22.191  1.00  0.00     0.190 A 
HETATM   20  N6  UNL     1     -20.046   1.965  21.605  1.00  0.00    -0.344 N 
HETATM   21  C8  UNL     1     -20.877   2.330  20.600  1.00  0.00     0.115 A 
ATOM     22  H6  UNL     1     -19.187   2.446  21.873  1.00  0.00     0.167 HD
HETATM   23 BR1  UNL     1     -20.647   3.827  19.439  1.00  0.00    -0.028 Br
HETATM   24  C9  UNL     1     -21.899   1.394  20.609  1.00  0.00     0.122 A 
HETATM   25 BR2  UNL     1     -23.367   1.412  19.394  1.00  0.00    -0.028 Br
ENDBRANCH  17  18
ENDBRANCH   4  17
TORSDOF 8
ENDMDL
MODEL 5
REMARK VINA RESULT: -5.563654305      4.528      7.486
REMARK  8 active torsions:
REMARK  status: ('A' for Active; 'I' for Inactive)
REMARK    1  A    between atoms: N1_1  and  C1_4 
REMARK    2  A    between atoms: C1_4  and  O1_5 
REMARK    3  A    between atoms: C1_4  and  N2_7 
REMARK    4  A    between atoms: N2_7  and  C2_9 
REMARK    5  A    between atoms: C2_9  and  C3_10 
REMARK    6  A    between atoms: C3_10  and  N3_11 
REMARK    7  A    between atoms: N4_14  and  C6_15 
REMARK    8  A    between atoms: C6_15  and  N5_16 
ROOT
HETATM    1  N3  UNL     1     -22.227   0.091  20.905  1.00  0.00     0.092 N 
HETATM    2  C4  UNL     1     -22.925  -0.582  19.834  1.00  0.00     0.287 C 
HETATM    3  C5  UNL     1     -23.736  -1.693  20.519  1.00  0.00     0.126 C 
HETATM    4  N4  UNL     1     -22.776  -2.744  20.858  1.00  0.00    -0.276 NA
HETATM    5  C10 UNL     1     -21.439  -2.255  20.940  1.00  0.00     0.126 C 
HETATM    6  C11 UNL     1     -21.281  -0.861  21.442  1.00  0.00     0.287 C 
ENDROOT
BRANCH   1   7
HETATM    7  C3  UNL     1     -21.585   1.317  20.477  1.00  0.00     0.292 C 
BRANCH   7   8
HETATM    8  C2  UNL     1     -20.080   1.060  20.568  1.00  0.00     0.153 C 
BRANCH   8   9
HETATM    9  N2  UNL     1     -19.532   1.056  19.218  1.00  0.00    -0.355 N 
ATOM     10  H2  UNL     1     -19.440   1.951  18.738  1.00  0.00     0.163 HD
BRANCH   9  11
HETATM   11  C1  UNL     1     -19.121  -0.104  18.532  1.00  0.00     0.210 C 
BRANCH  11  12
HETATM   12  N1  UNL     1     -19.324  -0.227  17.264  1.00  0.00    -0.366 N 
ATOM     13  H12 UNL     1     -20.269  -0.319  16.892  1.00  0.00     0.159 HD
ATOM     14  H11 UNL     1     -18.494  -0.226  16.669  1.00  0.00     0.159 HD
ENDBRANCH  11  12
BRANCH  11  15
HETATM   15  O1  UNL     1     -18.477  -1.176  19.168  1.00  0.00    -0.333 OA
ATOM     16  H1  UNL     1     -18.689  -1.313  20.083  1.00  0.00     0.220 HD
ENDBRANCH  11  15
ENDBRANCH   9  11
ENDBRANCH   8   9
ENDBRANCH   7   8
ENDBRANCH   1   7
BRANCH   4  17
HETATM   17  C6  UNL     1     -22.953  -3.772  19.881  1.00  0.00     0.161 C 
BRANCH  17  18
HETATM   18  N5  UNL     1     -23.302  -5.063  20.396  1.00  0.00    -0.300 N 
HETATM   19  C7  UNL     1     -23.207  -5.440  21.683  1.00  0.00     0.190 A 
HETATM   20  N6  UNL     1     -23.614  -6.720  21.820  1.00  0.00    -0.344 N 
HETATM   21  C8  UNL     1     -23.983  -7.183  20.602  1.00  0.00     0.115 A 
ATOM     22  H6  UNL     1     -23.639  -7.248  22.693  1.00  0.00     0.167 HD
HETATM   23 BR1  UNL     1     -24.642  -8.932  20.218  1.00  0.00    -0.028 Br
HETATM   24  C9  UNL     1     -23.779  -6.127  19.729  1.00  0.00     0.122 A 
HETATM   25 BR2  UNL     1     -24.135  -6.210  17.858  1.00  0.00    -0.028 Br
ENDBRANCH  17  18
ENDBRANCH   4  17
TORSDOF 8
ENDMDL
