MODEL 1
REMARK VINA RESULT: -6.211278439      0.000      0.000
REMARK  5 active torsions:
REMARK  status: ('A' for Active; 'I' for Inactive)
REMARK    1  A    between atoms: C5_9  and  N2_10 
REMARK    2  A    between atoms: C6_13  and  C7_14 
REMARK    3  A    between atoms: C7_14  and  C8_15 
REMARK    4  A    between atoms: C11_21  and  C12_22 
REMARK    5  A    between atoms: N4_23  and  N5_25 
ROOT
HETATM    1  C8  UNL     1      -3.622 -16.085  -9.126  1.00  0.00     0.046 A 
HETATM    2  N3  UNL     1      -3.826 -17.394  -9.292  1.00  0.00    -0.364 N 
ATOM      3  H3  UNL     1      -4.144 -18.023  -8.555  1.00  0.00     0.165 HD
HETATM    4  C9  UNL     1      -3.561 -17.779 -10.548  1.00  0.00     0.108 A 
HETATM    5  C10 UNL     1      -3.161 -16.681 -11.271  1.00  0.00     0.040 A 
HETATM    6 BR2  UNL     1      -2.655 -16.631 -13.122  1.00  0.00    -0.049 Br
HETATM    7  C11 UNL     1      -3.202 -15.634 -10.378  1.00  0.00     0.026 A 
ENDROOT
BRANCH   1   8
HETATM    8  C7  UNL     1      -3.734 -15.199  -8.009  1.00  0.00     0.046 C 
BRANCH   8   9
HETATM    9  C6  UNL     1      -4.725 -14.896  -7.228  1.00  0.00     0.017 A 
HETATM   10  C2  UNL     1      -4.642 -15.152  -5.765  1.00  0.00    -0.025 A 
HETATM   11  C1  UNL     1      -3.398 -15.721  -5.174  1.00  0.00     0.050 C 
HETATM   12  C3  UNL     1      -5.644 -14.895  -4.944  1.00  0.00     0.085 A 
HETATM   13 BR1  UNL     1      -5.454 -15.254  -3.082  1.00  0.00    -0.045 Br
HETATM   14  C4  UNL     1      -6.919 -14.339  -5.381  1.00  0.00     0.265 A 
HETATM   15  O1  UNL     1      -7.849 -14.110  -4.546  1.00  0.00    -0.267 OA
HETATM   16  N1  UNL     1      -7.056 -14.074  -6.761  1.00  0.00    -0.308 N 
HETATM   17  C5  UNL     1      -5.978 -14.347  -7.679  1.00  0.00     0.112 A 
ATOM     18  H1  UNL     1      -7.930 -13.684  -7.114  1.00  0.00     0.170 HD
BRANCH  17  19
HETATM   19  N2  UNL     1      -6.236 -14.097  -8.901  1.00  0.00    -0.385 N 
ATOM     20  H22 UNL     1      -6.936 -14.604  -9.442  1.00  0.00     0.157 HD
ATOM     21  H21 UNL     1      -5.705 -13.325  -9.304  1.00  0.00     0.157 HD
ENDBRANCH  17  19
ENDBRANCH   8   9
ENDBRANCH   1   8
BRANCH   7  22
HETATM   22  C12 UNL     1      -2.846 -14.275 -10.751  1.00  0.00     0.123 C 
HETATM   23  N4  UNL     1      -3.477 -13.606 -11.650  1.00  0.00    -0.297 N 
ATOM     24  H4  UNL     1      -4.265 -14.045 -12.127  1.00  0.00     0.187 HD
BRANCH  23  25
HETATM   25  N5  UNL     1      -3.126 -12.318 -11.991  1.00  0.00    -0.250 N 
HETATM   26  N6  UNL     1      -3.909 -11.506 -12.571  1.00  0.00    -0.331 N 
ATOM     27  H62 UNL     1      -4.847 -11.842 -12.790  1.00  0.00     0.178 HD
ATOM     28  H61 UNL     1      -3.649 -10.553 -12.823  1.00  0.00     0.178 HD
ATOM     29  H5  UNL     1      -2.184 -12.000 -11.765  1.00  0.00     0.207 HD
ENDBRANCH  23  25
ENDBRANCH   7  22
TORSDOF 5
ENDMDL
MODEL 2
REMARK VINA RESULT: -6.053503560      4.999      7.768
REMARK  5 active torsions:
REMARK  status: ('A' for Active; 'I' for Inactive)
REMARK    1  A    between atoms: C5_9  and  N2_10 
REMARK    2  A    between atoms: C6_13  and  C7_14 
REMARK    3  A    between atoms: C7_14  and  C8_15 
REMARK    4  A    between atoms: C11_21  and  C12_22 
REMARK    5  A    between atoms: N4_23  and  N5_25 
ROOT
HETATM    1  C8  UNL     1      -1.823 -16.400 -10.923  1.00  0.00     0.046 A 
HETATM    2  N3  UNL     1      -2.269 -17.513 -10.337  1.00  0.00    -0.364 N 
ATOM      3  H3  UNL     1      -1.818 -18.425 -10.419  1.00  0.00     0.165 HD
HETATM    4  C9  UNL     1      -3.383 -17.285  -9.628  1.00  0.00     0.108 A 
HETATM    5  C10 UNL     1      -3.709 -15.954  -9.735  1.00  0.00     0.040 A 
HETATM    6 BR2  UNL     1      -5.202 -15.057  -8.930  1.00  0.00    -0.049 Br
HETATM    7  C11 UNL     1      -2.733 -15.414 -10.541  1.00  0.00     0.026 A 
ENDROOT
BRANCH   1   8
HETATM    8  C7  UNL     1      -0.717 -16.107 -11.782  1.00  0.00     0.046 C 
BRANCH   8   9
HETATM    9  C6  UNL     1       0.495 -16.569 -11.836  1.00  0.00     0.017 A 
HETATM   10  C2  UNL     1       0.855 -17.636 -12.807  1.00  0.00    -0.025 A 
HETATM   11  C1  UNL     1      -0.164 -18.158 -13.760  1.00  0.00     0.050 C 
HETATM   12  C3  UNL     1       2.067 -18.160 -12.865  1.00  0.00     0.085 A 
HETATM   13 BR1  UNL     1       2.444 -19.526 -14.139  1.00  0.00    -0.045 Br
HETATM   14  C4  UNL     1       3.162 -17.749 -11.995  1.00  0.00     0.265 A 
HETATM   15  O1  UNL     1       4.309 -18.287 -12.097  1.00  0.00    -0.267 OA
HETATM   16  N1  UNL     1       2.879 -16.737 -11.053  1.00  0.00    -0.308 N 
HETATM   17  C5  UNL     1       1.565 -16.150 -10.968  1.00  0.00     0.112 A 
ATOM     18  H1  UNL     1       3.615 -16.416 -10.423  1.00  0.00     0.170 HD
BRANCH  17  19
HETATM   19  N2  UNL     1       1.426 -15.272 -10.055  1.00  0.00    -0.385 N 
ATOM     20  H22 UNL     1       1.440 -14.268 -10.235  1.00  0.00     0.157 HD
ATOM     21  H21 UNL     1       1.270 -15.645  -9.119  1.00  0.00     0.157 HD
ENDBRANCH  17  19
ENDBRANCH   8   9
ENDBRANCH   1   8
BRANCH   7  22
HETATM   22  C12 UNL     1      -2.712 -14.006 -10.906  1.00  0.00     0.123 C 
HETATM   23  N4  UNL     1      -3.371 -13.531 -11.902  1.00  0.00    -0.297 N 
ATOM     24  H4  UNL     1      -3.936 -14.165 -12.467  1.00  0.00     0.187 HD
BRANCH  23  25
HETATM   25  N5  UNL     1      -3.339 -12.193 -12.234  1.00  0.00    -0.250 N 
HETATM   26  N6  UNL     1      -2.297 -11.593 -12.634  1.00  0.00    -0.331 N 
ATOM     27  H62 UNL     1      -1.442 -12.145 -12.709  1.00  0.00     0.178 HD
ATOM     28  H61 UNL     1      -2.274 -10.604 -12.880  1.00  0.00     0.178 HD
ATOM     29  H5  UNL     1      -4.203 -11.657 -12.153  1.00  0.00     0.207 HD
ENDBRANCH  23  25
ENDBRANCH   7  22
TORSDOF 5
ENDMDL
MODEL 3
REMARK VINA RESULT: -5.905050418      5.063      7.585
REMARK  5 active torsions:
REMARK  status: ('A' for Active; 'I' for Inactive)
REMARK    1  A    between atoms: C5_9  and  N2_10 
REMARK    2  A    between atoms: C6_13  and  C7_14 
REMARK    3  A    between atoms: C7_14  and  C8_15 
REMARK    4  A    between atoms: C11_21  and  C12_22 
REMARK    5  A    between atoms: N4_23  and  N5_25 
ROOT
HETATM    1  C8  UNL     1      -2.029 -16.616 -10.962  1.00  0.00     0.046 A 
HETATM    2  N3  UNL     1      -2.589 -17.681 -10.382  1.00  0.00    -0.364 N 
ATOM      3  H3  UNL     1      -2.250 -18.637 -10.490  1.00  0.00     0.165 HD
HETATM    4  C9  UNL     1      -3.650 -17.338  -9.640  1.00  0.00     0.108 A 
HETATM    5  C10 UNL     1      -3.820 -15.976  -9.716  1.00  0.00     0.040 A 
HETATM    6 BR2  UNL     1      -5.177 -14.925  -8.857  1.00  0.00    -0.049 Br
HETATM    7  C11 UNL     1      -2.808 -15.538 -10.540  1.00  0.00     0.026 A 
ENDROOT
BRANCH   1   8
HETATM    8  C7  UNL     1      -0.918 -16.438 -11.845  1.00  0.00     0.046 C 
BRANCH   8   9
HETATM    9  C6  UNL     1       0.082 -17.203 -12.157  1.00  0.00     0.017 A 
HETATM   10  C2  UNL     1       1.413 -17.007 -11.522  1.00  0.00    -0.025 A 
HETATM   11  C1  UNL     1       1.599 -15.953 -10.485  1.00  0.00     0.050 C 
HETATM   12  C3  UNL     1       2.465 -17.738 -11.842  1.00  0.00     0.085 A 
HETATM   13 BR1  UNL     1       4.134 -17.419 -10.979  1.00  0.00    -0.045 Br
HETATM   14  C4  UNL     1       2.430 -18.802 -12.838  1.00  0.00     0.265 A 
HETATM   15  O1  UNL     1       3.474 -19.476 -13.105  1.00  0.00    -0.267 OA
HETATM   16  N1  UNL     1       1.192 -19.036 -13.475  1.00  0.00    -0.308 N 
HETATM   17  C5  UNL     1       0.029 -18.250 -13.145  1.00  0.00     0.112 A 
ATOM     18  H1  UNL     1       1.119 -19.771 -14.179  1.00  0.00     0.170 HD
BRANCH  17  19
HETATM   19  N2  UNL     1      -1.018 -18.534 -13.811  1.00  0.00    -0.385 N 
ATOM     20  H22 UNL     1      -1.398 -17.934 -14.543  1.00  0.00     0.157 HD
ATOM     21  H21 UNL     1      -1.446 -19.431 -13.580  1.00  0.00     0.157 HD
ENDBRANCH  17  19
ENDBRANCH   8   9
ENDBRANCH   1   8
BRANCH   7  22
HETATM   22  C12 UNL     1      -2.631 -14.136 -10.882  1.00  0.00     0.123 C 
HETATM   23  N4  UNL     1      -3.233 -13.574 -11.869  1.00  0.00    -0.297 N 
ATOM     24  H4  UNL     1      -3.866 -14.132 -12.442  1.00  0.00     0.187 HD
BRANCH  23  25
HETATM   25  N5  UNL     1      -3.054 -12.243 -12.180  1.00  0.00    -0.250 N 
HETATM   26  N6  UNL     1      -3.991 -11.478 -12.562  1.00  0.00    -0.331 N 
ATOM     27  H62 UNL     1      -4.922 -11.886 -12.638  1.00  0.00     0.178 HD
ATOM     28  H61 UNL     1      -3.858 -10.494 -12.792  1.00  0.00     0.178 HD
ATOM     29  H5  UNL     1      -2.115 -11.852 -12.099  1.00  0.00     0.207 HD
ENDBRANCH  23  25
ENDBRANCH   7  22
TORSDOF 5
ENDMDL
MODEL 4
REMARK VINA RESULT: -5.886655029      5.506      6.606
REMARK  5 active torsions:
REMARK  status: ('A' for Active; 'I' for Inactive)
REMARK    1  A    between atoms: C5_9  and  N2_10 
REMARK    2  A    between atoms: C6_13  and  C7_14 
REMARK    3  A    between atoms: C7_14  and  C8_15 
REMARK    4  A    between atoms: C11_21  and  C12_22 
REMARK    5  A    between atoms: N4_23  and  N5_25 
ROOT
HETATM    1  C8  UNL     1      -3.988 -16.627 -12.884  1.00  0.00     0.046 A 
HETATM    2  N3  UNL     1      -4.989 -17.268 -13.494  1.00  0.00    -0.364 N 
ATOM      3  H3  UNL     1      -5.276 -18.222 -13.276  1.00  0.00     0.165 HD
HETATM    4  C9  UNL     1      -5.567 -16.502 -14.429  1.00  0.00     0.108 A 
HETATM    5  C10 UNL     1      -4.933 -15.283 -14.454  1.00  0.00     0.040 A 
HETATM    6 BR2  UNL     1      -5.334 -13.790 -15.592  1.00  0.00    -0.049 Br
HETATM    7  C11 UNL     1      -3.954 -15.371 -13.491  1.00  0.00     0.026 A 
ENDROOT
BRANCH   1   8
HETATM    8  C7  UNL     1      -3.060 -16.989 -11.857  1.00  0.00     0.046 C 
BRANCH   8   9
HETATM    9  C6  UNL     1      -1.844 -16.615 -11.606  1.00  0.00     0.017 A 
HETATM   10  C2  UNL     1      -0.719 -17.068 -12.467  1.00  0.00    -0.025 A 
HETATM   11  C1  UNL     1      -0.984 -17.926 -13.656  1.00  0.00     0.050 C 
HETATM   12  C3  UNL     1       0.537 -16.742 -12.220  1.00  0.00     0.085 A 
HETATM   13 BR1  UNL     1       1.919 -17.367 -13.374  1.00  0.00    -0.045 Br
HETATM   14  C4  UNL     1       0.945 -15.912 -11.093  1.00  0.00     0.265 A 
HETATM   15  O1  UNL     1       2.169 -15.627 -10.905  1.00  0.00    -0.267 OA
HETATM   16  N1  UNL     1      -0.081 -15.450 -10.240  1.00  0.00    -0.308 N 
HETATM   17  C5  UNL     1      -1.460 -15.794 -10.486  1.00  0.00     0.112 A 
ATOM     18  H1  UNL     1       0.156 -14.865  -9.439  1.00  0.00     0.170 HD
BRANCH  17  19
HETATM   19  N2  UNL     1      -2.287 -15.346  -9.628  1.00  0.00    -0.385 N 
ATOM     20  H22 UNL     1      -2.019 -15.053  -8.689  1.00  0.00     0.157 HD
ATOM     21  H21 UNL     1      -3.250 -15.272  -9.956  1.00  0.00     0.157 HD
ENDBRANCH  17  19
ENDBRANCH   8   9
ENDBRANCH   1   8
BRANCH   7  22
HETATM   22  C12 UNL     1      -3.046 -14.275 -13.197  1.00  0.00     0.123 C 
HETATM   23  N4  UNL     1      -3.337 -13.323 -12.384  1.00  0.00    -0.297 N 
ATOM     24  H4  UNL     1      -4.246 -13.330 -11.922  1.00  0.00     0.187 HD
BRANCH  23  25
HETATM   25  N5  UNL     1      -2.463 -12.290 -12.117  1.00  0.00    -0.250 N 
HETATM   26  N6  UNL     1      -2.340 -11.265 -12.853  1.00  0.00    -0.331 N 
ATOM     27  H62 UNL     1      -2.927 -11.218 -13.686  1.00  0.00     0.178 HD
ATOM     28  H61 UNL     1      -1.694 -10.502 -12.655  1.00  0.00     0.178 HD
ATOM     29  H5  UNL     1      -1.884 -12.355 -11.280  1.00  0.00     0.207 HD
ENDBRANCH  23  25
ENDBRANCH   7  22
TORSDOF 5
ENDMDL
MODEL 5
REMARK VINA RESULT: -5.869065797      5.388      7.931
REMARK  5 active torsions:
REMARK  status: ('A' for Active; 'I' for Inactive)
REMARK    1  A    between atoms: C5_9  and  N2_10 
REMARK    2  A    between atoms: C6_13  and  C7_14 
REMARK    3  A    between atoms: C7_14  and  C8_15 
REMARK    4  A    between atoms: C11_21  and  C12_22 
REMARK    5  A    between atoms: N4_23  and  N5_25 
ROOT
HETATM    1  C8  UNL     1      -2.597 -14.343 -12.040  1.00  0.00     0.046 A 
HETATM    2  N3  UNL     1      -3.858 -14.782 -12.073  1.00  0.00    -0.364 N 
ATOM      3  H3  UNL     1      -4.658 -14.209 -12.342  1.00  0.00     0.165 HD
HETATM    4  C9  UNL     1      -3.942 -16.069 -11.709  1.00  0.00     0.108 A 
HETATM    5  C10 UNL     1      -2.680 -16.527 -11.416  1.00  0.00     0.040 A 
HETATM    6 BR2  UNL     1      -2.190 -18.292 -10.841  1.00  0.00    -0.049 Br
HETATM    7  C11 UNL     1      -1.852 -15.447 -11.625  1.00  0.00     0.026 A 
ENDROOT
BRANCH   1   8
HETATM    8  C7  UNL     1      -1.981 -13.080 -12.308  1.00  0.00     0.046 C 
BRANCH   8   9
HETATM    9  C6  UNL     1      -2.100 -12.239 -13.288  1.00  0.00     0.017 A 
HETATM   10  C2  UNL     1      -1.085 -12.194 -14.375  1.00  0.00    -0.025 A 
HETATM   11  C1  UNL     1       0.061 -13.147 -14.370  1.00  0.00     0.050 C 
HETATM   12  C3  UNL     1      -1.150 -11.326 -15.368  1.00  0.00     0.085 A 
HETATM   13 BR1  UNL     1       0.195 -11.336 -16.719  1.00  0.00    -0.045 Br
HETATM   14  C4  UNL     1      -2.211 -10.336 -15.501  1.00  0.00     0.265 A 
HETATM   15  O1  UNL     1      -2.225  -9.525 -16.480  1.00  0.00    -0.267 OA
HETATM   16  N1  UNL     1      -3.205 -10.331 -14.499  1.00  0.00    -0.308 N 
HETATM   17  C5  UNL     1      -3.157 -11.267 -13.403  1.00  0.00     0.112 A 
ATOM     18  H1  UNL     1      -3.969  -9.657 -14.551  1.00  0.00     0.170 HD
BRANCH  17  19
HETATM   19  N2  UNL     1      -4.090 -11.141 -12.546  1.00  0.00    -0.385 N 
ATOM     20  H22 UNL     1      -4.733 -10.349 -12.528  1.00  0.00     0.157 HD
ATOM     21  H21 UNL     1      -4.173 -11.911 -11.883  1.00  0.00     0.157 HD
ENDBRANCH  17  19
ENDBRANCH   8   9
ENDBRANCH   1   8
BRANCH   7  22
HETATM   22  C12 UNL     1      -0.414 -15.514 -11.423  1.00  0.00     0.123 C 
HETATM   23  N4  UNL     1       0.146 -15.283 -10.290  1.00  0.00    -0.297 N 
ATOM     24  H4  UNL     1      -0.440 -15.040  -9.491  1.00  0.00     0.187 HD
BRANCH  23  25
HETATM   25  N5  UNL     1       1.512 -15.351 -10.116  1.00  0.00    -0.250 N 
HETATM   26  N6  UNL     1       2.199 -16.391 -10.346  1.00  0.00    -0.331 N 
ATOM     27  H62 UNL     1       1.697 -17.215 -10.678  1.00  0.00     0.178 HD
ATOM     28  H61 UNL     1       3.209 -16.441 -10.218  1.00  0.00     0.178 HD
ATOM     29  H5  UNL     1       1.997 -14.517  -9.783  1.00  0.00     0.207 HD
ENDBRANCH  23  25
ENDBRANCH   7  22
TORSDOF 5
ENDMDL
