MODEL 1
REMARK VINA RESULT: -8.667821917      0.000      0.000
REMARK  3 active torsions:
REMARK  status: ('A' for Active; 'I' for Inactive)
REMARK    1  A    between atoms: O1_2  and  C2_3 
REMARK    2  A    between atoms: C9_12  and  O4_13 
REMARK    3  A    between atoms: C13_18  and  O5_19 
ROOT
HETATM    1  C2  UNL     1      12.659   6.630  -0.113  1.00  0.00     0.130 A 
HETATM    2  C3  UNL     1      13.738   7.172   0.370  1.00  0.00     0.042 A 
HETATM    3  C4  UNL     1      14.074   8.569   0.762  1.00  0.00     0.227 C 
HETATM    4  O2  UNL     1      13.586   9.580   0.247  1.00  0.00    -0.284 OA
HETATM    5  C5  UNL     1      15.051   8.488   1.827  1.00  0.00     0.200 C 
HETATM    6  O3  UNL     1      15.585   9.375   2.504  1.00  0.00    -0.289 OA
HETATM    7  C6  UNL     1      15.342   6.999   2.004  1.00  0.00     0.102 C 
HETATM    8  C7  UNL     1      15.018   6.443   0.643  1.00  0.00     0.070 A 
HETATM    9  C8  UNL     1      14.954   5.047   0.413  1.00  0.00     0.001 A 
HETATM   10  C9  UNL     1      16.097   4.267   0.649  1.00  0.00     0.074 A 
HETATM   11  C10 UNL     1      16.059   2.917   0.354  1.00  0.00     0.046 A 
HETATM   12  C11 UNL     1      14.942   2.278  -0.164  1.00  0.00    -0.025 A 
HETATM   13  C12 UNL     1      14.982   0.811  -0.438  1.00  0.00     0.051 C 
HETATM   14  C13 UNL     1      13.845   3.069  -0.378  1.00  0.00     0.089 A 
HETATM   15  C15 UNL     1      13.838   4.417  -0.103  1.00  0.00     0.060 A 
HETATM   16  C16 UNL     1      12.629   5.200  -0.390  1.00  0.00     0.219 A 
HETATM   17  O6  UNL     1      11.582   4.731  -0.856  1.00  0.00    -0.284 OA
ENDROOT
BRANCH   1  18
HETATM   18  O1  UNL     1      11.535   7.424  -0.358  1.00  0.00    -0.351 OA
HETATM   19  C1  UNL     1      10.484   7.637   0.534  1.00  0.00     0.210 C 
ENDBRANCH   1  18
BRANCH  14  20
HETATM   20  O5  UNL     1      12.725   2.436  -0.891  1.00  0.00    -0.354 OA
HETATM   21  C14 UNL     1      12.697   1.699  -2.097  1.00  0.00     0.210 C 
ENDBRANCH  14  20
BRANCH  10  22
HETATM   22  O4  UNL     1      17.236   4.839   1.176  1.00  0.00    -0.360 OA
ATOM     23  H4  UNL     1      17.600   4.519   1.994  1.00  0.00     0.217 HD
ENDBRANCH  10  22
TORSDOF 3
ENDMDL
MODEL 2
REMARK VINA RESULT: -8.091023955      1.383      3.684
REMARK  3 active torsions:
REMARK  status: ('A' for Active; 'I' for Inactive)
REMARK    1  A    between atoms: O1_2  and  C2_3 
REMARK    2  A    between atoms: C9_12  and  O4_13 
REMARK    3  A    between atoms: C13_18  and  O5_19 
ROOT
HETATM    1  C2  UNL     1      14.629   6.997   1.199  1.00  0.00     0.130 A 
HETATM    2  C3  UNL     1      13.349   7.204   1.101  1.00  0.00     0.042 A 
HETATM    3  C4  UNL     1      12.488   8.369   1.446  1.00  0.00     0.227 C 
HETATM    4  O2  UNL     1      12.726   9.175   2.352  1.00  0.00    -0.284 OA
HETATM    5  C5  UNL     1      11.365   8.353   0.533  1.00  0.00     0.200 C 
HETATM    6  O3  UNL     1      10.421   9.141   0.397  1.00  0.00    -0.289 OA
HETATM    7  C6  UNL     1      11.545   7.097  -0.317  1.00  0.00     0.102 C 
HETATM    8  C7  UNL     1      12.354   6.208   0.589  1.00  0.00     0.070 A 
HETATM    9  C8  UNL     1      12.926   5.001   0.118  1.00  0.00     0.001 A 
HETATM   10  C9  UNL     1      12.083   4.002  -0.393  1.00  0.00     0.074 A 
HETATM   11  C10 UNL     1      12.632   2.796  -0.783  1.00  0.00     0.046 A 
HETATM   12  C11 UNL     1      13.987   2.510  -0.703  1.00  0.00    -0.025 A 
HETATM   13  C12 UNL     1      14.500   1.185  -1.163  1.00  0.00     0.051 C 
HETATM   14  C13 UNL     1      14.781   3.508  -0.202  1.00  0.00     0.089 A 
HETATM   15  C15 UNL     1      14.277   4.723   0.202  1.00  0.00     0.060 A 
HETATM   16  C16 UNL     1      15.193   5.729   0.755  1.00  0.00     0.219 A 
HETATM   17  O6  UNL     1      16.416   5.576   0.876  1.00  0.00    -0.284 OA
ENDROOT
BRANCH   1  18
HETATM   18  O1  UNL     1      15.454   7.995   1.727  1.00  0.00    -0.351 OA
HETATM   19  C1  UNL     1      16.006   9.054   1.005  1.00  0.00     0.210 C 
ENDBRANCH   1  18
BRANCH  14  20
HETATM   20  O5  UNL     1      16.135   3.231  -0.124  1.00  0.00    -0.354 OA
HETATM   21  C14 UNL     1      16.739   2.433   0.875  1.00  0.00     0.210 C 
ENDBRANCH  14  20
BRANCH  10  22
HETATM   22  O4  UNL     1      10.727   4.228  -0.513  1.00  0.00    -0.360 OA
ATOM     23  H4  UNL     1      10.132   3.961   0.179  1.00  0.00     0.217 HD
ENDBRANCH  10  22
TORSDOF 3
ENDMDL
MODEL 3
REMARK VINA RESULT: -7.866529715      1.365      5.182
REMARK  3 active torsions:
REMARK  status: ('A' for Active; 'I' for Inactive)
REMARK    1  A    between atoms: O1_2  and  C2_3 
REMARK    2  A    between atoms: C9_12  and  O4_13 
REMARK    3  A    between atoms: C13_18  and  O5_19 
ROOT
HETATM    1  C2  UNL     1      13.726   3.536  -0.733  1.00  0.00     0.130 A 
HETATM    2  C3  UNL     1      14.755   3.267   0.015  1.00  0.00     0.042 A 
HETATM    3  C4  UNL     1      15.653   2.082   0.104  1.00  0.00     0.227 C 
HETATM    4  O2  UNL     1      15.312   0.922  -0.148  1.00  0.00    -0.284 OA
HETATM    5  C5  UNL     1      16.950   2.563   0.531  1.00  0.00     0.200 C 
HETATM    6  O3  UNL     1      18.021   1.966   0.693  1.00  0.00    -0.289 OA
HETATM    7  C6  UNL     1      16.775   4.062   0.766  1.00  0.00     0.102 C 
HETATM    8  C7  UNL     1      15.305   4.170   1.076  1.00  0.00     0.070 A 
HETATM    9  C8  UNL     1      14.661   5.428   1.163  1.00  0.00     0.001 A 
HETATM   10  C9  UNL     1      15.106   6.355   2.119  1.00  0.00     0.074 A 
HETATM   11  C10 UNL     1      14.431   7.553   2.255  1.00  0.00     0.046 A 
HETATM   12  C11 UNL     1      13.326   7.901   1.491  1.00  0.00    -0.025 A 
HETATM   13  C12 UNL     1      12.666   9.225   1.692  1.00  0.00     0.051 C 
HETATM   14  C13 UNL     1      12.922   6.974   0.567  1.00  0.00     0.089 A 
HETATM   15  C15 UNL     1      13.561   5.768   0.399  1.00  0.00     0.060 A 
HETATM   16  C16 UNL     1      13.045   4.817  -0.595  1.00  0.00     0.219 A 
HETATM   17  O6  UNL     1      12.066   5.024  -1.324  1.00  0.00    -0.284 OA
ENDROOT
BRANCH   1  18
HETATM   18  O1  UNL     1      13.284   2.595  -1.668  1.00  0.00    -0.351 OA
HETATM   19  C1  UNL     1      12.281   1.649  -1.453  1.00  0.00     0.210 C 
ENDBRANCH   1  18
BRANCH  14  20
HETATM   20  O5  UNL     1      11.823   7.317  -0.203  1.00  0.00    -0.354 OA
HETATM   21  C14 UNL     1      10.490   7.352   0.266  1.00  0.00     0.210 C 
ENDBRANCH  14  20
BRANCH  10  22
HETATM   22  O4  UNL     1      16.207   6.077   2.902  1.00  0.00    -0.360 OA
ATOM     23  H4  UNL     1      16.691   5.268   2.781  1.00  0.00     0.217 HD
ENDBRANCH  10  22
TORSDOF 3
ENDMDL
MODEL 4
REMARK VINA RESULT: -7.772443567      1.805      4.285
REMARK  3 active torsions:
REMARK  status: ('A' for Active; 'I' for Inactive)
REMARK    1  A    between atoms: O1_2  and  C2_3 
REMARK    2  A    between atoms: C9_12  and  O4_13 
REMARK    3  A    between atoms: C13_18  and  O5_19 
ROOT
HETATM    1  C2  UNL     1      14.660   8.676   1.799  1.00  0.00     0.130 A 
HETATM    2  C3  UNL     1      13.430   9.094   1.752  1.00  0.00     0.042 A 
HETATM    3  C4  UNL     1      12.778  10.358   2.194  1.00  0.00     0.227 C 
HETATM    4  O2  UNL     1      13.164  11.054   3.140  1.00  0.00    -0.284 OA
HETATM    5  C5  UNL     1      11.650  10.585   1.316  1.00  0.00     0.200 C 
HETATM    6  O3  UNL     1      10.847  11.523   1.258  1.00  0.00    -0.289 OA
HETATM    7  C6  UNL     1      11.605   9.375   0.385  1.00  0.00     0.102 C 
HETATM    8  C7  UNL     1      12.275   8.308   1.211  1.00  0.00     0.070 A 
HETATM    9  C8  UNL     1      12.632   7.058   0.649  1.00  0.00     0.001 A 
HETATM   10  C9  UNL     1      11.626   6.246   0.103  1.00  0.00     0.074 A 
HETATM   11  C10 UNL     1      11.962   4.994  -0.376  1.00  0.00     0.046 A 
HETATM   12  C11 UNL     1      13.253   4.487  -0.355  1.00  0.00    -0.025 A 
HETATM   13  C12 UNL     1      13.532   3.130  -0.910  1.00  0.00     0.051 C 
HETATM   14  C13 UNL     1      14.209   5.308   0.182  1.00  0.00     0.089 A 
HETATM   15  C15 UNL     1      13.920   6.559   0.675  1.00  0.00     0.060 A 
HETATM   16  C16 UNL     1      15.000   7.365   1.260  1.00  0.00     0.219 A 
HETATM   17  O6  UNL     1      16.183   7.007   1.335  1.00  0.00    -0.284 OA
ENDROOT
BRANCH   1  18
HETATM   18  O1  UNL     1      15.648   9.490   2.361  1.00  0.00    -0.351 OA
HETATM   19  C1  UNL     1      16.361  10.481   1.686  1.00  0.00     0.210 C 
ENDBRANCH   1  18
BRANCH  14  20
HETATM   20  O5  UNL     1      15.501   4.810   0.202  1.00  0.00    -0.354 OA
HETATM   21  C14 UNL     1      15.959   3.790   1.068  1.00  0.00     0.210 C 
ENDBRANCH  14  20
BRANCH  10  22
HETATM   22  O4  UNL     1      10.323   6.696   0.039  1.00  0.00    -0.360 OA
ATOM     23  H4  UNL     1       9.657   6.179  -0.398  1.00  0.00     0.217 HD
ENDBRANCH  10  22
TORSDOF 3
ENDMDL
MODEL 5
REMARK VINA RESULT: -7.722243399      1.400      2.350
REMARK  3 active torsions:
REMARK  status: ('A' for Active; 'I' for Inactive)
REMARK    1  A    between atoms: O1_2  and  C2_3 
REMARK    2  A    between atoms: C9_12  and  O4_13 
REMARK    3  A    between atoms: C13_18  and  O5_19 
ROOT
HETATM    1  C2  UNL     1      12.660   4.801  -0.610  1.00  0.00     0.130 A 
HETATM    2  C3  UNL     1      13.060   5.885  -0.015  1.00  0.00     0.042 A 
HETATM    3  C4  UNL     1      12.424   7.217   0.187  1.00  0.00     0.227 C 
HETATM    4  O2  UNL     1      11.612   7.732  -0.589  1.00  0.00    -0.284 OA
HETATM    5  C5  UNL     1      12.938   7.749   1.431  1.00  0.00     0.200 C 
HETATM    6  O3  UNL     1      12.667   8.792   2.038  1.00  0.00    -0.289 OA
HETATM    7  C6  UNL     1      13.959   6.726   1.925  1.00  0.00     0.102 C 
HETATM    8  C7  UNL     1      14.393   6.061   0.646  1.00  0.00     0.070 A 
HETATM    9  C8  UNL     1      15.197   4.895   0.657  1.00  0.00     0.001 A 
HETATM   10  C9  UNL     1      16.463   4.948   1.261  1.00  0.00     0.074 A 
HETATM   11  C10 UNL     1      17.278   3.834   1.207  1.00  0.00     0.046 A 
HETATM   12  C11 UNL     1      16.914   2.648   0.587  1.00  0.00    -0.025 A 
HETATM   13  C12 UNL     1      17.850   1.484   0.590  1.00  0.00     0.051 C 
HETATM   14  C13 UNL     1      15.671   2.631   0.011  1.00  0.00     0.089 A 
HETATM   15  C15 UNL     1      14.827   3.717   0.037  1.00  0.00     0.060 A 
HETATM   16  C16 UNL     1      13.522   3.626  -0.631  1.00  0.00     0.219 A 
HETATM   17  O6  UNL     1      13.101   2.619  -1.216  1.00  0.00    -0.284 OA
ENDROOT
BRANCH   1  18
HETATM   18  O1  UNL     1      11.403   4.769  -1.222  1.00  0.00    -0.351 OA
HETATM   19  C1  UNL     1      11.061   3.991  -2.329  1.00  0.00     0.210 C 
ENDBRANCH   1  18
BRANCH  14  20
HETATM   20  O5  UNL     1      15.299   1.448  -0.605  1.00  0.00    -0.354 OA
HETATM   21  C14 UNL     1      15.070   0.225   0.067  1.00  0.00     0.210 C 
ENDBRANCH  14  20
BRANCH  10  22
HETATM   22  O4  UNL     1      16.881   6.093   1.907  1.00  0.00    -0.360 OA
ATOM     23  H4  UNL     1      17.706   6.106   2.378  1.00  0.00     0.217 HD
ENDBRANCH  10  22
TORSDOF 3
ENDMDL
