MODEL 1
REMARK VINA RESULT: -8.318319180      0.000      0.000
REMARK  7 active torsions:
REMARK  status: ('A' for Active; 'I' for Inactive)
REMARK    1  A    between atoms: O1_2  and  C2_3 
REMARK    2  A    between atoms: C2_3  and  C3_5 
REMARK    3  A    between atoms: C6_8  and  C7_9 
REMARK       I    between atoms: C7_9  and  N1_11 
REMARK    4  A    between atoms: N1_11  and  N2_13 
REMARK       I    between atoms: N2_13  and  C8_15 
REMARK    5  A    between atoms: C8_15  and  C9_17 
REMARK    6  A    between atoms: C9_17  and  N3_18 
REMARK    7  A    between atoms: C9_17  and  N4_22 
ROOT
HETATM    1  C7  UNL     1     -28.170 -20.933 -20.231  1.00  0.00     0.270 C 
HETATM    2  O3  UNL     1     -27.627 -21.957 -19.752  1.00  0.00    -0.266 OA
HETATM    3  N1  UNL     1     -29.426 -20.543 -19.732  1.00  0.00    -0.263 N 
ATOM      4  H1  UNL     1     -29.879 -19.717 -20.124  1.00  0.00     0.190 HD
ENDROOT
BRANCH   3   5
HETATM    5  N2  UNL     1     -30.088 -21.265 -18.698  1.00  0.00    -0.264 N 
HETATM    6  C8  UNL     1     -30.058 -20.837 -17.370  1.00  0.00     0.286 C 
HETATM    7  O4  UNL     1     -29.426 -19.755 -17.102  1.00  0.00    -0.267 OA
ATOM      8  H2  UNL     1     -30.597 -22.117 -18.934  1.00  0.00     0.190 HD
BRANCH   6   9
HETATM    9  C9  UNL     1     -30.697 -21.538 -16.255  1.00  0.00     0.378 C 
BRANCH   9  10
HETATM   10  N3  UNL     1     -30.395 -21.073 -14.940  1.00  0.00    -0.049 N 
ATOM     11  H33 UNL     1     -31.261 -20.939 -14.419  1.00  0.00     0.277 HD
ATOM     12  H32 UNL     1     -29.966 -21.826 -14.402  1.00  0.00     0.277 HD
ATOM     13  H31 UNL     1     -29.819 -20.234 -14.867  1.00  0.00     0.277 HD
ENDBRANCH   9  10
BRANCH   9  14
HETATM   14  N4  UNL     1     -32.189 -21.478 -16.410  1.00  0.00    -0.332 N 
HETATM   15  C10 UNL     1     -32.884 -22.319 -15.750  1.00  0.00     0.198 C 
HETATM   16  N5  UNL     1     -34.334 -22.307 -15.860  1.00  0.00    -0.067 NA
HETATM   17  N6  UNL     1     -32.302 -23.273 -14.911  1.00  0.00    -0.067 NA
ATOM     18  H4  UNL     1     -32.630 -20.791 -17.022  1.00  0.00     0.164 HD
ENDBRANCH   9  14
ENDBRANCH   6   9
ENDBRANCH   3   5
BRANCH   1  19
HETATM   19  C6  UNL     1     -27.536 -20.135 -21.285  1.00  0.00     0.033 A 
HETATM   20  C5  UNL     1     -28.128 -20.084 -22.522  1.00  0.00     0.018 A 
HETATM   21  C4  UNL     1     -27.517 -19.329 -23.520  1.00  0.00     0.018 A 
HETATM   22  C3  UNL     1     -26.350 -18.628 -23.335  1.00  0.00     0.039 A 
HETATM   23  C12 UNL     1     -25.784 -18.703 -22.076  1.00  0.00     0.018 A 
HETATM   24  C11 UNL     1     -26.369 -19.453 -21.048  1.00  0.00     0.018 A 
BRANCH  22  25
HETATM   25  C2  UNL     1     -25.734 -17.841 -24.400  1.00  0.00     0.292 C 
HETATM   26  O2  UNL     1     -24.716 -17.150 -24.165  1.00  0.00    -0.259 OA
BRANCH  25  27
HETATM   27  O1  UNL     1     -26.244 -17.836 -25.667  1.00  0.00    -0.323 OA
HETATM   28  C1  UNL     1     -25.852 -16.978 -26.721  1.00  0.00     0.213 C 
ENDBRANCH  25  27
ENDBRANCH  22  25
ENDBRANCH   1  19
TORSDOF 7
ENDMDL
MODEL 2
REMARK VINA RESULT: -8.235290020      1.244      1.600
REMARK  7 active torsions:
REMARK  status: ('A' for Active; 'I' for Inactive)
REMARK    1  A    between atoms: O1_2  and  C2_3 
REMARK    2  A    between atoms: C2_3  and  C3_5 
REMARK    3  A    between atoms: C6_8  and  C7_9 
REMARK       I    between atoms: C7_9  and  N1_11 
REMARK    4  A    between atoms: N1_11  and  N2_13 
REMARK       I    between atoms: N2_13  and  C8_15 
REMARK    5  A    between atoms: C8_15  and  C9_17 
REMARK    6  A    between atoms: C9_17  and  N3_18 
REMARK    7  A    between atoms: C9_17  and  N4_22 
ROOT
HETATM    1  C7  UNL     1     -27.481 -20.470 -20.391  1.00  0.00     0.270 C 
HETATM    2  O3  UNL     1     -26.647 -21.068 -19.671  1.00  0.00    -0.266 OA
HETATM    3  N1  UNL     1     -28.831 -20.468 -19.996  1.00  0.00    -0.263 N 
ATOM      4  H1  UNL     1     -29.517 -19.993 -20.583  1.00  0.00     0.190 HD
ENDROOT
BRANCH   3   5
HETATM    5  N2  UNL     1     -29.272 -21.108 -18.803  1.00  0.00    -0.264 N 
HETATM    6  C8  UNL     1     -30.627 -21.296 -18.528  1.00  0.00     0.286 C 
HETATM    7  O4  UNL     1     -31.478 -20.887 -19.395  1.00  0.00    -0.267 OA
ATOM      8  H2  UNL     1     -28.579 -21.439 -18.131  1.00  0.00     0.190 HD
BRANCH   6   9
HETATM    9  C9  UNL     1     -31.152 -21.926 -17.315  1.00  0.00     0.378 C 
BRANCH   9  10
HETATM   10  N3  UNL     1     -30.961 -21.225 -16.087  1.00  0.00    -0.049 N 
ATOM     11  H33 UNL     1     -29.970 -21.228 -15.844  1.00  0.00     0.277 HD
ATOM     12  H32 UNL     1     -31.116 -20.228 -16.236  1.00  0.00     0.277 HD
ATOM     13  H31 UNL     1     -31.509 -21.538 -15.285  1.00  0.00     0.277 HD
ENDBRANCH   9  10
BRANCH   9  14
HETATM   14  N4  UNL     1     -32.627 -22.158 -17.465  1.00  0.00    -0.332 N 
HETATM   15  C10 UNL     1     -33.119 -23.197 -16.913  1.00  0.00     0.198 C 
HETATM   16  N5  UNL     1     -34.542 -23.471 -17.024  1.00  0.00    -0.067 NA
HETATM   17  N6  UNL     1     -32.334 -24.103 -16.196  1.00  0.00    -0.067 NA
ATOM     18  H4  UNL     1     -33.213 -21.509 -17.989  1.00  0.00     0.164 HD
ENDBRANCH   9  14
ENDBRANCH   6   9
ENDBRANCH   3   5
BRANCH   1  19
HETATM   19  C6  UNL     1     -27.092 -19.777 -21.624  1.00  0.00     0.033 A 
HETATM   20  C5  UNL     1     -25.960 -19.002 -21.618  1.00  0.00     0.018 A 
HETATM   21  C4  UNL     1     -25.602 -18.343 -22.791  1.00  0.00     0.018 A 
HETATM   22  C3  UNL     1     -26.320 -18.426 -23.960  1.00  0.00     0.039 A 
HETATM   23  C12 UNL     1     -27.453 -19.217 -23.927  1.00  0.00     0.018 A 
HETATM   24  C11 UNL     1     -27.846 -19.894 -22.766  1.00  0.00     0.018 A 
BRANCH  22  25
HETATM   25  C2  UNL     1     -25.916 -17.726 -25.176  1.00  0.00     0.292 C 
HETATM   26  O2  UNL     1     -24.825 -17.113 -25.218  1.00  0.00    -0.259 OA
BRANCH  25  27
HETATM   27  O1  UNL     1     -26.708 -17.720 -26.289  1.00  0.00    -0.323 OA
HETATM   28  C1  UNL     1     -26.372 -17.173 -27.550  1.00  0.00     0.213 C 
ENDBRANCH  25  27
ENDBRANCH  22  25
ENDBRANCH   1  19
TORSDOF 7
ENDMDL
MODEL 3
REMARK VINA RESULT: -8.017004262      1.069      1.510
REMARK  7 active torsions:
REMARK  status: ('A' for Active; 'I' for Inactive)
REMARK    1  A    between atoms: O1_2  and  C2_3 
REMARK    2  A    between atoms: C2_3  and  C3_5 
REMARK    3  A    between atoms: C6_8  and  C7_9 
REMARK       I    between atoms: C7_9  and  N1_11 
REMARK    4  A    between atoms: N1_11  and  N2_13 
REMARK       I    between atoms: N2_13  and  C8_15 
REMARK    5  A    between atoms: C8_15  and  C9_17 
REMARK    6  A    between atoms: C9_17  and  N3_18 
REMARK    7  A    between atoms: C9_17  and  N4_22 
ROOT
HETATM    1  C7  UNL     1     -28.538 -21.226 -19.993  1.00  0.00     0.270 C 
HETATM    2  O3  UNL     1     -28.369 -22.467 -19.926  1.00  0.00    -0.266 OA
HETATM    3  N1  UNL     1     -29.577 -20.649 -19.240  1.00  0.00    -0.263 N 
ATOM      4  H1  UNL     1     -29.728 -19.641 -19.298  1.00  0.00     0.190 HD
ENDROOT
BRANCH   3   5
HETATM    5  N2  UNL     1     -30.425 -21.424 -18.400  1.00  0.00    -0.264 N 
HETATM    6  C8  UNL     1     -30.595 -21.122 -17.048  1.00  0.00     0.286 C 
HETATM    7  O4  UNL     1     -29.973 -20.105 -16.578  1.00  0.00    -0.267 OA
ATOM      8  H2  UNL     1     -30.923 -22.222 -18.797  1.00  0.00     0.190 HD
BRANCH   6   9
HETATM    9  C9  UNL     1     -31.434 -21.886 -16.123  1.00  0.00     0.378 C 
BRANCH   9  10
HETATM   10  N3  UNL     1     -32.002 -21.172 -15.025  1.00  0.00    -0.049 N 
ATOM     11  H33 UNL     1     -31.281 -20.990 -14.328  1.00  0.00     0.277 HD
ATOM     12  H32 UNL     1     -32.226 -20.221 -15.317  1.00  0.00     0.277 HD
ATOM     13  H31 UNL     1     -32.816 -21.589 -14.574  1.00  0.00     0.277 HD
ENDBRANCH   9  10
BRANCH   9  14
HETATM   14  N4  UNL     1     -32.571 -22.514 -16.875  1.00  0.00    -0.332 N 
HETATM   15  C10 UNL     1     -33.042 -23.610 -16.423  1.00  0.00     0.198 C 
HETATM   16  N5  UNL     1     -34.144 -24.263 -17.110  1.00  0.00    -0.067 NA
HETATM   17  N6  UNL     1     -32.532 -24.224 -15.277  1.00  0.00    -0.067 NA
ATOM     18  H4  UNL     1     -32.952 -22.081 -17.716  1.00  0.00     0.164 HD
ENDBRANCH   9  14
ENDBRANCH   6   9
ENDBRANCH   3   5
BRANCH   1  19
HETATM   19  C6  UNL     1     -27.690 -20.367 -20.825  1.00  0.00     0.033 A 
HETATM   20  C5  UNL     1     -26.493 -19.927 -20.319  1.00  0.00     0.018 A 
HETATM   21  C4  UNL     1     -25.697 -19.107 -21.114  1.00  0.00     0.018 A 
HETATM   22  C3  UNL     1     -26.043 -18.712 -22.384  1.00  0.00     0.039 A 
HETATM   23  C12 UNL     1     -27.255 -19.176 -22.860  1.00  0.00     0.018 A 
HETATM   24  C11 UNL     1     -28.083 -20.001 -22.089  1.00  0.00     0.018 A 
BRANCH  22  25
HETATM   25  C2  UNL     1     -25.185 -17.854 -23.196  1.00  0.00     0.292 C 
HETATM   26  O2  UNL     1     -24.607 -16.870 -22.679  1.00  0.00    -0.259 OA
BRANCH  25  27
HETATM   27  O1  UNL     1     -24.991 -18.097 -24.525  1.00  0.00    -0.323 OA
HETATM   28  C1  UNL     1     -25.276 -17.206 -25.588  1.00  0.00     0.213 C 
ENDBRANCH  25  27
ENDBRANCH  22  25
ENDBRANCH   1  19
TORSDOF 7
ENDMDL
MODEL 4
REMARK VINA RESULT: -7.944977377      1.222      1.553
REMARK  7 active torsions:
REMARK  status: ('A' for Active; 'I' for Inactive)
REMARK    1  A    between atoms: O1_2  and  C2_3 
REMARK    2  A    between atoms: C2_3  and  C3_5 
REMARK    3  A    between atoms: C6_8  and  C7_9 
REMARK       I    between atoms: C7_9  and  N1_11 
REMARK    4  A    between atoms: N1_11  and  N2_13 
REMARK       I    between atoms: N2_13  and  C8_15 
REMARK    5  A    between atoms: C8_15  and  C9_17 
REMARK    6  A    between atoms: C9_17  and  N3_18 
REMARK    7  A    between atoms: C9_17  and  N4_22 
ROOT
HETATM    1  C7  UNL     1     -28.647 -21.514 -19.992  1.00  0.00     0.270 C 
HETATM    2  O3  UNL     1     -28.458 -22.753 -20.018  1.00  0.00    -0.266 OA
HETATM    3  N1  UNL     1     -29.759 -21.019 -19.286  1.00  0.00    -0.263 N 
ATOM      4  H1  UNL     1     -29.926 -20.012 -19.270  1.00  0.00     0.190 HD
ENDROOT
BRANCH   3   5
HETATM    5  N2  UNL     1     -30.660 -21.877 -18.594  1.00  0.00    -0.264 N 
HETATM    6  C8  UNL     1     -30.997 -21.662 -17.257  1.00  0.00     0.286 C 
HETATM    7  O4  UNL     1     -30.481 -20.650 -16.663  1.00  0.00    -0.267 OA
ATOM      8  H2  UNL     1     -31.070 -22.669 -19.088  1.00  0.00     0.190 HD
BRANCH   6   9
HETATM    9  C9  UNL     1     -31.898 -22.513 -16.478  1.00  0.00     0.378 C 
BRANCH   9  10
HETATM   10  N3  UNL     1     -31.350 -23.717 -15.942  1.00  0.00    -0.049 N 
ATOM     11  H33 UNL     1     -32.107 -24.338 -15.656  1.00  0.00     0.277 HD
ATOM     12  H32 UNL     1     -30.931 -24.265 -16.694  1.00  0.00     0.277 HD
ATOM     13  H31 UNL     1     -30.681 -23.621 -15.178  1.00  0.00     0.277 HD
ENDBRANCH   9  10
BRANCH   9  14
HETATM   14  N4  UNL     1     -32.457 -21.733 -15.324  1.00  0.00    -0.332 N 
HETATM   15  C10 UNL     1     -33.517 -22.176 -14.772  1.00  0.00     0.198 C 
HETATM   16  N5  UNL     1     -34.102 -21.461 -13.649  1.00  0.00    -0.067 NA
HETATM   17  N6  UNL     1     -34.156 -23.338 -15.209  1.00  0.00    -0.067 NA
ATOM     18  H4  UNL     1     -32.005 -20.880 -14.995  1.00  0.00     0.164 HD
ENDBRANCH   9  14
ENDBRANCH   6   9
ENDBRANCH   3   5
BRANCH   1  19
HETATM   19  C6  UNL     1     -27.750 -20.573 -20.670  1.00  0.00     0.033 A 
HETATM   20  C5  UNL     1     -28.107 -20.088 -21.903  1.00  0.00     0.018 A 
HETATM   21  C4  UNL     1     -27.246 -19.200 -22.542  1.00  0.00     0.018 A 
HETATM   22  C3  UNL     1     -26.053 -18.779 -22.006  1.00  0.00     0.039 A 
HETATM   23  C12 UNL     1     -25.728 -19.288 -20.763  1.00  0.00     0.018 A 
HETATM   24  C11 UNL     1     -26.568 -20.184 -20.089  1.00  0.00     0.018 A 
BRANCH  22  25
HETATM   25  C2  UNL     1     -25.172 -17.843 -22.699  1.00  0.00     0.292 C 
HETATM   26  O2  UNL     1     -24.737 -16.829 -22.105  1.00  0.00    -0.259 OA
BRANCH  25  27
HETATM   27  O1  UNL     1     -24.802 -18.043 -23.998  1.00  0.00    -0.323 OA
HETATM   28  C1  UNL     1     -25.393 -17.445 -25.136  1.00  0.00     0.213 C 
ENDBRANCH  25  27
ENDBRANCH  22  25
ENDBRANCH   1  19
TORSDOF 7
ENDMDL
MODEL 5
REMARK VINA RESULT: -7.894288149      1.288      1.680
REMARK  7 active torsions:
REMARK  status: ('A' for Active; 'I' for Inactive)
REMARK    1  A    between atoms: O1_2  and  C2_3 
REMARK    2  A    between atoms: C2_3  and  C3_5 
REMARK    3  A    between atoms: C6_8  and  C7_9 
REMARK       I    between atoms: C7_9  and  N1_11 
REMARK    4  A    between atoms: N1_11  and  N2_13 
REMARK       I    between atoms: N2_13  and  C8_15 
REMARK    5  A    between atoms: C8_15  and  C9_17 
REMARK    6  A    between atoms: C9_17  and  N3_18 
REMARK    7  A    between atoms: C9_17  and  N4_22 
ROOT
HETATM    1  C7  UNL     1     -28.080 -20.895 -20.167  1.00  0.00     0.270 C 
HETATM    2  O3  UNL     1     -27.528 -21.926 -19.713  1.00  0.00    -0.266 OA
HETATM    3  N1  UNL     1     -29.298 -20.480 -19.600  1.00  0.00    -0.263 N 
ATOM      4  H1  UNL     1     -29.759 -19.649 -19.972  1.00  0.00     0.190 HD
ENDROOT
BRANCH   3   5
HETATM    5  N2  UNL     1     -29.910 -21.182 -18.522  1.00  0.00    -0.264 N 
HETATM    6  C8  UNL     1     -31.265 -21.515 -18.539  1.00  0.00     0.286 C 
HETATM    7  O4  UNL     1     -31.952 -21.183 -19.569  1.00  0.00    -0.267 OA
ATOM      8  H2  UNL     1     -29.343 -21.449 -17.717  1.00  0.00     0.190 HD
BRANCH   6   9
HETATM    9  C9  UNL     1     -31.964 -22.217 -17.460  1.00  0.00     0.378 C 
BRANCH   9  10
HETATM   10  N3  UNL     1     -32.416 -23.542 -17.737  1.00  0.00    -0.049 N 
ATOM     11  H33 UNL     1     -33.259 -23.733 -17.197  1.00  0.00     0.277 HD
ATOM     12  H32 UNL     1     -32.787 -23.584 -18.686  1.00  0.00     0.277 HD
ATOM     13  H31 UNL     1     -31.745 -24.298 -17.601  1.00  0.00     0.277 HD
ENDBRANCH   9  10
BRANCH   9  14
HETATM   14  N4  UNL     1     -31.075 -22.298 -16.253  1.00  0.00    -0.332 N 
HETATM   15  C10 UNL     1     -31.623 -22.166 -15.109  1.00  0.00     0.198 C 
HETATM   16  N5  UNL     1     -30.812 -22.237 -13.905  1.00  0.00    -0.067 NA
HETATM   17  N6  UNL     1     -32.994 -21.947 -14.959  1.00  0.00    -0.067 NA
ATOM     18  H4  UNL     1     -30.072 -22.453 -16.345  1.00  0.00     0.164 HD
ENDBRANCH   9  14
ENDBRANCH   6   9
ENDBRANCH   3   5
BRANCH   1  19
HETATM   19  C6  UNL     1     -27.496 -20.117 -21.264  1.00  0.00     0.033 A 
HETATM   20  C5  UNL     1     -28.135 -20.101 -22.478  1.00  0.00     0.018 A 
HETATM   21  C4  UNL     1     -27.570 -19.364 -23.516  1.00  0.00     0.018 A 
HETATM   22  C3  UNL     1     -26.405 -18.647 -23.393  1.00  0.00     0.039 A 
HETATM   23  C12 UNL     1     -25.790 -18.687 -22.155  1.00  0.00     0.018 A 
HETATM   24  C11 UNL     1     -26.327 -19.418 -21.088  1.00  0.00     0.018 A 
BRANCH  22  25
HETATM   25  C2  UNL     1     -25.838 -17.880 -24.499  1.00  0.00     0.292 C 
HETATM   26  O2  UNL     1     -24.821 -17.172 -24.319  1.00  0.00    -0.259 OA
BRANCH  25  27
HETATM   27  O1  UNL     1     -26.396 -17.912 -25.745  1.00  0.00    -0.323 OA
HETATM   28  C1  UNL     1     -26.039 -17.090 -26.840  1.00  0.00     0.213 C 
ENDBRANCH  25  27
ENDBRANCH  22  25
ENDBRANCH   1  19
TORSDOF 7
ENDMDL
