MODEL 1
REMARK VINA RESULT: -4.379895153      0.000      0.000
REMARK  3 active torsions:
REMARK  status: ('A' for Active; 'I' for Inactive)
REMARK    1  A    between atoms: C2_2  and  N1_3 
REMARK       I    between atoms: N1_3  and  C3_5 
REMARK    2  A    between atoms: C3_5  and  C4_7 
REMARK    3  A    between atoms: C4_7  and  N2_8 
ROOT
HETATM    1  N2  UNL     1     -33.395 -22.979 -19.414  1.00  0.00    -0.359 N 
HETATM    2  C5  UNL     1     -32.556 -21.893 -19.120  1.00  0.00     0.107 C 
HETATM    3  C6  UNL     1     -31.103 -22.225 -18.941  1.00  0.00     0.104 C 
HETATM    4  N3  UNL     1     -30.515 -21.813 -17.733  1.00  0.00    -0.373 N 
ATOM      5  H3  UNL     1     -29.907 -22.449 -17.216  1.00  0.00     0.164 HD
HETATM    6  C7  UNL     1     -30.765 -20.519 -17.236  1.00  0.00     0.104 C 
HETATM    7  C8  UNL     1     -29.936 -20.260 -16.010  1.00  0.00     0.100 C 
HETATM    8  N4  UNL     1     -30.023 -21.214 -14.978  1.00  0.00    -0.396 N 
ATOM      9  H4  UNL     1     -29.393 -21.178 -14.177  1.00  0.00     0.158 HD
HETATM   10  C9  UNL     1     -31.007 -22.223 -15.085  1.00  0.00     0.146 C 
HETATM   11  C10 UNL     1     -31.416 -22.652 -13.666  1.00  0.00     0.251 C 
HETATM   12  N5  UNL     1     -32.752 -23.202 -13.666  1.00  0.00    -0.072 N 
ATOM     13  H51 UNL     1     -33.437 -22.498 -13.940  1.00  0.00     0.277 HD
ATOM     14  H52 UNL     1     -33.071 -23.385 -12.715  1.00  0.00     0.277 HD
HETATM   15  C11 UNL     1     -32.873 -24.389 -14.489  1.00  0.00     0.251 C 
HETATM   16  C12 UNL     1     -34.146 -24.245 -15.289  1.00  0.00     0.141 C 
HETATM   17  N6  UNL     1     -34.195 -25.062 -16.459  1.00  0.00    -0.418 N 
ATOM     18  H6  UNL     1     -34.743 -25.921 -16.501  1.00  0.00     0.153 HD
HETATM   19  C13 UNL     1     -33.423 -24.594 -17.567  1.00  0.00     0.134 C 
HETATM   20  C14 UNL     1     -34.148 -23.497 -18.300  1.00  0.00     0.147 C 
ENDROOT
BRANCH   1  21
HETATM   21  C4  UNL     1     -33.109 -23.874 -20.436  1.00  0.00     0.164 C 
BRANCH  21  22
HETATM   22  C3  UNL     1     -33.785 -23.740 -21.731  1.00  0.00     0.256 C 
HETATM   23  N1  UNL     1     -33.810 -24.667 -22.794  1.00  0.00    -0.357 N 
ATOM     24  H1  UNL     1     -33.307 -25.548 -22.693  1.00  0.00     0.162 HD
HETATM   25  O1  UNL     1     -34.426 -22.634 -21.901  1.00  0.00    -0.267 OA
BRANCH  23  26
HETATM   26  C2  UNL     1     -34.534 -24.403 -24.032  1.00  0.00     0.118 C 
HETATM   27  C1  UNL     1     -33.786 -24.846 -25.250  1.00  0.00     0.026 C 
ENDBRANCH  23  26
ENDBRANCH  21  22
ENDBRANCH   1  21
TORSDOF 3
ENDMDL
MODEL 2
REMARK VINA RESULT: -4.289314369      1.007      3.424
REMARK  3 active torsions:
REMARK  status: ('A' for Active; 'I' for Inactive)
REMARK    1  A    between atoms: C2_2  and  N1_3 
REMARK       I    between atoms: N1_3  and  C3_5 
REMARK    2  A    between atoms: C3_5  and  C4_7 
REMARK    3  A    between atoms: C4_7  and  N2_8 
ROOT
HETATM    1  N2  UNL     1     -33.297 -23.860 -19.370  1.00  0.00    -0.359 N 
HETATM    2  C5  UNL     1     -33.446 -24.549 -18.157  1.00  0.00     0.107 C 
HETATM    3  C6  UNL     1     -34.370 -23.913 -17.159  1.00  0.00     0.104 C 
HETATM    4  N3  UNL     1     -33.832 -23.666 -15.884  1.00  0.00    -0.373 N 
ATOM      5  H3  UNL     1     -34.003 -22.773 -15.421  1.00  0.00     0.164 HD
HETATM    6  C7  UNL     1     -33.059 -24.655 -15.244  1.00  0.00     0.104 C 
HETATM    7  C8  UNL     1     -32.702 -24.219 -13.851  1.00  0.00     0.100 C 
HETATM    8  N4  UNL     1     -32.098 -22.954 -13.722  1.00  0.00    -0.396 N 
ATOM      9  H4  UNL     1     -31.950 -22.536 -12.804  1.00  0.00     0.158 HD
HETATM   10  C9  UNL     1     -31.703 -22.282 -14.900  1.00  0.00     0.146 C 
HETATM   11  C10 UNL     1     -30.503 -21.380 -14.564  1.00  0.00     0.251 C 
HETATM   12  N5  UNL     1     -29.704 -21.135 -15.742  1.00  0.00    -0.072 N 
ATOM     13  H51 UNL     1     -29.296 -22.001 -16.094  1.00  0.00     0.277 HD
ATOM     14  H52 UNL     1     -28.849 -20.632 -15.505  1.00  0.00     0.277 HD
HETATM   15  C11 UNL     1     -30.436 -20.446 -16.786  1.00  0.00     0.251 C 
HETATM   16  C12 UNL     1     -30.111 -21.143 -18.087  1.00  0.00     0.141 C 
HETATM   17  N6  UNL     1     -31.066 -20.915 -19.124  1.00  0.00    -0.418 N 
ATOM     18  H6  UNL     1     -30.891 -20.269 -19.893  1.00  0.00     0.153 HD
HETATM   19  C13 UNL     1     -32.283 -21.655 -19.011  1.00  0.00     0.134 C 
HETATM   20  C14 UNL     1     -32.097 -23.070 -19.488  1.00  0.00     0.147 C 
ENDROOT
BRANCH   1  21
HETATM   21  C4  UNL     1     -34.389 -23.440 -20.118  1.00  0.00     0.164 C 
BRANCH  21  22
HETATM   22  C3  UNL     1     -34.361 -23.562 -21.579  1.00  0.00     0.256 C 
HETATM   23  N1  UNL     1     -34.413 -24.742 -22.351  1.00  0.00    -0.357 N 
ATOM     24  H1  UNL     1     -34.474 -25.642 -21.874  1.00  0.00     0.162 HD
HETATM   25  O1  UNL     1     -34.277 -22.445 -22.219  1.00  0.00    -0.267 OA
BRANCH  23  26
HETATM   26  C2  UNL     1     -34.384 -24.714 -23.808  1.00  0.00     0.118 C 
HETATM   27  C1  UNL     1     -33.464 -25.740 -24.393  1.00  0.00     0.026 C 
ENDBRANCH  23  26
ENDBRANCH  21  22
ENDBRANCH   1  21
TORSDOF 3
ENDMDL
MODEL 3
REMARK VINA RESULT: -4.147692641      1.410      1.471
REMARK  3 active torsions:
REMARK  status: ('A' for Active; 'I' for Inactive)
REMARK    1  A    between atoms: C2_2  and  N1_3 
REMARK       I    between atoms: N1_3  and  C3_5 
REMARK    2  A    between atoms: C3_5  and  C4_7 
REMARK    3  A    between atoms: C4_7  and  N2_8 
ROOT
HETATM    1  N2  UNL     1     -33.678 -23.588 -19.807  1.00  0.00    -0.359 N 
HETATM    2  C5  UNL     1     -32.693 -22.603 -19.977  1.00  0.00     0.107 C 
HETATM    3  C6  UNL     1     -31.285 -23.038 -19.694  1.00  0.00     0.104 C 
HETATM    4  N3  UNL     1     -30.574 -22.270 -18.754  1.00  0.00    -0.373 N 
ATOM      5  H3  UNL     1     -30.019 -22.730 -18.033  1.00  0.00     0.164 HD
HETATM    6  C7  UNL     1     -30.628 -20.864 -18.812  1.00  0.00     0.104 C 
HETATM    7  C8  UNL     1     -29.697 -20.263 -17.797  1.00  0.00     0.100 C 
HETATM    8  N4  UNL     1     -29.837 -20.712 -16.471  1.00  0.00    -0.396 N 
ATOM      9  H4  UNL     1     -29.158 -20.452 -15.756  1.00  0.00     0.158 HD
HETATM   10  C9  UNL     1     -30.944 -21.533 -16.159  1.00  0.00     0.146 C 
HETATM   11  C10 UNL     1     -31.312 -21.307 -14.683  1.00  0.00     0.251 C 
HETATM   12  N5  UNL     1     -32.704 -21.621 -14.452  1.00  0.00    -0.072 N 
ATOM     13  H51 UNL     1     -33.312 -20.992 -14.977  1.00  0.00     0.277 HD
ATOM     14  H52 UNL     1     -32.983 -21.367 -13.504  1.00  0.00     0.277 HD
HETATM   15  C11 UNL     1     -33.024 -23.006 -14.733  1.00  0.00     0.251 C 
HETATM   16  C12 UNL     1     -34.317 -23.011 -15.514  1.00  0.00     0.141 C 
HETATM   17  N6  UNL     1     -34.542 -24.207 -16.261  1.00  0.00    -0.418 N 
ATOM     18  H6  UNL     1     -35.195 -24.927 -15.952  1.00  0.00     0.153 HD
HETATM   19  C13 UNL     1     -33.791 -24.325 -17.470  1.00  0.00     0.134 C 
HETATM   20  C14 UNL     1     -34.418 -23.515 -18.573  1.00  0.00     0.147 C 
ENDROOT
BRANCH   1  21
HETATM   21  C4  UNL     1     -33.572 -24.843 -20.391  1.00  0.00     0.164 C 
BRANCH  21  22
HETATM   22  C3  UNL     1     -33.759 -24.991 -21.838  1.00  0.00     0.256 C 
HETATM   23  N1  UNL     1     -34.419 -24.111 -22.721  1.00  0.00    -0.357 N 
ATOM     24  H1  UNL     1     -34.835 -23.258 -22.349  1.00  0.00     0.162 HD
HETATM   25  O1  UNL     1     -33.253 -26.063 -22.347  1.00  0.00    -0.267 OA
BRANCH  23  26
HETATM   26  C2  UNL     1     -34.523 -24.384 -24.150  1.00  0.00     0.118 C 
HETATM   27  C1  UNL     1     -34.486 -23.142 -24.984  1.00  0.00     0.026 C 
ENDBRANCH  23  26
ENDBRANCH  21  22
ENDBRANCH   1  21
TORSDOF 3
ENDMDL
MODEL 4
REMARK VINA RESULT: -3.535452581      1.410      3.695
REMARK  3 active torsions:
REMARK  status: ('A' for Active; 'I' for Inactive)
REMARK    1  A    between atoms: C2_2  and  N1_3 
REMARK       I    between atoms: N1_3  and  C3_5 
REMARK    2  A    between atoms: C3_5  and  C4_7 
REMARK    3  A    between atoms: C4_7  and  N2_8 
ROOT
HETATM    1  N2  UNL     1     -32.536 -23.233 -18.888  1.00  0.00    -0.359 N 
HETATM    2  C5  UNL     1     -33.102 -24.414 -18.386  1.00  0.00     0.107 C 
HETATM    3  C6  UNL     1     -34.396 -24.249 -17.644  1.00  0.00     0.104 C 
HETATM    4  N3  UNL     1     -34.437 -24.772 -16.339  1.00  0.00    -0.373 N 
ATOM      5  H3  UNL     1     -34.850 -24.227 -15.582  1.00  0.00     0.164 HD
HETATM    6  C7  UNL     1     -33.907 -26.051 -16.079  1.00  0.00     0.104 C 
HETATM    7  C8  UNL     1     -34.174 -26.447 -14.655  1.00  0.00     0.100 C 
HETATM    8  N4  UNL     1     -33.778 -25.533 -13.661  1.00  0.00    -0.396 N 
ATOM      9  H4  UNL     1     -34.045 -25.669 -12.687  1.00  0.00     0.158 HD
HETATM   10  C9  UNL     1     -33.000 -24.420 -14.053  1.00  0.00     0.146 C 
HETATM   11  C10 UNL     1     -32.114 -24.007 -12.865  1.00  0.00     0.251 C 
HETATM   12  N5  UNL     1     -30.932 -23.316 -13.328  1.00  0.00    -0.072 N 
ATOM     13  H51 UNL     1     -30.348 -23.930 -13.896  1.00  0.00     0.277 HD
ATOM     14  H52 UNL     1     -30.288 -23.139 -12.557  1.00  0.00     0.277 HD
HETATM   15  C11 UNL     1     -31.238 -22.090 -14.038  1.00  0.00     0.251 C 
HETATM   16  C12 UNL     1     -30.364 -22.063 -15.270  1.00  0.00     0.141 C 
HETATM   17  N6  UNL     1     -30.839 -21.198 -16.303  1.00  0.00    -0.418 N 
ATOM     18  H6  UNL     1     -30.423 -20.284 -16.481  1.00  0.00     0.153 HD
HETATM   19  C13 UNL     1     -31.935 -21.701 -17.069  1.00  0.00     0.134 C 
HETATM   20  C14 UNL     1     -31.458 -22.683 -18.106  1.00  0.00     0.147 C 
ENDROOT
BRANCH   1  21
HETATM   21  C4  UNL     1     -33.267 -22.333 -19.652  1.00  0.00     0.164 C 
BRANCH  21  22
HETATM   22  C3  UNL     1     -33.811 -22.751 -20.948  1.00  0.00     0.256 C 
HETATM   23  N1  UNL     1     -33.963 -24.064 -21.441  1.00  0.00    -0.357 N 
ATOM     24  H1  UNL     1     -33.668 -24.848 -20.859  1.00  0.00     0.162 HD
HETATM   25  O1  UNL     1     -34.189 -21.788 -21.719  1.00  0.00    -0.267 OA
BRANCH  23  26
HETATM   26  C2  UNL     1     -34.530 -24.335 -22.757  1.00  0.00     0.118 C 
HETATM   27  C1  UNL     1     -33.865 -25.481 -23.453  1.00  0.00     0.026 C 
ENDBRANCH  23  26
ENDBRANCH  21  22
ENDBRANCH   1  21
TORSDOF 3
ENDMDL
MODEL 5
REMARK VINA RESULT: -2.780090077      2.942      5.176
REMARK  3 active torsions:
REMARK  status: ('A' for Active; 'I' for Inactive)
REMARK    1  A    between atoms: C2_2  and  N1_3 
REMARK       I    between atoms: N1_3  and  C3_5 
REMARK    2  A    between atoms: C3_5  and  C4_7 
REMARK    3  A    between atoms: C4_7  and  N2_8 
ROOT
HETATM    1  N2  UNL     1     -30.051 -20.751 -18.436  1.00  0.00    -0.359 N 
HETATM    2  C5  UNL     1     -30.528 -20.542 -17.133  1.00  0.00     0.107 C 
HETATM    3  C6  UNL     1     -30.013 -21.492 -16.092  1.00  0.00     0.104 C 
HETATM    4  N3  UNL     1     -30.983 -22.179 -15.341  1.00  0.00    -0.373 N 
ATOM      5  H3  UNL     1     -30.880 -23.179 -15.165  1.00  0.00     0.164 HD
HETATM    6  C7  UNL     1     -32.097 -21.484 -14.832  1.00  0.00     0.104 C 
HETATM    7  C8  UNL     1     -32.925 -22.389 -13.963  1.00  0.00     0.100 C 
HETATM    8  N4  UNL     1     -33.319 -23.616 -14.528  1.00  0.00    -0.396 N 
ATOM      9  H4  UNL     1     -33.765 -24.335 -13.959  1.00  0.00     0.158 HD
HETATM   10  C9  UNL     1     -33.080 -23.823 -15.905  1.00  0.00     0.146 C 
HETATM   11  C10 UNL     1     -34.152 -24.785 -16.443  1.00  0.00     0.251 C 
HETATM   12  N5  UNL     1     -34.342 -24.593 -17.863  1.00  0.00    -0.072 N 
ATOM     13  H51 UNL     1     -34.700 -23.658 -18.061  1.00  0.00     0.277 HD
ATOM     14  H52 UNL     1     -35.128 -25.147 -18.204  1.00  0.00     0.277 HD
HETATM   15  C11 UNL     1     -33.145 -24.863 -18.634  1.00  0.00     0.251 C 
HETATM   16  C12 UNL     1     -33.008 -23.747 -19.643  1.00  0.00     0.141 C 
HETATM   17  N6  UNL     1     -31.687 -23.589 -20.162  1.00  0.00    -0.418 N 
ATOM     18  H6  UNL     1     -31.424 -23.918 -21.091  1.00  0.00     0.153 HD
HETATM   19  C13 UNL     1     -30.760 -22.939 -19.291  1.00  0.00     0.134 C 
HETATM   20  C14 UNL     1     -30.953 -21.446 -19.319  1.00  0.00     0.147 C 
ENDROOT
BRANCH   1  21
HETATM   21  C4  UNL     1     -28.697 -20.876 -18.713  1.00  0.00     0.164 C 
BRANCH  21  22
HETATM   22  C3  UNL     1     -28.232 -20.852 -20.103  1.00  0.00     0.256 C 
HETATM   23  N1  UNL     1     -28.285 -19.778 -21.016  1.00  0.00    -0.357 N 
ATOM     24  H1  UNL     1     -28.693 -18.893 -20.714  1.00  0.00     0.162 HD
HETATM   25  O1  UNL     1     -27.717 -21.957 -20.527  1.00  0.00    -0.267 OA
BRANCH  23  26
HETATM   26  C2  UNL     1     -27.776 -19.894 -22.377  1.00  0.00     0.118 C 
HETATM   27  C1  UNL     1     -26.706 -18.894 -22.686  1.00  0.00     0.026 C 
ENDBRANCH  23  26
ENDBRANCH  21  22
ENDBRANCH   1  21
TORSDOF 3
ENDMDL
