MODEL 1
REMARK VINA RESULT: -5.237697101      0.000      0.000
REMARK  5 active torsions:
REMARK  status: ('A' for Active; 'I' for Inactive)
REMARK    1  A    between atoms: C2_2  and  C3_3 
REMARK    2  A    between atoms: C3_3  and  C4_4 
REMARK    3  A    between atoms: C4_4  and  C5_5 
REMARK    4  A    between atoms: C6_10  and  N3_11 
REMARK    5  A    between atoms: N3_11  and  N4_13 
ROOT
HETATM    1  C5  UNL     1      17.146 -37.193 -21.437  1.00  0.00     0.112 A 
HETATM    2  N1  UNL     1      18.495 -37.193 -21.310  1.00  0.00    -0.274 N 
ATOM      3  H1  UNL     1      19.103 -36.386 -21.454  1.00  0.00     0.189 HD
HETATM    4  N2  UNL     1      18.895 -38.407 -20.970  1.00  0.00    -0.129 N 
ATOM      5  H2  UNL     1      19.862 -38.689 -20.809  1.00  0.00     0.205 HD
HETATM    6  C6  UNL     1      17.823 -39.204 -20.873  1.00  0.00     0.712 A 
HETATM    7  N5  UNL     1      16.760 -38.439 -21.164  1.00  0.00    -0.177 N 
ATOM      8  H5  UNL     1      15.793 -38.765 -21.175  1.00  0.00     0.185 HD
ENDROOT
BRANCH   6   9
HETATM    9  N3  UNL     1      17.828 -40.469 -20.558  1.00  0.00    -0.135 N 
ATOM     10  H3  UNL     1      18.451 -40.821 -19.832  1.00  0.00     0.205 HD
BRANCH   9  11
HETATM   11  N4  UNL     1      16.965 -41.335 -21.234  1.00  0.00    -0.327 N 
HETATM   12  C7  UNL     1      16.753 -42.675 -20.782  1.00  0.00     0.168 C 
ATOM     13  H4  UNL     1      16.475 -41.004 -22.066  1.00  0.00     0.180 HD
ENDBRANCH   9  11
ENDBRANCH   6   9
BRANCH   1  14
HETATM   14  C4  UNL     1      16.380 -35.988 -21.808  1.00  0.00     0.078 C 
BRANCH  14  15
HETATM   15  C3  UNL     1      16.779 -34.871 -20.885  1.00  0.00     0.007 C 
BRANCH  15  16
HETATM   16  C2  UNL     1      16.672 -33.513 -21.520  1.00  0.00    -0.004 C 
HETATM   17  C1  UNL     1      15.826 -33.653 -22.768  1.00  0.00     0.005 C 
ENDBRANCH  15  16
ENDBRANCH  14  15
ENDBRANCH   1  14
TORSDOF 5
ENDMDL
MODEL 2
REMARK VINA RESULT: -5.118306668      1.704      2.860
REMARK  5 active torsions:
REMARK  status: ('A' for Active; 'I' for Inactive)
REMARK    1  A    between atoms: C2_2  and  C3_3 
REMARK    2  A    between atoms: C3_3  and  C4_4 
REMARK    3  A    between atoms: C4_4  and  C5_5 
REMARK    4  A    between atoms: C6_10  and  N3_11 
REMARK    5  A    between atoms: N3_11  and  N4_13 
ROOT
HETATM    1  C5  UNL     1      16.135 -34.573 -21.193  1.00  0.00     0.112 A 
HETATM    2  N1  UNL     1      17.302 -34.358 -20.540  1.00  0.00    -0.274 N 
ATOM      3  H1  UNL     1      17.559 -33.499 -20.054  1.00  0.00     0.189 HD
HETATM    4  N2  UNL     1      18.054 -35.443 -20.633  1.00  0.00    -0.129 N 
ATOM      5  H2  UNL     1      18.984 -35.557 -20.232  1.00  0.00     0.205 HD
HETATM    6  C6  UNL     1      17.392 -36.367 -21.343  1.00  0.00     0.712 A 
HETATM    7  N5  UNL     1      16.217 -35.812 -21.677  1.00  0.00    -0.177 N 
ATOM      8  H5  UNL     1      15.490 -36.273 -22.225  1.00  0.00     0.185 HD
ENDROOT
BRANCH   6   9
HETATM    9  N3  UNL     1      17.818 -37.562 -21.642  1.00  0.00    -0.135 N 
ATOM     10  H3  UNL     1      18.469 -37.702 -22.415  1.00  0.00     0.205 HD
BRANCH   9  11
HETATM   11  N4  UNL     1      17.369 -38.647 -20.886  1.00  0.00    -0.327 N 
HETATM   12  C7  UNL     1      18.080 -39.887 -20.870  1.00  0.00     0.168 C 
ATOM     13  H4  UNL     1      16.516 -38.552 -20.334  1.00  0.00     0.180 HD
ENDBRANCH   9  11
ENDBRANCH   6   9
BRANCH   1  14
HETATM   14  C4  UNL     1      15.070 -33.555 -21.278  1.00  0.00     0.078 C 
BRANCH  14  15
HETATM   15  C3  UNL     1      15.507 -32.495 -22.251  1.00  0.00     0.007 C 
BRANCH  15  16
HETATM   16  C2  UNL     1      15.719 -33.023 -23.642  1.00  0.00    -0.004 C 
HETATM   17  C1  UNL     1      16.859 -32.244 -24.263  1.00  0.00     0.005 C 
ENDBRANCH  15  16
ENDBRANCH  14  15
ENDBRANCH   1  14
TORSDOF 5
ENDMDL
MODEL 3
REMARK VINA RESULT: -4.856977585      2.508      3.525
REMARK  5 active torsions:
REMARK  status: ('A' for Active; 'I' for Inactive)
REMARK    1  A    between atoms: C2_2  and  C3_3 
REMARK    2  A    between atoms: C3_3  and  C4_4 
REMARK    3  A    between atoms: C4_4  and  C5_5 
REMARK    4  A    between atoms: C6_10  and  N3_11 
REMARK    5  A    between atoms: N3_11  and  N4_13 
ROOT
HETATM    1  C5  UNL     1      16.718 -35.340 -21.149  1.00  0.00     0.112 A 
HETATM    2  N1  UNL     1      16.282 -36.406 -21.862  1.00  0.00    -0.274 N 
ATOM      3  H1  UNL     1      15.384 -36.469 -22.343  1.00  0.00     0.189 HD
HETATM    4  N2  UNL     1      17.208 -37.350 -21.834  1.00  0.00    -0.129 N 
ATOM      5  H2  UNL     1      17.141 -38.260 -22.290  1.00  0.00     0.205 HD
HETATM    6  C6  UNL     1      18.247 -36.915 -21.109  1.00  0.00     0.712 A 
HETATM    7  N5  UNL     1      17.925 -35.679 -20.698  1.00  0.00    -0.177 N 
ATOM      8  H5  UNL     1      18.520 -35.084 -20.120  1.00  0.00     0.185 HD
ENDROOT
BRANCH   6   9
HETATM    9  N3  UNL     1      19.345 -37.573 -20.860  1.00  0.00    -0.135 N 
ATOM     10  H3  UNL     1      19.312 -38.565 -20.624  1.00  0.00     0.205 HD
BRANCH   9  11
HETATM   11  N4  UNL     1      20.565 -36.897 -20.923  1.00  0.00    -0.327 N 
HETATM   12  C7  UNL     1      21.280 -36.543 -19.737  1.00  0.00     0.168 C 
ATOM     13  H4  UNL     1      20.953 -36.651 -21.834  1.00  0.00     0.180 HD
ENDBRANCH   9  11
ENDBRANCH   6   9
BRANCH   1  14
HETATM   14  C4  UNL     1      15.918 -34.111 -20.983  1.00  0.00     0.078 C 
BRANCH  14  15
HETATM   15  C3  UNL     1      16.439 -33.075 -21.939  1.00  0.00     0.007 C 
BRANCH  15  16
HETATM   16  C2  UNL     1      15.807 -33.159 -23.300  1.00  0.00    -0.004 C 
HETATM   17  C1  UNL     1      16.659 -32.351 -24.256  1.00  0.00     0.005 C 
ENDBRANCH  15  16
ENDBRANCH  14  15
ENDBRANCH   1  14
TORSDOF 5
ENDMDL
MODEL 4
REMARK VINA RESULT: -4.822853394      2.236      3.741
REMARK  5 active torsions:
REMARK  status: ('A' for Active; 'I' for Inactive)
REMARK    1  A    between atoms: C2_2  and  C3_3 
REMARK    2  A    between atoms: C3_3  and  C4_4 
REMARK    3  A    between atoms: C4_4  and  C5_5 
REMARK    4  A    between atoms: C6_10  and  N3_11 
REMARK    5  A    between atoms: N3_11  and  N4_13 
ROOT
HETATM    1  C5  UNL     1      16.086 -33.611 -21.885  1.00  0.00     0.112 A 
HETATM    2  N1  UNL     1      17.052 -33.665 -20.936  1.00  0.00    -0.274 N 
ATOM      3  H1  UNL     1      17.463 -32.860 -20.464  1.00  0.00     0.189 HD
HETATM    4  N2  UNL     1      17.374 -34.930 -20.722  1.00  0.00    -0.129 N 
ATOM      5  H2  UNL     1      18.075 -35.259 -20.057  1.00  0.00     0.205 HD
HETATM    6  C6  UNL     1      16.631 -35.707 -21.520  1.00  0.00     0.712 A 
HETATM    7  N5  UNL     1      15.848 -34.878 -22.226  1.00  0.00    -0.177 N 
ATOM      8  H5  UNL     1      15.166 -35.174 -22.926  1.00  0.00     0.185 HD
ENDROOT
BRANCH   6   9
HETATM    9  N3  UNL     1      16.672 -37.008 -21.588  1.00  0.00    -0.135 N 
ATOM     10  H3  UNL     1      15.828 -37.544 -21.786  1.00  0.00     0.205 HD
BRANCH   9  11
HETATM   11  N4  UNL     1      17.893 -37.655 -21.386  1.00  0.00    -0.327 N 
HETATM   12  C7  UNL     1      17.951 -38.999 -20.899  1.00  0.00     0.168 C 
ATOM     13  H4  UNL     1      18.762 -37.160 -21.590  1.00  0.00     0.180 HD
ENDBRANCH   9  11
ENDBRANCH   6   9
BRANCH   1  14
HETATM   14  C4  UNL     1      15.502 -32.341 -22.357  1.00  0.00     0.078 C 
BRANCH  14  15
HETATM   15  C3  UNL     1      15.564 -32.321 -23.858  1.00  0.00     0.007 C 
BRANCH  15  16
HETATM   16  C2  UNL     1      16.935 -32.625 -24.395  1.00  0.00    -0.004 C 
HETATM   17  C1  UNL     1      17.703 -31.322 -24.465  1.00  0.00     0.005 C 
ENDBRANCH  15  16
ENDBRANCH  14  15
ENDBRANCH   1  14
TORSDOF 5
ENDMDL
MODEL 5
REMARK VINA RESULT: -4.745536797      1.564      2.799
REMARK  5 active torsions:
REMARK  status: ('A' for Active; 'I' for Inactive)
REMARK    1  A    between atoms: C2_2  and  C3_3 
REMARK    2  A    between atoms: C3_3  and  C4_4 
REMARK    3  A    between atoms: C4_4  and  C5_5 
REMARK    4  A    between atoms: C6_10  and  N3_11 
REMARK    5  A    between atoms: N3_11  and  N4_13 
ROOT
HETATM    1  C5  UNL     1      17.256 -37.281 -21.367  1.00  0.00     0.112 A 
HETATM    2  N1  UNL     1      16.689 -38.477 -21.077  1.00  0.00    -0.274 N 
ATOM      3  H1  UNL     1      15.688 -38.672 -21.074  1.00  0.00     0.189 HD
HETATM    4  N2  UNL     1      17.644 -39.349 -20.799  1.00  0.00    -0.129 N 
ATOM      5  H2  UNL     1      17.499 -40.327 -20.546  1.00  0.00     0.205 HD
HETATM    6  C6  UNL     1      18.831 -38.739 -20.902  1.00  0.00     0.712 A 
HETATM    7  N5  UNL     1      18.571 -37.470 -21.251  1.00  0.00    -0.177 N 
ATOM      8  H5  UNL     1      19.279 -36.751 -21.406  1.00  0.00     0.185 HD
ENDROOT
BRANCH   6   9
HETATM    9  N3  UNL     1      19.999 -39.282 -20.699  1.00  0.00    -0.135 N 
ATOM     10  H3  UNL     1      20.074 -40.254 -20.399  1.00  0.00     0.205 HD
BRANCH   9  11
HETATM   11  N4  UNL     1      21.145 -38.510 -20.900  1.00  0.00    -0.327 N 
HETATM   12  C7  UNL     1      21.931 -38.046 -19.798  1.00  0.00     0.168 C 
ATOM     13  H4  UNL     1      21.428 -38.272 -21.851  1.00  0.00     0.180 HD
ENDBRANCH   9  11
ENDBRANCH   6   9
BRANCH   1  14
HETATM   14  C4  UNL     1      16.464 -36.088 -21.723  1.00  0.00     0.078 C 
BRANCH  14  15
HETATM   15  C3  UNL     1      16.979 -34.924 -20.924  1.00  0.00     0.007 C 
BRANCH  15  16
HETATM   16  C2  UNL     1      16.470 -33.599 -21.420  1.00  0.00    -0.004 C 
HETATM   17  C1  UNL     1      15.902 -33.811 -22.807  1.00  0.00     0.005 C 
ENDBRANCH  15  16
ENDBRANCH  14  15
ENDBRANCH   1  14
TORSDOF 5
ENDMDL
