MODEL 1
REMARK VINA RESULT: -4.898474621      0.000      0.000
REMARK  0 active torsions:
REMARK  status: ('A' for Active; 'I' for Inactive)
ROOT
HETATM    1  C1  UNL     1       3.958   9.758   0.861  1.00  0.00     0.015 C 
HETATM    2  C2  UNL     1       2.481   9.633   0.954  1.00  0.00    -0.040 A 
HETATM    3  C3  UNL     1       1.749  10.078   2.159  1.00  0.00     0.015 A 
HETATM    4  C4  UNL     1       1.773   8.596   1.686  1.00  0.00    -0.005 A 
HETATM    5  C5  UNL     1       1.915   8.405   0.229  1.00  0.00     0.015 A 
ENDROOT
TORSDOF 0
ENDMDL
MODEL 2
REMARK VINA RESULT: -4.543637458      0.678      2.168
REMARK  0 active torsions:
REMARK  status: ('A' for Active; 'I' for Inactive)
ROOT
HETATM    1  C1  UNL     1       1.954   9.969   2.257  1.00  0.00     0.015 C 
HETATM    2  C2  UNL     1       2.506   9.627   0.921  1.00  0.00    -0.040 A 
HETATM    3  C3  UNL     1       1.984   8.479   0.149  1.00  0.00     0.015 A 
HETATM    4  C4  UNL     1       3.453   8.558   0.656  1.00  0.00    -0.005 A 
HETATM    5  C5  UNL     1       4.003   9.922   0.774  1.00  0.00     0.015 A 
ENDROOT
TORSDOF 0
ENDMDL
MODEL 3
REMARK VINA RESULT: -4.357231190      0.849      1.764
REMARK  0 active torsions:
REMARK  status: ('A' for Active; 'I' for Inactive)
ROOT
HETATM    1  C1  UNL     1       3.933  10.283   0.821  1.00  0.00     0.015 C 
HETATM    2  C2  UNL     1       3.100   9.142   1.276  1.00  0.00    -0.040 A 
HETATM    3  C3  UNL     1       3.143   7.837   0.582  1.00  0.00     0.015 A 
HETATM    4  C4  UNL     1       1.858   8.711   0.657  1.00  0.00    -0.005 A 
HETATM    5  C5  UNL     1       1.744   9.557   1.861  1.00  0.00     0.015 A 
ENDROOT
TORSDOF 0
ENDMDL
MODEL 4
REMARK VINA RESULT: -4.287843818      0.688      1.845
REMARK  0 active torsions:
REMARK  status: ('A' for Active; 'I' for Inactive)
ROOT
HETATM    1  C1  UNL     1       2.270  10.518   2.059  1.00  0.00     0.015 C 
HETATM    2  C2  UNL     1       2.606   9.162   1.555  1.00  0.00    -0.040 A 
HETATM    3  C3  UNL     1       3.572   8.972   0.452  1.00  0.00     0.015 A 
HETATM    4  C4  UNL     1       2.075   8.564   0.343  1.00  0.00    -0.005 A 
HETATM    5  C5  UNL     1       1.438   8.171   1.615  1.00  0.00     0.015 A 
ENDROOT
TORSDOF 0
ENDMDL
MODEL 5
REMARK VINA RESULT: -4.263501033      0.740      2.094
REMARK  0 active torsions:
REMARK  status: ('A' for Active; 'I' for Inactive)
ROOT
HETATM    1  C1  UNL     1       2.418   8.042   0.865  1.00  0.00     0.015 C 
HETATM    2  C2  UNL     1       2.470   9.521   0.981  1.00  0.00    -0.040 A 
HETATM    3  C3  UNL     1       3.731  10.263   0.762  1.00  0.00     0.015 A 
HETATM    4  C4  UNL     1       2.982  10.254   2.126  1.00  0.00    -0.005 A 
HETATM    5  C5  UNL     1       1.517  10.096   2.036  1.00  0.00     0.015 A 
ENDROOT
TORSDOF 0
ENDMDL
