MODEL 1
REMARK VINA RESULT: -6.465905356      0.000      0.000
REMARK  0 active torsions:
REMARK  status: ('A' for Active; 'I' for Inactive)
ROOT
HETATM    1  C1  UNL     1       2.925  10.326   1.709  1.00  0.00    -0.030 C 
HETATM    2  C2  UNL     1       3.692  10.041   1.165  1.00  0.00    -0.030 C 
HETATM    3  C3  UNL     1       4.490   9.225   0.389  1.00  0.00     0.026 C 
HETATM    4  C4  UNL     1       3.487   7.873   0.597  1.00  0.00     0.004 C 
HETATM    5  C5  UNL     1       2.114   8.485   0.641  1.00  0.00     0.001 C 
HETATM    6  C6  UNL     1       1.468   8.630   1.988  1.00  0.00     0.004 C 
HETATM    7  C7  UNL     1       1.712  10.252   2.356  1.00  0.00     0.026 C 
ENDROOT
TORSDOF 0
ENDMDL
MODEL 2
REMARK VINA RESULT: -6.392054294      0.532      3.010
REMARK  0 active torsions:
REMARK  status: ('A' for Active; 'I' for Inactive)
ROOT
HETATM    1  C1  UNL     1       3.293   8.172   0.726  1.00  0.00    -0.030 C 
HETATM    2  C2  UNL     1       2.422   8.144   1.181  1.00  0.00    -0.030 C 
HETATM    3  C3  UNL     1       1.344   8.573   1.928  1.00  0.00     0.026 C 
HETATM    4  C4  UNL     1       2.072  10.054   2.318  1.00  0.00     0.004 C 
HETATM    5  C5  UNL     1       2.849  10.379   1.073  1.00  0.00     0.001 C 
HETATM    6  C6  UNL     1       4.330  10.136   1.102  1.00  0.00     0.004 C 
HETATM    7  C7  UNL     1       4.495   8.677   0.284  1.00  0.00     0.026 C 
ENDROOT
TORSDOF 0
ENDMDL
MODEL 3
REMARK VINA RESULT: -6.168358995      0.673      2.382
REMARK  0 active torsions:
REMARK  status: ('A' for Active; 'I' for Inactive)
ROOT
HETATM    1  C1  UNL     1       3.056  10.470   2.102  1.00  0.00    -0.030 C 
HETATM    2  C2  UNL     1       2.231   9.938   2.138  1.00  0.00    -0.030 C 
HETATM    3  C3  UNL     1       1.310   8.963   1.810  1.00  0.00     0.026 C 
HETATM    4  C4  UNL     1       2.192   8.437   0.462  1.00  0.00     0.004 C 
HETATM    5  C5  UNL     1       3.617   8.611   0.910  1.00  0.00     0.001 C 
HETATM    6  C6  UNL     1       4.361   9.806   0.390  1.00  0.00     0.004 C 
HETATM    7  C7  UNL     1       4.297  10.887   1.675  1.00  0.00     0.026 C 
ENDROOT
TORSDOF 0
ENDMDL
MODEL 4
REMARK VINA RESULT: -6.117106918      0.781      1.410
REMARK  0 active torsions:
REMARK  status: ('A' for Active; 'I' for Inactive)
ROOT
HETATM    1  C1  UNL     1       2.248  10.092   2.201  1.00  0.00    -0.030 C 
HETATM    2  C2  UNL     1       3.082  10.585   2.036  1.00  0.00    -0.030 C 
HETATM    3  C3  UNL     1       4.340  10.860   1.537  1.00  0.00     0.026 C 
HETATM    4  C4  UNL     1       4.506   9.328   0.828  1.00  0.00     0.004 C 
HETATM    5  C5  UNL     1       3.104   9.015   0.386  1.00  0.00     0.001 C 
HETATM    6  C6  UNL     1       2.313   8.060   1.231  1.00  0.00     0.004 C 
HETATM    7  C7  UNL     1       1.321   9.076   2.131  1.00  0.00     0.026 C 
ENDROOT
TORSDOF 0
ENDMDL
MODEL 5
REMARK VINA RESULT: -6.040943292      0.495      1.965
REMARK  0 active torsions:
REMARK  status: ('A' for Active; 'I' for Inactive)
ROOT
HETATM    1  C1  UNL     1       2.386   8.238   1.193  1.00  0.00    -0.030 C 
HETATM    2  C2  UNL     1       3.246   8.292   0.721  1.00  0.00    -0.030 C 
HETATM    3  C3  UNL     1       4.411   8.840   0.223  1.00  0.00     0.026 C 
HETATM    4  C4  UNL     1       4.014  10.408   0.732  1.00  0.00     0.004 C 
HETATM    5  C5  UNL     1       3.283  10.161   2.022  1.00  0.00     0.001 C 
HETATM    6  C6  UNL     1       1.785  10.257   1.995  1.00  0.00     0.004 C 
HETATM    7  C7  UNL     1       1.301   8.648   1.935  1.00  0.00     0.026 C 
ENDROOT
TORSDOF 0
ENDMDL
