MODEL 1
REMARK VINA RESULT: -6.084762068      0.000      0.000
REMARK  0 active torsions:
REMARK  status: ('A' for Active; 'I' for Inactive)
ROOT
HETATM    1  C1  UNL     1       2.637  10.405   2.041  1.00  0.00     0.005 C 
HETATM    2  C2  UNL     1       1.629   9.371   2.461  1.00  0.00     0.006 C 
HETATM    3  C3  UNL     1       1.782   8.228   1.481  1.00  0.00    -0.005 A 
HETATM    4  C4  UNL     1       3.073   7.923   0.845  1.00  0.00    -0.005 A 
HETATM    5  C5  UNL     1       4.160   8.959   0.749  1.00  0.00     0.010 C 
HETATM    6  C6  UNL     1       3.051  10.015   0.644  1.00  0.00    -0.009 C 
HETATM    7  C7  UNL     1       2.135   8.905   0.245  1.00  0.00    -0.001 A 
ENDROOT
TORSDOF 0
ENDMDL
MODEL 2
REMARK VINA RESULT: -6.009738920      0.666      2.554
REMARK  0 active torsions:
REMARK  status: ('A' for Active; 'I' for Inactive)
ROOT
HETATM    1  C1  UNL     1       3.374   7.981   0.640  1.00  0.00     0.005 C 
HETATM    2  C2  UNL     1       4.310   9.141   0.845  1.00  0.00     0.006 C 
HETATM    3  C3  UNL     1       3.460  10.256   1.415  1.00  0.00    -0.005 A 
HETATM    4  C4  UNL     1       2.280   9.981   2.249  1.00  0.00    -0.005 A 
HETATM    5  C5  UNL     1       1.584   8.648   2.199  1.00  0.00     0.010 C 
HETATM    6  C6  UNL     1       1.987   8.569   0.720  1.00  0.00    -0.009 C 
HETATM    7  C7  UNL     1       2.176  10.049   0.769  1.00  0.00    -0.001 A 
ENDROOT
TORSDOF 0
ENDMDL
MODEL 3
REMARK VINA RESULT: -5.797629752      0.613      1.199
REMARK  0 active torsions:
REMARK  status: ('A' for Active; 'I' for Inactive)
ROOT
HETATM    1  C1  UNL     1       3.773  10.263   1.423  1.00  0.00     0.005 C 
HETATM    2  C2  UNL     1       2.599  10.513   2.330  1.00  0.00     0.006 C 
HETATM    3  C3  UNL     1       1.603   9.417   2.022  1.00  0.00    -0.005 A 
HETATM    4  C4  UNL     1       2.034   8.086   1.564  1.00  0.00    -0.005 A 
HETATM    5  C5  UNL     1       3.385   7.877   0.936  1.00  0.00     0.010 C 
HETATM    6  C6  UNL     1       3.270   9.301   0.376  1.00  0.00    -0.009 C 
HETATM    7  C7  UNL     1       1.798   9.191   0.601  1.00  0.00    -0.001 A 
ENDROOT
TORSDOF 0
ENDMDL
MODEL 4
REMARK VINA RESULT: -5.638754393      0.682      1.029
REMARK  0 active torsions:
REMARK  status: ('A' for Active; 'I' for Inactive)
ROOT
HETATM    1  C1  UNL     1       1.823   9.882   2.101  1.00  0.00     0.005 C 
HETATM    2  C2  UNL     1       1.703   8.388   1.979  1.00  0.00     0.006 C 
HETATM    3  C3  UNL     1       2.746   7.975   0.964  1.00  0.00    -0.005 A 
HETATM    4  C4  UNL     1       4.000   8.726   0.796  1.00  0.00    -0.005 A 
HETATM    5  C5  UNL     1       4.119  10.157   1.246  1.00  0.00     0.010 C 
HETATM    6  C6  UNL     1       2.631  10.317   0.904  1.00  0.00    -0.009 C 
HETATM    7  C7  UNL     1       2.773   9.102   0.049  1.00  0.00    -0.001 A 
ENDROOT
TORSDOF 0
ENDMDL
MODEL 5
REMARK VINA RESULT: -5.463752960      0.718      2.308
REMARK  0 active torsions:
REMARK  status: ('A' for Active; 'I' for Inactive)
ROOT
HETATM    1  C1  UNL     1       1.885   8.241   1.694  1.00  0.00     0.005 C 
HETATM    2  C2  UNL     1       3.120   7.888   0.912  1.00  0.00     0.006 C 
HETATM    3  C3  UNL     1       3.826   9.200   0.648  1.00  0.00    -0.005 A 
HETATM    4  C4  UNL     1       3.727  10.333   1.581  1.00  0.00    -0.005 A 
HETATM    5  C5  UNL     1       2.591  10.438   2.563  1.00  0.00     0.010 C 
HETATM    6  C6  UNL     1       1.715   9.730   1.520  1.00  0.00    -0.009 C 
HETATM    7  C7  UNL     1       2.727  10.137   0.502  1.00  0.00    -0.001 A 
ENDROOT
TORSDOF 0
ENDMDL
