MODEL 1
REMARK VINA RESULT: -5.646816602      0.000      0.000
REMARK  7 active torsions:
REMARK  status: ('A' for Active; 'I' for Inactive)
REMARK    1  A    between atoms: C2_2  and  C4_4 
REMARK    2  A    between atoms: C4_4  and  C5_5 
REMARK    3  A    between atoms: C6_7  and  S1_8 
REMARK    4  A    between atoms: C9_15  and  C10_16 
REMARK       I    between atoms: C10_16  and  N3_18 
REMARK    5  A    between atoms: N3_18  and  C11_20 
REMARK    6  A    between atoms: C11_20  and  C12_21 
REMARK    7  A    between atoms: C12_21  and  N4_22 
ROOT
HETATM    1  S1  UNL     1      16.561  10.871  31.383  1.00  0.00     0.034 SA
HETATM    2  C7  UNL     1      17.459  10.206  29.981  1.00  0.00     0.142 C 
HETATM    3  N1  UNL     1      18.022   9.776  29.060  1.00  0.00    -0.184 NA
ENDROOT
BRANCH   1   4
HETATM    4  C6  UNL     1      15.269  11.845  31.020  1.00  0.00     0.203 A 
HETATM    5  O1  UNL     1      14.455  11.577  30.056  1.00  0.00    -0.290 OA
HETATM    6  C5  UNL     1      13.427  12.401  29.809  1.00  0.00     0.075 A 
HETATM    7  C9  UNL     1      13.180  13.541  30.539  1.00  0.00     0.099 A 
HETATM    8  C8  UNL     1      14.087  13.793  31.573  1.00  0.00     0.121 A 
HETATM    9  N2  UNL     1      15.114  12.930  31.788  1.00  0.00    -0.320 N 
HETATM   10  S2  UNL     1      13.948  15.127  32.477  1.00  0.00    -0.059 SA
ATOM     11  H2  UNL     1      15.776  13.112  32.543  1.00  0.00     0.169 HD
BRANCH   6  12
HETATM   12  C4  UNL     1      12.510  12.056  28.683  1.00  0.00     0.070 C 
BRANCH  12  13
HETATM   13  C2  UNL     1      13.227  11.482  27.492  1.00  0.00    -0.017 C 
HETATM   14  C1  UNL     1      12.744  10.079  27.202  1.00  0.00     0.010 C 
HETATM   15  C3  UNL     1      12.877  12.343  26.272  1.00  0.00     0.010 C 
ENDBRANCH  12  13
ENDBRANCH   6  12
BRANCH   7  16
HETATM   16  C10 UNL     1      12.103  14.483  30.272  1.00  0.00     0.257 C 
HETATM   17  O2  UNL     1      12.402  15.476  29.513  1.00  0.00    -0.267 OA
HETATM   18  N3  UNL     1      10.791  14.364  30.779  1.00  0.00    -0.355 N 
ATOM     19  H3  UNL     1      10.524  13.579  31.374  1.00  0.00     0.162 HD
BRANCH  18  20
HETATM   20  C11 UNL     1       9.831  15.401  30.425  1.00  0.00     0.153 C 
BRANCH  20  21
HETATM   21  C12 UNL     1       8.682  14.885  29.644  1.00  0.00     0.291 C 
BRANCH  21  22
HETATM   22  N4  UNL     1       9.133  13.875  28.726  1.00  0.00     0.081 N 
HETATM   23  C13 UNL     1       9.543  14.466  27.476  1.00  0.00     0.309 C 
HETATM   24  C14 UNL     1       8.035  12.969  28.451  1.00  0.00     0.309 C 
ENDBRANCH  21  22
ENDBRANCH  20  21
ENDBRANCH  18  20
ENDBRANCH   7  16
ENDBRANCH   1   4
TORSDOF 7
ENDMDL
MODEL 2
REMARK VINA RESULT: -5.472330753      3.207      5.496
REMARK  7 active torsions:
REMARK  status: ('A' for Active; 'I' for Inactive)
REMARK    1  A    between atoms: C2_2  and  C4_4 
REMARK    2  A    between atoms: C4_4  and  C5_5 
REMARK    3  A    between atoms: C6_7  and  S1_8 
REMARK    4  A    between atoms: C9_15  and  C10_16 
REMARK       I    between atoms: C10_16  and  N3_18 
REMARK    5  A    between atoms: N3_18  and  C11_20 
REMARK    6  A    between atoms: C11_20  and  C12_21 
REMARK    7  A    between atoms: C12_21  and  N4_22 
ROOT
HETATM    1  S1  UNL     1      12.807  11.005  25.874  1.00  0.00     0.034 SA
HETATM    2  C7  UNL     1      12.123   9.355  25.711  1.00  0.00     0.142 C 
HETATM    3  N1  UNL     1      11.691   8.280  25.624  1.00  0.00    -0.184 NA
ENDROOT
BRANCH   1   4
HETATM    4  C6  UNL     1      13.151  11.497  27.419  1.00  0.00     0.203 A 
HETATM    5  O1  UNL     1      13.931  10.825  28.198  1.00  0.00    -0.290 OA
HETATM    6  C5  UNL     1      14.173  11.272  29.437  1.00  0.00     0.075 A 
HETATM    7  C9  UNL     1      13.631  12.432  29.943  1.00  0.00     0.099 A 
HETATM    8  C8  UNL     1      12.792  13.128  29.066  1.00  0.00     0.121 A 
HETATM    9  N2  UNL     1      12.574  12.637  27.818  1.00  0.00    -0.320 N 
HETATM   10  S2  UNL     1      12.044  14.478  29.547  1.00  0.00    -0.059 SA
ATOM     11  H2  UNL     1      11.964  13.144  27.177  1.00  0.00     0.169 HD
BRANCH   6  12
HETATM   12  C4  UNL     1      15.079  10.465  30.306  1.00  0.00     0.070 C 
BRANCH  12  13
HETATM   13  C2  UNL     1      16.496  10.969  30.311  1.00  0.00    -0.017 C 
HETATM   14  C1  UNL     1      17.071  10.936  31.710  1.00  0.00     0.010 C 
HETATM   15  C3  UNL     1      17.338  10.016  29.453  1.00  0.00     0.010 C 
ENDBRANCH  12  13
ENDBRANCH   6  12
BRANCH   7  16
HETATM   16  C10 UNL     1      13.835  12.924  31.296  1.00  0.00     0.257 C 
HETATM   17  O2  UNL     1      13.178  12.316  32.219  1.00  0.00    -0.267 OA
HETATM   18  N3  UNL     1      14.690  13.993  31.640  1.00  0.00    -0.355 N 
ATOM     19  H3  UNL     1      15.232  14.485  30.929  1.00  0.00     0.162 HD
BRANCH  18  20
HETATM   20  C11 UNL     1      14.773  14.370  33.045  1.00  0.00     0.153 C 
BRANCH  20  21
HETATM   21  C12 UNL     1      13.913  15.527  33.388  1.00  0.00     0.291 C 
BRANCH  21  22
HETATM   22  N4  UNL     1      13.448  15.402  34.742  1.00  0.00     0.081 N 
HETATM   23  C13 UNL     1      13.957  16.477  35.559  1.00  0.00     0.309 C 
HETATM   24  C14 UNL     1      13.938  14.153  35.293  1.00  0.00     0.309 C 
ENDBRANCH  21  22
ENDBRANCH  20  21
ENDBRANCH  18  20
ENDBRANCH   7  16
ENDBRANCH   1   4
TORSDOF 7
ENDMDL
MODEL 3
REMARK VINA RESULT: -5.462951311      1.044      1.129
REMARK  7 active torsions:
REMARK  status: ('A' for Active; 'I' for Inactive)
REMARK    1  A    between atoms: C2_2  and  C4_4 
REMARK    2  A    between atoms: C4_4  and  C5_5 
REMARK    3  A    between atoms: C6_7  and  S1_8 
REMARK    4  A    between atoms: C9_15  and  C10_16 
REMARK       I    between atoms: C10_16  and  N3_18 
REMARK    5  A    between atoms: N3_18  and  C11_20 
REMARK    6  A    between atoms: C11_20  and  C12_21 
REMARK    7  A    between atoms: C12_21  and  N4_22 
ROOT
HETATM    1  S1  UNL     1      16.289  11.225  31.353  1.00  0.00     0.034 SA
HETATM    2  C7  UNL     1      17.351  10.358  30.197  1.00  0.00     0.142 C 
HETATM    3  N1  UNL     1      18.022   9.792  29.436  1.00  0.00    -0.184 NA
ENDROOT
BRANCH   1   4
HETATM    4  C6  UNL     1      14.948  11.950  30.701  1.00  0.00     0.203 A 
HETATM    5  O1  UNL     1      14.267  11.407  29.749  1.00  0.00    -0.290 OA
HETATM    6  C5  UNL     1      13.191  12.038  29.261  1.00  0.00     0.075 A 
HETATM    7  C9  UNL     1      12.756  13.259  29.725  1.00  0.00     0.099 A 
HETATM    8  C8  UNL     1      13.523  13.811  30.756  1.00  0.00     0.121 A 
HETATM    9  N2  UNL     1      14.606  13.135  31.220  1.00  0.00    -0.320 N 
HETATM   10  S2  UNL     1      13.159  15.267  31.358  1.00  0.00    -0.059 SA
ATOM     11  H2  UNL     1      15.166  13.536  31.972  1.00  0.00     0.169 HD
BRANCH   6  12
HETATM   12  C4  UNL     1      12.432  11.377  28.159  1.00  0.00     0.070 C 
BRANCH  12  13
HETATM   13  C2  UNL     1      13.318  10.650  27.186  1.00  0.00    -0.017 C 
HETATM   14  C1  UNL     1      12.829   9.234  26.972  1.00  0.00     0.010 C 
HETATM   15  C3  UNL     1      13.224  11.370  25.835  1.00  0.00     0.010 C 
ENDBRANCH  12  13
ENDBRANCH   6  12
BRANCH   7  16
HETATM   16  C10 UNL     1      11.621  13.996  29.190  1.00  0.00     0.257 C 
HETATM   17  O2  UNL     1      11.875  14.776  28.201  1.00  0.00    -0.267 OA
HETATM   18  N3  UNL     1      10.300  13.898  29.678  1.00  0.00    -0.355 N 
ATOM     19  H3  UNL     1      10.068  13.278  30.454  1.00  0.00     0.162 HD
BRANCH  18  20
HETATM   20  C11 UNL     1       9.277  14.714  29.036  1.00  0.00     0.153 C 
BRANCH  20  21
HETATM   21  C12 UNL     1       8.064  13.945  28.674  1.00  0.00     0.291 C 
BRANCH  21  22
HETATM   22  N4  UNL     1       8.442  12.718  28.027  1.00  0.00     0.081 N 
HETATM   23  C13 UNL     1       8.716  12.940  26.628  1.00  0.00     0.309 C 
HETATM   24  C14 UNL     1       7.341  11.780  28.122  1.00  0.00     0.309 C 
ENDBRANCH  21  22
ENDBRANCH  20  21
ENDBRANCH  18  20
ENDBRANCH   7  16
ENDBRANCH   1   4
TORSDOF 7
ENDMDL
MODEL 4
REMARK VINA RESULT: -5.425351715      3.289      5.837
REMARK  7 active torsions:
REMARK  status: ('A' for Active; 'I' for Inactive)
REMARK    1  A    between atoms: C2_2  and  C4_4 
REMARK    2  A    between atoms: C4_4  and  C5_5 
REMARK    3  A    between atoms: C6_7  and  S1_8 
REMARK    4  A    between atoms: C9_15  and  C10_16 
REMARK       I    between atoms: C10_16  and  N3_18 
REMARK    5  A    between atoms: N3_18  and  C11_20 
REMARK    6  A    between atoms: C11_20  and  C12_21 
REMARK    7  A    between atoms: C12_21  and  N4_22 
ROOT
HETATM    1  S1  UNL     1       8.554  11.435  26.434  1.00  0.00     0.034 SA
HETATM    2  C7  UNL     1       8.816   9.690  26.115  1.00  0.00     0.142 C 
HETATM    3  N1  UNL     1       9.008   8.562  25.911  1.00  0.00    -0.184 NA
ENDROOT
BRANCH   1   4
HETATM    4  C6  UNL     1       9.695  12.178  27.378  1.00  0.00     0.203 A 
HETATM    5  O1  UNL     1      10.944  11.855  27.332  1.00  0.00    -0.290 OA
HETATM    6  C5  UNL     1      11.822  12.491  28.119  1.00  0.00     0.075 A 
HETATM    7  C9  UNL     1      11.467  13.493  28.993  1.00  0.00     0.099 A 
HETATM    8  C8  UNL     1      10.105  13.811  29.011  1.00  0.00     0.121 A 
HETATM    9  N2  UNL     1       9.250  13.140  28.196  1.00  0.00    -0.320 N 
HETATM   10  S2  UNL     1       9.539  14.931  30.031  1.00  0.00    -0.059 SA
ATOM     11  H2  UNL     1       8.256  13.371  28.207  1.00  0.00     0.169 HD
BRANCH   6  12
HETATM   12  C4  UNL     1      13.256  12.086  28.037  1.00  0.00     0.070 C 
BRANCH  12  13
HETATM   13  C2  UNL     1      13.536  10.768  28.704  1.00  0.00    -0.017 C 
HETATM   14  C1  UNL     1      14.043   9.756  27.700  1.00  0.00     0.010 C 
HETATM   15  C3  UNL     1      14.655  10.988  29.730  1.00  0.00     0.010 C 
ENDBRANCH  12  13
ENDBRANCH   6  12
BRANCH   7  16
HETATM   16  C10 UNL     1      12.383  14.174  29.895  1.00  0.00     0.257 C 
HETATM   17  O2  UNL     1      12.901  15.263  29.451  1.00  0.00    -0.267 OA
HETATM   18  N3  UNL     1      12.718  13.721  31.190  1.00  0.00    -0.355 N 
ATOM     19  H3  UNL     1      12.312  12.866  31.571  1.00  0.00     0.162 HD
BRANCH  18  20
HETATM   20  C11 UNL     1      13.663  14.517  31.963  1.00  0.00     0.153 C 
BRANCH  20  21
HETATM   21  C12 UNL     1      14.470  13.706  32.904  1.00  0.00     0.291 C 
BRANCH  21  22
HETATM   22  N4  UNL     1      14.081  14.000  34.256  1.00  0.00     0.081 N 
HETATM   23  C13 UNL     1      13.665  15.376  34.381  1.00  0.00     0.309 C 
HETATM   24  C14 UNL     1      15.223  13.800  35.127  1.00  0.00     0.309 C 
ENDBRANCH  21  22
ENDBRANCH  20  21
ENDBRANCH  18  20
ENDBRANCH   7  16
ENDBRANCH   1   4
TORSDOF 7
ENDMDL
MODEL 5
REMARK VINA RESULT: -5.386907638      3.021      6.272
REMARK  7 active torsions:
REMARK  status: ('A' for Active; 'I' for Inactive)
REMARK    1  A    between atoms: C2_2  and  C4_4 
REMARK    2  A    between atoms: C4_4  and  C5_5 
REMARK    3  A    between atoms: C6_7  and  S1_8 
REMARK    4  A    between atoms: C9_15  and  C10_16 
REMARK       I    between atoms: C10_16  and  N3_18 
REMARK    5  A    between atoms: N3_18  and  C11_20 
REMARK    6  A    between atoms: C11_20  and  C12_21 
REMARK    7  A    between atoms: C12_21  and  N4_22 
ROOT
HETATM    1  S1  UNL     1       8.432  11.715  26.589  1.00  0.00     0.034 SA
HETATM    2  C7  UNL     1       6.876  12.608  26.584  1.00  0.00     0.142 C 
HETATM    3  N1  UNL     1       5.873  13.194  26.602  1.00  0.00    -0.184 NA
ENDROOT
BRANCH   1   4
HETATM    4  C6  UNL     1       9.639  12.368  27.519  1.00  0.00     0.203 A 
HETATM    5  O1  UNL     1      10.870  11.996  27.410  1.00  0.00    -0.290 OA
HETATM    6  C5  UNL     1      11.803  12.559  28.188  1.00  0.00     0.075 A 
HETATM    7  C9  UNL     1      11.524  13.535  29.117  1.00  0.00     0.099 A 
HETATM    8  C8  UNL     1      10.179  13.909  29.202  1.00  0.00     0.121 A 
HETATM    9  N2  UNL     1       9.266  13.310  28.393  1.00  0.00    -0.320 N 
HETATM   10  S2  UNL     1       9.701  15.005  30.290  1.00  0.00    -0.059 SA
ATOM     11  H2  UNL     1       8.285  13.582  28.454  1.00  0.00     0.169 HD
BRANCH   6  12
HETATM   12  C4  UNL     1      13.214  12.099  28.032  1.00  0.00     0.070 C 
BRANCH  12  13
HETATM   13  C2  UNL     1      13.467  10.751  28.649  1.00  0.00    -0.017 C 
HETATM   14  C1  UNL     1      13.937   9.763  27.604  1.00  0.00     0.010 C 
HETATM   15  C3  UNL     1      14.601  10.905  29.670  1.00  0.00     0.010 C 
ENDBRANCH  12  13
ENDBRANCH   6  12
BRANCH   7  16
HETATM   16  C10 UNL     1      12.503  14.137  30.010  1.00  0.00     0.257 C 
HETATM   17  O2  UNL     1      13.087  15.195  29.572  1.00  0.00    -0.267 OA
HETATM   18  N3  UNL     1      12.829  13.643  31.292  1.00  0.00    -0.355 N 
ATOM     19  H3  UNL     1      12.371  12.813  31.670  1.00  0.00     0.162 HD
BRANCH  18  20
HETATM   20  C11 UNL     1      13.841  14.360  32.057  1.00  0.00     0.153 C 
BRANCH  20  21
HETATM   21  C12 UNL     1      14.524  13.506  33.057  1.00  0.00     0.291 C 
BRANCH  21  22
HETATM   22  N4  UNL     1      14.163  13.927  34.383  1.00  0.00     0.081 N 
HETATM   23  C13 UNL     1      13.649  15.276  34.370  1.00  0.00     0.309 C 
HETATM   24  C14 UNL     1      15.348  13.910  35.219  1.00  0.00     0.309 C 
ENDBRANCH  21  22
ENDBRANCH  20  21
ENDBRANCH  18  20
ENDBRANCH   7  16
ENDBRANCH   1   4
TORSDOF 7
ENDMDL
