MODEL 1
REMARK VINA RESULT: -5.734998743      0.000      0.000
REMARK  8 active torsions:
REMARK  status: ('A' for Active; 'I' for Inactive)
REMARK    1  A    between atoms: C2_2  and  C4_4 
REMARK    2  A    between atoms: C4_4  and  N1_5 
REMARK    3  A    between atoms: N1_5  and  C5_6 
REMARK    4  A    between atoms: N1_5  and  C10_19 
REMARK    5  A    between atoms: C5_6  and  C6_7 
REMARK    6  A    between atoms: C8_10  and  N2_11 
REMARK    7  A    between atoms: C9_14  and  S2_15 
REMARK    8  A    between atoms: C10_19  and  C11_20 
ROOT
HETATM    1  C5  UNL     1      13.180  11.985  31.128  1.00  0.00     0.120 C 
ENDROOT
BRANCH   1   2
HETATM    2  N1  UNL     1      13.849  11.311  30.125  1.00  0.00    -0.367 N 
BRANCH   2   3
HETATM    3  C4  UNL     1      14.894  10.419  30.557  1.00  0.00     0.131 C 
BRANCH   3   4
HETATM    4  C2  UNL     1      16.292  11.051  30.418  1.00  0.00    -0.004 C 
HETATM    5  C1  UNL     1      17.080  10.152  29.488  1.00  0.00     0.011 C 
HETATM    6  C3  UNL     1      16.979  11.023  31.766  1.00  0.00     0.011 C 
ENDBRANCH   3   4
ENDBRANCH   2   3
BRANCH   2   7
HETATM    7  C10 UNL     1      13.780  11.587  28.779  1.00  0.00     0.068 C 
BRANCH   7   8
HETATM    8  C11 UNL     1      12.970  10.768  27.852  1.00  0.00     0.028 C 
HETATM    9  C12 UNL     1      13.583   9.523  27.311  1.00  0.00     0.036 C 
HETATM   10  C13 UNL     1      12.520   8.856  26.426  1.00  0.00     0.168 C 
HETATM   11  O1  UNL     1      11.284   9.445  26.604  1.00  0.00    -0.391 OA
HETATM   12  C14 UNL     1      11.319  10.727  26.059  1.00  0.00     0.168 C 
HETATM   13  C15 UNL     1      12.446  11.554  26.672  1.00  0.00     0.036 C 
ENDBRANCH   7   8
ENDBRANCH   2   7
ENDBRANCH   1   2
BRANCH   1  14
HETATM   14  C6  UNL     1      13.748  13.217  31.710  1.00  0.00     0.055 A 
HETATM   15  C7  UNL     1      13.731  14.376  30.919  1.00  0.00     0.082 A 
HETATM   16  S1  UNL     1      14.410  15.776  31.612  1.00  0.00    -0.080 SA
HETATM   17  C8  UNL     1      14.999  15.488  33.187  1.00  0.00     0.102 A 
HETATM   18  C9  UNL     1      14.830  14.193  33.629  1.00  0.00     0.119 A 
HETATM   19  N3  UNL     1      14.265  13.203  32.939  1.00  0.00    -0.346 N 
ATOM     20  H3  UNL     1      14.221  12.305  33.421  1.00  0.00     0.167 HD
BRANCH  17  21
HETATM   21  N2  UNL     1      15.565  16.396  33.932  1.00  0.00    -0.391 N 
ATOM     22  H22 UNL     1      15.209  16.625  34.860  1.00  0.00     0.157 HD
ATOM     23  H21 UNL     1      16.385  16.934  33.652  1.00  0.00     0.157 HD
ENDBRANCH  17  21
BRANCH  18  24
HETATM   24  S2  UNL     1      15.384  13.843  35.153  1.00  0.00     0.002 SA
HETATM   25 CL1  UNL     1      14.391  14.695  36.803  1.00  0.00    -0.037 Cl
ENDBRANCH  18  24
ENDBRANCH   1  14
TORSDOF 8
ENDMDL
MODEL 2
REMARK VINA RESULT: -5.441779676      2.235      2.653
REMARK  8 active torsions:
REMARK  status: ('A' for Active; 'I' for Inactive)
REMARK    1  A    between atoms: C2_2  and  C4_4 
REMARK    2  A    between atoms: C4_4  and  N1_5 
REMARK    3  A    between atoms: N1_5  and  C5_6 
REMARK    4  A    between atoms: N1_5  and  C10_19 
REMARK    5  A    between atoms: C5_6  and  C6_7 
REMARK    6  A    between atoms: C8_10  and  N2_11 
REMARK    7  A    between atoms: C9_14  and  S2_15 
REMARK    8  A    between atoms: C10_19  and  C11_20 
ROOT
HETATM    1  C5  UNL     1      13.246  11.965  31.334  1.00  0.00     0.120 C 
ENDROOT
BRANCH   1   2
HETATM    2  N1  UNL     1      13.869  11.360  30.260  1.00  0.00    -0.367 N 
BRANCH   2   3
HETATM    3  C4  UNL     1      14.923  10.435  30.585  1.00  0.00     0.131 C 
BRANCH   3   4
HETATM    4  C2  UNL     1      16.319  11.077  30.461  1.00  0.00    -0.004 C 
HETATM    5  C1  UNL     1      17.113  10.201  29.514  1.00  0.00     0.011 C 
HETATM    6  C3  UNL     1      17.004  11.024  31.809  1.00  0.00     0.011 C 
ENDBRANCH   3   4
ENDBRANCH   2   3
BRANCH   2   7
HETATM    7  C10 UNL     1      13.748  11.731  28.940  1.00  0.00     0.068 C 
BRANCH   7   8
HETATM    8  C11 UNL     1      13.002  10.912  27.961  1.00  0.00     0.028 C 
HETATM    9  C12 UNL     1      13.689   9.723  27.386  1.00  0.00     0.036 C 
HETATM   10  C13 UNL     1      12.681   9.042  26.448  1.00  0.00     0.168 C 
HETATM   11  O1  UNL     1      11.414   9.561  26.619  1.00  0.00    -0.391 OA
HETATM   12  C14 UNL     1      11.396  10.864  26.128  1.00  0.00     0.168 C 
HETATM   13  C15 UNL     1      12.465  11.719  26.802  1.00  0.00     0.036 C 
ENDBRANCH   7   8
ENDBRANCH   2   7
ENDBRANCH   1   2
BRANCH   1  14
HETATM   14  C6  UNL     1      13.399  13.413  31.570  1.00  0.00     0.055 A 
HETATM   15  C7  UNL     1      14.530  13.839  32.283  1.00  0.00     0.082 A 
HETATM   16  S1  UNL     1      14.668  15.515  32.554  1.00  0.00    -0.080 SA
HETATM   17  C8  UNL     1      13.361  16.381  31.883  1.00  0.00     0.102 A 
HETATM   18  C9  UNL     1      12.426  15.593  31.244  1.00  0.00     0.119 A 
HETATM   19  N3  UNL     1      12.477  14.268  31.124  1.00  0.00    -0.346 N 
ATOM     20  H3  UNL     1      11.699  13.845  30.618  1.00  0.00     0.167 HD
BRANCH  17  21
HETATM   21  N2  UNL     1      13.230  17.676  31.953  1.00  0.00    -0.391 N 
ATOM     22  H22 UNL     1      13.807  18.303  31.392  1.00  0.00     0.157 HD
ATOM     23  H21 UNL     1      12.560  18.150  32.558  1.00  0.00     0.157 HD
ENDBRANCH  17  21
BRANCH  18  24
HETATM   24  S2  UNL     1      11.124  16.372  30.572  1.00  0.00     0.002 SA
HETATM   25 CL1  UNL     1       9.322  15.306  30.346  1.00  0.00    -0.037 Cl
ENDBRANCH  18  24
ENDBRANCH   1  14
TORSDOF 8
ENDMDL
MODEL 3
REMARK VINA RESULT: -5.367377310      2.697      3.728
REMARK  8 active torsions:
REMARK  status: ('A' for Active; 'I' for Inactive)
REMARK    1  A    between atoms: C2_2  and  C4_4 
REMARK    2  A    between atoms: C4_4  and  N1_5 
REMARK    3  A    between atoms: N1_5  and  C5_6 
REMARK    4  A    between atoms: N1_5  and  C10_19 
REMARK    5  A    between atoms: C5_6  and  C6_7 
REMARK    6  A    between atoms: C8_10  and  N2_11 
REMARK    7  A    between atoms: C9_14  and  S2_15 
REMARK    8  A    between atoms: C10_19  and  C11_20 
ROOT
HETATM    1  C5  UNL     1      14.855  13.228  32.879  1.00  0.00     0.120 C 
ENDROOT
BRANCH   1   2
HETATM    2  N1  UNL     1      14.178  13.000  31.696  1.00  0.00    -0.367 N 
BRANCH   2   3
HETATM    3  C4  UNL     1      14.184  11.642  31.221  1.00  0.00     0.131 C 
BRANCH   3   4
HETATM    4  C2  UNL     1      15.078  11.464  29.978  1.00  0.00    -0.004 C 
HETATM    5  C1  UNL     1      14.374  10.468  29.080  1.00  0.00     0.011 C 
HETATM    6  C3  UNL     1      16.390  10.842  30.403  1.00  0.00     0.011 C 
ENDBRANCH   3   4
ENDBRANCH   2   3
BRANCH   2   7
HETATM    7  C10 UNL     1      13.721  13.964  30.827  1.00  0.00     0.068 C 
BRANCH   7   8
HETATM    8  C11 UNL     1      12.317  14.000  30.364  1.00  0.00     0.028 C 
HETATM    9  C12 UNL     1      12.041  13.595  28.958  1.00  0.00     0.036 C 
HETATM   10  C13 UNL     1      10.520  13.681  28.765  1.00  0.00     0.168 C 
HETATM   11  O1  UNL     1       9.874  13.842  29.974  1.00  0.00    -0.391 OA
HETATM   12  C14 UNL     1      10.153  15.117  30.462  1.00  0.00     0.168 C 
HETATM   13  C15 UNL     1      11.657  15.343  30.578  1.00  0.00     0.036 C 
ENDBRANCH   7   8
ENDBRANCH   2   7
ENDBRANCH   1   2
BRANCH   1  14
HETATM   14  C6  UNL     1      14.495  14.371  33.740  1.00  0.00     0.055 A 
HETATM   15  C7  UNL     1      15.123  15.599  33.485  1.00  0.00     0.082 A 
HETATM   16  S1  UNL     1      14.699  16.894  34.507  1.00  0.00    -0.080 SA
HETATM   17  C8  UNL     1      13.553  16.432  35.682  1.00  0.00     0.102 A 
HETATM   18  C9  UNL     1      13.167  15.110  35.610  1.00  0.00     0.119 A 
HETATM   19  N3  UNL     1      13.610  14.217  34.726  1.00  0.00    -0.346 N 
ATOM     20  H3  UNL     1      13.217  13.281  34.817  1.00  0.00     0.167 HD
BRANCH  17  21
HETATM   21  N2  UNL     1      13.066  17.238  36.584  1.00  0.00    -0.391 N 
ATOM     22  H22 UNL     1      12.448  18.010  36.333  1.00  0.00     0.157 HD
ATOM     23  H21 UNL     1      13.259  17.161  37.582  1.00  0.00     0.157 HD
ENDBRANCH  17  21
BRANCH  18  24
HETATM   24  S2  UNL     1      12.056  14.592  36.728  1.00  0.00     0.002 SA
HETATM   25 CL1  UNL     1      10.041  15.147  36.472  1.00  0.00    -0.037 Cl
ENDBRANCH  18  24
ENDBRANCH   1  14
TORSDOF 8
ENDMDL
MODEL 4
REMARK VINA RESULT: -5.285420118      2.448      3.193
REMARK  8 active torsions:
REMARK  status: ('A' for Active; 'I' for Inactive)
REMARK    1  A    between atoms: C2_2  and  C4_4 
REMARK    2  A    between atoms: C4_4  and  N1_5 
REMARK    3  A    between atoms: N1_5  and  C5_6 
REMARK    4  A    between atoms: N1_5  and  C10_19 
REMARK    5  A    between atoms: C5_6  and  C6_7 
REMARK    6  A    between atoms: C8_10  and  N2_11 
REMARK    7  A    between atoms: C9_14  and  S2_15 
REMARK    8  A    between atoms: C10_19  and  C11_20 
ROOT
HETATM    1  C5  UNL     1      13.990  14.199  31.507  1.00  0.00     0.120 C 
ENDROOT
BRANCH   1   2
HETATM    2  N1  UNL     1      13.014  13.398  30.947  1.00  0.00    -0.367 N 
BRANCH   2   3
HETATM    3  C4  UNL     1      13.336  11.999  30.837  1.00  0.00     0.131 C 
BRANCH   3   4
HETATM    4  C2  UNL     1      14.563  11.753  29.937  1.00  0.00    -0.004 C 
HETATM    5  C1  UNL     1      14.136  10.740  28.895  1.00  0.00     0.011 C 
HETATM    6  C3  UNL     1      15.659  11.118  30.765  1.00  0.00     0.011 C 
ENDBRANCH   3   4
ENDBRANCH   2   3
BRANCH   2   7
HETATM    7  C10 UNL     1      11.893  13.835  30.279  1.00  0.00     0.068 C 
BRANCH   7   8
HETATM    8  C11 UNL     1      11.510  13.296  28.956  1.00  0.00     0.028 C 
HETATM    9  C12 UNL     1      12.251  13.795  27.764  1.00  0.00     0.036 C 
HETATM   10  C13 UNL     1      11.686  13.045  26.549  1.00  0.00     0.168 C 
HETATM   11  O1  UNL     1      10.886  11.991  26.942  1.00  0.00    -0.391 OA
HETATM   12  C14 UNL     1       9.719  12.503  27.506  1.00  0.00     0.168 C 
HETATM   13  C15 UNL     1      10.036  13.449  28.660  1.00  0.00     0.036 C 
ENDBRANCH   7   8
ENDBRANCH   2   7
ENDBRANCH   1   2
BRANCH   1  14
HETATM   14  C6  UNL     1      14.077  14.362  32.971  1.00  0.00     0.055 A 
HETATM   15  C7  UNL     1      15.111  13.689  33.639  1.00  0.00     0.082 A 
HETATM   16  S1  UNL     1      15.172  13.884  35.330  1.00  0.00    -0.080 SA
HETATM   17  C8  UNL     1      13.923  14.894  35.904  1.00  0.00     0.102 A 
HETATM   18  C9  UNL     1      13.085  15.375  34.919  1.00  0.00     0.119 A 
HETATM   19  N3  UNL     1      13.186  15.116  33.617  1.00  0.00    -0.346 N 
ATOM     20  H3  UNL     1      12.480  15.558  33.028  1.00  0.00     0.167 HD
BRANCH  17  21
HETATM   21  N2  UNL     1      13.749  15.199  37.159  1.00  0.00    -0.391 N 
ATOM     22  H22 UNL     1      12.889  14.963  37.653  1.00  0.00     0.157 HD
ATOM     23  H21 UNL     1      14.442  15.686  37.729  1.00  0.00     0.157 HD
ENDBRANCH  17  21
BRANCH  18  24
HETATM   24  S2  UNL     1      11.844  16.361  35.409  1.00  0.00     0.002 SA
HETATM   25 CL1  UNL     1      10.063  15.470  36.093  1.00  0.00    -0.037 Cl
ENDBRANCH  18  24
ENDBRANCH   1  14
TORSDOF 8
ENDMDL
MODEL 5
REMARK VINA RESULT: -5.275431896      2.293      2.971
REMARK  8 active torsions:
REMARK  status: ('A' for Active; 'I' for Inactive)
REMARK    1  A    between atoms: C2_2  and  C4_4 
REMARK    2  A    between atoms: C4_4  and  N1_5 
REMARK    3  A    between atoms: N1_5  and  C5_6 
REMARK    4  A    between atoms: N1_5  and  C10_19 
REMARK    5  A    between atoms: C5_6  and  C6_7 
REMARK    6  A    between atoms: C8_10  and  N2_11 
REMARK    7  A    between atoms: C9_14  and  S2_15 
REMARK    8  A    between atoms: C10_19  and  C11_20 
ROOT
HETATM    1  C5  UNL     1      13.487  11.802  31.229  1.00  0.00     0.120 C 
ENDROOT
BRANCH   1   2
HETATM    2  N1  UNL     1      14.146  11.517  30.049  1.00  0.00    -0.367 N 
BRANCH   2   3
HETATM    3  C4  UNL     1      15.571  11.725  30.059  1.00  0.00     0.131 C 
BRANCH   3   4
HETATM    4  C2  UNL     1      16.337  10.484  30.557  1.00  0.00    -0.004 C 
HETATM    5  C1  UNL     1      17.107  10.919  31.786  1.00  0.00     0.011 C 
HETATM    6  C3  UNL     1      17.350  10.080  29.507  1.00  0.00     0.011 C 
ENDBRANCH   3   4
ENDBRANCH   2   3
BRANCH   2   7
HETATM    7  C10 UNL     1      13.556  11.296  28.826  1.00  0.00     0.068 C 
BRANCH   7   8
HETATM    8  C11 UNL     1      12.304  11.973  28.426  1.00  0.00     0.028 C 
HETATM    9  C12 UNL     1      11.499  11.354  27.337  1.00  0.00     0.036 C 
HETATM   10  C13 UNL     1      10.248  12.229  27.162  1.00  0.00     0.168 C 
HETATM   11  O1  UNL     1      10.123  13.130  28.199  1.00  0.00    -0.391 OA
HETATM   12  C14 UNL     1      11.133  14.084  28.086  1.00  0.00     0.168 C 
HETATM   13  C15 UNL     1      12.509  13.425  28.058  1.00  0.00     0.036 C 
ENDBRANCH   7   8
ENDBRANCH   2   7
ENDBRANCH   1   2
BRANCH   1  14
HETATM   14  C6  UNL     1      13.644  13.119  31.875  1.00  0.00     0.055 A 
HETATM   15  C7  UNL     1      14.492  13.198  32.991  1.00  0.00     0.082 A 
HETATM   16  S1  UNL     1      14.638  14.728  33.724  1.00  0.00    -0.080 SA
HETATM   17  C8  UNL     1      13.694  15.909  32.934  1.00  0.00     0.102 A 
HETATM   18  C9  UNL     1      12.981  15.436  31.852  1.00  0.00     0.119 A 
HETATM   19  N3  UNL     1      12.985  14.180  31.407  1.00  0.00    -0.346 N 
ATOM     20  H3  UNL     1      12.399  14.004  30.592  1.00  0.00     0.167 HD
BRANCH  17  21
HETATM   21  N2  UNL     1      13.630  17.158  33.300  1.00  0.00    -0.391 N 
ATOM     22  H22 UNL     1      14.455  17.663  33.625  1.00  0.00     0.157 HD
ATOM     23  H21 UNL     1      12.775  17.714  33.290  1.00  0.00     0.157 HD
ENDBRANCH  17  21
BRANCH  18  24
HETATM   24  S2  UNL     1      12.038  16.531  31.039  1.00  0.00     0.002 SA
HETATM   25 CL1  UNL     1      10.268  17.210  31.959  1.00  0.00    -0.037 Cl
ENDBRANCH  18  24
ENDBRANCH   1  14
TORSDOF 8
ENDMDL
