MODEL 1
REMARK VINA RESULT: -6.937419776      0.000      0.000
REMARK  7 active torsions:
REMARK  status: ('A' for Active; 'I' for Inactive)
REMARK    1  A    between atoms: C3_3  and  C4_5 
REMARK    2  A    between atoms: C7_8  and  N1_9 
REMARK    3  A    between atoms: C11_16  and  N3_17 
REMARK    4  A    between atoms: N3_17  and  C12_19 
REMARK    5  A    between atoms: C12_19  and  C13_20 
REMARK    6  A    between atoms: C13_20  and  N4_21 
REMARK    7  A    between atoms: C18_26  and  N5_27 
ROOT
HETATM    1  C4  UNL     1       2.482  22.155   2.898  1.00  0.00     0.073 C 
HETATM    2  C5  UNL     1       3.092  20.786   3.059  1.00  0.00    -0.018 A 
HETATM    3  C6  UNL     1       2.220  19.722   3.149  1.00  0.00     0.061 A 
HETATM    4  C7  UNL     1       2.756  18.449   3.316  1.00  0.00     0.115 A 
HETATM    5  N2  UNL     1       4.080  18.292   3.384  1.00  0.00    -0.341 N 
ATOM      6  H2  UNL     1       4.452  17.351   3.506  1.00  0.00     0.167 HD
HETATM    7  C9  UNL     1       4.948  19.320   3.298  1.00  0.00     0.046 A 
HETATM    8  C10 UNL     1       6.310  19.117   3.373  1.00  0.00     0.059 A 
HETATM    9  C11 UNL     1       7.221  20.143   3.288  1.00  0.00     0.030 A 
HETATM   10  C22 UNL     1       6.713  21.401   3.121  1.00  0.00     0.030 A 
HETATM   11  C23 UNL     1       5.349  21.658   3.041  1.00  0.00     0.016 A 
HETATM   12  C24 UNL     1       4.457  20.612   3.130  1.00  0.00    -0.001 A 
HETATM   13  C25 UNL     1       0.778  19.821   3.077  1.00  0.00     0.164 C 
HETATM   14  O1  UNL     1       0.019  18.823   3.099  1.00  0.00    -0.292 OA
HETATM   15  C26 UNL     1       0.189  21.179   2.975  1.00  0.00     0.093 C 
HETATM   16  C27 UNL     1       1.154  22.139   3.581  1.00  0.00    -0.028 C 
HETATM   17  C28 UNL     1       1.397  21.746   5.044  1.00  0.00     0.016 C 
HETATM   18  C29 UNL     1       0.506  23.507   3.629  1.00  0.00     0.016 C 
ENDROOT
BRANCH   9  19
HETATM   19  N3  UNL     1       8.625  19.857   3.396  1.00  0.00    -0.388 N 
ATOM     20  H3  UNL     1       9.132  20.202   4.211  1.00  0.00     0.159 HD
BRANCH  19  21
HETATM   21  C12 UNL     1       9.335  19.119   2.421  1.00  0.00     0.150 C 
BRANCH  21  22
HETATM   22  C13 UNL     1       9.273  19.536   1.007  1.00  0.00     0.292 C 
BRANCH  22  23
HETATM   23  N4  UNL     1       9.628  18.651  -0.020  1.00  0.00     0.092 N 
HETATM   24  C14 UNL     1       9.899  17.307   0.348  1.00  0.00     0.272 C 
HETATM   25  C15 UNL     1      11.001  16.684  -0.508  1.00  0.00     0.030 C 
HETATM   26  C16 UNL     1      11.426  17.596  -1.628  1.00  0.00     0.004 C 
HETATM   27  C17 UNL     1      10.389  17.669  -2.725  1.00  0.00     0.037 C 
HETATM   28  C18 UNL     1       9.569  18.916  -2.479  1.00  0.00     0.250 C 
HETATM   29  C21 UNL     1       8.801  18.741  -1.206  1.00  0.00     0.308 C 
BRANCH  28  30
HETATM   30  N5  UNL     1      10.380  20.094  -2.524  1.00  0.00     0.086 N 
HETATM   31  C19 UNL     1       9.647  21.259  -2.129  1.00  0.00     0.310 C 
HETATM   32  C20 UNL     1      10.884  20.280  -3.865  1.00  0.00     0.310 C 
ENDBRANCH  28  30
ENDBRANCH  22  23
ENDBRANCH  21  22
ENDBRANCH  19  21
ENDBRANCH   9  19
BRANCH   4  33
HETATM   33  N1  UNL     1       1.991  17.431   3.405  1.00  0.00    -0.380 N 
HETATM   34  C8  UNL     1       2.413  16.177   2.827  1.00  0.00     0.147 C 
ATOM     35  H1  UNL     1       1.091  17.502   3.880  1.00  0.00     0.160 HD
ENDBRANCH   4  33
BRANCH   1  36
HETATM   36  C3  UNL     1       2.451  22.450   1.447  1.00  0.00     0.017 C 
HETATM   37  C2  UNL     1       2.523  23.660   0.910  1.00  0.00    -0.011 C 
HETATM   38  C1  UNL     1       2.651  24.940   1.621  1.00  0.00     0.037 C 
HETATM   39 CL1  UNL     1       2.298  21.099   0.280  1.00  0.00    -0.088 Cl
ENDBRANCH   1  36
TORSDOF 7
ENDMDL
MODEL 2
REMARK VINA RESULT: -6.879524112      4.840      8.078
REMARK  7 active torsions:
REMARK  status: ('A' for Active; 'I' for Inactive)
REMARK    1  A    between atoms: C3_3  and  C4_5 
REMARK    2  A    between atoms: C7_8  and  N1_9 
REMARK    3  A    between atoms: C11_16  and  N3_17 
REMARK    4  A    between atoms: N3_17  and  C12_19 
REMARK    5  A    between atoms: C12_19  and  C13_20 
REMARK    6  A    between atoms: C13_20  and  N4_21 
REMARK    7  A    between atoms: C18_26  and  N5_27 
ROOT
HETATM    1  C4  UNL     1      -0.486  21.342   2.672  1.00  0.00     0.073 C 
HETATM    2  C5  UNL     1       0.583  21.562   1.632  1.00  0.00    -0.018 A 
HETATM    3  C6  UNL     1       1.876  21.708   2.088  1.00  0.00     0.061 A 
HETATM    4  C7  UNL     1       2.879  21.929   1.151  1.00  0.00     0.115 A 
HETATM    5  N2  UNL     1       2.571  21.993  -0.147  1.00  0.00    -0.341 N 
ATOM      6  H2  UNL     1       3.321  22.157  -0.818  1.00  0.00     0.167 HD
HETATM    7  C9  UNL     1       1.312  21.852  -0.611  1.00  0.00     0.046 A 
HETATM    8  C10 UNL     1       1.034  21.925  -1.960  1.00  0.00     0.059 A 
HETATM    9  C11 UNL     1      -0.237  21.785  -2.465  1.00  0.00     0.030 A 
HETATM   10  C22 UNL     1      -1.236  21.564  -1.559  1.00  0.00     0.030 A 
HETATM   11  C23 UNL     1      -1.006  21.484  -0.191  1.00  0.00     0.016 A 
HETATM   12  C24 UNL     1       0.276  21.629   0.290  1.00  0.00    -0.001 A 
HETATM   13  C25 UNL     1       2.279  21.644   3.476  1.00  0.00     0.164 C 
HETATM   14  O1  UNL     1       3.475  21.719   3.848  1.00  0.00    -0.292 OA
HETATM   15  C26 UNL     1       1.211  21.484   4.493  1.00  0.00     0.093 C 
HETATM   16  C27 UNL     1      -0.048  22.037   3.920  1.00  0.00    -0.028 C 
HETATM   17  C28 UNL     1       0.169  23.514   3.568  1.00  0.00     0.016 C 
HETATM   18  C29 UNL     1      -1.112  22.026   4.998  1.00  0.00     0.016 C 
ENDROOT
BRANCH   9  19
HETATM   19  N3  UNL     1      -0.454  21.894  -3.882  1.00  0.00    -0.388 N 
ATOM     20  H3  UNL     1      -1.317  22.327  -4.212  1.00  0.00     0.159 HD
BRANCH  19  21
HETATM   21  C12 UNL     1       0.476  21.427  -4.839  1.00  0.00     0.150 C 
BRANCH  21  22
HETATM   22  C13 UNL     1       0.557  19.981  -5.128  1.00  0.00     0.292 C 
BRANCH  22  23
HETATM   23  N4  UNL     1      -0.332  19.079  -4.529  1.00  0.00     0.092 N 
HETATM   24  C14 UNL     1      -1.612  18.938  -5.125  1.00  0.00     0.272 C 
HETATM   25  C15 UNL     1      -2.708  18.685  -4.091  1.00  0.00     0.030 C 
HETATM   26  C16 UNL     1      -2.142  18.498  -2.707  1.00  0.00     0.004 C 
HETATM   27  C17 UNL     1      -1.457  17.160  -2.551  1.00  0.00     0.037 C 
HETATM   28  C18 UNL     1       0.024  17.393  -2.753  1.00  0.00     0.250 C 
HETATM   29  C21 UNL     1       0.253  17.802  -4.175  1.00  0.00     0.308 C 
BRANCH  28  30
HETATM   30  N5  UNL     1       0.549  18.304  -1.783  1.00  0.00     0.086 N 
HETATM   31  C19 UNL     1       1.968  18.447  -1.903  1.00  0.00     0.310 C 
HETATM   32  C20 UNL     1       0.228  17.830  -0.457  1.00  0.00     0.310 C 
ENDBRANCH  28  30
ENDBRANCH  22  23
ENDBRANCH  21  22
ENDBRANCH  19  21
ENDBRANCH   9  19
BRANCH   4  33
HETATM   33  N1  UNL     1       4.092  22.072   1.521  1.00  0.00    -0.380 N 
HETATM   34  C8  UNL     1       5.099  21.174   1.008  1.00  0.00     0.147 C 
ATOM     35  H1  UNL     1       4.348  22.814   2.174  1.00  0.00     0.160 HD
ENDBRANCH   4  33
BRANCH   1  36
HETATM   36  C3  UNL     1      -0.684  19.879   2.791  1.00  0.00     0.017 C 
HETATM   37  C2  UNL     1      -1.858  19.263   2.781  1.00  0.00    -0.011 C 
HETATM   38  C1  UNL     1      -3.185  19.881   2.647  1.00  0.00     0.037 C 
HETATM   39 CL1  UNL     1       0.743  18.812   2.973  1.00  0.00    -0.088 Cl
ENDBRANCH   1  36
TORSDOF 7
ENDMDL
MODEL 3
REMARK VINA RESULT: -6.784683373      5.664      7.952
REMARK  7 active torsions:
REMARK  status: ('A' for Active; 'I' for Inactive)
REMARK    1  A    between atoms: C3_3  and  C4_5 
REMARK    2  A    between atoms: C7_8  and  N1_9 
REMARK    3  A    between atoms: C11_16  and  N3_17 
REMARK    4  A    between atoms: N3_17  and  C12_19 
REMARK    5  A    between atoms: C12_19  and  C13_20 
REMARK    6  A    between atoms: C13_20  and  N4_21 
REMARK    7  A    between atoms: C18_26  and  N5_27 
ROOT
HETATM    1  C4  UNL     1       1.302  21.803   2.397  1.00  0.00     0.073 C 
HETATM    2  C5  UNL     1       0.064  21.347   1.668  1.00  0.00    -0.018 A 
HETATM    3  C6  UNL     1      -0.933  20.777   2.430  1.00  0.00     0.061 A 
HETATM    4  C7  UNL     1      -2.079  20.331   1.779  1.00  0.00     0.115 A 
HETATM    5  N2  UNL     1      -2.182  20.464   0.454  1.00  0.00    -0.341 N 
ATOM      6  H2  UNL     1      -3.030  20.131  -0.003  1.00  0.00     0.167 HD
HETATM    7  C9  UNL     1      -1.217  21.019  -0.306  1.00  0.00     0.046 A 
HETATM    8  C10 UNL     1      -1.361  21.138  -1.673  1.00  0.00     0.059 A 
HETATM    9  C11 UNL     1      -0.397  21.699  -2.476  1.00  0.00     0.030 A 
HETATM   10  C22 UNL     1       0.735  22.145  -1.854  1.00  0.00     0.030 A 
HETATM   11  C23 UNL     1       0.928  22.046  -0.481  1.00  0.00     0.016 A 
HETATM   12  C24 UNL     1      -0.053  21.479   0.301  1.00  0.00    -0.001 A 
HETATM   13  C25 UNL     1      -0.888  20.608   3.866  1.00  0.00     0.164 C 
HETATM   14  O1  UNL     1      -1.843  20.143   4.533  1.00  0.00    -0.292 OA
HETATM   15  C26 UNL     1       0.358  21.010   4.564  1.00  0.00     0.093 C 
HETATM   16  C27 UNL     1       1.477  20.915   3.586  1.00  0.00    -0.028 C 
HETATM   17  C28 UNL     1       1.568  19.473   3.069  1.00  0.00     0.016 C 
HETATM   18  C29 UNL     1       2.778  21.168   4.318  1.00  0.00     0.016 C 
ENDROOT
BRANCH   9  19
HETATM   19  N3  UNL     1      -0.609  21.770  -3.896  1.00  0.00    -0.388 N 
ATOM     20  H3  UNL     1      -1.508  22.107  -4.239  1.00  0.00     0.159 HD
BRANCH  19  21
HETATM   21  C12 UNL     1       0.375  21.392  -4.839  1.00  0.00     0.150 C 
BRANCH  21  22
HETATM   22  C13 UNL     1       0.552  19.964  -5.169  1.00  0.00     0.292 C 
BRANCH  22  23
HETATM   23  N4  UNL     1      -0.252  18.984  -4.574  1.00  0.00     0.092 N 
HETATM   24  C14 UNL     1      -1.512  18.726  -5.174  1.00  0.00     0.272 C 
HETATM   25  C15 UNL     1      -2.583  18.373  -4.143  1.00  0.00     0.030 C 
HETATM   26  C16 UNL     1      -2.006  18.238  -2.758  1.00  0.00     0.004 C 
HETATM   27  C17 UNL     1      -1.202  16.968  -2.600  1.00  0.00     0.037 C 
HETATM   28  C18 UNL     1       0.252  17.336  -2.798  1.00  0.00     0.250 C 
HETATM   29  C21 UNL     1       0.447  17.765  -4.218  1.00  0.00     0.308 C 
BRANCH  28  30
HETATM   30  N5  UNL     1       0.689  18.290  -1.825  1.00  0.00     0.086 N 
HETATM   31  C19 UNL     1       2.060  18.652  -2.016  1.00  0.00     0.310 C 
HETATM   32  C20 UNL     1       0.521  17.738  -0.501  1.00  0.00     0.310 C 
ENDBRANCH  28  30
ENDBRANCH  22  23
ENDBRANCH  21  22
ENDBRANCH  19  21
ENDBRANCH   9  19
BRANCH   4  33
HETATM   33  N1  UNL     1      -3.032  19.796   2.439  1.00  0.00    -0.380 N 
HETATM   34  C8  UNL     1      -4.395  20.010   2.012  1.00  0.00     0.147 C 
ATOM     35  H1  UNL     1      -2.832  19.222   3.258  1.00  0.00     0.160 HD
ENDBRANCH   4  33
BRANCH   1  36
HETATM   36  C3  UNL     1       1.126  23.243   2.696  1.00  0.00     0.017 C 
HETATM   37  C2  UNL     1       1.862  24.225   2.193  1.00  0.00    -0.011 C 
HETATM   38  C1  UNL     1       2.981  24.101   1.248  1.00  0.00     0.037 C 
HETATM   39 CL1  UNL     1      -0.166  23.752   3.829  1.00  0.00    -0.088 Cl
ENDBRANCH   1  36
TORSDOF 7
ENDMDL
MODEL 4
REMARK VINA RESULT: -6.678529056      1.287      2.021
REMARK  7 active torsions:
REMARK  status: ('A' for Active; 'I' for Inactive)
REMARK    1  A    between atoms: C3_3  and  C4_5 
REMARK    2  A    between atoms: C7_8  and  N1_9 
REMARK    3  A    between atoms: C11_16  and  N3_17 
REMARK    4  A    between atoms: N3_17  and  C12_19 
REMARK    5  A    between atoms: C12_19  and  C13_20 
REMARK    6  A    between atoms: C13_20  and  N4_21 
REMARK    7  A    between atoms: C18_26  and  N5_27 
ROOT
HETATM    1  C4  UNL     1       1.816  22.503   3.194  1.00  0.00     0.073 C 
HETATM    2  C5  UNL     1       2.300  21.081   3.313  1.00  0.00    -0.018 A 
HETATM    3  C6  UNL     1       1.360  20.127   3.640  1.00  0.00     0.061 A 
HETATM    4  C7  UNL     1       1.784  18.809   3.772  1.00  0.00     0.115 A 
HETATM    5  N2  UNL     1       3.070  18.505   3.583  1.00  0.00    -0.341 N 
ATOM      6  H2  UNL     1       3.361  17.533   3.686  1.00  0.00     0.167 HD
HETATM    7  C9  UNL     1       4.004  19.424   3.263  1.00  0.00     0.046 A 
HETATM    8  C10 UNL     1       5.324  19.071   3.077  1.00  0.00     0.059 A 
HETATM    9  C11 UNL     1       6.299  19.983   2.749  1.00  0.00     0.030 A 
HETATM   10  C22 UNL     1       5.900  21.282   2.612  1.00  0.00     0.030 A 
HETATM   11  C23 UNL     1       4.583  21.689   2.791  1.00  0.00     0.016 A 
HETATM   12  C24 UNL     1       3.626  20.756   3.120  1.00  0.00    -0.001 A 
HETATM   13  C25 UNL     1      -0.047  20.387   3.852  1.00  0.00     0.164 C 
HETATM   14  O1  UNL     1      -0.885  19.483   4.085  1.00  0.00    -0.292 OA
HETATM   15  C26 UNL     1      -0.501  21.798   3.787  1.00  0.00     0.093 C 
HETATM   16  C27 UNL     1       0.661  22.664   4.129  1.00  0.00    -0.028 C 
HETATM   17  C28 UNL     1       1.158  22.303   5.535  1.00  0.00     0.016 C 
HETATM   18  C29 UNL     1       0.182  24.098   4.222  1.00  0.00     0.016 C 
ENDROOT
BRANCH   9  19
HETATM   19  N3  UNL     1       7.658  19.543   2.591  1.00  0.00    -0.388 N 
ATOM     20  H3  UNL     1       8.319  19.719   3.348  1.00  0.00     0.159 HD
BRANCH  19  21
HETATM   21  C12 UNL     1       8.119  18.878   1.432  1.00  0.00     0.150 C 
BRANCH  21  22
HETATM   22  C13 UNL     1       8.093  19.580   0.133  1.00  0.00     0.292 C 
BRANCH  22  23
HETATM   23  N4  UNL     1       9.201  19.546  -0.724  1.00  0.00     0.092 N 
HETATM   24  C14 UNL     1       9.815  20.785  -1.039  1.00  0.00     0.272 C 
HETATM   25  C15 UNL     1      10.355  20.817  -2.468  1.00  0.00     0.030 C 
HETATM   26  C16 UNL     1      10.237  19.476  -3.143  1.00  0.00     0.004 C 
HETATM   27  C17 UNL     1      11.243  18.483  -2.610  1.00  0.00     0.037 C 
HETATM   28  C18 UNL     1      10.532  17.641  -1.574  1.00  0.00     0.250 C 
HETATM   29  C21 UNL     1      10.170  18.514  -0.414  1.00  0.00     0.308 C 
BRANCH  28  30
HETATM   30  N5  UNL     1       9.429  16.929  -2.145  1.00  0.00     0.086 N 
HETATM   31  C19 UNL     1       8.731  16.156  -1.163  1.00  0.00     0.310 C 
HETATM   32  C20 UNL     1       9.911  16.053  -3.188  1.00  0.00     0.310 C 
ENDBRANCH  28  30
ENDBRANCH  22  23
ENDBRANCH  21  22
ENDBRANCH  19  21
ENDBRANCH   9  19
BRANCH   4  33
HETATM   33  N1  UNL     1       0.953  17.888   4.074  1.00  0.00    -0.380 N 
HETATM   34  C8  UNL     1       1.328  16.888   5.045  1.00  0.00     0.147 C 
ATOM     35  H1  UNL     1       0.033  17.860   3.634  1.00  0.00     0.160 HD
ENDBRANCH   4  33
BRANCH   1  36
HETATM   36  C3  UNL     1       1.518  22.744   1.763  1.00  0.00     0.017 C 
HETATM   37  C2  UNL     1       1.862  23.828   1.082  1.00  0.00    -0.011 C 
HETATM   38  C1  UNL     1       2.601  24.995   1.584  1.00  0.00     0.037 C 
HETATM   39 CL1  UNL     1       0.614  21.507   0.835  1.00  0.00    -0.088 Cl
ENDBRANCH   1  36
TORSDOF 7
ENDMDL
MODEL 5
REMARK VINA RESULT: -6.669724321      3.898      8.164
REMARK  7 active torsions:
REMARK  status: ('A' for Active; 'I' for Inactive)
REMARK    1  A    between atoms: C3_3  and  C4_5 
REMARK    2  A    between atoms: C7_8  and  N1_9 
REMARK    3  A    between atoms: C11_16  and  N3_17 
REMARK    4  A    between atoms: N3_17  and  C12_19 
REMARK    5  A    between atoms: C12_19  and  C13_20 
REMARK    6  A    between atoms: C13_20  and  N4_21 
REMARK    7  A    between atoms: C18_26  and  N5_27 
ROOT
HETATM    1  C4  UNL     1      10.562  18.087  -1.913  1.00  0.00     0.073 C 
HETATM    2  C5  UNL     1       9.357  17.540  -1.192  1.00  0.00    -0.018 A 
HETATM    3  C6  UNL     1       8.187  17.450  -1.913  1.00  0.00     0.061 A 
HETATM    4  C7  UNL     1       7.055  16.964  -1.266  1.00  0.00     0.115 A 
HETATM    5  N2  UNL     1       7.130  16.603   0.017  1.00  0.00    -0.341 N 
ATOM      6  H2  UNL     1       6.289  16.250   0.473  1.00  0.00     0.167 HD
HETATM    7  C9  UNL     1       8.267  16.684   0.739  1.00  0.00     0.046 A 
HETATM    8  C10 UNL     1       8.304  16.302   2.063  1.00  0.00     0.059 A 
HETATM    9  C11 UNL     1       9.446  16.371   2.826  1.00  0.00     0.030 A 
HETATM   10  C22 UNL     1      10.568  16.844   2.206  1.00  0.00     0.030 A 
HETATM   11  C23 UNL     1      10.581  17.243   0.875  1.00  0.00     0.016 A 
HETATM   12  C24 UNL     1       9.424  17.164   0.133  1.00  0.00    -0.001 A 
HETATM   13  C25 UNL     1       8.038  17.817  -3.304  1.00  0.00     0.164 C 
HETATM   14  O1  UNL     1       6.971  17.661  -3.946  1.00  0.00    -0.292 OA
HETATM   15  C26 UNL     1       9.216  18.406  -3.987  1.00  0.00     0.093 C 
HETATM   16  C27 UNL     1      10.069  19.046  -2.947  1.00  0.00    -0.028 C 
HETATM   17  C28 UNL     1       9.251  20.121  -2.220  1.00  0.00     0.016 C 
HETATM   18  C29 UNL     1      11.194  19.788  -3.638  1.00  0.00     0.016 C 
ENDROOT
BRANCH   9  19
HETATM   19  N3  UNL     1       9.403  15.974   4.207  1.00  0.00    -0.388 N 
ATOM     20  H3  UNL     1      10.212  15.495   4.602  1.00  0.00     0.159 HD
BRANCH  19  21
HETATM   21  C12 UNL     1       8.288  16.219   5.041  1.00  0.00     0.150 C 
BRANCH  21  22
HETATM   22  C13 UNL     1       7.934  17.610   5.390  1.00  0.00     0.292 C 
BRANCH  22  23
HETATM   23  N4  UNL     1       6.831  18.240   4.799  1.00  0.00     0.092 N 
HETATM   24  C14 UNL     1       5.543  17.817   5.217  1.00  0.00     0.272 C 
HETATM   25  C15 UNL     1       4.523  17.857   4.079  1.00  0.00     0.030 C 
HETATM   26  C16 UNL     1       5.098  18.476   2.832  1.00  0.00     0.004 C 
HETATM   27  C17 UNL     1       5.256  19.973   2.963  1.00  0.00     0.037 C 
HETATM   28  C18 UNL     1       6.695  20.237   3.344  1.00  0.00     0.250 C 
HETATM   29  C21 UNL     1       6.936  19.682   4.713  1.00  0.00     0.308 C 
BRANCH  28  30
HETATM   30  N5  UNL     1       7.599  19.757   2.344  1.00  0.00     0.086 N 
HETATM   31  C19 UNL     1       8.945  20.169   2.603  1.00  0.00     0.310 C 
HETATM   32  C20 UNL     1       7.189  20.251   1.050  1.00  0.00     0.310 C 
ENDBRANCH  28  30
ENDBRANCH  22  23
ENDBRANCH  21  22
ENDBRANCH  19  21
ENDBRANCH   9  19
BRANCH   4  33
HETATM   33  N1  UNL     1       5.946  16.861  -1.890  1.00  0.00    -0.380 N 
HETATM   34  C8  UNL     1       4.721  16.730  -1.136  1.00  0.00     0.147 C 
ATOM     35  H1  UNL     1       5.925  16.872  -2.910  1.00  0.00     0.160 HD
ENDBRANCH   4  33
BRANCH   1  36
HETATM   36  C3  UNL     1      11.326  16.928  -2.429  1.00  0.00     0.017 C 
HETATM   37  C2  UNL     1      12.644  16.798  -2.382  1.00  0.00    -0.011 C 
HETATM   38  C1  UNL     1      13.611  17.749  -1.817  1.00  0.00     0.037 C 
HETATM   39 CL1  UNL     1      10.445  15.568  -3.195  1.00  0.00    -0.088 Cl
ENDBRANCH   1  36
TORSDOF 7
ENDMDL
