MODEL 1
REMARK VINA RESULT: -6.525119586      0.000      0.000
REMARK  7 active torsions:
REMARK  status: ('A' for Active; 'I' for Inactive)
REMARK    1  A    between atoms: N1_2  and  C2_4 
REMARK    2  A    between atoms: C3_5  and  C4_6 
REMARK    3  A    between atoms: N2_10  and  S1_11 
REMARK    4  A    between atoms: S1_11  and  C8_14 
REMARK    5  A    between atoms: C13_21  and  O3_22 
REMARK    6  A    between atoms: O3_22  and  C14_23 
REMARK    7  A    between atoms: C14_23  and  C17_26 
ROOT
HETATM    1  S1  UNL     1       2.792  19.895   2.751  1.00  0.00     0.277 S 
HETATM    2  O1  UNL     1       2.491  18.384   2.723  1.00  0.00    -0.199 OA
HETATM    3  O2  UNL     1       2.299  20.376   4.124  1.00  0.00    -0.199 OA
ENDROOT
BRANCH   1   4
HETATM    4  N2  UNL     1       1.991  20.667   1.537  1.00  0.00    -0.295 N 
HETATM    5  C4  UNL     1       2.581  21.032   0.290  1.00  0.00     0.148 C 
HETATM    6  C5  UNL     1       2.666  22.569   0.568  1.00  0.00     0.034 C 
HETATM    7  C6  UNL     1       1.511  22.920   1.425  1.00  0.00     0.023 C 
HETATM    8  C7  UNL     1       1.055  21.620   1.993  1.00  0.00     0.136 C 
BRANCH   5   9
HETATM    9  C3  UNL     1       1.510  20.842  -0.757  1.00  0.00     0.061 A 
HETATM   10  C2  UNL     1       0.850  19.676  -0.889  1.00  0.00     0.076 A 
HETATM   11  C24 UNL     1      -0.228  19.609  -1.803  1.00  0.00     0.085 A 
HETATM   12  C23 UNL     1      -0.559  20.718  -2.521  1.00  0.00     0.073 A 
HETATM   13 CL2  UNL     1      -1.075  18.080  -1.943  1.00  0.00    -0.080 Cl
HETATM   14  C22 UNL     1       0.134  21.919  -2.380  1.00  0.00     0.114 A 
HETATM   15 CL1  UNL     1      -1.888  20.657  -3.653  1.00  0.00    -0.081 Cl
HETATM   16  N5  UNL     1       1.139  21.932  -1.506  1.00  0.00    -0.364 N 
ATOM     17  H5  UNL     1       1.662  22.799  -1.386  1.00  0.00     0.165 HD
BRANCH  10  18
HETATM   18  N1  UNL     1       1.214  18.485  -0.240  1.00  0.00    -0.391 N 
HETATM   19  C1  UNL     1       2.229  17.600  -0.722  1.00  0.00     0.146 C 
ATOM     20  H1  UNL     1       0.728  18.238   0.623  1.00  0.00     0.159 HD
ENDBRANCH  10  18
ENDBRANCH   5   9
ENDBRANCH   1   4
BRANCH   1  21
HETATM   21  C8  UNL     1       4.530  20.002   2.720  1.00  0.00     0.150 A 
HETATM   22  C9  UNL     1       5.315  20.198   3.869  1.00  0.00     0.057 A 
HETATM   23  C10 UNL     1       6.644  20.258   3.537  1.00  0.00    -0.001 A 
HETATM   24  C11 UNL     1       7.811  20.416   4.269  1.00  0.00     0.031 A 
HETATM   25  C21 UNL     1       6.683  20.098   2.157  1.00  0.00     0.095 A 
HETATM   26  C12 UNL     1       9.043  20.420   3.665  1.00  0.00     0.091 A 
HETATM   27  N3  UNL     1       9.054  20.263   2.336  1.00  0.00    -0.345 N 
HETATM   28  C13 UNL     1       7.926  20.106   1.581  1.00  0.00     0.171 A 
ATOM     29  H3  UNL     1       9.956  20.261   1.860  1.00  0.00     0.167 HD
HETATM   30  N4  UNL     1       5.393  19.947   1.720  1.00  0.00    -0.341 N 
ATOM     31  H4  UNL     1       5.131  19.810   0.744  1.00  0.00     0.167 HD
BRANCH  28  32
HETATM   32  O3  UNL     1       8.086  19.956   0.227  1.00  0.00    -0.323 OA
BRANCH  32  33
HETATM   33  C14 UNL     1       8.677  18.750  -0.319  1.00  0.00     0.069 C 
HETATM   34  C15 UNL     1       9.601  18.191   0.732  1.00  0.00     0.047 C 
HETATM   35  C16 UNL     1       7.565  17.722  -0.474  1.00  0.00     0.047 C 
BRANCH  33  36
HETATM   36  C17 UNL     1       9.340  19.137  -1.597  1.00  0.00    -0.020 C 
HETATM   37  C18 UNL     1       9.387  20.635  -1.793  1.00  0.00     0.017 C 
HETATM   38  C19 UNL     1       8.682  18.545  -2.832  1.00  0.00     0.017 C 
HETATM   39  C20 UNL     1      10.781  18.656  -1.641  1.00  0.00     0.017 C 
ENDBRANCH  33  36
ENDBRANCH  32  33
ENDBRANCH  28  32
ENDBRANCH   1  21
TORSDOF 7
ENDMDL
MODEL 2
REMARK VINA RESULT: -6.518274410      3.307      4.564
REMARK  7 active torsions:
REMARK  status: ('A' for Active; 'I' for Inactive)
REMARK    1  A    between atoms: N1_2  and  C2_4 
REMARK    2  A    between atoms: C3_5  and  C4_6 
REMARK    3  A    between atoms: N2_10  and  S1_11 
REMARK    4  A    between atoms: S1_11  and  C8_14 
REMARK    5  A    between atoms: C13_21  and  O3_22 
REMARK    6  A    between atoms: O3_22  and  C14_23 
REMARK    7  A    between atoms: C14_23  and  C17_26 
ROOT
HETATM    1  S1  UNL     1       5.378  20.461   3.108  1.00  0.00     0.277 S 
HETATM    2  O1  UNL     1       5.057  19.717   4.418  1.00  0.00    -0.199 OA
HETATM    3  O2  UNL     1       6.424  21.519   3.495  1.00  0.00    -0.199 OA
ENDROOT
BRANCH   1   4
HETATM    4  N2  UNL     1       4.024  21.170   2.498  1.00  0.00    -0.295 N 
HETATM    5  C4  UNL     1       2.781  21.258   3.192  1.00  0.00     0.148 C 
HETATM    6  C5  UNL     1       2.021  20.182   2.348  1.00  0.00     0.034 C 
HETATM    7  C6  UNL     1       2.561  20.247   0.972  1.00  0.00     0.023 C 
HETATM    8  C7  UNL     1       3.857  20.970   1.110  1.00  0.00     0.136 C 
BRANCH   5   9
HETATM    9  C3  UNL     1       2.184  22.595   2.823  1.00  0.00     0.061 A 
HETATM   10  C2  UNL     1       1.163  23.130   3.520  1.00  0.00     0.076 A 
HETATM   11  C24 UNL     1       0.739  24.441   3.200  1.00  0.00     0.085 A 
HETATM   12  C23 UNL     1       1.369  25.116   2.199  1.00  0.00     0.073 A 
HETATM   13 CL2  UNL     1      -0.584  25.114   4.133  1.00  0.00    -0.080 Cl
HETATM   14  C22 UNL     1       2.422  24.552   1.479  1.00  0.00     0.114 A 
HETATM   15 CL1  UNL     1       0.862  26.737   1.789  1.00  0.00    -0.081 Cl
HETATM   16  N5  UNL     1       2.785  23.317   1.820  1.00  0.00    -0.364 N 
ATOM     17  H5  UNL     1       3.552  22.881   1.308  1.00  0.00     0.165 HD
BRANCH  10  18
HETATM   18  N1  UNL     1       0.426  22.439   4.495  1.00  0.00    -0.391 N 
HETATM   19  C1  UNL     1       0.738  22.469   5.891  1.00  0.00     0.146 C 
ATOM     20  H1  UNL     1      -0.376  21.885   4.192  1.00  0.00     0.159 HD
ENDBRANCH  10  18
ENDBRANCH   5   9
ENDBRANCH   1   4
BRANCH   1  21
HETATM   21  C8  UNL     1       6.148  19.268   2.098  1.00  0.00     0.150 A 
HETATM   22  C9  UNL     1       6.302  17.922   2.469  1.00  0.00     0.057 A 
HETATM   23  C10 UNL     1       6.958  17.225   1.487  1.00  0.00    -0.001 A 
HETATM   24  C11 UNL     1       7.340  15.901   1.340  1.00  0.00     0.031 A 
HETATM   25  C21 UNL     1       7.216  18.158   0.489  1.00  0.00     0.095 A 
HETATM   26  C12 UNL     1       7.984  15.460   0.212  1.00  0.00     0.091 A 
HETATM   27  N3  UNL     1       8.221  16.377  -0.734  1.00  0.00    -0.345 N 
HETATM   28  C13 UNL     1       7.860  17.690  -0.625  1.00  0.00     0.171 A 
ATOM     29  H3  UNL     1       8.698  16.078  -1.585  1.00  0.00     0.167 HD
HETATM   30  N4  UNL     1       6.710  19.362   0.905  1.00  0.00    -0.341 N 
ATOM     31  H4  UNL     1       6.760  20.223   0.361  1.00  0.00     0.167 HD
BRANCH  28  32
HETATM   32  O3  UNL     1       8.166  18.520  -1.673  1.00  0.00    -0.323 OA
BRANCH  32  33
HETATM   33  C14 UNL     1       9.448  19.195  -1.733  1.00  0.00     0.069 C 
HETATM   34  C15 UNL     1       9.176  20.676  -1.656  1.00  0.00     0.047 C 
HETATM   35  C16 UNL     1      10.208  18.854  -0.459  1.00  0.00     0.047 C 
BRANCH  33  36
HETATM   36  C17 UNL     1      10.114  18.744  -2.988  1.00  0.00    -0.020 C 
HETATM   37  C18 UNL     1      11.194  17.718  -2.732  1.00  0.00     0.017 C 
HETATM   38  C19 UNL     1      10.749  19.873  -3.783  1.00  0.00     0.017 C 
HETATM   39  C20 UNL     1       9.122  18.093  -3.938  1.00  0.00     0.017 C 
ENDBRANCH  33  36
ENDBRANCH  32  33
ENDBRANCH  28  32
ENDBRANCH   1  21
TORSDOF 7
ENDMDL
MODEL 3
REMARK VINA RESULT: -6.509776107      2.794      3.981
REMARK  7 active torsions:
REMARK  status: ('A' for Active; 'I' for Inactive)
REMARK    1  A    between atoms: N1_2  and  C2_4 
REMARK    2  A    between atoms: C3_5  and  C4_6 
REMARK    3  A    between atoms: N2_10  and  S1_11 
REMARK    4  A    between atoms: S1_11  and  C8_14 
REMARK    5  A    between atoms: C13_21  and  O3_22 
REMARK    6  A    between atoms: O3_22  and  C14_23 
REMARK    7  A    between atoms: C14_23  and  C17_26 
ROOT
HETATM    1  S1  UNL     1       1.995  20.778   3.300  1.00  0.00     0.277 S 
HETATM    2  O1  UNL     1       1.237  19.454   3.521  1.00  0.00    -0.199 OA
HETATM    3  O2  UNL     1       1.535  21.697   4.443  1.00  0.00    -0.199 OA
ENDROOT
BRANCH   1   4
HETATM    4  N2  UNL     1       1.613  21.425   1.836  1.00  0.00    -0.295 N 
HETATM    5  C4  UNL     1       2.239  21.059   0.607  1.00  0.00     0.148 C 
HETATM    6  C5  UNL     1       3.082  22.364   0.432  1.00  0.00     0.034 C 
HETATM    7  C6  UNL     1       2.298  23.472   1.021  1.00  0.00     0.023 C 
HETATM    8  C7  UNL     1       1.293  22.799   1.891  1.00  0.00     0.136 C 
BRANCH   5   9
HETATM    9  C3  UNL     1       1.159  21.099  -0.447  1.00  0.00     0.061 A 
HETATM   10  C2  UNL     1       0.016  20.398  -0.315  1.00  0.00     0.076 A 
HETATM   11  C24 UNL     1      -1.005  20.583  -1.277  1.00  0.00     0.085 A 
HETATM   12  C23 UNL     1      -0.801  21.455  -2.302  1.00  0.00     0.073 A 
HETATM   13 CL2  UNL     1      -2.484  19.664  -1.072  1.00  0.00    -0.080 Cl
HETATM   14  C22 UNL     1       0.387  22.174  -2.432  1.00  0.00     0.114 A 
HETATM   15 CL1  UNL     1      -2.050  21.700  -3.499  1.00  0.00    -0.081 Cl
HETATM   16  N5  UNL     1       1.316  21.966  -1.501  1.00  0.00    -0.364 N 
ATOM     17  H5  UNL     1       2.195  22.479  -1.574  1.00  0.00     0.165 HD
BRANCH  10  18
HETATM   18  N1  UNL     1      -0.201  19.422   0.670  1.00  0.00    -0.391 N 
HETATM   19  C1  UNL     1       0.176  18.050   0.521  1.00  0.00     0.146 C 
ATOM     20  H1  UNL     1      -0.652  19.706   1.540  1.00  0.00     0.159 HD
ENDBRANCH  10  18
ENDBRANCH   5   9
ENDBRANCH   1   4
BRANCH   1  21
HETATM   21  C8  UNL     1       3.671  20.377   3.555  1.00  0.00     0.150 A 
HETATM   22  C9  UNL     1       4.734  21.069   2.951  1.00  0.00     0.057 A 
HETATM   23  C10 UNL     1       5.935  20.521   3.321  1.00  0.00    -0.001 A 
HETATM   24  C11 UNL     1       7.257  20.822   3.035  1.00  0.00     0.031 A 
HETATM   25  C21 UNL     1       5.610  19.468   4.169  1.00  0.00     0.095 A 
HETATM   26  C12 UNL     1       8.292  20.099   3.573  1.00  0.00     0.091 A 
HETATM   27  N3  UNL     1       7.953  19.092   4.387  1.00  0.00    -0.345 N 
HETATM   28  C13 UNL     1       6.662  18.764   4.691  1.00  0.00     0.171 A 
ATOM     29  H3  UNL     1       8.701  18.537   4.802  1.00  0.00     0.167 HD
HETATM   30  N4  UNL     1       4.244  19.428   4.275  1.00  0.00    -0.341 N 
ATOM     31  H4  UNL     1       3.733  18.750   4.840  1.00  0.00     0.167 HD
BRANCH  28  32
HETATM   32  O3  UNL     1       6.461  17.706   5.540  1.00  0.00    -0.323 OA
BRANCH  32  33
HETATM   33  C14 UNL     1       6.361  16.354   5.026  1.00  0.00     0.069 C 
HETATM   34  C15 UNL     1       4.925  15.924   5.180  1.00  0.00     0.047 C 
HETATM   35  C16 UNL     1       6.611  16.411   3.526  1.00  0.00     0.047 C 
BRANCH  33  36
HETATM   36  C17 UNL     1       7.346  15.532   5.784  1.00  0.00    -0.020 C 
HETATM   37  C18 UNL     1       8.724  15.563   5.164  1.00  0.00     0.017 C 
HETATM   38  C19 UNL     1       6.950  14.071   5.918  1.00  0.00     0.017 C 
HETATM   39  C20 UNL     1       7.508  16.035   7.209  1.00  0.00     0.017 C 
ENDBRANCH  33  36
ENDBRANCH  32  33
ENDBRANCH  28  32
ENDBRANCH   1  21
TORSDOF 7
ENDMDL
MODEL 4
REMARK VINA RESULT: -6.449348502      2.893      3.978
REMARK  7 active torsions:
REMARK  status: ('A' for Active; 'I' for Inactive)
REMARK    1  A    between atoms: N1_2  and  C2_4 
REMARK    2  A    between atoms: C3_5  and  C4_6 
REMARK    3  A    between atoms: N2_10  and  S1_11 
REMARK    4  A    between atoms: S1_11  and  C8_14 
REMARK    5  A    between atoms: C13_21  and  O3_22 
REMARK    6  A    between atoms: O3_22  and  C14_23 
REMARK    7  A    between atoms: C14_23  and  C17_26 
ROOT
HETATM    1  S1  UNL     1       3.019  18.711   2.690  1.00  0.00     0.277 S 
HETATM    2  O1  UNL     1       2.828  17.715   1.529  1.00  0.00    -0.199 OA
HETATM    3  O2  UNL     1       2.808  17.881   3.966  1.00  0.00    -0.199 OA
ENDROOT
BRANCH   1   4
HETATM    4  N2  UNL     1       1.918  19.930   2.594  1.00  0.00    -0.295 N 
HETATM    5  C4  UNL     1       1.403  20.639   3.720  1.00  0.00     0.148 C 
HETATM    6  C5  UNL     1      -0.021  19.993   3.712  1.00  0.00     0.034 C 
HETATM    7  C6  UNL     1      -0.359  19.703   2.300  1.00  0.00     0.023 C 
HETATM    8  C7  UNL     1       0.948  19.739   1.586  1.00  0.00     0.136 C 
BRANCH   5   9
HETATM    9  C3  UNL     1       1.229  22.071   3.276  1.00  0.00     0.061 A 
HETATM   10  C2  UNL     1       0.504  22.951   3.994  1.00  0.00     0.076 A 
HETATM   11  C24 UNL     1       0.490  24.306   3.587  1.00  0.00     0.085 A 
HETATM   12  C23 UNL     1       1.200  24.676   2.486  1.00  0.00     0.073 A 
HETATM   13 CL2  UNL     1      -0.453  25.429   4.549  1.00  0.00    -0.080 Cl
HETATM   14  C22 UNL     1       1.943  23.756   1.746  1.00  0.00     0.114 A 
HETATM   15 CL1  UNL     1       1.197  26.344   1.968  1.00  0.00    -0.081 Cl
HETATM   16  N5  UNL     1       1.927  22.494   2.171  1.00  0.00    -0.364 N 
ATOM     17  H5  UNL     1       2.462  21.802   1.646  1.00  0.00     0.165 HD
BRANCH  10  18
HETATM   18  N1  UNL     1      -0.315  22.599   5.079  1.00  0.00    -0.391 N 
HETATM   19  C1  UNL     1       0.143  22.556   6.434  1.00  0.00     0.146 C 
ATOM     20  H1  UNL     1      -1.289  22.361   4.891  1.00  0.00     0.159 HD
ENDBRANCH  10  18
ENDBRANCH   5   9
ENDBRANCH   1   4
BRANCH   1  21
HETATM   21  C8  UNL     1       4.695  19.175   2.604  1.00  0.00     0.150 A 
HETATM   22  C9  UNL     1       5.451  19.560   3.724  1.00  0.00     0.057 A 
HETATM   23  C10 UNL     1       6.730  19.887   3.351  1.00  0.00    -0.001 A 
HETATM   24  C11 UNL     1       7.856  20.303   4.043  1.00  0.00     0.031 A 
HETATM   25  C21 UNL     1       6.767  19.701   1.974  1.00  0.00     0.095 A 
HETATM   26  C12 UNL     1       9.045  20.546   3.403  1.00  0.00     0.091 A 
HETATM   27  N3  UNL     1       9.054  20.360   2.077  1.00  0.00    -0.345 N 
HETATM   28  C13 UNL     1       7.965  19.952   1.360  1.00  0.00     0.171 A 
ATOM     29  H3  UNL     1       9.924  20.533   1.574  1.00  0.00     0.167 HD
HETATM   30  N4  UNL     1       5.525  19.274   1.579  1.00  0.00    -0.341 N 
ATOM     31  H4  UNL     1       5.273  19.059   0.615  1.00  0.00     0.167 HD
BRANCH  28  32
HETATM   32  O3  UNL     1       8.118  19.802   0.006  1.00  0.00    -0.323 OA
BRANCH  32  33
HETATM   33  C14 UNL     1       8.806  18.648  -0.539  1.00  0.00     0.069 C 
HETATM   34  C15 UNL     1       9.663  18.079   0.563  1.00  0.00     0.047 C 
HETATM   35  C16 UNL     1       7.758  17.583  -0.830  1.00  0.00     0.047 C 
BRANCH  33  36
HETATM   36  C17 UNL     1       9.556  19.119  -1.737  1.00  0.00    -0.020 C 
HETATM   37  C18 UNL     1       9.589  20.627  -1.842  1.00  0.00     0.017 C 
HETATM   38  C19 UNL     1       9.003  18.592  -3.051  1.00  0.00     0.017 C 
HETATM   39  C20 UNL     1      11.005  18.662  -1.700  1.00  0.00     0.017 C 
ENDBRANCH  33  36
ENDBRANCH  32  33
ENDBRANCH  28  32
ENDBRANCH   1  21
TORSDOF 7
ENDMDL
MODEL 5
REMARK VINA RESULT: -6.428420814      4.585      7.465
REMARK  7 active torsions:
REMARK  status: ('A' for Active; 'I' for Inactive)
REMARK    1  A    between atoms: N1_2  and  C2_4 
REMARK    2  A    between atoms: C3_5  and  C4_6 
REMARK    3  A    between atoms: N2_10  and  S1_11 
REMARK    4  A    between atoms: S1_11  and  C8_14 
REMARK    5  A    between atoms: C13_21  and  O3_22 
REMARK    6  A    between atoms: O3_22  and  C14_23 
REMARK    7  A    between atoms: C14_23  and  C17_26 
ROOT
HETATM    1  S1  UNL     1       2.087  23.992   1.570  1.00  0.00     0.277 S 
HETATM    2  O1  UNL     1       1.585  25.260   0.854  1.00  0.00    -0.199 OA
HETATM    3  O2  UNL     1       3.568  24.266   1.877  1.00  0.00    -0.199 OA
ENDROOT
BRANCH   1   4
HETATM    4  N2  UNL     1       1.923  22.675   0.597  1.00  0.00    -0.295 N 
HETATM    5  C4  UNL     1       0.769  21.835   0.567  1.00  0.00     0.148 C 
HETATM    6  C5  UNL     1       1.408  20.616   1.309  1.00  0.00     0.034 C 
HETATM    7  C6  UNL     1       2.843  20.588   0.946  1.00  0.00     0.023 C 
HETATM    8  C7  UNL     1       3.122  21.952   0.416  1.00  0.00     0.136 C 
BRANCH   5   9
HETATM    9  C3  UNL     1       0.587  21.417  -0.872  1.00  0.00     0.061 A 
HETATM   10  C2  UNL     1      -0.188  20.369  -1.210  1.00  0.00     0.076 A 
HETATM   11  C24 UNL     1      -0.417  20.113  -2.583  1.00  0.00     0.085 A 
HETATM   12  C23 UNL     1       0.154  20.926  -3.514  1.00  0.00     0.073 A 
HETATM   13 CL2  UNL     1      -1.440  18.749  -2.991  1.00  0.00    -0.080 Cl
HETATM   14  C22 UNL     1       0.958  22.007  -3.153  1.00  0.00     0.114 A 
HETATM   15 CL1  UNL     1      -0.118  20.629  -5.214  1.00  0.00    -0.081 Cl
HETATM   16  N5  UNL     1       1.142  22.207  -1.850  1.00  0.00    -0.364 N 
ATOM     17  H5  UNL     1       1.728  22.990  -1.561  1.00  0.00     0.165 HD
BRANCH  10  18
HETATM   18  N1  UNL     1      -0.721  19.452  -0.290  1.00  0.00    -0.391 N 
HETATM   19  C1  UNL     1      -2.025  19.574   0.284  1.00  0.00     0.146 C 
ATOM     20  H1  UNL     1      -0.146  18.655  -0.017  1.00  0.00     0.159 HD
ENDBRANCH  10  18
ENDBRANCH   5   9
ENDBRANCH   1   4
BRANCH   1  21
HETATM   21  C8  UNL     1       1.209  23.955   3.074  1.00  0.00     0.150 A 
HETATM   22  C9  UNL     1       0.316  24.963   3.475  1.00  0.00     0.057 A 
HETATM   23  C10 UNL     1      -0.211  24.674   4.708  1.00  0.00    -0.001 A 
HETATM   24  C11 UNL     1      -1.128  25.307   5.532  1.00  0.00     0.031 A 
HETATM   25  C21 UNL     1       0.367  23.465   5.078  1.00  0.00     0.095 A 
HETATM   26  C12 UNL     1      -1.500  24.769   6.739  1.00  0.00     0.091 A 
HETATM   27  N3  UNL     1      -0.929  23.605   7.072  1.00  0.00    -0.345 N 
HETATM   28  C13 UNL     1      -0.021  22.953   6.286  1.00  0.00     0.171 A 
ATOM     29  H3  UNL     1      -1.186  23.181   7.964  1.00  0.00     0.167 HD
HETATM   30  N4  UNL     1       1.207  23.080   4.065  1.00  0.00    -0.341 N 
ATOM     31  H4  UNL     1       1.760  22.223   4.074  1.00  0.00     0.167 HD
BRANCH  28  32
HETATM   32  O3  UNL     1       0.483  21.767   6.754  1.00  0.00    -0.323 OA
BRANCH  32  33
HETATM   33  C14 UNL     1      -0.229  20.522   6.538  1.00  0.00     0.069 C 
HETATM   34  C15 UNL     1      -1.094  20.289   7.750  1.00  0.00     0.047 C 
HETATM   35  C16 UNL     1      -1.196  20.739   5.384  1.00  0.00     0.047 C 
BRANCH  33  36
HETATM   36  C17 UNL     1       0.801  19.474   6.291  1.00  0.00    -0.020 C 
HETATM   37  C18 UNL     1       1.562  19.703   5.006  1.00  0.00     0.017 C 
HETATM   38  C19 UNL     1       0.236  18.064   6.231  1.00  0.00     0.017 C 
HETATM   39  C20 UNL     1       1.838  19.443   7.402  1.00  0.00     0.017 C 
ENDBRANCH  33  36
ENDBRANCH  32  33
ENDBRANCH  28  32
ENDBRANCH   1  21
TORSDOF 7
ENDMDL
