MODEL 1
REMARK VINA RESULT: -8.755312578      0.000      0.000
REMARK  7 active torsions:
REMARK  status: ('A' for Active; 'I' for Inactive)
REMARK    1  A    between atoms: C2_2  and  O1_4 
REMARK    2  A    between atoms: C2_2  and  C4_6 
REMARK    3  A    between atoms: C7_10  and  C8_11 
REMARK       I    between atoms: C8_11  and  N1_13 
REMARK    4  A    between atoms: N1_13  and  C9_15 
REMARK    5  A    between atoms: C9_15  and  C10_16 
REMARK    6  A    between atoms: C10_16  and  N2_17 
REMARK    7  A    between atoms: N4_33  and  C24_34 
ROOT
HETATM    1  C4  UNL     1       1.281  22.251   3.561  1.00  0.00     0.083 A 
HETATM    2  C5  UNL     1       0.760  23.549   3.666  1.00  0.00     0.059 A 
HETATM    3  C6  UNL     1      -0.206  24.160   4.447  1.00  0.00     0.146 A 
HETATM    4  F1  UNL     1      -0.844  23.472   5.386  1.00  0.00    -0.204 F 
HETATM    5  C7  UNL     1      -0.536  25.504   4.339  1.00  0.00     0.071 A 
HETATM    6  C21 UNL     1       0.146  26.246   3.400  1.00  0.00     0.022 A 
HETATM    7  C22 UNL     1       1.114  25.691   2.600  1.00  0.00     0.033 A 
HETATM    8  C23 UNL     1       1.417  24.340   2.735  1.00  0.00     0.064 A 
HETATM    9  N3  UNL     1       2.271  23.529   2.130  1.00  0.00    -0.293 N 
ATOM     10  H3  UNL     1       2.903  23.829   1.386  1.00  0.00     0.187 HD
HETATM   11  N4  UNL     1       2.219  22.260   2.599  1.00  0.00    -0.264 N 
ENDROOT
BRANCH   5  12
HETATM   12  C8  UNL     1      -1.608  26.159   5.129  1.00  0.00     0.258 C 
HETATM   13  O2  UNL     1      -1.805  25.710   6.285  1.00  0.00    -0.267 OA
HETATM   14  N1  UNL     1      -2.336  27.210   4.606  1.00  0.00    -0.334 N 
ATOM     15  H1  UNL     1      -2.048  27.446   3.656  1.00  0.00     0.168 HD
BRANCH  14  16
HETATM   16  C9  UNL     1      -3.384  28.039   5.068  1.00  0.00     0.095 C 
BRANCH  16  17
HETATM   17  C10 UNL     1      -3.265  29.514   5.135  1.00  0.00     0.067 C 
HETATM   18  C16 UNL     1      -2.079  30.035   4.387  1.00  0.00     0.037 C 
HETATM   19  C17 UNL     1      -1.861  31.537   4.722  1.00  0.00     0.003 C 
HETATM   20  C18 UNL     1      -3.065  32.269   4.191  1.00  0.00     0.000 C 
HETATM   21  C19 UNL     1      -4.097  31.354   3.615  1.00  0.00     0.003 C 
HETATM   22  C20 UNL     1      -4.469  30.196   4.509  1.00  0.00     0.037 C 
BRANCH  17  23
HETATM   23  N2  UNL     1      -3.180  29.987   6.503  1.00  0.00    -0.359 N 
HETATM   24  C11 UNL     1      -2.170  29.439   7.317  1.00  0.00     0.064 C 
HETATM   25  C12 UNL     1      -2.606  28.417   8.339  1.00  0.00     0.045 C 
HETATM   26  C13 UNL     1      -3.689  28.990   9.189  1.00  0.00     0.010 C 
HETATM   27  C14 UNL     1      -4.261  30.267   8.682  1.00  0.00     0.045 C 
HETATM   28  C15 UNL     1      -4.367  30.320   7.158  1.00  0.00     0.064 C 
ENDBRANCH  17  23
ENDBRANCH  16  17
ENDBRANCH  14  16
ENDBRANCH   5  12
BRANCH   1  29
HETATM   29  C2  UNL     1       0.854  21.130   4.382  1.00  0.00     0.096 C 
HETATM   30  C1  UNL     1      -0.586  20.685   4.183  1.00  0.00     0.052 C 
HETATM   31  C3  UNL     1       1.100  21.272   5.878  1.00  0.00     0.052 C 
BRANCH  29  32
HETATM   32  O1  UNL     1       1.539  19.916   4.093  1.00  0.00    -0.384 OA
ATOM     33  H1  UNL     1       2.427  20.162   4.325  1.00  0.00     0.211 HD
ENDBRANCH  29  32
ENDBRANCH   1  29
BRANCH  11  34
HETATM   34  C24 UNL     1       3.059  21.241   2.085  1.00  0.00     0.016 C 
HETATM   35  C25 UNL     1       4.482  21.179   2.540  1.00  0.00     0.081 C 
HETATM   36  C26 UNL     1       4.896  19.687   2.412  1.00  0.00     0.173 C 
HETATM   37  O3  UNL     1       4.617  19.183   1.163  1.00  0.00    -0.390 OA
HETATM   38  C27 UNL     1       3.263  19.154   0.838  1.00  0.00     0.173 C 
HETATM   39  C28 UNL     1       2.875  20.663   0.750  1.00  0.00     0.081 C 
ENDBRANCH  11  34
TORSDOF 7
ENDMDL
MODEL 2
REMARK VINA RESULT: -8.326663646      1.245      1.410
REMARK  7 active torsions:
REMARK  status: ('A' for Active; 'I' for Inactive)
REMARK    1  A    between atoms: C2_2  and  O1_4 
REMARK    2  A    between atoms: C2_2  and  C4_6 
REMARK    3  A    between atoms: C7_10  and  C8_11 
REMARK       I    between atoms: C8_11  and  N1_13 
REMARK    4  A    between atoms: N1_13  and  C9_15 
REMARK    5  A    between atoms: C9_15  and  C10_16 
REMARK    6  A    between atoms: C10_16  and  N2_17 
REMARK    7  A    between atoms: N4_33  and  C24_34 
ROOT
HETATM    1  C4  UNL     1       0.020  21.929   4.009  1.00  0.00     0.083 A 
HETATM    2  C5  UNL     1      -0.148  23.317   4.129  1.00  0.00     0.059 A 
HETATM    3  C6  UNL     1      -0.977  24.146   4.865  1.00  0.00     0.146 A 
HETATM    4  F1  UNL     1      -1.844  23.633   5.729  1.00  0.00    -0.204 F 
HETATM    5  C7  UNL     1      -0.934  25.531   4.787  1.00  0.00     0.071 A 
HETATM    6  C21 UNL     1      -0.010  26.084   3.927  1.00  0.00     0.022 A 
HETATM    7  C22 UNL     1       0.837  25.309   3.174  1.00  0.00     0.033 A 
HETATM    8  C23 UNL     1       0.764  23.924   3.277  1.00  0.00     0.064 A 
HETATM    9  N3  UNL     1       1.419  22.928   2.701  1.00  0.00    -0.293 N 
ATOM     10  H3  UNL     1       2.162  23.065   2.016  1.00  0.00     0.187 HD
HETATM   11  N4  UNL     1       1.000  21.709   3.115  1.00  0.00    -0.264 N 
ENDROOT
BRANCH   5  12
HETATM   12  C8  UNL     1      -1.854  26.430   5.525  1.00  0.00     0.258 C 
HETATM   13  O2  UNL     1      -1.834  26.345   6.778  1.00  0.00    -0.267 OA
HETATM   14  N1  UNL     1      -2.677  27.314   4.854  1.00  0.00    -0.334 N 
ATOM     15  H1  UNL     1      -2.568  27.251   3.841  1.00  0.00     0.168 HD
BRANCH  14  16
HETATM   16  C9  UNL     1      -3.635  28.284   5.230  1.00  0.00     0.095 C 
BRANCH  16  17
HETATM   17  C10 UNL     1      -3.359  29.738   5.182  1.00  0.00     0.067 C 
HETATM   18  C16 UNL     1      -2.101  30.067   4.444  1.00  0.00     0.037 C 
HETATM   19  C17 UNL     1      -1.732  31.560   4.665  1.00  0.00     0.003 C 
HETATM   20  C18 UNL     1      -2.832  32.367   4.029  1.00  0.00     0.000 C 
HETATM   21  C19 UNL     1      -3.939  31.521   3.488  1.00  0.00     0.003 C 
HETATM   22  C20 UNL     1      -4.463  30.488   4.456  1.00  0.00     0.037 C 
BRANCH  17  23
HETATM   23  N2  UNL     1      -3.267  30.313   6.511  1.00  0.00    -0.359 N 
HETATM   24  C11 UNL     1      -2.319  29.759   7.393  1.00  0.00     0.064 C 
HETATM   25  C12 UNL     1      -2.853  28.859   8.481  1.00  0.00     0.045 C 
HETATM   26  C13 UNL     1      -3.907  29.579   9.252  1.00  0.00     0.010 C 
HETATM   27  C14 UNL     1      -4.368  30.849   8.631  1.00  0.00     0.045 C 
HETATM   28  C15 UNL     1      -4.438  30.786   7.104  1.00  0.00     0.064 C 
ENDBRANCH  17  23
ENDBRANCH  16  17
ENDBRANCH  14  16
ENDBRANCH   5  12
BRANCH   1  29
HETATM   29  C2  UNL     1      -0.748  20.945   4.754  1.00  0.00     0.096 C 
HETATM   30  C1  UNL     1      -0.452  20.877   6.244  1.00  0.00     0.052 C 
HETATM   31  C3  UNL     1      -0.718  19.526   4.203  1.00  0.00     0.052 C 
BRANCH  29  32
HETATM   32  O1  UNL     1      -2.145  21.213   4.783  1.00  0.00    -0.384 OA
ATOM     33  H1  UNL     1      -2.143  22.087   5.158  1.00  0.00     0.211 HD
ENDBRANCH  29  32
ENDBRANCH   1  29
BRANCH  11  34
HETATM   34  C24 UNL     1       1.579  20.514   2.621  1.00  0.00     0.016 C 
HETATM   35  C25 UNL     1       2.821  19.991   3.269  1.00  0.00     0.081 C 
HETATM   36  C26 UNL     1       2.796  18.455   3.041  1.00  0.00     0.173 C 
HETATM   37  O3  UNL     1       2.601  18.137   1.717  1.00  0.00    -0.390 OA
HETATM   38  C27 UNL     1       1.376  18.544   1.196  1.00  0.00     0.173 C 
HETATM   39  C28 UNL     1       1.467  20.102   1.218  1.00  0.00     0.081 C 
ENDBRANCH  11  34
TORSDOF 7
ENDMDL
MODEL 3
REMARK VINA RESULT: -8.097288679      1.062      2.568
REMARK  7 active torsions:
REMARK  status: ('A' for Active; 'I' for Inactive)
REMARK    1  A    between atoms: C2_2  and  O1_4 
REMARK    2  A    between atoms: C2_2  and  C4_6 
REMARK    3  A    between atoms: C7_10  and  C8_11 
REMARK       I    between atoms: C8_11  and  N1_13 
REMARK    4  A    between atoms: N1_13  and  C9_15 
REMARK    5  A    between atoms: C9_15  and  C10_16 
REMARK    6  A    between atoms: C10_16  and  N2_17 
REMARK    7  A    between atoms: N4_33  and  C24_34 
ROOT
HETATM    1  C4  UNL     1       1.104  22.657   3.770  1.00  0.00     0.083 A 
HETATM    2  C5  UNL     1       0.463  23.894   3.937  1.00  0.00     0.059 A 
HETATM    3  C6  UNL     1      -0.549  24.374   4.751  1.00  0.00     0.146 A 
HETATM    4  F1  UNL     1      -1.110  23.586   5.660  1.00  0.00    -0.204 F 
HETATM    5  C7  UNL     1      -1.007  25.683   4.707  1.00  0.00     0.071 A 
HETATM    6  C21 UNL     1      -0.407  26.529   3.799  1.00  0.00     0.022 A 
HETATM    7  C22 UNL     1       0.602  26.106   2.969  1.00  0.00     0.033 A 
HETATM    8  C23 UNL     1       1.033  24.785   3.040  1.00  0.00     0.064 A 
HETATM    9  N3  UNL     1       1.955  24.087   2.393  1.00  0.00    -0.293 N 
ATOM     10  H3  UNL     1       2.547  24.480   1.661  1.00  0.00     0.187 HD
HETATM   11  N4  UNL     1       2.028  22.799   2.804  1.00  0.00    -0.264 N 
ENDROOT
BRANCH   5  12
HETATM   12  C8  UNL     1      -2.128  26.196   5.531  1.00  0.00     0.258 C 
HETATM   13  O2  UNL     1      -3.268  25.739   5.271  1.00  0.00    -0.267 OA
HETATM   14  N1  UNL     1      -1.909  27.124   6.532  1.00  0.00    -0.334 N 
ATOM     15  H1  UNL     1      -0.927  27.388   6.607  1.00  0.00     0.168 HD
BRANCH  14  16
HETATM   16  C9  UNL     1      -2.718  27.796   7.478  1.00  0.00     0.095 C 
BRANCH  16  17
HETATM   17  C10 UNL     1      -2.665  29.263   7.675  1.00  0.00     0.067 C 
HETATM   18  C16 UNL     1      -3.405  29.712   8.893  1.00  0.00     0.037 C 
HETATM   19  C17 UNL     1      -3.540  31.261   8.889  1.00  0.00     0.003 C 
HETATM   20  C18 UNL     1      -2.142  31.808   9.004  1.00  0.00     0.000 C 
HETATM   21  C19 UNL     1      -1.095  30.742   8.991  1.00  0.00     0.003 C 
HETATM   22  C20 UNL     1      -1.237  29.744   7.867  1.00  0.00     0.037 C 
BRANCH  17  23
HETATM   23  N2  UNL     1      -3.197  29.979   6.532  1.00  0.00    -0.359 N 
HETATM   24  C11 UNL     1      -4.498  29.647   6.106  1.00  0.00     0.064 C 
HETATM   25  C12 UNL     1      -4.605  28.803   4.858  1.00  0.00     0.045 C 
HETATM   26  C13 UNL     1      -3.858  29.459   3.746  1.00  0.00     0.010 C 
HETATM   27  C14 UNL     1      -2.986  30.587   4.170  1.00  0.00     0.045 C 
HETATM   28  C15 UNL     1      -2.311  30.357   5.522  1.00  0.00     0.064 C 
ENDBRANCH  17  23
ENDBRANCH  16  17
ENDBRANCH  14  16
ENDBRANCH   5  12
BRANCH   1  29
HETATM   29  C2  UNL     1       0.794  21.464   4.541  1.00  0.00     0.096 C 
HETATM   30  C1  UNL     1      -0.561  20.836   4.256  1.00  0.00     0.052 C 
HETATM   31  C3  UNL     1       0.945  21.593   6.050  1.00  0.00     0.052 C 
BRANCH  29  32
HETATM   32  O1  UNL     1       1.650  20.363   4.259  1.00  0.00    -0.384 OA
ATOM     33  H1  UNL     1       1.912  20.121   5.140  1.00  0.00     0.211 HD
ENDBRANCH  29  32
ENDBRANCH   1  29
BRANCH  11  34
HETATM   34  C24 UNL     1       2.955  21.889   2.239  1.00  0.00     0.016 C 
HETATM   35  C25 UNL     1       4.361  21.879   2.750  1.00  0.00     0.081 C 
HETATM   36  C26 UNL     1       4.882  20.436   2.508  1.00  0.00     0.173 C 
HETATM   37  O3  UNL     1       4.687  20.032   1.208  1.00  0.00    -0.390 OA
HETATM   38  C27 UNL     1       3.352  19.944   0.821  1.00  0.00     0.173 C 
HETATM   39  C28 UNL     1       2.864  21.425   0.851  1.00  0.00     0.081 C 
ENDBRANCH  11  34
TORSDOF 7
ENDMDL
MODEL 4
REMARK VINA RESULT: -8.051981440      2.965     11.181
REMARK  7 active torsions:
REMARK  status: ('A' for Active; 'I' for Inactive)
REMARK    1  A    between atoms: C2_2  and  O1_4 
REMARK    2  A    between atoms: C2_2  and  C4_6 
REMARK    3  A    between atoms: C7_10  and  C8_11 
REMARK       I    between atoms: C8_11  and  N1_13 
REMARK    4  A    between atoms: N1_13  and  C9_15 
REMARK    5  A    between atoms: C9_15  and  C10_16 
REMARK    6  A    between atoms: C10_16  and  N2_17 
REMARK    7  A    between atoms: N4_33  and  C24_34 
ROOT
HETATM    1  C4  UNL     1       0.290  24.015   3.979  1.00  0.00     0.083 A 
HETATM    2  C5  UNL     1       1.288  23.765   3.025  1.00  0.00     0.059 A 
HETATM    3  C6  UNL     1       2.007  22.652   2.624  1.00  0.00     0.146 A 
HETATM    4  F1  UNL     1       1.767  21.465   3.169  1.00  0.00    -0.204 F 
HETATM    5  C7  UNL     1       2.970  22.686   1.625  1.00  0.00     0.071 A 
HETATM    6  C21 UNL     1       3.203  23.900   1.017  1.00  0.00     0.022 A 
HETATM    7  C22 UNL     1       2.519  25.035   1.375  1.00  0.00     0.033 A 
HETATM    8  C23 UNL     1       1.562  24.964   2.382  1.00  0.00     0.064 A 
HETATM    9  N3  UNL     1       0.757  25.853   2.944  1.00  0.00    -0.293 N 
ATOM     10  H3  UNL     1       0.729  26.837   2.676  1.00  0.00     0.187 HD
HETATM   11  N4  UNL     1      -0.026  25.320   3.912  1.00  0.00    -0.264 N 
ENDROOT
BRANCH   5  12
HETATM   12  C8  UNL     1       3.788  21.515   1.224  1.00  0.00     0.258 C 
HETATM   13  O2  UNL     1       3.171  20.556   0.698  1.00  0.00    -0.267 OA
HETATM   14  N1  UNL     1       5.155  21.502   1.421  1.00  0.00    -0.334 N 
ATOM     15  H1  UNL     1       5.492  22.359   1.860  1.00  0.00     0.168 HD
BRANCH  14  16
HETATM   16  C9  UNL     1       6.202  20.587   1.160  1.00  0.00     0.095 C 
BRANCH  16  17
HETATM   17  C10 UNL     1       7.096  20.074   2.223  1.00  0.00     0.067 C 
HETATM   18  C16 UNL     1       7.584  21.149   3.141  1.00  0.00     0.037 C 
HETATM   19  C17 UNL     1       8.716  20.595   4.050  1.00  0.00     0.003 C 
HETATM   20  C18 UNL     1       8.086  19.537   4.916  1.00  0.00     0.000 C 
HETATM   21  C19 UNL     1       6.650  19.290   4.584  1.00  0.00     0.003 C 
HETATM   22  C20 UNL     1       6.381  19.074   3.114  1.00  0.00     0.037 C 
BRANCH  17  23
HETATM   23  N2  UNL     1       8.252  19.392   1.673  1.00  0.00    -0.359 N 
HETATM   24  C11 UNL     1       9.052  20.105   0.759  1.00  0.00     0.064 C 
HETATM   25  C12 UNL     1       8.903  19.740  -0.698  1.00  0.00     0.045 C 
HETATM   26  C13 UNL     1       9.117  18.274  -0.871  1.00  0.00     0.010 C 
HETATM   27  C14 UNL     1       9.146  17.501   0.400  1.00  0.00     0.045 C 
HETATM   28  C15 UNL     1       8.157  18.018   1.446  1.00  0.00     0.064 C 
ENDBRANCH  17  23
ENDBRANCH  16  17
ENDBRANCH  14  16
ENDBRANCH   5  12
BRANCH   1  29
HETATM   29  C2  UNL     1      -0.278  23.002   4.853  1.00  0.00     0.096 C 
HETATM   30  C1  UNL     1       0.565  22.636   6.064  1.00  0.00     0.052 C 
HETATM   31  C3  UNL     1      -0.714  21.710   4.175  1.00  0.00     0.052 C 
BRANCH  29  32
HETATM   32  O1  UNL     1      -1.482  23.410   5.493  1.00  0.00    -0.384 OA
ATOM     33  H1  UNL     1      -1.234  24.281   5.783  1.00  0.00     0.211 HD
ENDBRANCH  29  32
ENDBRANCH   1  29
BRANCH  11  34
HETATM   34  C24 UNL     1      -0.961  26.106   4.631  1.00  0.00     0.016 C 
HETATM   35  C25 UNL     1      -1.862  27.028   3.874  1.00  0.00     0.081 C 
HETATM   36  C26 UNL     1      -3.139  27.172   4.748  1.00  0.00     0.173 C 
HETATM   37  O3  UNL     1      -2.837  27.519   6.044  1.00  0.00    -0.390 OA
HETATM   38  C27 UNL     1      -2.095  26.569   6.741  1.00  0.00     0.173 C 
HETATM   39  C28 UNL     1      -0.720  26.564   6.003  1.00  0.00     0.081 C 
ENDBRANCH  11  34
TORSDOF 7
ENDMDL
MODEL 5
REMARK VINA RESULT: -7.931088326      1.213      2.699
REMARK  7 active torsions:
REMARK  status: ('A' for Active; 'I' for Inactive)
REMARK    1  A    between atoms: C2_2  and  O1_4 
REMARK    2  A    between atoms: C2_2  and  C4_6 
REMARK    3  A    between atoms: C7_10  and  C8_11 
REMARK       I    between atoms: C8_11  and  N1_13 
REMARK    4  A    between atoms: N1_13  and  C9_15 
REMARK    5  A    between atoms: C9_15  and  C10_16 
REMARK    6  A    between atoms: C10_16  and  N2_17 
REMARK    7  A    between atoms: N4_33  and  C24_34 
ROOT
HETATM    1  C4  UNL     1       0.926  22.540   4.155  1.00  0.00     0.083 A 
HETATM    2  C5  UNL     1       0.396  23.837   4.079  1.00  0.00     0.059 A 
HETATM    3  C6  UNL     1      -0.588  24.537   4.756  1.00  0.00     0.146 A 
HETATM    4  F1  UNL     1      -1.239  23.974   5.766  1.00  0.00    -0.204 F 
HETATM    5  C7  UNL     1      -0.925  25.852   4.465  1.00  0.00     0.071 A 
HETATM    6  C21 UNL     1      -0.229  26.469   3.447  1.00  0.00     0.022 A 
HETATM    7  C22 UNL     1       0.756  25.821   2.744  1.00  0.00     0.033 A 
HETATM    8  C23 UNL     1       1.065  24.503   3.062  1.00  0.00     0.064 A 
HETATM    9  N3  UNL     1       1.935  23.626   2.585  1.00  0.00    -0.293 N 
ATOM     10  H3  UNL     1       2.578  23.830   1.819  1.00  0.00     0.187 HD
HETATM   11  N4  UNL     1       1.882  22.430   3.217  1.00  0.00    -0.264 N 
ENDROOT
BRANCH   5  12
HETATM   12  C8  UNL     1      -2.014  26.596   5.142  1.00  0.00     0.258 C 
HETATM   13  O2  UNL     1      -2.083  26.474   6.390  1.00  0.00    -0.267 OA
HETATM   14  N1  UNL     1      -2.893  27.383   4.422  1.00  0.00    -0.334 N 
ATOM     15  H1  UNL     1      -2.695  27.368   3.422  1.00  0.00     0.168 HD
BRANCH  14  16
HETATM   16  C9  UNL     1      -4.001  28.203   4.737  1.00  0.00     0.095 C 
BRANCH  16  17
HETATM   17  C10 UNL     1      -3.852  29.603   5.199  1.00  0.00     0.067 C 
HETATM   18  C16 UNL     1      -4.260  29.790   6.625  1.00  0.00     0.037 C 
HETATM   19  C17 UNL     1      -4.339  31.306   6.959  1.00  0.00     0.003 C 
HETATM   20  C18 UNL     1      -2.937  31.840   6.835  1.00  0.00     0.000 C 
HETATM   21  C19 UNL     1      -1.961  30.814   6.358  1.00  0.00     0.003 C 
HETATM   22  C20 UNL     1      -2.405  30.058   5.129  1.00  0.00     0.037 C 
BRANCH  17  23
HETATM   23  N2  UNL     1      -4.620  30.524   4.384  1.00  0.00    -0.359 N 
HETATM   24  C11 UNL     1      -5.949  30.169   4.081  1.00  0.00     0.064 C 
HETATM   25  C12 UNL     1      -6.212  29.666   2.682  1.00  0.00     0.045 C 
HETATM   26  C13 UNL     1      -5.712  30.663   1.691  1.00  0.00     0.010 C 
HETATM   27  C14 UNL     1      -4.860  31.735   2.270  1.00  0.00     0.045 C 
HETATM   28  C15 UNL     1      -3.948  31.243   3.395  1.00  0.00     0.064 C 
ENDBRANCH  17  23
ENDBRANCH  16  17
ENDBRANCH  14  16
ENDBRANCH   5  12
BRANCH   1  29
HETATM   29  C2  UNL     1       0.492  21.534   5.111  1.00  0.00     0.096 C 
HETATM   30  C1  UNL     1      -0.936  21.041   4.937  1.00  0.00     0.052 C 
HETATM   31  C3  UNL     1       0.694  21.882   6.579  1.00  0.00     0.052 C 
BRANCH  29  32
HETATM   32  O1  UNL     1       1.201  20.304   5.007  1.00  0.00    -0.384 OA
ATOM     33  H1  UNL     1       2.043  20.562   5.364  1.00  0.00     0.211 HD
ENDBRANCH  29  32
ENDBRANCH   1  29
BRANCH  11  34
HETATM   34  C24 UNL     1       2.737  21.358   2.857  1.00  0.00     0.016 C 
HETATM   35  C25 UNL     1       4.214  21.525   3.024  1.00  0.00     0.081 C 
HETATM   36  C26 UNL     1       4.772  20.092   3.243  1.00  0.00     0.173 C 
HETATM   37  O3  UNL     1       4.349  19.222   2.265  1.00  0.00    -0.390 OA
HETATM   38  C27 UNL     1       2.972  19.012   2.232  1.00  0.00     0.173 C 
HETATM   39  C28 UNL     1       2.401  20.398   1.800  1.00  0.00     0.081 C 
ENDBRANCH  11  34
TORSDOF 7
ENDMDL
