MODEL 1
REMARK VINA RESULT: -7.211408944      0.000      0.000
REMARK  9 active torsions:
REMARK  status: ('A' for Active; 'I' for Inactive)
REMARK    1  A    between atoms: C3_3  and  C5_5 
REMARK    2  A    between atoms: C5_5  and  O2_7 
REMARK    3  A    between atoms: O2_7  and  C6_8 
REMARK    4  A    between atoms: C6_8  and  C7_9 
REMARK    5  A    between atoms: C17_20  and  C19_22 
REMARK    6  A    between atoms: C19_22  and  O4_23 
REMARK    7  A    between atoms: C19_22  and  C20_25 
REMARK    8  A    between atoms: C21_26  and  C22_27 
REMARK    9  A    between atoms: C22_27  and  O5_30 
ROOT
HETATM    1  C7  UNL     1      -1.512  21.440   5.249  1.00  0.00    -0.042 C 
HETATM    2  C8  UNL     1      -1.293  22.735   5.254  1.00  0.00    -0.013 C 
HETATM    3  C9  UNL     1      -0.448  23.824   4.900  1.00  0.00     0.027 C 
HETATM    4  C10 UNL     1      -1.210  25.154   5.298  1.00  0.00     0.018 C 
HETATM    5  C11 UNL     1       0.203  24.212   3.676  1.00  0.00    -0.019 C 
HETATM    6  C12 UNL     1       1.439  23.632   3.154  1.00  0.00    -0.007 C 
HETATM    7  C13 UNL     1       1.978  22.440   3.314  1.00  0.00    -0.016 C 
HETATM    8  C14 UNL     1       1.388  21.361   4.123  1.00  0.00     0.082 C 
HETATM    9  C15 UNL     1       2.272  20.271   4.596  1.00  0.00     0.130 C 
HETATM   10  C16 UNL     1       3.275  19.693   3.667  1.00  0.00     0.040 C 
HETATM   11  O3  UNL     1       1.480  19.230   5.059  1.00  0.00    -0.371 OA
HETATM   12  C17 UNL     1       0.271  19.662   5.678  1.00  0.00     0.104 C 
HETATM   13  C18 UNL     1      -0.257  18.247   6.065  1.00  0.00     0.050 C 
HETATM   14  C25 UNL     1      -0.642  20.297   4.729  1.00  0.00     0.081 C 
HETATM   15  C26 UNL     1      -1.654  19.345   4.082  1.00  0.00     0.195 C 
HETATM   16  O6  UNL     1      -1.205  18.441   3.135  1.00  0.00    -0.362 OA
HETATM   17  C27 UNL     1      -0.120  18.650   2.315  1.00  0.00     0.134 C 
HETATM   18  C28 UNL     1       0.516  19.747   2.517  1.00  0.00     0.042 C 
HETATM   19  C29 UNL     1       0.166  20.747   3.532  1.00  0.00     0.149 C 
HETATM   20  F1  UNL     1      -0.712  21.505   2.828  1.00  0.00    -0.236 F 
ENDROOT
BRANCH  12  21
HETATM   21  C19 UNL     1       0.661  20.190   6.997  1.00  0.00     0.176 C 
BRANCH  21  22
HETATM   22  O4  UNL     1      -0.113  21.060   7.683  1.00  0.00    -0.389 OA
ATOM     23  H4  UNL     1      -0.297  20.954   8.609  1.00  0.00     0.210 HD
ENDBRANCH  21  22
BRANCH  21  24
HETATM   24  C20 UNL     1       0.748  19.072   8.051  1.00  0.00     0.006 C 
HETATM   25  C21 UNL     1       0.494  19.249   9.311  1.00  0.00     0.008 C 
BRANCH  25  26
HETATM   26  C22 UNL     1       0.598  18.128  10.262  1.00  0.00     0.068 C 
HETATM   27  C23 UNL     1      -0.090  18.415  11.575  1.00  0.00     0.050 C 
HETATM   28  C24 UNL     1      -0.060  16.914   9.631  1.00  0.00     0.050 C 
BRANCH  26  29
HETATM   29  O5  UNL     1       1.928  17.811  10.565  1.00  0.00    -0.387 OA
ATOM     30  H5  UNL     1       2.442  17.635   9.786  1.00  0.00     0.211 HD
ENDBRANCH  26  29
ENDBRANCH  25  26
ENDBRANCH  21  24
ENDBRANCH  12  21
BRANCH   1  31
HETATM   31  C6  UNL     1      -2.769  20.874   5.868  1.00  0.00     0.214 C 
BRANCH  31  32
HETATM   32  O2  UNL     1      -2.744  20.459   7.181  1.00  0.00    -0.313 OA
BRANCH  32  33
HETATM   33  C5  UNL     1      -3.673  19.792   7.924  1.00  0.00     0.288 C 
HETATM   34  O1  UNL     1      -4.695  20.454   8.307  1.00  0.00    -0.260 OA
BRANCH  33  35
HETATM   35  C3  UNL     1      -3.564  18.385   8.301  1.00  0.00     0.009 C 
HETATM   36  C2  UNL     1      -3.364  17.465   7.387  1.00  0.00    -0.018 C 
HETATM   37  C1  UNL     1      -3.256  16.044   7.780  1.00  0.00     0.036 C 
HETATM   38  C4  UNL     1      -3.680  17.977   9.722  1.00  0.00     0.054 C 
ENDBRANCH  33  35
ENDBRANCH  32  33
ENDBRANCH  31  32
ENDBRANCH   1  31
TORSDOF 9
ENDMDL
MODEL 2
REMARK VINA RESULT: -7.181511696      2.693      7.210
REMARK  9 active torsions:
REMARK  status: ('A' for Active; 'I' for Inactive)
REMARK    1  A    between atoms: C3_3  and  C5_5 
REMARK    2  A    between atoms: C5_5  and  O2_7 
REMARK    3  A    between atoms: O2_7  and  C6_8 
REMARK    4  A    between atoms: C6_8  and  C7_9 
REMARK    5  A    between atoms: C17_20  and  C19_22 
REMARK    6  A    between atoms: C19_22  and  O4_23 
REMARK    7  A    between atoms: C19_22  and  C20_25 
REMARK    8  A    between atoms: C21_26  and  C22_27 
REMARK    9  A    between atoms: C22_27  and  O5_30 
ROOT
HETATM    1  C7  UNL     1       1.681  22.105   3.522  1.00  0.00    -0.042 C 
HETATM    2  C8  UNL     1       1.484  23.357   3.179  1.00  0.00    -0.013 C 
HETATM    3  C9  UNL     1       0.703  24.541   3.303  1.00  0.00     0.027 C 
HETATM    4  C10 UNL     1       1.436  25.672   2.472  1.00  0.00     0.018 C 
HETATM    5  C11 UNL     1       0.201  25.280   4.432  1.00  0.00    -0.019 C 
HETATM    6  C12 UNL     1      -0.976  24.925   5.222  1.00  0.00    -0.007 C 
HETATM    7  C13 UNL     1      -1.549  23.762   5.458  1.00  0.00    -0.016 C 
HETATM    8  C14 UNL     1      -1.072  22.475   4.923  1.00  0.00     0.082 C 
HETATM    9  C15 UNL     1      -2.022  21.340   4.868  1.00  0.00     0.130 C 
HETATM   10  C16 UNL     1      -2.921  21.087   6.022  1.00  0.00     0.040 C 
HETATM   11  O3  UNL     1      -1.304  20.176   4.633  1.00  0.00    -0.371 OA
HETATM   12  C17 UNL     1      -0.167  20.364   3.794  1.00  0.00     0.104 C 
HETATM   13  C18 UNL     1       0.291  18.874   3.764  1.00  0.00     0.050 C 
HETATM   14  C25 UNL     1       0.858  21.191   4.428  1.00  0.00     0.081 C 
HETATM   15  C26 UNL     1       1.922  20.407   5.204  1.00  0.00     0.195 C 
HETATM   16  O6  UNL     1       1.569  19.820   6.407  1.00  0.00    -0.362 OA
HETATM   17  C27 UNL     1       0.589  20.298   7.246  1.00  0.00     0.134 C 
HETATM   18  C28 UNL     1      -0.049  21.325   6.814  1.00  0.00     0.042 C 
HETATM   19  C29 UNL     1       0.199  21.990   5.530  1.00  0.00     0.149 C 
HETATM   20  F1  UNL     1       1.164  22.870   5.899  1.00  0.00    -0.236 F 
ENDROOT
BRANCH  12  21
HETATM   21  C19 UNL     1      -0.696  20.526   2.430  1.00  0.00     0.176 C 
BRANCH  21  22
HETATM   22  O4  UNL     1       0.027  20.208   1.333  1.00  0.00    -0.389 OA
ATOM     23  H4  UNL     1      -0.323  19.670   0.633  1.00  0.00     0.210 HD
ENDBRANCH  21  22
BRANCH  21  24
HETATM   24  C20 UNL     1      -1.911  19.615   2.181  1.00  0.00     0.006 C 
HETATM   25  C21 UNL     1      -2.886  19.916   1.381  1.00  0.00     0.008 C 
BRANCH  25  26
HETATM   26  C22 UNL     1      -4.017  18.990   1.193  1.00  0.00     0.068 C 
HETATM   27  C23 UNL     1      -3.962  18.267  -0.131  1.00  0.00     0.050 C 
HETATM   28  C24 UNL     1      -3.969  17.958   2.305  1.00  0.00     0.050 C 
BRANCH  26  29
HETATM   29  O5  UNL     1      -5.253  19.646   1.242  1.00  0.00    -0.387 OA
ATOM     30  H5  UNL     1      -5.459  19.960   2.115  1.00  0.00     0.211 HD
ENDBRANCH  26  29
ENDBRANCH  25  26
ENDBRANCH  21  24
ENDBRANCH  12  21
BRANCH   1  31
HETATM   31  C6  UNL     1       2.850  21.332   2.956  1.00  0.00     0.214 C 
BRANCH  31  32
HETATM   32  O2  UNL     1       4.075  21.951   2.845  1.00  0.00    -0.313 OA
BRANCH  32  33
HETATM   33  C5  UNL     1       5.286  21.468   2.448  1.00  0.00     0.288 C 
HETATM   34  O1  UNL     1       5.597  21.617   1.218  1.00  0.00    -0.260 OA
BRANCH  33  35
HETATM   35  C3  UNL     1       6.234  20.800   3.336  1.00  0.00     0.009 C 
HETATM   36  C2  UNL     1       7.501  21.140   3.335  1.00  0.00    -0.018 C 
HETATM   37  C1  UNL     1       8.451  20.457   4.239  1.00  0.00     0.036 C 
HETATM   38  C4  UNL     1       5.776  19.727   4.251  1.00  0.00     0.054 C 
ENDBRANCH  33  35
ENDBRANCH  32  33
ENDBRANCH  31  32
ENDBRANCH   1  31
TORSDOF 9
ENDMDL
MODEL 3
REMARK VINA RESULT: -7.152555272      2.398      3.619
REMARK  9 active torsions:
REMARK  status: ('A' for Active; 'I' for Inactive)
REMARK    1  A    between atoms: C3_3  and  C5_5 
REMARK    2  A    between atoms: C5_5  and  O2_7 
REMARK    3  A    between atoms: O2_7  and  C6_8 
REMARK    4  A    between atoms: C6_8  and  C7_9 
REMARK    5  A    between atoms: C17_20  and  C19_22 
REMARK    6  A    between atoms: C19_22  and  O4_23 
REMARK    7  A    between atoms: C19_22  and  C20_25 
REMARK    8  A    between atoms: C21_26  and  C22_27 
REMARK    9  A    between atoms: C22_27  and  O5_30 
ROOT
HETATM    1  C7  UNL     1      -0.033  21.683   3.319  1.00  0.00    -0.042 C 
HETATM    2  C8  UNL     1       0.076  22.938   3.692  1.00  0.00    -0.013 C 
HETATM    3  C9  UNL     1       0.768  24.178   3.592  1.00  0.00     0.027 C 
HETATM    4  C10 UNL     1      -0.037  25.232   4.457  1.00  0.00     0.018 C 
HETATM    5  C11 UNL     1       1.205  24.979   2.479  1.00  0.00    -0.019 C 
HETATM    6  C12 UNL     1       2.398  24.730   1.673  1.00  0.00    -0.007 C 
HETATM    7  C13 UNL     1       3.052  23.617   1.403  1.00  0.00    -0.016 C 
HETATM    8  C14 UNL     1       2.674  22.287   1.908  1.00  0.00     0.082 C 
HETATM    9  C15 UNL     1       3.704  21.222   1.928  1.00  0.00     0.130 C 
HETATM   10  C16 UNL     1       4.609  21.064   0.762  1.00  0.00     0.040 C 
HETATM   11  O3  UNL     1       3.074  20.004   2.138  1.00  0.00    -0.371 OA
HETATM   12  C17 UNL     1       1.934  20.088   2.989  1.00  0.00     0.104 C 
HETATM   13  C18 UNL     1       1.585  18.568   2.986  1.00  0.00     0.050 C 
HETATM   14  C25 UNL     1       0.846  20.854   2.384  1.00  0.00     0.081 C 
HETATM   15  C26 UNL     1      -0.165  20.015   1.596  1.00  0.00     0.195 C 
HETATM   16  O6  UNL     1       0.219  19.485   0.376  1.00  0.00    -0.362 OA
HETATM   17  C27 UNL     1       1.154  20.053  -0.457  1.00  0.00     0.134 C 
HETATM   18  C28 UNL     1       1.720  21.113  -0.004  1.00  0.00     0.042 C 
HETATM   19  C29 UNL     1       1.436  21.726   1.298  1.00  0.00     0.149 C 
HETATM   20  F1  UNL     1       0.407  22.543   0.958  1.00  0.00    -0.236 F 
ENDROOT
BRANCH  12  21
HETATM   21  C19 UNL     1       2.462  20.255   4.354  1.00  0.00     0.176 C 
BRANCH  21  22
HETATM   22  O4  UNL     1       1.686  20.102   5.451  1.00  0.00    -0.389 OA
ATOM     23  H4  UNL     1       2.007  20.280   6.327  1.00  0.00     0.210 HD
ENDBRANCH  21  22
BRANCH  21  24
HETATM   24  C20 UNL     1       3.536  19.202   4.678  1.00  0.00     0.006 C 
HETATM   25  C21 UNL     1       3.792  18.778   5.877  1.00  0.00     0.008 C 
BRANCH  25  26
HETATM   26  C22 UNL     1       4.837  17.765   6.110  1.00  0.00     0.068 C 
HETATM   27  C23 UNL     1       4.456  16.405   5.578  1.00  0.00     0.050 C 
HETATM   28  C24 UNL     1       6.099  18.222   5.399  1.00  0.00     0.050 C 
BRANCH  26  29
HETATM   29  O5  UNL     1       5.123  17.601   7.470  1.00  0.00    -0.387 OA
ATOM     30  H5  UNL     1       5.452  16.731   7.666  1.00  0.00     0.211 HD
ENDBRANCH  26  29
ENDBRANCH  25  26
ENDBRANCH  21  24
ENDBRANCH  12  21
BRANCH   1  31
HETATM   31  C6  UNL     1      -1.138  20.814   3.873  1.00  0.00     0.214 C 
BRANCH  31  32
HETATM   32  O2  UNL     1      -0.966  20.205   5.095  1.00  0.00    -0.313 OA
BRANCH  32  33
HETATM   33  C5  UNL     1      -1.434  20.537   6.332  1.00  0.00     0.288 C 
HETATM   34  O1  UNL     1      -0.636  21.161   7.109  1.00  0.00    -0.260 OA
BRANCH  33  35
HETATM   35  C3  UNL     1      -2.779  20.223   6.811  1.00  0.00     0.009 C 
HETATM   36  C2  UNL     1      -2.967  19.263   7.683  1.00  0.00    -0.018 C 
HETATM   37  C1  UNL     1      -4.331  18.954   8.161  1.00  0.00     0.036 C 
HETATM   38  C4  UNL     1      -3.949  20.987   6.315  1.00  0.00     0.054 C 
ENDBRANCH  33  35
ENDBRANCH  32  33
ENDBRANCH  31  32
ENDBRANCH   1  31
TORSDOF 9
ENDMDL
MODEL 4
REMARK VINA RESULT: -7.097835830      2.258      3.558
REMARK  9 active torsions:
REMARK  status: ('A' for Active; 'I' for Inactive)
REMARK    1  A    between atoms: C3_3  and  C5_5 
REMARK    2  A    between atoms: C5_5  and  O2_7 
REMARK    3  A    between atoms: O2_7  and  C6_8 
REMARK    4  A    between atoms: C6_8  and  C7_9 
REMARK    5  A    between atoms: C17_20  and  C19_22 
REMARK    6  A    between atoms: C19_22  and  O4_23 
REMARK    7  A    between atoms: C19_22  and  C20_25 
REMARK    8  A    between atoms: C21_26  and  C22_27 
REMARK    9  A    between atoms: C22_27  and  O5_30 
ROOT
HETATM    1  C7  UNL     1      -0.016  21.742   3.418  1.00  0.00    -0.042 C 
HETATM    2  C8  UNL     1       0.116  23.002   3.766  1.00  0.00    -0.013 C 
HETATM    3  C9  UNL     1       0.811  24.235   3.621  1.00  0.00     0.027 C 
HETATM    4  C10 UNL     1       0.046  25.308   4.499  1.00  0.00     0.018 C 
HETATM    5  C11 UNL     1       1.210  25.016   2.480  1.00  0.00    -0.019 C 
HETATM    6  C12 UNL     1       2.370  24.746   1.632  1.00  0.00    -0.007 C 
HETATM    7  C13 UNL     1       3.005  23.624   1.356  1.00  0.00    -0.016 C 
HETATM    8  C14 UNL     1       2.638  22.305   1.896  1.00  0.00     0.082 C 
HETATM    9  C15 UNL     1       3.662  21.233   1.893  1.00  0.00     0.130 C 
HETATM   10  C16 UNL     1       4.521  21.051   0.696  1.00  0.00     0.040 C 
HETATM   11  O3  UNL     1       3.033  20.023   2.147  1.00  0.00    -0.371 OA
HETATM   12  C17 UNL     1       1.926  20.128   3.039  1.00  0.00     0.104 C 
HETATM   13  C18 UNL     1       1.568  18.611   3.073  1.00  0.00     0.050 C 
HETATM   14  C25 UNL     1       0.821  20.892   2.464  1.00  0.00     0.081 C 
HETATM   15  C26 UNL     1      -0.225  20.048   1.728  1.00  0.00     0.195 C 
HETATM   16  O6  UNL     1       0.109  19.497   0.503  1.00  0.00    -0.362 OA
HETATM   17  C27 UNL     1       1.016  20.045  -0.374  1.00  0.00     0.134 C 
HETATM   18  C28 UNL     1       1.605  21.107   0.040  1.00  0.00     0.042 C 
HETATM   19  C29 UNL     1       1.374  21.743   1.342  1.00  0.00     0.149 C 
HETATM   20  F1  UNL     1       0.338  22.562   1.029  1.00  0.00    -0.236 F 
ENDROOT
BRANCH  12  21
HETATM   21  C19 UNL     1       2.507  20.312   4.380  1.00  0.00     0.176 C 
BRANCH  21  22
HETATM   22  O4  UNL     1       1.756  20.270   5.503  1.00  0.00    -0.389 OA
ATOM     23  H4  UNL     1       1.356  19.467   5.815  1.00  0.00     0.210 HD
ENDBRANCH  21  22
BRANCH  21  24
HETATM   24  C20 UNL     1       3.506  19.193   4.723  1.00  0.00     0.006 C 
HETATM   25  C21 UNL     1       3.768  18.807   5.933  1.00  0.00     0.008 C 
BRANCH  25  26
HETATM   26  C22 UNL     1       4.738  17.726   6.184  1.00  0.00     0.068 C 
HETATM   27  C23 UNL     1       4.250  16.384   5.695  1.00  0.00     0.050 C 
HETATM   28  C24 UNL     1       6.022  18.067   5.449  1.00  0.00     0.050 C 
BRANCH  26  29
HETATM   29  O5  UNL     1       5.027  17.578   7.546  1.00  0.00    -0.387 OA
ATOM     30  H5  UNL     1       5.531  18.307   7.888  1.00  0.00     0.211 HD
ENDBRANCH  26  29
ENDBRANCH  25  26
ENDBRANCH  21  24
ENDBRANCH  12  21
BRANCH   1  31
HETATM   31  C6  UNL     1      -1.105  20.889   4.027  1.00  0.00     0.214 C 
BRANCH  31  32
HETATM   32  O2  UNL     1      -0.927  20.375   5.292  1.00  0.00    -0.313 OA
BRANCH  32  33
HETATM   33  C5  UNL     1      -1.698  20.474   6.412  1.00  0.00     0.288 C 
HETATM   34  O1  UNL     1      -2.715  21.243   6.352  1.00  0.00    -0.260 OA
BRANCH  33  35
HETATM   35  C3  UNL     1      -1.429  19.761   7.659  1.00  0.00     0.009 C 
HETATM   36  C2  UNL     1      -0.259  19.860   8.243  1.00  0.00    -0.018 C 
HETATM   37  C1  UNL     1       0.003  19.135   9.503  1.00  0.00     0.036 C 
HETATM   38  C4  UNL     1      -2.475  18.913   8.280  1.00  0.00     0.054 C 
ENDBRANCH  33  35
ENDBRANCH  32  33
ENDBRANCH  31  32
ENDBRANCH   1  31
TORSDOF 9
ENDMDL
MODEL 5
REMARK VINA RESULT: -7.094094189      2.499      6.756
REMARK  9 active torsions:
REMARK  status: ('A' for Active; 'I' for Inactive)
REMARK    1  A    between atoms: C3_3  and  C5_5 
REMARK    2  A    between atoms: C5_5  and  O2_7 
REMARK    3  A    between atoms: O2_7  and  C6_8 
REMARK    4  A    between atoms: C6_8  and  C7_9 
REMARK    5  A    between atoms: C17_20  and  C19_22 
REMARK    6  A    between atoms: C19_22  and  O4_23 
REMARK    7  A    between atoms: C19_22  and  C20_25 
REMARK    8  A    between atoms: C21_26  and  C22_27 
REMARK    9  A    between atoms: C22_27  and  O5_30 
ROOT
HETATM    1  C7  UNL     1      -1.017  22.041   5.508  1.00  0.00    -0.042 C 
HETATM    2  C8  UNL     1      -2.315  21.952   5.327  1.00  0.00    -0.013 C 
HETATM    3  C9  UNL     1      -3.482  21.137   5.286  1.00  0.00     0.027 C 
HETATM    4  C10 UNL     1      -4.718  22.103   5.068  1.00  0.00     0.018 C 
HETATM    5  C11 UNL     1      -4.031  20.152   6.181  1.00  0.00    -0.019 C 
HETATM    6  C12 UNL     1      -3.579  18.766   6.295  1.00  0.00    -0.007 C 
HETATM    7  C13 UNL     1      -2.409  18.209   6.055  1.00  0.00    -0.016 C 
HETATM    8  C14 UNL     1      -1.220  18.938   5.582  1.00  0.00     0.082 C 
HETATM    9  C15 UNL     1      -0.138  18.169   4.923  1.00  0.00     0.130 C 
HETATM   10  C16 UNL     1       0.283  16.867   5.499  1.00  0.00     0.040 C 
HETATM   11  O3  UNL     1       0.988  18.975   4.841  1.00  0.00    -0.371 OA
HETATM   12  C17 UNL     1       0.691  20.354   4.638  1.00  0.00     0.104 C 
HETATM   13  C18 UNL     1       2.166  20.854   4.566  1.00  0.00     0.050 C 
HETATM   14  C25 UNL     1       0.015  20.951   5.788  1.00  0.00     0.081 C 
HETATM   15  C26 UNL     1       0.950  21.601   6.813  1.00  0.00     0.195 C 
HETATM   16  O6  UNL     1       1.724  20.784   7.618  1.00  0.00    -0.362 OA
HETATM   17  C27 UNL     1       1.370  19.511   8.002  1.00  0.00     0.134 C 
HETATM   18  C28 UNL     1       0.266  19.078   7.510  1.00  0.00     0.042 C 
HETATM   19  C29 UNL     1      -0.602  19.833   6.600  1.00  0.00     0.149 C 
HETATM   20  F1  UNL     1      -1.378  20.490   7.499  1.00  0.00    -0.236 F 
ENDROOT
BRANCH  12  21
HETATM   21  C19 UNL     1       0.281  20.474   3.228  1.00  0.00     0.176 C 
BRANCH  21  22
HETATM   22  O4  UNL     1      -0.835  21.139   2.856  1.00  0.00    -0.389 OA
ATOM     23  H4  UNL     1      -0.941  21.504   1.986  1.00  0.00     0.210 HD
ENDBRANCH  21  22
BRANCH  21  24
HETATM   24  C20 UNL     1       1.311  21.268   2.404  1.00  0.00     0.006 C 
HETATM   25  C21 UNL     1       0.992  22.124   1.485  1.00  0.00     0.008 C 
BRANCH  25  26
HETATM   26  C22 UNL     1       2.036  22.848   0.737  1.00  0.00     0.068 C 
HETATM   27  C23 UNL     1       2.173  24.286   1.174  1.00  0.00     0.050 C 
HETATM   28  C24 UNL     1       3.360  22.145   0.981  1.00  0.00     0.050 C 
BRANCH  26  29
HETATM   29  O5  UNL     1       1.786  22.867  -0.640  1.00  0.00    -0.387 OA
ATOM     30  H5  UNL     1       1.919  22.017  -1.042  1.00  0.00     0.211 HD
ENDBRANCH  26  29
ENDBRANCH  25  26
ENDBRANCH  21  24
ENDBRANCH  12  21
BRANCH   1  31
HETATM   31  C6  UNL     1      -0.320  23.378   5.399  1.00  0.00     0.214 C 
BRANCH  31  32
HETATM   32  O2  UNL     1      -0.940  24.502   5.898  1.00  0.00    -0.313 OA
BRANCH  32  33
HETATM   33  C5  UNL     1      -1.336  25.651   5.279  1.00  0.00     0.288 C 
HETATM   34  O1  UNL     1      -1.128  25.737   4.023  1.00  0.00    -0.260 OA
BRANCH  33  35
HETATM   35  C3  UNL     1      -1.973  26.773   5.965  1.00  0.00     0.009 C 
HETATM   36  C2  UNL     1      -1.756  26.983   7.241  1.00  0.00    -0.018 C 
HETATM   37  C1  UNL     1      -2.406  28.121   7.924  1.00  0.00     0.036 C 
HETATM   38  C4  UNL     1      -2.876  27.689   5.226  1.00  0.00     0.054 C 
ENDBRANCH  33  35
ENDBRANCH  32  33
ENDBRANCH  31  32
ENDBRANCH   1  31
TORSDOF 9
ENDMDL
