MODEL 1
REMARK VINA RESULT: -7.878753515      0.000      0.000
REMARK  5 active torsions:
REMARK  status: ('A' for Active; 'I' for Inactive)
REMARK    1  A    between atoms: C2_2  and  C3_3 
REMARK    2  A    between atoms: C3_3  and  O1_5 
REMARK    3  A    between atoms: C3_3  and  C5_7 
REMARK    4  A    between atoms: C6_10  and  N2_11 
REMARK    5  A    between atoms: C13_23  and  C14_24 
ROOT
HETATM    1  N2  UNL     1       5.427  19.518   1.947  1.00  0.00    -0.342 N 
HETATM    2  C7  UNL     1       6.336  20.420   1.364  1.00  0.00     0.107 C 
HETATM    3  C8  UNL     1       7.809  20.071   1.349  1.00  0.00     0.241 C 
HETATM    4  F1  UNL     1       8.556  20.680   2.341  1.00  0.00    -0.239 F 
HETATM    5  C9  UNL     1       7.998  18.626   1.271  1.00  0.00     0.006 C 
HETATM    6  C10 UNL     1       9.234  17.909   1.447  1.00  0.00     0.063 A 
HETATM    7  N3  UNL     1       9.774  17.352   2.539  1.00  0.00    -0.300 N 
ATOM      8  H3  UNL     1       9.434  17.542   3.482  1.00  0.00     0.187 HD
HETATM    9  N4  UNL     1      10.773  16.546   2.296  1.00  0.00    -0.304 N 
ATOM     10  H4  UNL     1      11.317  16.021   2.981  1.00  0.00     0.186 HD
HETATM   11  C11 UNL     1      10.949  16.544   0.910  1.00  0.00     0.031 A 
HETATM   12  C12 UNL     1      12.120  15.702   0.418  1.00  0.00     0.070 C 
HETATM   13  C13 UNL     1      10.051  17.357   0.352  1.00  0.00    -0.002 A 
HETATM   14  C20 UNL     1       6.794  17.766   0.907  1.00  0.00     0.145 C 
HETATM   15  C21 UNL     1       7.138  16.351   1.051  1.00  0.00     0.070 C 
HETATM   16  N5  UNL     1       7.407  15.238   1.182  1.00  0.00    -0.197 NA
HETATM   17  C22 UNL     1       5.636  18.092   1.894  1.00  0.00     0.153 C 
ENDROOT
BRANCH   1  18
HETATM   18  C6  UNL     1       4.227  19.937   2.572  1.00  0.00     0.121 A 
HETATM   19  N1  UNL     1       3.405  20.828   1.924  1.00  0.00    -0.329 N 
HETATM   20  C5  UNL     1       2.263  21.289   2.417  1.00  0.00     0.118 A 
ATOM     21  H1  UNL     1       3.692  21.156   1.002  1.00  0.00     0.168 HD
HETATM   22  N6  UNL     1       1.844  20.882   3.619  1.00  0.00    -0.343 N 
HETATM   23  C28 UNL     1       2.622  20.009   4.282  1.00  0.00     0.047 A 
ATOM     24  H6  UNL     1       0.969  21.222   4.018  1.00  0.00     0.167 HD
HETATM   25  C23 UNL     1       3.794  19.513   3.819  1.00  0.00     0.038 A 
HETATM   26  C27 UNL     1       2.156  19.589   5.528  1.00  0.00     0.033 A 
HETATM   27  C24 UNL     1       4.556  18.597   4.528  1.00  0.00     0.059 A 
HETATM   28  C25 UNL     1       4.094  18.170   5.776  1.00  0.00     0.117 A 
HETATM   29  F4  UNL     1       4.885  17.283   6.431  1.00  0.00    -0.206 F 
HETATM   30  C26 UNL     1       2.919  18.682   6.225  1.00  0.00     0.044 A 
BRANCH  20  31
HETATM   31  C3  UNL     1       1.361  22.256   1.707  1.00  0.00     0.112 C 
HETATM   32  C4  UNL     1       1.784  22.316   0.248  1.00  0.00     0.054 C 
BRANCH  31  33
HETATM   33  C2  UNL     1       1.364  23.632   2.319  1.00  0.00     0.041 C 
HETATM   34  C1  UNL     1       2.144  24.613   1.477  1.00  0.00     0.009 C 
ENDBRANCH  31  33
BRANCH  31  35
HETATM   35  O1  UNL     1       0.074  21.753   1.726  1.00  0.00    -0.382 OA
ATOM     36  H1  UNL     1       0.083  20.889   2.120  1.00  0.00     0.211 HD
ENDBRANCH  31  35
ENDBRANCH  20  31
ENDBRANCH   1  18
BRANCH  13  37
HETATM   37  C14 UNL     1       9.941  17.916  -0.954  1.00  0.00     0.023 C 
HETATM   38  C15 UNL     1       9.445  17.290  -2.191  1.00  0.00     0.015 C 
HETATM   39  C16 UNL     1       9.089  18.554  -3.070  1.00  0.00     0.079 C 
HETATM   40  C17 UNL     1      10.379  19.043  -3.643  1.00  0.00     0.243 C 
HETATM   41  F2  UNL     1      10.437  20.430  -3.598  1.00  0.00    -0.206 F 
HETATM   42  F3  UNL     1      10.392  18.594  -4.989  1.00  0.00    -0.206 F 
HETATM   43  C18 UNL     1      11.503  18.352  -2.971  1.00  0.00     0.079 C 
HETATM   44  C19 UNL     1      11.418  18.184  -1.477  1.00  0.00     0.015 C 
ENDBRANCH  13  37
TORSDOF 5
ENDMDL
MODEL 2
REMARK VINA RESULT: -7.878500640      2.247      3.889
REMARK  5 active torsions:
REMARK  status: ('A' for Active; 'I' for Inactive)
REMARK    1  A    between atoms: C2_2  and  C3_3 
REMARK    2  A    between atoms: C3_3  and  O1_5 
REMARK    3  A    between atoms: C3_3  and  C5_7 
REMARK    4  A    between atoms: C6_10  and  N2_11 
REMARK    5  A    between atoms: C13_23  and  C14_24 
ROOT
HETATM    1  N2  UNL     1       4.580  19.956   3.075  1.00  0.00    -0.342 N 
HETATM    2  C7  UNL     1       5.525  20.924   2.687  1.00  0.00     0.107 C 
HETATM    3  C8  UNL     1       6.992  20.551   2.669  1.00  0.00     0.241 C 
HETATM    4  F1  UNL     1       7.707  20.968   3.776  1.00  0.00    -0.239 F 
HETATM    5  C9  UNL     1       7.162  19.136   2.353  1.00  0.00     0.006 C 
HETATM    6  C10 UNL     1       8.380  18.375   2.451  1.00  0.00     0.063 A 
HETATM    7  N3  UNL     1       8.867  17.630   3.453  1.00  0.00    -0.300 N 
ATOM      8  H3  UNL     1       8.492  17.664   4.401  1.00  0.00     0.187 HD
HETATM    9  N4  UNL     1       9.863  16.855   3.113  1.00  0.00    -0.304 N 
ATOM     10  H4  UNL     1      10.372  16.211   3.719  1.00  0.00     0.186 HD
HETATM   11  C11 UNL     1      10.095  17.083   1.754  1.00  0.00     0.031 A 
HETATM   12  C12 UNL     1      11.272  16.312   1.171  1.00  0.00     0.070 C 
HETATM   13  C13 UNL     1       9.232  17.998   1.309  1.00  0.00    -0.002 A 
HETATM   14  C20 UNL     1       5.962  18.376   1.805  1.00  0.00     0.145 C 
HETATM   15  C21 UNL     1       6.278  16.951   1.720  1.00  0.00     0.070 C 
HETATM   16  N5  UNL     1       6.527  15.826   1.670  1.00  0.00    -0.197 NA
HETATM   17  C22 UNL     1       4.770  18.555   2.790  1.00  0.00     0.153 C 
ENDROOT
BRANCH   1  18
HETATM   18  C6  UNL     1       3.362  20.288   3.717  1.00  0.00     0.121 A 
HETATM   19  N1  UNL     1       2.988  19.607   4.851  1.00  0.00    -0.329 N 
HETATM   20  C5  UNL     1       1.870  19.834   5.527  1.00  0.00     0.118 A 
ATOM     21  H1  UNL     1       3.614  18.879   5.196  1.00  0.00     0.168 HD
HETATM   22  N6  UNL     1       1.023  20.781   5.116  1.00  0.00    -0.343 N 
HETATM   23  C28 UNL     1       1.356  21.470   4.010  1.00  0.00     0.047 A 
ATOM     24  H6  UNL     1       0.157  20.975   5.621  1.00  0.00     0.167 HD
HETATM   25  C23 UNL     1       2.485  21.273   3.289  1.00  0.00     0.038 A 
HETATM   26  C27 UNL     1       0.462  22.464   3.610  1.00  0.00     0.033 A 
HETATM   27  C24 UNL     1       2.799  22.021   2.164  1.00  0.00     0.059 A 
HETATM   28  C25 UNL     1       1.909  23.020   1.758  1.00  0.00     0.117 A 
HETATM   29  F4  UNL     1       2.261  23.713   0.646  1.00  0.00    -0.206 F 
HETATM   30  C26 UNL     1       0.781  23.199   2.493  1.00  0.00     0.044 A 
BRANCH  20  31
HETATM   31  C3  UNL     1       1.466  19.095   6.770  1.00  0.00     0.112 C 
HETATM   32  C4  UNL     1       2.273  17.808   6.842  1.00  0.00     0.054 C 
BRANCH  31  33
HETATM   33  C2  UNL     1      -0.010  18.801   6.834  1.00  0.00     0.041 C 
HETATM   34  C1  UNL     1      -0.626  19.327   8.109  1.00  0.00     0.009 C 
ENDBRANCH  31  33
BRANCH  31  35
HETATM   35  O1  UNL     1       1.826  19.851   7.868  1.00  0.00    -0.382 OA
ATOM     36  H1  UNL     1       2.423  20.537   7.593  1.00  0.00     0.211 HD
ENDBRANCH  31  35
ENDBRANCH  20  31
ENDBRANCH   1  18
BRANCH  13  37
HETATM   37  C14 UNL     1       9.182  18.772   0.114  1.00  0.00     0.023 C 
HETATM   38  C15 UNL     1       9.867  18.539  -1.169  1.00  0.00     0.015 C 
HETATM   39  C16 UNL     1       8.986  19.396  -2.162  1.00  0.00     0.079 C 
HETATM   40  C17 UNL     1       9.428  20.813  -1.999  1.00  0.00     0.243 C 
HETATM   41  F2  UNL     1       8.332  21.667  -1.995  1.00  0.00    -0.206 F 
HETATM   42  F3  UNL     1      10.258  21.084  -3.117  1.00  0.00    -0.206 F 
HETATM   43  C18 UNL     1      10.299  20.917  -0.807  1.00  0.00     0.079 C 
HETATM   44  C19 UNL     1       9.875  20.168   0.429  1.00  0.00     0.015 C 
ENDBRANCH  13  37
TORSDOF 5
ENDMDL
MODEL 3
REMARK VINA RESULT: -7.862395559      2.187      3.848
REMARK  5 active torsions:
REMARK  status: ('A' for Active; 'I' for Inactive)
REMARK    1  A    between atoms: C2_2  and  C3_3 
REMARK    2  A    between atoms: C3_3  and  O1_5 
REMARK    3  A    between atoms: C3_3  and  C5_7 
REMARK    4  A    between atoms: C6_10  and  N2_11 
REMARK    5  A    between atoms: C13_23  and  C14_24 
ROOT
HETATM    1  N2  UNL     1       4.919  19.896   3.015  1.00  0.00    -0.342 N 
HETATM    2  C7  UNL     1       5.963  20.840   2.974  1.00  0.00     0.107 C 
HETATM    3  C8  UNL     1       7.394  20.353   3.041  1.00  0.00     0.241 C 
HETATM    4  F1  UNL     1       7.979  20.450   4.290  1.00  0.00    -0.239 F 
HETATM    5  C9  UNL     1       7.522  19.034   2.429  1.00  0.00     0.006 C 
HETATM    6  C10 UNL     1       8.669  18.165   2.490  1.00  0.00     0.063 A 
HETATM    7  N3  UNL     1       8.973  17.177   3.342  1.00  0.00    -0.300 N 
ATOM      8  H3  UNL     1       8.478  17.034   4.222  1.00  0.00     0.187 HD
HETATM    9  N4  UNL     1       9.958  16.413   2.951  1.00  0.00    -0.304 N 
ATOM     10  H4  UNL     1      10.342  15.608   3.447  1.00  0.00     0.186 HD
HETATM   11  C11 UNL     1      10.382  16.915   1.718  1.00  0.00     0.031 A 
HETATM   12  C12 UNL     1      11.579  16.192   1.113  1.00  0.00     0.070 C 
HETATM   13  C13 UNL     1       9.642  17.978   1.399  1.00  0.00    -0.002 A 
HETATM   14  C20 UNL     1       6.363  18.522   1.584  1.00  0.00     0.145 C 
HETATM   15  C21 UNL     1       6.603  17.129   1.210  1.00  0.00     0.070 C 
HETATM   16  N5  UNL     1       6.789  16.026   0.931  1.00  0.00    -0.197 NA
HETATM   17  C22 UNL     1       5.063  18.583   2.438  1.00  0.00     0.153 C 
ENDROOT
BRANCH   1  18
HETATM   18  C6  UNL     1       3.648  20.184   3.570  1.00  0.00     0.121 A 
HETATM   19  N1  UNL     1       3.182  19.426   4.618  1.00  0.00    -0.329 N 
HETATM   20  C5  UNL     1       2.008  19.605   5.208  1.00  0.00     0.118 A 
ATOM     21  H1  UNL     1       3.779  18.675   4.964  1.00  0.00     0.168 HD
HETATM   22  N6  UNL     1       1.194  20.579   4.791  1.00  0.00    -0.343 N 
HETATM   23  C28 UNL     1       1.618  21.343   3.769  1.00  0.00     0.047 A 
ATOM     24  H6  UNL     1       0.287  20.737   5.231  1.00  0.00     0.167 HD
HETATM   25  C23 UNL     1       2.806  21.196   3.136  1.00  0.00     0.038 A 
HETATM   26  C27 UNL     1       0.756  22.362   3.362  1.00  0.00     0.033 A 
HETATM   27  C24 UNL     1       3.212  22.020   2.098  1.00  0.00     0.059 A 
HETATM   28  C25 UNL     1       2.355  23.044   1.685  1.00  0.00     0.117 A 
HETATM   29  F4  UNL     1       2.798  23.813   0.658  1.00  0.00    -0.206 F 
HETATM   30  C26 UNL     1       1.167  23.173   2.330  1.00  0.00     0.044 A 
BRANCH  20  31
HETATM   31  C3  UNL     1       1.502  18.782   6.357  1.00  0.00     0.112 C 
HETATM   32  C4  UNL     1       1.163  17.395   5.835  1.00  0.00     0.054 C 
BRANCH  31  33
HETATM   33  C2  UNL     1       0.313  19.395   7.050  1.00  0.00     0.041 C 
HETATM   34  C1  UNL     1       0.651  19.821   8.459  1.00  0.00     0.009 C 
ENDBRANCH  31  33
BRANCH  31  35
HETATM   35  O1  UNL     1       2.527  18.623   7.270  1.00  0.00    -0.382 OA
ATOM     36  H1  UNL     1       2.889  19.474   7.484  1.00  0.00     0.211 HD
ENDBRANCH  31  35
ENDBRANCH  20  31
ENDBRANCH   1  18
BRANCH  13  37
HETATM   37  C14 UNL     1       9.798  18.999   0.417  1.00  0.00     0.023 C 
HETATM   38  C15 UNL     1       9.228  20.356   0.394  1.00  0.00     0.015 C 
HETATM   39  C16 UNL     1      10.195  21.092  -0.616  1.00  0.00     0.079 C 
HETATM   40  C17 UNL     1       9.744  20.705  -1.986  1.00  0.00     0.243 C 
HETATM   41  F2  UNL     1      10.837  20.447  -2.804  1.00  0.00    -0.206 F 
HETATM   42  F3  UNL     1       9.015  21.820  -2.476  1.00  0.00    -0.206 F 
HETATM   43  C18 UNL     1       8.771  19.594  -1.882  1.00  0.00     0.079 C 
HETATM   44  C19 UNL     1       9.083  18.489  -0.908  1.00  0.00     0.015 C 
ENDBRANCH  13  37
TORSDOF 5
ENDMDL
MODEL 4
REMARK VINA RESULT: -7.825038390      1.043      1.071
REMARK  5 active torsions:
REMARK  status: ('A' for Active; 'I' for Inactive)
REMARK    1  A    between atoms: C2_2  and  C3_3 
REMARK    2  A    between atoms: C3_3  and  O1_5 
REMARK    3  A    between atoms: C3_3  and  C5_7 
REMARK    4  A    between atoms: C6_10  and  N2_11 
REMARK    5  A    between atoms: C13_23  and  C14_24 
ROOT
HETATM    1  N2  UNL     1       5.484  19.327   1.363  1.00  0.00    -0.342 N 
HETATM    2  C7  UNL     1       6.653  20.051   1.065  1.00  0.00     0.107 C 
HETATM    3  C8  UNL     1       7.980  19.323   1.039  1.00  0.00     0.241 C 
HETATM    4  F1  UNL     1       8.739  19.467   2.186  1.00  0.00    -0.239 F 
HETATM    5  C9  UNL     1       7.802  17.937   0.618  1.00  0.00     0.006 C 
HETATM    6  C10 UNL     1       8.787  16.888   0.675  1.00  0.00     0.063 A 
HETATM    7  N3  UNL     1       9.038  15.975   1.623  1.00  0.00    -0.300 N 
ATOM      8  H3  UNL     1       8.652  16.036   2.565  1.00  0.00     0.187 HD
HETATM    9  N4  UNL     1       9.820  15.001   1.240  1.00  0.00    -0.304 N 
ATOM     10  H4  UNL     1      10.130  14.208   1.802  1.00  0.00     0.186 HD
HETATM   11  C11 UNL     1      10.147  15.259  -0.094  1.00  0.00     0.031 A 
HETATM   12  C12 UNL     1      11.113  14.260  -0.717  1.00  0.00     0.070 C 
HETATM   13  C13 UNL     1       9.556  16.391  -0.479  1.00  0.00    -0.002 A 
HETATM   14  C20 UNL     1       6.469  17.544  -0.006  1.00  0.00     0.145 C 
HETATM   15  C21 UNL     1       6.422  16.095  -0.196  1.00  0.00     0.070 C 
HETATM   16  N5  UNL     1       6.383  14.950  -0.328  1.00  0.00    -0.197 NA
HETATM   17  C22 UNL     1       5.327  17.948   0.972  1.00  0.00     0.153 C 
ENDROOT
BRANCH   1  18
HETATM   18  C6  UNL     1       4.366  19.909   2.010  1.00  0.00     0.121 A 
HETATM   19  N1  UNL     1       3.685  20.930   1.392  1.00  0.00    -0.329 N 
HETATM   20  C5  UNL     1       2.631  21.548   1.907  1.00  0.00     0.118 A 
ATOM     21  H1  UNL     1       4.012  21.233   0.474  1.00  0.00     0.168 HD
HETATM   22  N6  UNL     1       2.164  21.182   3.105  1.00  0.00    -0.343 N 
HETATM   23  C28 UNL     1       2.804  20.185   3.739  1.00  0.00     0.047 A 
ATOM     24  H6  UNL     1       1.354  21.642   3.521  1.00  0.00     0.167 HD
HETATM   25  C23 UNL     1       3.883  19.526   3.252  1.00  0.00     0.038 A 
HETATM   26  C27 UNL     1       2.289  19.812   4.980  1.00  0.00     0.033 A 
HETATM   27  C24 UNL     1       4.501  18.488   3.932  1.00  0.00     0.059 A 
HETATM   28  C25 UNL     1       3.990  18.108   5.175  1.00  0.00     0.117 A 
HETATM   29  F4  UNL     1       4.639  17.095   5.801  1.00  0.00    -0.206 F 
HETATM   30  C26 UNL     1       2.910  18.783   5.648  1.00  0.00     0.044 A 
BRANCH  20  31
HETATM   31  C3  UNL     1       1.883  22.659   1.229  1.00  0.00     0.112 C 
HETATM   32  C4  UNL     1       1.541  22.209  -0.183  1.00  0.00     0.054 C 
BRANCH  31  33
HETATM   33  C2  UNL     1       2.641  23.959   1.204  1.00  0.00     0.041 C 
HETATM   34  C1  UNL     1       1.875  25.063   1.893  1.00  0.00     0.009 C 
ENDBRANCH  31  33
BRANCH  31  35
HETATM   35  O1  UNL     1       0.682  22.846   1.886  1.00  0.00    -0.382 OA
ATOM     36  H1  UNL     1       0.853  23.024   2.803  1.00  0.00     0.211 HD
ENDBRANCH  31  35
ENDBRANCH  20  31
ENDBRANCH   1  18
BRANCH  13  37
HETATM   37  C14 UNL     1       9.742  17.235  -1.612  1.00  0.00     0.023 C 
HETATM   38  C15 UNL     1       9.850  16.867  -3.034  1.00  0.00     0.015 C 
HETATM   39  C16 UNL     1       9.497  18.233  -3.746  1.00  0.00     0.079 C 
HETATM   40  C17 UNL     1      10.737  19.063  -3.700  1.00  0.00     0.243 C 
HETATM   41  F2  UNL     1      10.428  20.383  -3.395  1.00  0.00    -0.206 F 
HETATM   42  F3  UNL     1      11.300  18.978  -5.000  1.00  0.00    -0.206 F 
HETATM   43  C18 UNL     1      11.715  18.427  -2.789  1.00  0.00     0.079 C 
HETATM   44  C19 UNL     1      11.192  17.875  -1.489  1.00  0.00     0.015 C 
ENDBRANCH  13  37
TORSDOF 5
ENDMDL
MODEL 5
REMARK VINA RESULT: -7.663505059      4.462      8.906
REMARK  5 active torsions:
REMARK  status: ('A' for Active; 'I' for Inactive)
REMARK    1  A    between atoms: C2_2  and  C3_3 
REMARK    2  A    between atoms: C3_3  and  O1_5 
REMARK    3  A    between atoms: C3_3  and  C5_7 
REMARK    4  A    between atoms: C6_10  and  N2_11 
REMARK    5  A    between atoms: C13_23  and  C14_24 
ROOT
HETATM    1  N2  UNL     1       3.755  19.232   3.359  1.00  0.00    -0.342 N 
HETATM    2  C7  UNL     1       2.642  19.902   3.903  1.00  0.00     0.107 C 
HETATM    3  C8  UNL     1       1.849  20.842   3.020  1.00  0.00     0.241 C 
HETATM    4  F1  UNL     1       2.152  22.181   3.186  1.00  0.00    -0.239 F 
HETATM    5  C9  UNL     1       1.880  20.397   1.630  1.00  0.00     0.006 C 
HETATM    6  C10 UNL     1       1.426  21.136   0.481  1.00  0.00     0.063 A 
HETATM    7  N3  UNL     1       2.089  21.946  -0.355  1.00  0.00    -0.300 N 
ATOM      8  H3  UNL     1       3.022  22.305  -0.154  1.00  0.00     0.187 HD
HETATM    9  N4  UNL     1       1.440  22.238  -1.451  1.00  0.00    -0.304 N 
ATOM     10  H4  UNL     1       1.765  22.831  -2.215  1.00  0.00     0.186 HD
HETATM   11  C11 UNL     1       0.212  21.576  -1.370  1.00  0.00     0.031 A 
HETATM   12  C12 UNL     1      -0.731  21.840  -2.537  1.00  0.00     0.070 C 
HETATM   13  C13 UNL     1       0.151  20.904  -0.220  1.00  0.00    -0.002 A 
HETATM   14  C20 UNL     1       2.380  18.987   1.341  1.00  0.00     0.145 C 
HETATM   15  C21 UNL     1       2.501  18.794  -0.103  1.00  0.00     0.070 C 
HETATM   16  N5  UNL     1       2.610  18.651  -1.242  1.00  0.00    -0.197 NA
HETATM   17  C22 UNL     1       3.792  18.824   1.977  1.00  0.00     0.153 C 
ENDROOT
BRANCH   1  18
HETATM   18  C6  UNL     1       4.881  18.865   4.135  1.00  0.00     0.121 A 
HETATM   19  N1  UNL     1       6.127  19.322   3.775  1.00  0.00    -0.329 N 
HETATM   20  C5  UNL     1       7.247  19.037   4.426  1.00  0.00     0.118 A 
ATOM     21  H1  UNL     1       6.194  19.920   2.951  1.00  0.00     0.168 HD
HETATM   22  N6  UNL     1       7.207  18.261   5.513  1.00  0.00    -0.343 N 
HETATM   23  C28 UNL     1       6.005  17.797   5.897  1.00  0.00     0.047 A 
ATOM     24  H6  UNL     1       8.055  18.030   6.030  1.00  0.00     0.167 HD
HETATM   25  C23 UNL     1       4.837  18.061   5.264  1.00  0.00     0.038 A 
HETATM   26  C27 UNL     1       5.988  17.002   7.043  1.00  0.00     0.033 A 
HETATM   27  C24 UNL     1       3.615  17.577   5.707  1.00  0.00     0.059 A 
HETATM   28  C25 UNL     1       3.590  16.781   6.855  1.00  0.00     0.117 A 
HETATM   29  F4  UNL     1       2.371  16.326   7.237  1.00  0.00    -0.206 F 
HETATM   30  C26 UNL     1       4.772  16.525   7.473  1.00  0.00     0.044 A 
BRANCH  20  31
HETATM   31  C3  UNL     1       8.606  19.542   4.036  1.00  0.00     0.112 C 
HETATM   32  C4  UNL     1       9.281  20.098   5.280  1.00  0.00     0.054 C 
BRANCH  31  33
HETATM   33  C2  UNL     1       8.565  20.578   2.944  1.00  0.00     0.041 C 
HETATM   34  C1  UNL     1       8.946  19.990   1.606  1.00  0.00     0.009 C 
ENDBRANCH  31  33
BRANCH  31  35
HETATM   35  O1  UNL     1       9.370  18.470   3.616  1.00  0.00    -0.382 OA
ATOM     36  H1  UNL     1       9.406  18.465   2.667  1.00  0.00     0.211 HD
ENDBRANCH  31  35
ENDBRANCH  20  31
ENDBRANCH   1  18
BRANCH  13  37
HETATM   37  C14 UNL     1      -0.929  20.287   0.477  1.00  0.00     0.023 C 
HETATM   38  C15 UNL     1      -1.140  18.863   0.783  1.00  0.00     0.015 C 
HETATM   39  C16 UNL     1      -2.166  18.941   1.983  1.00  0.00     0.079 C 
HETATM   40  C17 UNL     1      -3.508  19.175   1.372  1.00  0.00     0.243 C 
HETATM   41  F2  UNL     1      -4.223  20.110   2.112  1.00  0.00    -0.206 F 
HETATM   42  F3  UNL     1      -4.165  17.918   1.403  1.00  0.00    -0.206 F 
HETATM   43  C18 UNL     1      -3.340  19.514  -0.058  1.00  0.00     0.079 C 
HETATM   44  C19 UNL     1      -2.230  20.466  -0.419  1.00  0.00     0.015 C 
ENDBRANCH  13  37
TORSDOF 5
ENDMDL
