MODEL 1
REMARK VINA RESULT: -7.005968385      0.000      0.000
REMARK  9 active torsions:
REMARK  status: ('A' for Active; 'I' for Inactive)
REMARK    1  A    between atoms: C2_2  and  C3_3 
REMARK    2  A    between atoms: C3_3  and  C4_4 
REMARK    3  A    between atoms: C5_5  and  C6_6 
REMARK    4  A    between atoms: C9_11  and  C10_12 
REMARK    5  A    between atoms: C14_17  and  N2_18 
REMARK    6  A    between atoms: C17_21  and  C18_22 
REMARK    7  A    between atoms: C18_22  and  O2_24 
REMARK    8  A    between atoms: N4_30  and  C21_31 
REMARK    9  A    between atoms: C27_37  and  N5_38 
ROOT
HETATM    1  C6  UNL     1       1.517  19.883  -0.550  1.00  0.00     0.164 A 
HETATM    2  N1  UNL     1       1.351  20.962   0.216  1.00  0.00    -0.319 N 
ATOM      3  H1  UNL     1       0.727  21.692  -0.125  1.00  0.00     0.169 HD
HETATM    4  C7  UNL     1       1.947  21.156   1.403  1.00  0.00     0.141 A 
HETATM    5  C8  UNL     1       2.792  20.149   1.841  1.00  0.00     0.082 A 
HETATM    6  C9  UNL     1       3.274  20.563   3.048  1.00  0.00     0.081 A 
HETATM    7  N3  UNL     1       2.730  21.754   3.290  1.00  0.00    -0.295 N 
ATOM      8  H3  UNL     1       2.912  22.307   4.128  1.00  0.00     0.187 HD
HETATM    9  N4  UNL     1       1.922  22.134   2.308  1.00  0.00    -0.270 N 
HETATM   10  C27 UNL     1       2.973  19.028   1.060  1.00  0.00     0.117 A 
HETATM   11  N6  UNL     1       2.332  18.910  -0.127  1.00  0.00    -0.321 N 
ATOM     12  H6  UNL     1       2.471  18.078  -0.700  1.00  0.00     0.169 HD
ENDROOT
BRANCH   6  13
HETATM   13  C10 UNL     1       4.210  19.815   3.892  1.00  0.00     0.056 A 
HETATM   14  C11 UNL     1       5.564  20.043   3.790  1.00  0.00     0.049 A 
HETATM   15 CL1  UNL     1       6.125  21.239   2.634  1.00  0.00    -0.083 Cl
HETATM   16  C12 UNL     1       6.472  19.344   4.582  1.00  0.00     0.027 A 
HETATM   17  C13 UNL     1       6.014  18.409   5.483  1.00  0.00     0.034 A 
HETATM   18  C14 UNL     1       4.676  18.166   5.602  1.00  0.00     0.071 A 
HETATM   19  C20 UNL     1       3.773  18.877   4.797  1.00  0.00     0.157 A 
HETATM   20  F1  UNL     1       2.435  18.609   4.942  1.00  0.00    -0.203 F 
BRANCH  18  21
HETATM   21  N2  UNL     1       4.193  17.204   6.525  1.00  0.00    -0.364 N 
HETATM   22  C15 UNL     1       3.040  17.011   7.384  1.00  0.00     0.127 C 
HETATM   23  C16 UNL     1       3.226  15.517   7.198  1.00  0.00     0.055 C 
HETATM   24  C17 UNL     1       4.680  15.937   7.012  1.00  0.00     0.185 C 
BRANCH  24  25
HETATM   25  C18 UNL     1       5.422  15.953   8.287  1.00  0.00     0.281 C 
HETATM   26  O1  UNL     1       6.505  16.582   8.352  1.00  0.00    -0.263 OA
BRANCH  25  27
HETATM   27  O2  UNL     1       4.986  15.306   9.429  1.00  0.00    -0.325 OA
HETATM   28  C19 UNL     1       4.704  16.071  10.603  1.00  0.00     0.213 C 
ENDBRANCH  25  27
ENDBRANCH  24  25
ENDBRANCH  18  21
ENDBRANCH   6  13
BRANCH  10  29
HETATM   29  N5  UNL     1       3.771  18.111   1.509  1.00  0.00    -0.385 N 
ATOM     30  H52 UNL     1       4.090  18.094   2.478  1.00  0.00     0.157 HD
ATOM     31  H51 UNL     1       4.077  17.392   0.854  1.00  0.00     0.157 HD
ENDBRANCH  10  29
BRANCH   9  32
HETATM   32  C21 UNL     1       1.151  23.385   2.228  1.00  0.00     0.110 C 
HETATM   33  C22 UNL     1       2.004  24.396   1.569  1.00  0.00     0.027 C 
HETATM   34  C23 UNL     1       1.891  25.789   2.072  1.00  0.00     0.002 C 
HETATM   35  C24 UNL     1       0.478  25.991   2.579  1.00  0.00     0.000 C 
HETATM   36  C25 UNL     1       0.349  25.152   3.830  1.00  0.00     0.002 C 
HETATM   37  C26 UNL     1       0.659  23.702   3.584  1.00  0.00     0.027 C 
ENDBRANCH   9  32
BRANCH   1  38
HETATM   38  C5  UNL     1       0.846  19.741  -1.811  1.00  0.00    -0.030 C 
HETATM   39  C4  UNL     1       0.263  19.625  -2.865  1.00  0.00    -0.098 C 
BRANCH  39  40
HETATM   40  C3  UNL     1      -0.461  19.502  -4.128  1.00  0.00     0.094 C 
BRANCH  40  41
HETATM   41  C2  UNL     1       0.429  20.023  -5.263  1.00  0.00     0.007 C 
HETATM   42  C1  UNL     1       0.718  21.471  -5.012  1.00  0.00     0.006 C 
ENDBRANCH  40  41
ENDBRANCH  39  40
ENDBRANCH   1  38
TORSDOF 9
ENDMDL
MODEL 2
REMARK VINA RESULT: -6.784526453      1.101      1.521
REMARK  9 active torsions:
REMARK  status: ('A' for Active; 'I' for Inactive)
REMARK    1  A    between atoms: C2_2  and  C3_3 
REMARK    2  A    between atoms: C3_3  and  C4_4 
REMARK    3  A    between atoms: C5_5  and  C6_6 
REMARK    4  A    between atoms: C9_11  and  C10_12 
REMARK    5  A    between atoms: C14_17  and  N2_18 
REMARK    6  A    between atoms: C17_21  and  C18_22 
REMARK    7  A    between atoms: C18_22  and  O2_24 
REMARK    8  A    between atoms: N4_30  and  C21_31 
REMARK    9  A    between atoms: C27_37  and  N5_38 
ROOT
HETATM    1  C6  UNL     1       1.516  19.854  -0.580  1.00  0.00     0.164 A 
HETATM    2  N1  UNL     1       1.353  20.926   0.196  1.00  0.00    -0.319 N 
ATOM      3  H1  UNL     1       0.743  21.668  -0.146  1.00  0.00     0.169 HD
HETATM    4  C7  UNL     1       1.934  21.099   1.393  1.00  0.00     0.141 A 
HETATM    5  C8  UNL     1       2.760  20.076   1.831  1.00  0.00     0.082 A 
HETATM    6  C9  UNL     1       3.229  20.470   3.050  1.00  0.00     0.081 A 
HETATM    7  N3  UNL     1       2.697  21.665   3.299  1.00  0.00    -0.295 N 
ATOM      8  H3  UNL     1       2.874  22.206   4.146  1.00  0.00     0.187 HD
HETATM    9  N4  UNL     1       1.909  22.066   2.309  1.00  0.00    -0.270 N 
HETATM   10  C27 UNL     1       2.938  18.962   1.040  1.00  0.00     0.117 A 
HETATM   11  N6  UNL     1       2.313  18.865  -0.157  1.00  0.00    -0.321 N 
ATOM     12  H6  UNL     1       2.450  18.038  -0.738  1.00  0.00     0.169 HD
ENDROOT
BRANCH   6  13
HETATM   13  C10 UNL     1       4.144  19.701   3.898  1.00  0.00     0.056 A 
HETATM   14  C11 UNL     1       5.482  20.022   3.939  1.00  0.00     0.049 A 
HETATM   15 CL1  UNL     1       6.049  21.362   2.958  1.00  0.00    -0.083 Cl
HETATM   16  C12 UNL     1       6.369  19.304   4.738  1.00  0.00     0.027 A 
HETATM   17  C13 UNL     1       5.907  18.256   5.501  1.00  0.00     0.034 A 
HETATM   18  C14 UNL     1       4.584  17.919   5.477  1.00  0.00     0.071 A 
HETATM   19  C20 UNL     1       3.702  18.650   4.667  1.00  0.00     0.157 A 
HETATM   20  F1  UNL     1       2.379  18.285   4.667  1.00  0.00    -0.203 F 
BRANCH  18  21
HETATM   21  N2  UNL     1       4.097  16.840   6.258  1.00  0.00    -0.364 N 
HETATM   22  C15 UNL     1       3.610  15.488   6.053  1.00  0.00     0.127 C 
HETATM   23  C16 UNL     1       4.154  15.148   7.428  1.00  0.00     0.055 C 
HETATM   24  C17 UNL     1       3.881  16.629   7.668  1.00  0.00     0.185 C 
BRANCH  24  25
HETATM   25  C18 UNL     1       2.517  16.868   8.177  1.00  0.00     0.281 C 
HETATM   26  O1  UNL     1       2.232  16.511   9.344  1.00  0.00    -0.263 OA
BRANCH  25  27
HETATM   27  O2  UNL     1       1.522  17.472   7.429  1.00  0.00    -0.325 OA
HETATM   28  C19 UNL     1       1.117  18.804   7.749  1.00  0.00     0.213 C 
ENDBRANCH  25  27
ENDBRANCH  24  25
ENDBRANCH  18  21
ENDBRANCH   6  13
BRANCH  10  29
HETATM   29  N5  UNL     1       3.718  18.030   1.490  1.00  0.00    -0.385 N 
ATOM     30  H52 UNL     1       4.097  18.047   2.437  1.00  0.00     0.157 HD
ATOM     31  H51 UNL     1       3.947  17.263   0.857  1.00  0.00     0.157 HD
ENDBRANCH  10  29
BRANCH   9  32
HETATM   32  C21 UNL     1       1.155  23.328   2.233  1.00  0.00     0.110 C 
HETATM   33  C22 UNL     1       2.009  24.320   1.547  1.00  0.00     0.027 C 
HETATM   34  C23 UNL     1       1.926  25.719   2.039  1.00  0.00     0.002 C 
HETATM   35  C24 UNL     1       0.527  25.947   2.573  1.00  0.00     0.000 C 
HETATM   36  C25 UNL     1       0.411  25.121   3.834  1.00  0.00     0.002 C 
HETATM   37  C26 UNL     1       0.695  23.665   3.596  1.00  0.00     0.027 C 
ENDBRANCH   9  32
BRANCH   1  38
HETATM   38  C5  UNL     1       0.862  19.735  -1.852  1.00  0.00    -0.030 C 
HETATM   39  C4  UNL     1       0.292  19.634  -2.916  1.00  0.00    -0.098 C 
BRANCH  39  40
HETATM   40  C3  UNL     1      -0.419  19.524  -4.188  1.00  0.00     0.094 C 
BRANCH  40  41
HETATM   41  C2  UNL     1       0.465  20.103  -5.300  1.00  0.00     0.007 C 
HETATM   42  C1  UNL     1       0.723  21.546  -4.998  1.00  0.00     0.006 C 
ENDBRANCH  40  41
ENDBRANCH  39  40
ENDBRANCH   1  38
TORSDOF 9
ENDMDL
MODEL 3
REMARK VINA RESULT: -6.777040052      0.820      1.144
REMARK  9 active torsions:
REMARK  status: ('A' for Active; 'I' for Inactive)
REMARK    1  A    between atoms: C2_2  and  C3_3 
REMARK    2  A    between atoms: C3_3  and  C4_4 
REMARK    3  A    between atoms: C5_5  and  C6_6 
REMARK    4  A    between atoms: C9_11  and  C10_12 
REMARK    5  A    between atoms: C14_17  and  N2_18 
REMARK    6  A    between atoms: C17_21  and  C18_22 
REMARK    7  A    between atoms: C18_22  and  O2_24 
REMARK    8  A    between atoms: N4_30  and  C21_31 
REMARK    9  A    between atoms: C27_37  and  N5_38 
ROOT
HETATM    1  C6  UNL     1       1.484  19.872  -0.568  1.00  0.00     0.164 A 
HETATM    2  N1  UNL     1       1.323  20.941   0.211  1.00  0.00    -0.319 N 
ATOM      3  H1  UNL     1       0.696  21.675  -0.117  1.00  0.00     0.169 HD
HETATM    4  C7  UNL     1       1.927  21.122   1.396  1.00  0.00     0.141 A 
HETATM    5  C8  UNL     1       2.775  20.110   1.817  1.00  0.00     0.082 A 
HETATM    6  C9  UNL     1       3.265  20.511   3.025  1.00  0.00     0.081 A 
HETATM    7  N3  UNL     1       2.722  21.699   3.285  1.00  0.00    -0.295 N 
ATOM      8  H3  UNL     1       2.910  22.242   4.128  1.00  0.00     0.187 HD
HETATM    9  N4  UNL     1       1.908  22.090   2.312  1.00  0.00    -0.270 N 
HETATM   10  C27 UNL     1       2.951  18.999   1.022  1.00  0.00     0.117 A 
HETATM   11  N6  UNL     1       2.302  18.894  -0.162  1.00  0.00    -0.321 N 
ATOM     12  H6  UNL     1       2.437  18.068  -0.745  1.00  0.00     0.169 HD
ENDROOT
BRANCH   6  13
HETATM   13  C10 UNL     1       4.207  19.754   3.854  1.00  0.00     0.056 A 
HETATM   14  C11 UNL     1       5.550  20.054   3.821  1.00  0.00     0.049 A 
HETATM   15 CL1  UNL     1       6.090  21.353   2.771  1.00  0.00    -0.083 Cl
HETATM   16  C12 UNL     1       6.464  19.348   4.601  1.00  0.00     0.027 A 
HETATM   17  C13 UNL     1       6.023  18.332   5.418  1.00  0.00     0.034 A 
HETATM   18  C14 UNL     1       4.695  18.017   5.467  1.00  0.00     0.071 A 
HETATM   19  C20 UNL     1       3.786  18.736   4.676  1.00  0.00     0.157 A 
HETATM   20  F1  UNL     1       2.460  18.393   4.750  1.00  0.00    -0.203 F 
BRANCH  18  21
HETATM   21  N2  UNL     1       4.230  16.971   6.305  1.00  0.00    -0.364 N 
HETATM   22  C15 UNL     1       3.500  16.825   7.551  1.00  0.00     0.127 C 
HETATM   23  C16 UNL     1       2.968  15.508   7.016  1.00  0.00     0.055 C 
HETATM   24  C17 UNL     1       4.288  15.531   6.251  1.00  0.00     0.185 C 
BRANCH  24  25
HETATM   25  C18 UNL     1       5.378  14.880   7.003  1.00  0.00     0.281 C 
HETATM   26  O1  UNL     1       5.239  13.687   7.365  1.00  0.00    -0.263 OA
BRANCH  25  27
HETATM   27  O2  UNL     1       6.559  15.518   7.337  1.00  0.00    -0.325 OA
HETATM   28  C19 UNL     1       7.741  15.241   6.584  1.00  0.00     0.213 C 
ENDBRANCH  25  27
ENDBRANCH  24  25
ENDBRANCH  18  21
ENDBRANCH   6  13
BRANCH  10  29
HETATM   29  N5  UNL     1       3.753  18.077   1.455  1.00  0.00    -0.385 N 
ATOM     30  H52 UNL     1       4.658  17.896   1.023  1.00  0.00     0.157 HD
ATOM     31  H51 UNL     1       3.446  17.527   2.258  1.00  0.00     0.157 HD
ENDBRANCH  10  29
BRANCH   9  32
HETATM   32  C21 UNL     1       1.136  23.341   2.252  1.00  0.00     0.110 C 
HETATM   33  C22 UNL     1       1.978  24.355   1.583  1.00  0.00     0.027 C 
HETATM   34  C23 UNL     1       1.873  25.746   2.095  1.00  0.00     0.002 C 
HETATM   35  C24 UNL     1       0.469  25.946   2.628  1.00  0.00     0.000 C 
HETATM   36  C25 UNL     1       0.362  25.100   3.877  1.00  0.00     0.002 C 
HETATM   37  C26 UNL     1       0.668  23.652   3.618  1.00  0.00     0.027 C 
ENDBRANCH   9  32
BRANCH   1  38
HETATM   38  C5  UNL     1       0.804  19.743  -1.826  1.00  0.00    -0.030 C 
HETATM   39  C4  UNL     1       0.240  19.651  -2.893  1.00  0.00    -0.098 C 
BRANCH  39  40
HETATM   40  C3  UNL     1      -0.420  19.555  -4.193  1.00  0.00     0.094 C 
BRANCH  40  41
HETATM   41  C2  UNL     1       0.509  20.137  -5.265  1.00  0.00     0.007 C 
HETATM   42  C1  UNL     1       0.782  21.570  -4.929  1.00  0.00     0.006 C 
ENDBRANCH  40  41
ENDBRANCH  39  40
ENDBRANCH   1  38
TORSDOF 9
ENDMDL
MODEL 4
REMARK VINA RESULT: -6.774403995      3.027      4.205
REMARK  9 active torsions:
REMARK  status: ('A' for Active; 'I' for Inactive)
REMARK    1  A    between atoms: C2_2  and  C3_3 
REMARK    2  A    between atoms: C3_3  and  C4_4 
REMARK    3  A    between atoms: C5_5  and  C6_6 
REMARK    4  A    between atoms: C9_11  and  C10_12 
REMARK    5  A    between atoms: C14_17  and  N2_18 
REMARK    6  A    between atoms: C17_21  and  C18_22 
REMARK    7  A    between atoms: C18_22  and  O2_24 
REMARK    8  A    between atoms: N4_30  and  C21_31 
REMARK    9  A    between atoms: C27_37  and  N5_38 
ROOT
HETATM    1  C6  UNL     1       1.150  21.379  -0.381  1.00  0.00     0.164 A 
HETATM    2  N1  UNL     1       0.751  22.003   0.727  1.00  0.00    -0.319 N 
ATOM      3  H1  UNL     1      -0.020  22.665   0.644  1.00  0.00     0.169 HD
HETATM    4  C7  UNL     1       1.290  21.823   1.942  1.00  0.00     0.141 A 
HETATM    5  C8  UNL     1       2.337  20.919   2.025  1.00  0.00     0.082 A 
HETATM    6  C9  UNL     1       2.716  20.904   3.335  1.00  0.00     0.081 A 
HETATM    7  N3  UNL     1       1.923  21.762   3.975  1.00  0.00    -0.295 N 
ATOM      8  H3  UNL     1       1.978  21.958   4.975  1.00  0.00     0.187 HD
HETATM    9  N4  UNL     1       1.050  22.330   3.151  1.00  0.00    -0.270 N 
HETATM   10  C27 UNL     1       2.761  20.266   0.888  1.00  0.00     0.117 A 
HETATM   11  N6  UNL     1       2.161  20.505  -0.302  1.00  0.00    -0.321 N 
ATOM     12  H6  UNL     1       2.480  20.019  -1.140  1.00  0.00     0.169 HD
ENDROOT
BRANCH   6  13
HETATM   13  C10 UNL     1       3.795  20.089   3.899  1.00  0.00     0.056 A 
HETATM   14  C11 UNL     1       3.500  19.021   4.715  1.00  0.00     0.049 A 
HETATM   15 CL1  UNL     1       1.814  18.670   5.054  1.00  0.00    -0.083 Cl
HETATM   16  C12 UNL     1       4.510  18.233   5.262  1.00  0.00     0.027 A 
HETATM   17  C13 UNL     1       5.828  18.522   4.986  1.00  0.00     0.034 A 
HETATM   18  C14 UNL     1       6.145  19.577   4.179  1.00  0.00     0.071 A 
HETATM   19  C20 UNL     1       5.117  20.362   3.636  1.00  0.00     0.157 A 
HETATM   20  F1  UNL     1       5.471  21.414   2.829  1.00  0.00    -0.203 F 
BRANCH  18  21
HETATM   21  N2  UNL     1       7.498  19.885   3.889  1.00  0.00    -0.364 N 
HETATM   22  C15 UNL     1       8.317  21.063   3.665  1.00  0.00     0.127 C 
HETATM   23  C16 UNL     1       9.486  20.287   4.241  1.00  0.00     0.055 C 
HETATM   24  C17 UNL     1       8.694  19.103   3.695  1.00  0.00     0.185 C 
BRANCH  24  25
HETATM   25  C18 UNL     1       9.063  18.783   2.303  1.00  0.00     0.281 C 
HETATM   26  O1  UNL     1      10.061  18.055   2.090  1.00  0.00    -0.263 OA
BRANCH  25  27
HETATM   27  O2  UNL     1       8.361  19.247   1.205  1.00  0.00    -0.325 OA
HETATM   28  C19 UNL     1       7.316  18.444   0.652  1.00  0.00     0.213 C 
ENDBRANCH  25  27
ENDBRANCH  24  25
ENDBRANCH  18  21
ENDBRANCH   6  13
BRANCH  10  29
HETATM   29  N5  UNL     1       3.742  19.429   1.012  1.00  0.00    -0.385 N 
ATOM     30  H52 UNL     1       4.068  18.854   0.236  1.00  0.00     0.157 HD
ATOM     31  H51 UNL     1       4.189  19.362   1.927  1.00  0.00     0.157 HD
ENDBRANCH  10  29
BRANCH   9  32
HETATM   32  C21 UNL     1       0.021  23.324   3.499  1.00  0.00     0.110 C 
HETATM   33  C22 UNL     1       0.630  24.664   3.368  1.00  0.00     0.027 C 
HETATM   34  C23 UNL     1       0.210  25.683   4.364  1.00  0.00     0.002 C 
HETATM   35  C24 UNL     1      -1.213  25.374   4.781  1.00  0.00     0.000 C 
HETATM   36  C25 UNL     1      -1.155  24.095   5.586  1.00  0.00     0.002 C 
HETATM   37  C26 UNL     1      -0.531  22.962   4.820  1.00  0.00     0.027 C 
ENDBRANCH   9  32
BRANCH   1  38
HETATM   38  C5  UNL     1       0.526  21.620  -1.652  1.00  0.00    -0.030 C 
HETATM   39  C4  UNL     1       0.015  21.835  -2.728  1.00  0.00    -0.098 C 
BRANCH  39  40
HETATM   40  C3  UNL     1      -0.578  22.102  -4.036  1.00  0.00     0.094 C 
BRANCH  40  41
HETATM   41  C2  UNL     1       0.386  21.615  -5.125  1.00  0.00     0.007 C 
HETATM   42  C1  UNL     1       0.370  20.118  -5.139  1.00  0.00     0.006 C 
ENDBRANCH  40  41
ENDBRANCH  39  40
ENDBRANCH   1  38
TORSDOF 9
ENDMDL
MODEL 5
REMARK VINA RESULT: -6.768738433      3.307      4.659
REMARK  9 active torsions:
REMARK  status: ('A' for Active; 'I' for Inactive)
REMARK    1  A    between atoms: C2_2  and  C3_3 
REMARK    2  A    between atoms: C3_3  and  C4_4 
REMARK    3  A    between atoms: C5_5  and  C6_6 
REMARK    4  A    between atoms: C9_11  and  C10_12 
REMARK    5  A    between atoms: C14_17  and  N2_18 
REMARK    6  A    between atoms: C17_21  and  C18_22 
REMARK    7  A    between atoms: C18_22  and  O2_24 
REMARK    8  A    between atoms: N4_30  and  C21_31 
REMARK    9  A    between atoms: C27_37  and  N5_38 
ROOT
HETATM    1  C6  UNL     1       0.856  20.003  -0.661  1.00  0.00     0.164 A 
HETATM    2  N1  UNL     1       0.850  21.076   0.130  1.00  0.00    -0.319 N 
ATOM      3  H1  UNL     1       0.177  21.813  -0.078  1.00  0.00     0.169 HD
HETATM    4  C7  UNL     1       1.666  21.256   1.180  1.00  0.00     0.141 A 
HETATM    5  C8  UNL     1       2.572  20.240   1.438  1.00  0.00     0.082 A 
HETATM    6  C9  UNL     1       3.283  20.640   2.531  1.00  0.00     0.081 A 
HETATM    7  N3  UNL     1       2.806  21.833   2.883  1.00  0.00    -0.295 N 
ATOM      8  H3  UNL     1       3.151  22.378   3.674  1.00  0.00     0.187 HD
HETATM    9  N4  UNL     1       1.826  22.226   2.079  1.00  0.00    -0.270 N 
HETATM   10  C27 UNL     1       2.590  19.125   0.629  1.00  0.00     0.117 A 
HETATM   11  N6  UNL     1       1.730  19.021  -0.412  1.00  0.00    -0.321 N 
ATOM     12  H6  UNL     1       1.748  18.193  -1.007  1.00  0.00     0.169 HD
ENDROOT
BRANCH   6  13
HETATM   13  C10 UNL     1       4.359  19.880   3.172  1.00  0.00     0.056 A 
HETATM   14  C11 UNL     1       4.142  19.260   4.381  1.00  0.00     0.049 A 
HETATM   15 CL1  UNL     1       2.557  19.406   5.121  1.00  0.00    -0.083 Cl
HETATM   16  C12 UNL     1       5.151  18.532   5.007  1.00  0.00     0.027 A 
HETATM   17  C13 UNL     1       6.389  18.428   4.412  1.00  0.00     0.034 A 
HETATM   18  C14 UNL     1       6.628  19.035   3.213  1.00  0.00     0.071 A 
HETATM   19  C20 UNL     1       5.602  19.765   2.594  1.00  0.00     0.157 A 
HETATM   20  F1  UNL     1       5.876  20.362   1.389  1.00  0.00    -0.203 F 
BRANCH  18  21
HETATM   21  N2  UNL     1       7.899  18.936   2.591  1.00  0.00    -0.364 N 
HETATM   22  C15 UNL     1       9.247  19.432   2.798  1.00  0.00     0.127 C 
HETATM   23  C16 UNL     1       9.751  18.161   2.140  1.00  0.00     0.055 C 
HETATM   24  C17 UNL     1       8.405  18.249   1.428  1.00  0.00     0.185 C 
BRANCH  24  25
HETATM   25  C18 UNL     1       8.486  19.028   0.178  1.00  0.00     0.281 C 
HETATM   26  O1  UNL     1       7.714  18.742  -0.768  1.00  0.00    -0.263 OA
BRANCH  25  27
HETATM   27  O2  UNL     1       9.378  20.068  -0.014  1.00  0.00    -0.325 OA
HETATM   28  C19 UNL     1       9.546  20.614  -1.323  1.00  0.00     0.213 C 
ENDBRANCH  25  27
ENDBRANCH  24  25
ENDBRANCH  18  21
ENDBRANCH   6  13
BRANCH  10  29
HETATM   29  N5  UNL     1       3.453  18.199   0.908  1.00  0.00    -0.385 N 
ATOM     30  H52 UNL     1       4.357  18.139   0.440  1.00  0.00     0.157 HD
ATOM     31  H51 UNL     1       3.198  17.519   1.624  1.00  0.00     0.157 HD
ENDBRANCH  10  29
BRANCH   9  32
HETATM   32  C21 UNL     1       1.064  23.483   2.160  1.00  0.00     0.110 C 
HETATM   33  C22 UNL     1       1.885  24.546   1.543  1.00  0.00     0.027 C 
HETATM   34  C23 UNL     1       1.816  25.888   2.175  1.00  0.00     0.002 C 
HETATM   35  C24 UNL     1       0.438  26.050   2.785  1.00  0.00     0.000 C 
HETATM   36  C25 UNL     1       0.377  25.101   3.961  1.00  0.00     0.002 C 
HETATM   37  C26 UNL     1       0.658  23.678   3.566  1.00  0.00     0.027 C 
ENDBRANCH   9  32
BRANCH   1  38
HETATM   38  C5  UNL     1      -0.049  19.875  -1.769  1.00  0.00    -0.030 C 
HETATM   39  C4  UNL     1      -0.796  19.766  -2.715  1.00  0.00    -0.098 C 
BRANCH  39  40
HETATM   40  C3  UNL     1      -1.677  19.621  -3.871  1.00  0.00     0.094 C 
BRANCH  40  41
HETATM   41  C2  UNL     1      -0.879  19.012  -5.030  1.00  0.00     0.007 C 
HETATM   42  C1  UNL     1       0.291  19.902  -5.319  1.00  0.00     0.006 C 
ENDBRANCH  40  41
ENDBRANCH  39  40
ENDBRANCH   1  38
TORSDOF 9
ENDMDL
