MODEL 1
REMARK VINA RESULT: -7.872413043      0.000      0.000
REMARK  7 active torsions:
REMARK  status: ('A' for Active; 'I' for Inactive)
REMARK    1  A    between atoms: C2_2  and  O1_3 
REMARK    2  A    between atoms: C2_2  and  C15_24 
REMARK    3  A    between atoms: O1_3  and  C3_4 
REMARK       I    between atoms: C3_4  and  N1_6 
REMARK    4  A    between atoms: N1_6  and  C4_8 
REMARK    5  A    between atoms: C8_12  and  N2_13 
REMARK    6  A    between atoms: N2_13  and  C9_15 
REMARK    7  A    between atoms: C17_27  and  C18_28 
ROOT
HETATM    1  C3  UNL     1       4.854  21.544   1.958  1.00  0.00     0.361 C 
HETATM    2  O2  UNL     1       4.223  21.061   2.947  1.00  0.00    -0.238 OA
HETATM    3  N1  UNL     1       6.190  21.068   1.758  1.00  0.00    -0.332 N 
ATOM      4  H1  UNL     1       6.728  21.432   0.972  1.00  0.00     0.165 HD
ENDROOT
BRANCH   1   5
HETATM    5  O1  UNL     1       4.208  22.462   1.185  1.00  0.00    -0.293 OA
BRANCH   5   6
HETATM    6  C2  UNL     1       2.947  23.003   1.432  1.00  0.00     0.181 C 
HETATM    7  C1  UNL     1       2.845  24.495   1.104  1.00  0.00     0.047 C 
BRANCH   6   8
HETATM    8  C15 UNL     1       1.818  22.282   0.794  1.00  0.00     0.063 A 
HETATM    9  C16 UNL     1       0.551  22.243   1.332  1.00  0.00     0.172 A 
HETATM   10  O3  UNL     1      -0.200  21.525   0.501  1.00  0.00    -0.301 OA
HETATM   11  C17 UNL     1       0.463  21.111  -0.496  1.00  0.00     0.182 A 
HETATM   12  N5  UNL     1       1.759  21.589  -0.320  1.00  0.00    -0.334 N 
ATOM     13  H5  UNL     1       2.540  21.427  -0.956  1.00  0.00     0.168 HD
BRANCH  11  14
HETATM   14  C18 UNL     1       0.232  20.310  -1.714  1.00  0.00     0.127 A 
HETATM   15  N4  UNL     1       0.046  19.682  -2.696  1.00  0.00    -0.341 N 
HETATM   16  C19 UNL     1      -0.177  19.682  -3.901  1.00  0.00     0.087 A 
ATOM     17  H4  UNL     1       0.094  18.702  -2.418  1.00  0.00     0.167 HD
HETATM   18 BR1  UNL     1      -0.397  18.141  -5.049  1.00  0.00    -0.031 Br
HETATM   19  C20 UNL     1      -0.259  20.966  -4.386  1.00  0.00     0.089 A 
HETATM   20  S1  UNL     1       0.004  21.864  -3.005  1.00  0.00    -0.077 SA
ENDBRANCH  11  14
ENDBRANCH   6   8
ENDBRANCH   5   6
ENDBRANCH   1   5
BRANCH   3  21
HETATM   21  C4  UNL     1       6.800  20.100   2.625  1.00  0.00     0.088 C 
HETATM   22  C5  UNL     1       7.380  20.862   3.794  1.00  0.00     0.025 C 
HETATM   23  C6  UNL     1       8.847  20.633   3.926  1.00  0.00     0.004 C 
HETATM   24  C7  UNL     1       9.570  20.820   2.641  1.00  0.00     0.025 C 
HETATM   25  C8  UNL     1       9.064  19.880   1.554  1.00  0.00     0.083 C 
HETATM   26  C14 UNL     1       7.789  19.188   1.984  1.00  0.00     0.050 C 
BRANCH  25  27
HETATM   27  N2  UNL     1       8.913  20.592   0.322  1.00  0.00    -0.384 N 
ATOM     28  H2  UNL     1       8.563  21.546   0.405  1.00  0.00     0.160 HD
BRANCH  27  29
HETATM   29  C9  UNL     1       9.155  20.198  -0.858  1.00  0.00     0.053 A 
HETATM   30  C10 UNL     1       8.624  19.078  -1.467  1.00  0.00     0.048 A 
HETATM   31  C11 UNL     1       8.943  18.685  -2.758  1.00  0.00     0.090 A 
HETATM   32  N3  UNL     1       9.819  19.454  -3.422  1.00  0.00    -0.373 N 
HETATM   33  C12 UNL     1      10.381  20.552  -2.912  1.00  0.00     0.113 A 
ATOM     34  H3  UNL     1      10.070  19.184  -4.373  1.00  0.00     0.164 HD
HETATM   35  C13 UNL     1      10.046  20.933  -1.609  1.00  0.00     0.075 A 
HETATM   36 CL1  UNL     1      10.806  22.365  -0.937  1.00  0.00    -0.080 Cl
ENDBRANCH  27  29
ENDBRANCH  25  27
ENDBRANCH   3  21
TORSDOF 7
ENDMDL
MODEL 2
REMARK VINA RESULT: -7.261832958      4.492      9.197
REMARK  7 active torsions:
REMARK  status: ('A' for Active; 'I' for Inactive)
REMARK    1  A    between atoms: C2_2  and  O1_3 
REMARK    2  A    between atoms: C2_2  and  C15_24 
REMARK    3  A    between atoms: O1_3  and  C3_4 
REMARK       I    between atoms: C3_4  and  N1_6 
REMARK    4  A    between atoms: N1_6  and  C4_8 
REMARK    5  A    between atoms: C8_12  and  N2_13 
REMARK    6  A    between atoms: N2_13  and  C9_15 
REMARK    7  A    between atoms: C17_27  and  C18_28 
ROOT
HETATM    1  C3  UNL     1       4.212  20.937   1.707  1.00  0.00     0.361 C 
HETATM    2  O2  UNL     1       3.835  20.372   0.636  1.00  0.00    -0.238 OA
HETATM    3  N1  UNL     1       3.575  22.178   2.034  1.00  0.00    -0.332 N 
ATOM      4  H1  UNL     1       3.850  22.661   2.889  1.00  0.00     0.165 HD
ENDROOT
BRANCH   1   5
HETATM    5  O1  UNL     1       5.181  20.319   2.440  1.00  0.00    -0.293 OA
BRANCH   5   6
HETATM    6  C2  UNL     1       6.437  20.841   2.749  1.00  0.00     0.181 C 
HETATM    7  C1  UNL     1       6.756  20.823   4.246  1.00  0.00     0.047 C 
BRANCH   6   8
HETATM    8  C15 UNL     1       7.568  20.242   1.999  1.00  0.00     0.063 A 
HETATM    9  C16 UNL     1       8.511  19.428   2.584  1.00  0.00     0.172 A 
HETATM   10  O3  UNL     1       9.361  19.069   1.625  1.00  0.00    -0.301 OA
HETATM   11  C17 UNL     1       9.050  19.574   0.505  1.00  0.00     0.182 A 
HETATM   12  N5  UNL     1       7.901  20.329   0.731  1.00  0.00    -0.334 N 
ATOM     13  H5  UNL     1       7.399  20.865   0.024  1.00  0.00     0.168 HD
BRANCH  11  14
HETATM   14  C18 UNL     1       9.554  19.566  -0.882  1.00  0.00     0.127 A 
HETATM   15  N4  UNL     1       9.948  19.548  -1.994  1.00  0.00    -0.341 N 
HETATM   16  C19 UNL     1       9.981  18.969  -3.074  1.00  0.00     0.087 A 
ATOM     17  H4  UNL     1      10.513  20.389  -2.107  1.00  0.00     0.167 HD
HETATM   18 BR1  UNL     1      10.914  19.531  -4.673  1.00  0.00    -0.031 Br
HETATM   19  C20 UNL     1       9.242  17.811  -3.034  1.00  0.00     0.089 A 
HETATM   20  S1  UNL     1       8.676  17.827  -1.465  1.00  0.00    -0.077 SA
ENDBRANCH  11  14
ENDBRANCH   6   8
ENDBRANCH   5   6
ENDBRANCH   1   5
BRANCH   3  21
HETATM   21  C4  UNL     1       2.563  22.766   1.203  1.00  0.00     0.088 C 
HETATM   22  C5  UNL     1       2.911  24.230   1.057  1.00  0.00     0.025 C 
HETATM   23  C6  UNL     1       1.809  25.108   1.541  1.00  0.00     0.004 C 
HETATM   24  C7  UNL     1       1.318  24.715   2.888  1.00  0.00     0.025 C 
HETATM   25  C8  UNL     1       0.798  23.284   2.916  1.00  0.00     0.083 C 
HETATM   26  C14 UNL     1       1.156  22.550   1.643  1.00  0.00     0.050 C 
BRANCH  25  27
HETATM   27  N2  UNL     1       1.273  22.613   4.088  1.00  0.00    -0.384 N 
ATOM     28  H2  UNL     1       2.245  22.305   4.055  1.00  0.00     0.160 HD
BRANCH  27  29
HETATM   29  C9  UNL     1       0.651  22.351   5.160  1.00  0.00     0.053 A 
HETATM   30  C10 UNL     1      -0.228  23.189   5.818  1.00  0.00     0.048 A 
HETATM   31  C11 UNL     1      -0.866  22.853   7.002  1.00  0.00     0.090 A 
HETATM   32  N3  UNL     1      -0.592  21.642   7.510  1.00  0.00    -0.373 N 
HETATM   33  C12 UNL     1       0.244  20.769   6.943  1.00  0.00     0.113 A 
ATOM     34  H3  UNL     1      -1.048  21.373   8.382  1.00  0.00     0.164 HD
HETATM   35  C13 UNL     1       0.877  21.126   5.748  1.00  0.00     0.075 A 
HETATM   36 CL1  UNL     1       1.991  19.982   5.020  1.00  0.00    -0.080 Cl
ENDBRANCH  27  29
ENDBRANCH  25  27
ENDBRANCH   3  21
TORSDOF 7
ENDMDL
MODEL 3
REMARK VINA RESULT: -7.223402584      1.076      1.358
REMARK  7 active torsions:
REMARK  status: ('A' for Active; 'I' for Inactive)
REMARK    1  A    between atoms: C2_2  and  O1_3 
REMARK    2  A    between atoms: C2_2  and  C15_24 
REMARK    3  A    between atoms: O1_3  and  C3_4 
REMARK       I    between atoms: C3_4  and  N1_6 
REMARK    4  A    between atoms: N1_6  and  C4_8 
REMARK    5  A    between atoms: C8_12  and  N2_13 
REMARK    6  A    between atoms: N2_13  and  C9_15 
REMARK    7  A    between atoms: C17_27  and  C18_28 
ROOT
HETATM    1  C3  UNL     1       4.627  21.711   2.075  1.00  0.00     0.361 C 
HETATM    2  O2  UNL     1       4.002  21.227   3.067  1.00  0.00    -0.238 OA
HETATM    3  N1  UNL     1       5.953  21.218   1.852  1.00  0.00    -0.332 N 
ATOM      4  H1  UNL     1       6.486  21.582   1.062  1.00  0.00     0.165 HD
ENDROOT
BRANCH   1   5
HETATM    5  O1  UNL     1       3.985  22.647   1.320  1.00  0.00    -0.293 OA
BRANCH   5   6
HETATM    6  C2  UNL     1       2.694  23.130   1.533  1.00  0.00     0.181 C 
HETATM    7  C1  UNL     1       2.524  24.606   1.166  1.00  0.00     0.047 C 
BRANCH   6   8
HETATM    8  C15 UNL     1       1.614  22.338   0.896  1.00  0.00     0.063 A 
HETATM    9  C16 UNL     1       0.376  22.154   1.470  1.00  0.00     0.172 A 
HETATM   10  O3  UNL     1      -0.335  21.410   0.628  1.00  0.00    -0.301 OA
HETATM   11  C17 UNL     1       0.327  21.107  -0.409  1.00  0.00     0.182 A 
HETATM   12  N5  UNL     1       1.579  21.697  -0.250  1.00  0.00    -0.334 N 
ATOM     13  H5  UNL     1       2.347  21.639  -0.918  1.00  0.00     0.168 HD
BRANCH  11  14
HETATM   14  C18 UNL     1       0.126  20.348  -1.658  1.00  0.00     0.127 A 
HETATM   15  N4  UNL     1      -0.034  19.753  -2.665  1.00  0.00    -0.341 N 
HETATM   16  C19 UNL     1      -0.219  19.793  -3.876  1.00  0.00     0.087 A 
ATOM     17  H4  UNL     1      -0.005  18.764  -2.417  1.00  0.00     0.167 HD
HETATM   18 BR1  UNL     1      -0.418  18.291  -5.078  1.00  0.00    -0.031 Br
HETATM   19  C20 UNL     1      -0.273  21.093  -4.323  1.00  0.00     0.089 A 
HETATM   20  S1  UNL     1      -0.045  21.944  -2.907  1.00  0.00    -0.077 SA
ENDBRANCH  11  14
ENDBRANCH   6   8
ENDBRANCH   5   6
ENDBRANCH   1   5
BRANCH   3  21
HETATM   21  C4  UNL     1       6.560  20.231   2.699  1.00  0.00     0.088 C 
HETATM   22  C5  UNL     1       7.454  20.973   3.666  1.00  0.00     0.025 C 
HETATM   23  C6  UNL     1       8.869  20.514   3.569  1.00  0.00     0.004 C 
HETATM   24  C7  UNL     1       9.361  20.478   2.167  1.00  0.00     0.025 C 
HETATM   25  C8  UNL     1       8.527  19.555   1.288  1.00  0.00     0.083 C 
HETATM   26  C14 UNL     1       7.265  19.121   1.999  1.00  0.00     0.050 C 
BRANCH  25  27
HETATM   27  N2  UNL     1       8.260  20.185   0.031  1.00  0.00    -0.384 N 
ATOM     28  H2  UNL     1       7.430  20.777   0.003  1.00  0.00     0.160 HD
BRANCH  27  29
HETATM   29  C9  UNL     1       8.915  20.108  -1.051  1.00  0.00     0.053 A 
HETATM   30  C10 UNL     1       9.758  21.074  -1.564  1.00  0.00     0.048 A 
HETATM   31  C11 UNL     1      10.434  20.942  -2.767  1.00  0.00     0.090 A 
HETATM   32  N3  UNL     1      10.236  19.801  -3.445  1.00  0.00    -0.373 N 
HETATM   33  C12 UNL     1       9.440  18.814  -3.025  1.00  0.00     0.113 A 
ATOM     34  H3  UNL     1      10.721  19.680  -4.334  1.00  0.00     0.164 HD
HETATM   35  C13 UNL     1       8.767  18.967  -1.809  1.00  0.00     0.075 A 
HETATM   36 CL1  UNL     1       7.705  17.676  -1.275  1.00  0.00    -0.080 Cl
ENDBRANCH  27  29
ENDBRANCH  25  27
ENDBRANCH   3  21
TORSDOF 7
ENDMDL
MODEL 4
REMARK VINA RESULT: -7.200135359      3.756      4.869
REMARK  7 active torsions:
REMARK  status: ('A' for Active; 'I' for Inactive)
REMARK    1  A    between atoms: C2_2  and  O1_3 
REMARK    2  A    between atoms: C2_2  and  C15_24 
REMARK    3  A    between atoms: O1_3  and  C3_4 
REMARK       I    between atoms: C3_4  and  N1_6 
REMARK    4  A    between atoms: N1_6  and  C4_8 
REMARK    5  A    between atoms: C8_12  and  N2_13 
REMARK    6  A    between atoms: N2_13  and  C9_15 
REMARK    7  A    between atoms: C17_27  and  C18_28 
ROOT
HETATM    1  C3  UNL     1       4.702  21.755   1.674  1.00  0.00     0.361 C 
HETATM    2  O2  UNL     1       4.022  21.349   2.665  1.00  0.00    -0.238 OA
HETATM    3  N1  UNL     1       6.001  21.174   1.509  1.00  0.00    -0.332 N 
ATOM      4  H1  UNL     1       6.576  21.473   0.722  1.00  0.00     0.165 HD
ENDROOT
BRANCH   1   5
HETATM    5  O1  UNL     1       4.139  22.697   0.866  1.00  0.00    -0.293 OA
BRANCH   5   6
HETATM    6  C2  UNL     1       2.778  22.845   0.600  1.00  0.00     0.181 C 
HETATM    7  C1  UNL     1       2.068  21.525   0.292  1.00  0.00     0.047 C 
BRANCH   6   8
HETATM    8  C15 UNL     1       2.012  23.585   1.633  1.00  0.00     0.063 A 
HETATM    9  C16 UNL     1       1.895  24.957   1.644  1.00  0.00     0.172 A 
HETATM   10  O3  UNL     1       1.141  25.272   2.694  1.00  0.00    -0.301 OA
HETATM   11  C17 UNL     1       0.776  24.244   3.339  1.00  0.00     0.182 A 
HETATM   12  N5  UNL     1       1.329  23.156   2.669  1.00  0.00    -0.334 N 
ATOM     13  H5  UNL     1       1.220  22.179   2.941  1.00  0.00     0.168 HD
BRANCH  11  14
HETATM   14  C18 UNL     1      -0.030  23.926   4.533  1.00  0.00     0.127 A 
HETATM   15  N4  UNL     1      -0.683  23.684   5.486  1.00  0.00    -0.341 N 
HETATM   16  C19 UNL     1      -1.553  24.049   6.269  1.00  0.00     0.087 A 
ATOM     17  H4  UNL     1      -0.395  22.756   5.797  1.00  0.00     0.167 HD
HETATM   18 BR1  UNL     1      -2.244  23.071   7.787  1.00  0.00    -0.031 Br
HETATM   19  C20 UNL     1      -2.018  25.300   5.937  1.00  0.00     0.089 A 
HETATM   20  S1  UNL     1      -1.103  25.652   4.588  1.00  0.00    -0.077 SA
ENDBRANCH  11  14
ENDBRANCH   6   8
ENDBRANCH   5   6
ENDBRANCH   1   5
BRANCH   3  21
HETATM   21  C4  UNL     1       6.522  20.186   2.411  1.00  0.00     0.088 C 
HETATM   22  C5  UNL     1       7.091  20.932   3.596  1.00  0.00     0.025 C 
HETATM   23  C6  UNL     1       8.538  20.630   3.794  1.00  0.00     0.004 C 
HETATM   24  C7  UNL     1       9.322  20.764   2.538  1.00  0.00     0.025 C 
HETATM   25  C8  UNL     1       8.815  19.838   1.441  1.00  0.00     0.083 C 
HETATM   26  C14 UNL     1       7.489  19.217   1.822  1.00  0.00     0.050 C 
BRANCH  25  27
HETATM   27  N2  UNL     1       8.754  20.541   0.196  1.00  0.00    -0.384 N 
ATOM     28  H2  UNL     1       8.428  21.506   0.251  1.00  0.00     0.160 HD
BRANCH  27  29
HETATM   29  C9  UNL     1       9.049  20.128  -0.965  1.00  0.00     0.053 A 
HETATM   30  C10 UNL     1       8.547  18.997  -1.579  1.00  0.00     0.048 A 
HETATM   31  C11 UNL     1       8.924  18.583  -2.847  1.00  0.00     0.090 A 
HETATM   32  N3  UNL     1       9.829  19.343  -3.484  1.00  0.00    -0.373 N 
HETATM   33  C12 UNL     1      10.366  20.450  -2.967  1.00  0.00     0.113 A 
ATOM     34  H3  UNL     1      10.123  19.058  -4.418  1.00  0.00     0.164 HD
HETATM   35  C13 UNL     1       9.972  20.852  -1.687  1.00  0.00     0.075 A 
HETATM   36 CL1  UNL     1      10.700  22.296  -1.005  1.00  0.00    -0.080 Cl
ENDBRANCH  27  29
ENDBRANCH  25  27
ENDBRANCH   3  21
TORSDOF 7
ENDMDL
MODEL 5
REMARK VINA RESULT: -7.003475055      4.492      8.966
REMARK  7 active torsions:
REMARK  status: ('A' for Active; 'I' for Inactive)
REMARK    1  A    between atoms: C2_2  and  O1_3 
REMARK    2  A    between atoms: C2_2  and  C15_24 
REMARK    3  A    between atoms: O1_3  and  C3_4 
REMARK       I    between atoms: C3_4  and  N1_6 
REMARK    4  A    between atoms: N1_6  and  C4_8 
REMARK    5  A    between atoms: C8_12  and  N2_13 
REMARK    6  A    between atoms: N2_13  and  C9_15 
REMARK    7  A    between atoms: C17_27  and  C18_28 
ROOT
HETATM    1  C3  UNL     1       4.293  20.971   1.774  1.00  0.00     0.361 C 
HETATM    2  O2  UNL     1       4.032  20.436   0.653  1.00  0.00    -0.238 OA
HETATM    3  N1  UNL     1       3.592  22.181   2.083  1.00  0.00    -0.332 N 
ATOM      4  H1  UNL     1       3.773  22.639   2.976  1.00  0.00     0.165 HD
ENDROOT
BRANCH   1   5
HETATM    5  O1  UNL     1       5.207  20.350   2.571  1.00  0.00    -0.293 OA
BRANCH   5   6
HETATM    6  C2  UNL     1       6.483  20.823   2.879  1.00  0.00     0.181 C 
HETATM    7  C1  UNL     1       6.814  20.762   4.373  1.00  0.00     0.047 C 
BRANCH   6   8
HETATM    8  C15 UNL     1       7.587  20.202   2.106  1.00  0.00     0.063 A 
HETATM    9  C16 UNL     1       8.501  19.336   2.663  1.00  0.00     0.172 A 
HETATM   10  O3  UNL     1       9.332  18.972   1.690  1.00  0.00    -0.301 OA
HETATM   11  C17 UNL     1       9.035  19.520   0.586  1.00  0.00     0.182 A 
HETATM   12  N5  UNL     1       7.917  20.312   0.840  1.00  0.00    -0.334 N 
ATOM     13  H5  UNL     1       7.432  20.886   0.151  1.00  0.00     0.168 HD
BRANCH  11  14
HETATM   14  C18 UNL     1       9.531  19.531  -0.803  1.00  0.00     0.127 A 
HETATM   15  N4  UNL     1       9.919  19.529  -1.918  1.00  0.00    -0.341 N 
HETATM   16  C19 UNL     1       9.930  18.976  -3.012  1.00  0.00     0.087 A 
ATOM     17  H4  UNL     1      10.509  20.355  -2.013  1.00  0.00     0.167 HD
HETATM   18 BR1  UNL     1      10.872  19.549  -4.601  1.00  0.00    -0.031 Br
HETATM   19  C20 UNL     1       9.157  17.839  -2.996  1.00  0.00     0.089 A 
HETATM   20  S1  UNL     1       8.600  17.834  -1.424  1.00  0.00    -0.077 SA
ENDBRANCH  11  14
ENDBRANCH   6   8
ENDBRANCH   5   6
ENDBRANCH   1   5
BRANCH   3  21
HETATM   21  C4  UNL     1       2.644  22.773   1.182  1.00  0.00     0.088 C 
HETATM   22  C5  UNL     1       2.992  24.241   1.082  1.00  0.00     0.025 C 
HETATM   23  C6  UNL     1       1.849  25.107   1.489  1.00  0.00     0.004 C 
HETATM   24  C7  UNL     1       1.257  24.694   2.788  1.00  0.00     0.025 C 
HETATM   25  C8  UNL     1       0.747  23.259   2.759  1.00  0.00     0.083 C 
HETATM   26  C14 UNL     1       1.208  22.543   1.509  1.00  0.00     0.050 C 
BRANCH  25  27
HETATM   27  N2  UNL     1       1.134  22.577   3.956  1.00  0.00    -0.384 N 
ATOM     28  H2  UNL     1       1.822  23.058   4.535  1.00  0.00     0.160 HD
BRANCH  27  29
HETATM   29  C9  UNL     1       0.738  21.456   4.394  1.00  0.00     0.053 A 
HETATM   30  C10 UNL     1       1.412  20.255   4.286  1.00  0.00     0.048 A 
HETATM   31  C11 UNL     1       0.917  19.053   4.769  1.00  0.00     0.090 A 
HETATM   32  N3  UNL     1      -0.283  19.093   5.368  1.00  0.00    -0.373 N 
HETATM   33  C12 UNL     1      -1.002  20.208   5.517  1.00  0.00     0.113 A 
ATOM     34  H3  UNL     1      -0.668  18.222   5.730  1.00  0.00     0.164 HD
HETATM   35  C13 UNL     1      -0.487  21.410   5.023  1.00  0.00     0.075 A 
HETATM   36 CL1  UNL     1      -1.449  22.867   5.202  1.00  0.00    -0.080 Cl
ENDBRANCH  27  29
ENDBRANCH  25  27
ENDBRANCH   3  21
TORSDOF 7
ENDMDL
