MODEL 1
REMARK VINA RESULT: -7.470832398      0.000      0.000
REMARK  13 active torsions:
REMARK  status: ('A' for Active; 'I' for Inactive)
REMARK    1  A    between atoms: N1_1  and  C1_5 
REMARK    2  A    between atoms: C1_5  and  C2_6 
REMARK    3  A    between atoms: C5_9  and  N2_10 
REMARK    4  A    between atoms: C6_14  and  O1_15 
REMARK    5  A    between atoms: O1_15  and  C7_16 
REMARK    6  A    between atoms: C8_17  and  N3_18 
REMARK    7  A    between atoms: C10_23  and  N4_24 
REMARK    8  A    between atoms: N4_24  and  C11_27 
REMARK    9  A    between atoms: C12_30  and  C13_31 
REMARK   10  A    between atoms: C14_33  and  O3_34 
REMARK   11  A    between atoms: C15_36  and  N6_37 
REMARK   12  A    between atoms: C16_41  and  N7_42 
REMARK   13  A    between atoms: C17_46  and  O4_47 
ROOT
HETATM    1  C7  UNL     1     -23.282   0.918  41.413  1.00  0.00     0.185 C 
HETATM    2  C8  UNL     1     -22.101   1.273  40.547  1.00  0.00     0.217 C 
HETATM    3  C9  UNL     1     -20.838   1.231  41.377  1.00  0.00     0.070 C 
HETATM    4  C10 UNL     1     -20.791   2.505  42.201  1.00  0.00     0.223 C 
HETATM    5  C16 UNL     1     -22.171   2.622  42.871  1.00  0.00     0.245 C 
HETATM    6  C17 UNL     1     -22.885   1.297  42.847  1.00  0.00     0.181 C 
ENDROOT
BRANCH   4   7
HETATM    7  N4  UNL     1     -19.756   2.482  43.194  1.00  0.00    -0.046 N 
ATOM      8  H42 UNL     1     -19.027   3.162  42.980  1.00  0.00     0.279 HD
ATOM      9  H41 UNL     1     -20.089   2.869  44.078  1.00  0.00     0.279 HD
BRANCH   7  10
HETATM   10  C11 UNL     1     -19.198   1.173  43.383  1.00  0.00     0.338 C 
HETATM   11  N5  UNL     1     -20.136   0.300  44.081  1.00  0.00    -0.065 NA
HETATM   12  O2  UNL     1     -20.137   0.546  45.410  1.00  0.00    -0.276 OA
HETATM   13  C12 UNL     1     -18.964  -0.002  45.920  1.00  0.00     0.188 C 
HETATM   14  C14 UNL     1     -17.803   0.782  45.428  1.00  0.00     0.183 C 
HETATM   15  C15 UNL     1     -17.830   1.118  43.957  1.00  0.00     0.263 C 
BRANCH  13  16
HETATM   16  C13 UNL     1     -18.868  -1.489  45.667  1.00  0.00     0.122 C 
HETATM   17  S1  UNL     1     -17.472  -2.172  46.632  1.00  0.00    -0.095 SA
ENDBRANCH  13  16
BRANCH  14  18
HETATM   18  O3  UNL     1     -17.769   1.990  46.155  1.00  0.00    -0.391 OA
ATOM     19  H3  UNL     1     -18.647   2.350  46.152  1.00  0.00     0.210 HD
ENDBRANCH  14  18
BRANCH  15  20
HETATM   20  N6  UNL     1     -16.981   0.130  43.286  1.00  0.00    -0.069 N 
ATOM     21  H63 UNL     1     -16.136  -0.057  43.827  1.00  0.00     0.275 HD
ATOM     22  H62 UNL     1     -17.402  -0.799  43.317  1.00  0.00     0.275 HD
ATOM     23  H61 UNL     1     -16.753   0.399  42.329  1.00  0.00     0.275 HD
ENDBRANCH  15  20
ENDBRANCH   7  10
ENDBRANCH   4   7
BRANCH   5  24
HETATM   24  N7  UNL     1     -21.933   2.934  44.274  1.00  0.00    -0.070 N 
ATOM     25  H73 UNL     1     -22.526   2.402  44.911  1.00  0.00     0.274 HD
ATOM     26  H72 UNL     1     -21.036   2.590  44.615  1.00  0.00     0.274 HD
ATOM     27  H71 UNL     1     -22.041   3.944  44.374  1.00  0.00     0.274 HD
ENDBRANCH   5  24
BRANCH   2  28
HETATM   28  N3  UNL     1     -21.932   0.331  39.453  1.00  0.00    -0.072 N 
ATOM     29  H33 UNL     1     -21.259  -0.397  39.691  1.00  0.00     0.274 HD
ATOM     30  H32 UNL     1     -22.760  -0.250  39.333  1.00  0.00     0.274 HD
ATOM     31  H31 UNL     1     -21.678   0.802  38.585  1.00  0.00     0.274 HD
ENDBRANCH   2  28
BRANCH   6  32
HETATM   32  O4  UNL     1     -24.045   1.461  43.628  1.00  0.00    -0.391 OA
ATOM     33  H4  UNL     1     -23.944   2.218  44.191  1.00  0.00     0.210 HD
ENDBRANCH   6  32
BRANCH   1  34
HETATM   34  O1  UNL     1     -23.515  -0.407  41.372  1.00  0.00    -0.349 OA
BRANCH  34  35
HETATM   35  C6  UNL     1     -24.804  -0.827  41.164  1.00  0.00     0.291 C 
HETATM   36  C5  UNL     1     -25.145  -1.261  39.797  1.00  0.00     0.238 C 
HETATM   37  C4  UNL     1     -26.508  -1.937  39.830  1.00  0.00     0.040 C 
HETATM   38  C3  UNL     1     -26.366  -3.216  40.638  1.00  0.00     0.036 C 
HETATM   39  C2  UNL     1     -25.341  -3.033  41.738  1.00  0.00     0.150 C 
HETATM   40  O5  UNL     1     -25.171  -1.735  42.106  1.00  0.00    -0.352 OA
BRANCH  36  41
HETATM   41  N2  UNL     1     -24.219  -2.255  39.242  1.00  0.00    -0.070 N 
ATOM     42  H23 UNL     1     -24.382  -3.202  39.584  1.00  0.00     0.274 HD
ATOM     43  H22 UNL     1     -24.378  -2.454  38.254  1.00  0.00     0.274 HD
ATOM     44  H21 UNL     1     -23.283  -1.904  39.442  1.00  0.00     0.274 HD
ENDBRANCH  36  41
BRANCH  39  45
HETATM   45  C1  UNL     1     -25.868  -3.795  42.953  1.00  0.00     0.261 C 
BRANCH  45  46
HETATM   46  N1  UNL     1     -27.315  -3.739  42.919  1.00  0.00    -0.077 N 
ATOM     47  H13 UNL     1     -27.699  -3.988  42.007  1.00  0.00     0.274 HD
ATOM     48  H12 UNL     1     -27.752  -4.486  43.458  1.00  0.00     0.274 HD
ATOM     49  H11 UNL     1     -27.600  -2.809  43.228  1.00  0.00     0.274 HD
ENDBRANCH  45  46
ENDBRANCH  39  45
ENDBRANCH  34  35
ENDBRANCH   1  34
TORSDOF 13
ENDMDL
MODEL 2
REMARK VINA RESULT: -6.810265261      6.696      8.054
REMARK  13 active torsions:
REMARK  status: ('A' for Active; 'I' for Inactive)
REMARK    1  A    between atoms: N1_1  and  C1_5 
REMARK    2  A    between atoms: C1_5  and  C2_6 
REMARK    3  A    between atoms: C5_9  and  N2_10 
REMARK    4  A    between atoms: C6_14  and  O1_15 
REMARK    5  A    between atoms: O1_15  and  C7_16 
REMARK    6  A    between atoms: C8_17  and  N3_18 
REMARK    7  A    between atoms: C10_23  and  N4_24 
REMARK    8  A    between atoms: N4_24  and  C11_27 
REMARK    9  A    between atoms: C12_30  and  C13_31 
REMARK   10  A    between atoms: C14_33  and  O3_34 
REMARK   11  A    between atoms: C15_36  and  N6_37 
REMARK   12  A    between atoms: C16_41  and  N7_42 
REMARK   13  A    between atoms: C17_46  and  O4_47 
ROOT
HETATM    1  C7  UNL     1     -24.793   6.949  37.768  1.00  0.00     0.185 C 
HETATM    2  C8  UNL     1     -24.350   5.825  36.866  1.00  0.00     0.217 C 
HETATM    3  C9  UNL     1     -23.690   4.747  37.695  1.00  0.00     0.070 C 
HETATM    4  C10 UNL     1     -22.285   5.220  38.023  1.00  0.00     0.223 C 
HETATM    5  C16 UNL     1     -22.441   6.650  38.570  1.00  0.00     0.245 C 
HETATM    6  C17 UNL     1     -23.865   6.903  38.990  1.00  0.00     0.181 C 
ENDROOT
BRANCH   4   7
HETATM    7  N4  UNL     1     -21.634   4.385  38.991  1.00  0.00    -0.046 N 
ATOM      8  H42 UNL     1     -20.901   3.824  38.557  1.00  0.00     0.279 HD
ATOM      9  H41 UNL     1     -21.062   4.941  39.628  1.00  0.00     0.279 HD
BRANCH   7  10
HETATM   10  C11 UNL     1     -22.554   3.556  39.717  1.00  0.00     0.338 C 
HETATM   11  N5  UNL     1     -22.836   4.116  41.034  1.00  0.00    -0.065 NA
HETATM   12  O2  UNL     1     -21.835   3.850  41.902  1.00  0.00    -0.276 OA
HETATM   13  C12 UNL     1     -21.948   2.507  42.248  1.00  0.00     0.188 C 
HETATM   14  C14 UNL     1     -21.609   1.670  41.069  1.00  0.00     0.183 C 
HETATM   15  C15 UNL     1     -22.234   2.107  39.767  1.00  0.00     0.263 C 
BRANCH  13  16
HETATM   16  C13 UNL     1     -23.283   2.188  42.880  1.00  0.00     0.122 C 
HETATM   17  S1  UNL     1     -23.657   0.415  42.625  1.00  0.00    -0.095 SA
ENDBRANCH  13  16
BRANCH  14  18
HETATM   18  O3  UNL     1     -20.208   1.699  40.917  1.00  0.00    -0.391 OA
ATOM     19  H3  UNL     1     -20.010   1.416  40.032  1.00  0.00     0.210 HD
ENDBRANCH  14  18
BRANCH  15  20
HETATM   20  N6  UNL     1     -23.417   1.265  39.566  1.00  0.00    -0.069 N 
ATOM     21  H63 UNL     1     -23.402   0.456  40.187  1.00  0.00     0.275 HD
ATOM     22  H62 UNL     1     -24.258   1.724  39.916  1.00  0.00     0.275 HD
ATOM     23  H61 UNL     1     -23.530   0.980  38.593  1.00  0.00     0.275 HD
ENDBRANCH  15  20
ENDBRANCH   7  10
ENDBRANCH   4   7
BRANCH   5  24
HETATM   24  N7  UNL     1     -21.636   6.727  39.782  1.00  0.00    -0.070 N 
ATOM     25  H73 UNL     1     -21.129   7.608  39.873  1.00  0.00     0.274 HD
ATOM     26  H72 UNL     1     -22.195   6.811  40.631  1.00  0.00     0.274 HD
ATOM     27  H71 UNL     1     -21.025   5.909  39.783  1.00  0.00     0.274 HD
ENDBRANCH   5  24
BRANCH   2  28
HETATM   28  N3  UNL     1     -25.473   5.214  36.175  1.00  0.00    -0.072 N 
ATOM     29  H33 UNL     1     -25.453   4.198  36.260  1.00  0.00     0.274 HD
ATOM     30  H32 UNL     1     -26.351   5.398  36.660  1.00  0.00     0.274 HD
ATOM     31  H31 UNL     1     -25.519   5.504  35.199  1.00  0.00     0.274 HD
ENDBRANCH   2  28
BRANCH   6  32
HETATM   32  O4  UNL     1     -23.869   8.156  39.631  1.00  0.00    -0.391 OA
ATOM     33  H4  UNL     1     -22.998   8.532  39.598  1.00  0.00     0.210 HD
ENDBRANCH   6  32
BRANCH   1  34
HETATM   34  O1  UNL     1     -26.057   6.749  38.185  1.00  0.00    -0.349 OA
BRANCH  34  35
HETATM   35  C6  UNL     1     -26.913   7.820  38.179  1.00  0.00     0.291 C 
HETATM   36  C5  UNL     1     -27.788   7.960  37.001  1.00  0.00     0.238 C 
HETATM   37  C4  UNL     1     -28.835   9.022  37.299  1.00  0.00     0.040 C 
HETATM   38  C3  UNL     1     -29.729   8.487  38.406  1.00  0.00     0.036 C 
HETATM   39  C2  UNL     1     -28.932   7.611  39.350  1.00  0.00     0.150 C 
HETATM   40  O5  UNL     1     -27.600   7.891  39.349  1.00  0.00    -0.352 OA
BRANCH  36  41
HETATM   41  N2  UNL     1     -28.536   6.742  36.669  1.00  0.00    -0.070 N 
ATOM     42  H23 UNL     1     -29.290   6.895  35.999  1.00  0.00     0.274 HD
ATOM     43  H22 UNL     1     -28.006   6.077  36.107  1.00  0.00     0.274 HD
ATOM     44  H21 UNL     1     -28.854   6.360  37.560  1.00  0.00     0.274 HD
ENDBRANCH  36  41
BRANCH  39  45
HETATM   45  C1  UNL     1     -29.464   7.890  40.755  1.00  0.00     0.261 C 
BRANCH  45  46
HETATM   46  N1  UNL     1     -30.379   6.822  41.103  1.00  0.00    -0.077 N 
ATOM     47  H13 UNL     1     -30.802   6.948  42.023  1.00  0.00     0.274 HD
ATOM     48  H12 UNL     1     -31.238   6.843  40.555  1.00  0.00     0.274 HD
ATOM     49  H11 UNL     1     -29.875   5.938  41.016  1.00  0.00     0.274 HD
ENDBRANCH  45  46
ENDBRANCH  39  45
ENDBRANCH  34  35
ENDBRANCH   1  34
TORSDOF 13
ENDMDL
MODEL 3
REMARK VINA RESULT: -6.630992164      2.755      7.373
REMARK  13 active torsions:
REMARK  status: ('A' for Active; 'I' for Inactive)
REMARK    1  A    between atoms: N1_1  and  C1_5 
REMARK    2  A    between atoms: C1_5  and  C2_6 
REMARK    3  A    between atoms: C5_9  and  N2_10 
REMARK    4  A    between atoms: C6_14  and  O1_15 
REMARK    5  A    between atoms: O1_15  and  C7_16 
REMARK    6  A    between atoms: C8_17  and  N3_18 
REMARK    7  A    between atoms: C10_23  and  N4_24 
REMARK    8  A    between atoms: N4_24  and  C11_27 
REMARK    9  A    between atoms: C12_30  and  C13_31 
REMARK   10  A    between atoms: C14_33  and  O3_34 
REMARK   11  A    between atoms: C15_36  and  N6_37 
REMARK   12  A    between atoms: C16_41  and  N7_42 
REMARK   13  A    between atoms: C17_46  and  O4_47 
ROOT
HETATM    1  C7  UNL     1     -20.717   2.549  42.896  1.00  0.00     0.185 C 
HETATM    2  C8  UNL     1     -21.938   2.113  43.664  1.00  0.00     0.217 C 
HETATM    3  C9  UNL     1     -22.415   0.779  43.136  1.00  0.00     0.070 C 
HETATM    4  C10 UNL     1     -23.157   1.042  41.838  1.00  0.00     0.223 C 
HETATM    5  C16 UNL     1     -22.229   1.935  40.998  1.00  0.00     0.245 C 
HETATM    6  C17 UNL     1     -20.818   1.873  41.521  1.00  0.00     0.181 C 
ENDROOT
BRANCH   4   7
HETATM    7  N4  UNL     1     -23.465  -0.165  41.126  1.00  0.00    -0.046 N 
ATOM      8  H42 UNL     1     -23.189  -0.092  40.146  1.00  0.00     0.279 HD
ATOM      9  H41 UNL     1     -22.850  -0.928  41.414  1.00  0.00     0.279 HD
BRANCH   7  10
HETATM   10  C11 UNL     1     -24.845  -0.543  41.245  1.00  0.00     0.338 C 
HETATM   11  N5  UNL     1     -25.089  -1.241  42.502  1.00  0.00    -0.065 NA
HETATM   12  O2  UNL     1     -24.690  -2.531  42.431  1.00  0.00    -0.276 OA
HETATM   13  C12 UNL     1     -25.636  -3.203  41.663  1.00  0.00     0.188 C 
HETATM   14  C14 UNL     1     -25.542  -2.738  40.256  1.00  0.00     0.183 C 
HETATM   15  C15 UNL     1     -25.437  -1.244  40.077  1.00  0.00     0.263 C 
BRANCH  13  16
HETATM   16  C13 UNL     1     -27.023  -3.119  42.259  1.00  0.00     0.122 C 
HETATM   17  S1  UNL     1     -27.445  -4.728  43.022  1.00  0.00    -0.095 SA
ENDBRANCH  13  16
BRANCH  14  18
HETATM   18  O3  UNL     1     -24.397  -3.332  39.689  1.00  0.00    -0.391 OA
ATOM     19  H3  UNL     1     -24.682  -3.855  38.949  1.00  0.00     0.210 HD
ENDBRANCH  14  18
BRANCH  15  20
HETATM   20  N6  UNL     1     -26.785  -0.763  39.761  1.00  0.00    -0.069 N 
ATOM     21  H63 UNL     1     -27.110  -1.139  38.871  1.00  0.00     0.275 HD
ATOM     22  H62 UNL     1     -27.479  -1.184  40.379  1.00  0.00     0.275 HD
ATOM     23  H61 UNL     1     -26.848   0.255  39.776  1.00  0.00     0.275 HD
ENDBRANCH  15  20
ENDBRANCH   7  10
ENDBRANCH   4   7
BRANCH   5  24
HETATM   24  N7  UNL     1     -22.194   1.364  39.658  1.00  0.00    -0.070 N 
ATOM     25  H73 UNL     1     -22.252   0.345  39.653  1.00  0.00     0.274 HD
ATOM     26  H72 UNL     1     -23.044   1.544  39.123  1.00  0.00     0.274 HD
ATOM     27  H71 UNL     1     -21.352   1.722  39.206  1.00  0.00     0.274 HD
ENDBRANCH   5  24
BRANCH   2  28
HETATM   28  N3  UNL     1     -21.653   1.943  45.079  1.00  0.00    -0.072 N 
ATOM     29  H33 UNL     1     -22.311   2.465  45.657  1.00  0.00     0.274 HD
ATOM     30  H32 UNL     1     -21.879   0.999  45.392  1.00  0.00     0.274 HD
ATOM     31  H31 UNL     1     -20.688   2.187  45.302  1.00  0.00     0.274 HD
ENDBRANCH   2  28
BRANCH   6  32
HETATM   32  O4  UNL     1     -20.023   2.572  40.594  1.00  0.00    -0.391 OA
ATOM     33  H4  UNL     1     -19.239   2.071  40.406  1.00  0.00     0.210 HD
ENDBRANCH   6  32
BRANCH   1  34
HETATM   34  O1  UNL     1     -19.598   2.113  43.503  1.00  0.00    -0.349 OA
BRANCH  34  35
HETATM   35  C6  UNL     1     -19.157   0.848  43.208  1.00  0.00     0.291 C 
HETATM   36  C5  UNL     1     -17.797   0.734  42.653  1.00  0.00     0.238 C 
HETATM   37  C4  UNL     1     -17.395  -0.733  42.653  1.00  0.00     0.040 C 
HETATM   38  C3  UNL     1     -17.280  -1.177  44.101  1.00  0.00     0.036 C 
HETATM   39  C2  UNL     1     -18.288  -0.442  44.960  1.00  0.00     0.150 C 
HETATM   40  O5  UNL     1     -19.362   0.011  44.259  1.00  0.00    -0.352 OA
BRANCH  36  41
HETATM   41  N2  UNL     1     -16.774   1.429  43.443  1.00  0.00    -0.070 N 
ATOM     42  H23 UNL     1     -16.739   2.434  43.273  1.00  0.00     0.274 HD
ATOM     43  H22 UNL     1     -16.991   1.481  44.438  1.00  0.00     0.274 HD
ATOM     44  H21 UNL     1     -15.896   0.951  43.242  1.00  0.00     0.274 HD
ENDBRANCH  36  41
BRANCH  39  45
HETATM   45  C1  UNL     1     -18.797  -1.449  45.990  1.00  0.00     0.261 C 
BRANCH  45  46
HETATM   46  N1  UNL     1     -17.671  -1.858  46.806  1.00  0.00    -0.077 N 
ATOM     47  H13 UNL     1     -17.841  -2.732  47.304  1.00  0.00     0.274 HD
ATOM     48  H12 UNL     1     -16.875  -2.170  46.252  1.00  0.00     0.274 HD
ATOM     49  H11 UNL     1     -17.441  -1.085  47.430  1.00  0.00     0.274 HD
ENDBRANCH  45  46
ENDBRANCH  39  45
ENDBRANCH  34  35
ENDBRANCH   1  34
TORSDOF 13
ENDMDL
MODEL 4
REMARK VINA RESULT: -6.295627058      6.811      7.992
REMARK  13 active torsions:
REMARK  status: ('A' for Active; 'I' for Inactive)
REMARK    1  A    between atoms: N1_1  and  C1_5 
REMARK    2  A    between atoms: C1_5  and  C2_6 
REMARK    3  A    between atoms: C5_9  and  N2_10 
REMARK    4  A    between atoms: C6_14  and  O1_15 
REMARK    5  A    between atoms: O1_15  and  C7_16 
REMARK    6  A    between atoms: C8_17  and  N3_18 
REMARK    7  A    between atoms: C10_23  and  N4_24 
REMARK    8  A    between atoms: N4_24  and  C11_27 
REMARK    9  A    between atoms: C12_30  and  C13_31 
REMARK   10  A    between atoms: C14_33  and  O3_34 
REMARK   11  A    between atoms: C15_36  and  N6_37 
REMARK   12  A    between atoms: C16_41  and  N7_42 
REMARK   13  A    between atoms: C17_46  and  O4_47 
ROOT
HETATM    1  C7  UNL     1     -25.037   6.821  37.344  1.00  0.00     0.185 C 
HETATM    2  C8  UNL     1     -24.179   5.752  36.716  1.00  0.00     0.217 C 
HETATM    3  C9  UNL     1     -23.692   4.804  37.789  1.00  0.00     0.070 C 
HETATM    4  C10 UNL     1     -22.547   5.488  38.515  1.00  0.00     0.223 C 
HETATM    5  C16 UNL     1     -23.061   6.892  38.878  1.00  0.00     0.245 C 
HETATM    6  C17 UNL     1     -24.564   6.943  38.800  1.00  0.00     0.181 C 
ENDROOT
BRANCH   4   7
HETATM    7  N4  UNL     1     -22.147   4.783  39.700  1.00  0.00    -0.046 N 
ATOM      8  H42 UNL     1     -21.222   5.084  40.009  1.00  0.00     0.279 HD
ATOM      9  H41 UNL     1     -22.696   5.082  40.506  1.00  0.00     0.279 HD
BRANCH   7  10
HETATM   10  C11 UNL     1     -22.198   3.357  39.541  1.00  0.00     0.338 C 
HETATM   11  N5  UNL     1     -23.236   2.774  40.384  1.00  0.00    -0.065 NA
HETATM   12  O2  UNL     1     -22.821   2.667  41.666  1.00  0.00    -0.276 OA
HETATM   13  C12 UNL     1     -21.929   1.600  41.711  1.00  0.00     0.188 C 
HETATM   14  C14 UNL     1     -20.690   1.968  40.980  1.00  0.00     0.183 C 
HETATM   15  C15 UNL     1     -20.904   2.638  39.646  1.00  0.00     0.263 C 
BRANCH  13  16
HETATM   16  C13 UNL     1     -22.561   0.304  41.259  1.00  0.00     0.122 C 
HETATM   17  S1  UNL     1     -24.056  -0.017  42.264  1.00  0.00    -0.095 SA
ENDBRANCH  13  16
BRANCH  14  18
HETATM   18  O3  UNL     1     -19.958   2.848  41.803  1.00  0.00    -0.391 OA
ATOM     19  H3  UNL     1     -19.534   3.483  41.237  1.00  0.00     0.210 HD
ENDBRANCH  14  18
BRANCH  15  20
HETATM   20  N6  UNL     1     -20.759   1.595  38.625  1.00  0.00    -0.069 N 
ATOM     21  H63 UNL     1     -21.654   1.149  38.426  1.00  0.00     0.275 HD
ATOM     22  H62 UNL     1     -20.571   2.001  37.709  1.00  0.00     0.275 HD
ATOM     23  H61 UNL     1     -20.052   0.903  38.874  1.00  0.00     0.275 HD
ENDBRANCH  15  20
ENDBRANCH   7  10
ENDBRANCH   4   7
BRANCH   5  24
HETATM   24  N7  UNL     1     -22.715   7.118  40.276  1.00  0.00    -0.070 N 
ATOM     25  H73 UNL     1     -23.530   7.260  40.874  1.00  0.00     0.274 HD
ATOM     26  H72 UNL     1     -22.358   6.284  40.742  1.00  0.00     0.274 HD
ATOM     27  H71 UNL     1     -22.061   7.901  40.295  1.00  0.00     0.274 HD
ENDBRANCH   5  24
BRANCH   2  28
HETATM   28  N3  UNL     1     -24.923   4.964  35.748  1.00  0.00    -0.072 N 
ATOM     29  H33 UNL     1     -25.893   5.273  35.684  1.00  0.00     0.274 HD
ATOM     30  H32 UNL     1     -24.626   5.171  34.795  1.00  0.00     0.274 HD
ATOM     31  H31 UNL     1     -24.865   3.966  35.948  1.00  0.00     0.274 HD
ENDBRANCH   2  28
BRANCH   6  32
HETATM   32  O4  UNL     1     -24.942   8.198  39.313  1.00  0.00    -0.391 OA
ATOM     33  H4  UNL     1     -25.050   8.136  40.254  1.00  0.00     0.210 HD
ENDBRANCH   6  32
BRANCH   1  34
HETATM   34  O1  UNL     1     -26.330   6.446  37.347  1.00  0.00    -0.349 OA
BRANCH  34  35
HETATM   35  C6  UNL     1     -27.282   7.423  37.200  1.00  0.00     0.291 C 
HETATM   36  C5  UNL     1     -28.153   7.322  36.015  1.00  0.00     0.238 C 
HETATM   37  C4  UNL     1     -29.298   8.312  36.171  1.00  0.00     0.040 C 
HETATM   38  C3  UNL     1     -30.149   7.849  37.341  1.00  0.00     0.036 C 
HETATM   39  C2  UNL     1     -29.284   7.185  38.391  1.00  0.00     0.150 C 
HETATM   40  O5  UNL     1     -27.985   7.585  38.351  1.00  0.00    -0.352 OA
BRANCH  36  41
HETATM   41  N2  UNL     1     -28.782   6.007  35.851  1.00  0.00    -0.070 N 
ATOM     42  H23 UNL     1     -28.626   5.378  36.639  1.00  0.00     0.274 HD
ATOM     43  H22 UNL     1     -29.800   6.030  35.914  1.00  0.00     0.274 HD
ATOM     44  H21 UNL     1     -28.437   5.642  34.963  1.00  0.00     0.274 HD
ENDBRANCH  36  41
BRANCH  39  45
HETATM   45  C1  UNL     1     -29.855   7.598  39.748  1.00  0.00     0.261 C 
BRANCH  45  46
HETATM   46  N1  UNL     1     -28.744   7.949  40.609  1.00  0.00    -0.077 N 
ATOM     47  H13 UNL     1     -27.870   8.072  40.096  1.00  0.00     0.274 HD
ATOM     48  H12 UNL     1     -28.816   8.895  40.981  1.00  0.00     0.274 HD
ATOM     49  H11 UNL     1     -28.678   7.240  41.339  1.00  0.00     0.274 HD
ENDBRANCH  45  46
ENDBRANCH  39  45
ENDBRANCH  34  35
ENDBRANCH   1  34
TORSDOF 13
ENDMDL
MODEL 5
REMARK VINA RESULT: -6.168711006      2.044      2.218
REMARK  13 active torsions:
REMARK  status: ('A' for Active; 'I' for Inactive)
REMARK    1  A    between atoms: N1_1  and  C1_5 
REMARK    2  A    between atoms: C1_5  and  C2_6 
REMARK    3  A    between atoms: C5_9  and  N2_10 
REMARK    4  A    between atoms: C6_14  and  O1_15 
REMARK    5  A    between atoms: O1_15  and  C7_16 
REMARK    6  A    between atoms: C8_17  and  N3_18 
REMARK    7  A    between atoms: C10_23  and  N4_24 
REMARK    8  A    between atoms: N4_24  and  C11_27 
REMARK    9  A    between atoms: C12_30  and  C13_31 
REMARK   10  A    between atoms: C14_33  and  O3_34 
REMARK   11  A    between atoms: C15_36  and  N6_37 
REMARK   12  A    between atoms: C16_41  and  N7_42 
REMARK   13  A    between atoms: C17_46  and  O4_47 
ROOT
HETATM    1  C7  UNL     1     -22.583   0.611  40.762  1.00  0.00     0.185 C 
HETATM    2  C8  UNL     1     -21.104   0.461  40.512  1.00  0.00     0.217 C 
HETATM    3  C9  UNL     1     -20.342   0.851  41.758  1.00  0.00     0.070 C 
HETATM    4  C10 UNL     1     -20.316   2.367  41.821  1.00  0.00     0.223 C 
HETATM    5  C16 UNL     1     -21.772   2.820  41.614  1.00  0.00     0.245 C 
HETATM    6  C17 UNL     1     -22.722   1.677  41.858  1.00  0.00     0.181 C 
ENDROOT
BRANCH   4   7
HETATM    7  N4  UNL     1     -19.815   2.858  43.073  1.00  0.00    -0.046 N 
ATOM      8  H42 UNL     1     -18.811   3.031  43.023  1.00  0.00     0.279 HD
ATOM      9  H41 UNL     1     -20.138   3.811  43.247  1.00  0.00     0.279 HD
BRANCH   7  10
HETATM   10  C11 UNL     1     -20.135   1.996  44.175  1.00  0.00     0.338 C 
HETATM   11  N5  UNL     1     -21.389   2.396  44.805  1.00  0.00    -0.065 NA
HETATM   12  O2  UNL     1     -21.207   3.457  45.623  1.00  0.00    -0.276 OA
HETATM   13  C12 UNL     1     -20.574   2.980  46.766  1.00  0.00     0.188 C 
HETATM   14  C14 UNL     1     -19.187   2.574  46.421  1.00  0.00     0.183 C 
HETATM   15  C15 UNL     1     -19.050   1.759  45.159  1.00  0.00     0.263 C 
BRANCH  13  16
HETATM   16  C13 UNL     1     -21.382   1.914  47.468  1.00  0.00     0.122 C 
HETATM   17  S1  UNL     1     -22.849   2.688  48.242  1.00  0.00    -0.095 SA
ENDBRANCH  13  16
BRANCH  14  18
HETATM   18  O3  UNL     1     -18.425   3.750  46.271  1.00  0.00    -0.391 OA
ATOM     19  H3  UNL     1     -17.615   3.513  45.836  1.00  0.00     0.210 HD
ENDBRANCH  14  18
BRANCH  15  20
HETATM   20  N6  UNL     1     -18.968   0.354  45.574  1.00  0.00    -0.069 N 
ATOM     21  H63 UNL     1     -19.395  -0.259  44.881  1.00  0.00     0.275 HD
ATOM     22  H62 UNL     1     -18.008   0.012  45.526  1.00  0.00     0.275 HD
ATOM     23  H61 UNL     1     -19.369   0.199  46.499  1.00  0.00     0.275 HD
ENDBRANCH  15  20
ENDBRANCH   7  10
ENDBRANCH   4   7
BRANCH   5  24
HETATM   24  N7  UNL     1     -22.054   3.814  42.642  1.00  0.00    -0.070 N 
ATOM     25  H73 UNL     1     -21.739   4.752  42.391  1.00  0.00     0.274 HD
ATOM     26  H72 UNL     1     -23.046   4.030  42.730  1.00  0.00     0.274 HD
ATOM     27  H71 UNL     1     -21.639   3.468  43.508  1.00  0.00     0.274 HD
ENDBRANCH   5  24
BRANCH   2  28
HETATM   28  N3  UNL     1     -20.748  -0.913  40.197  1.00  0.00    -0.072 N 
ATOM     29  H33 UNL     1     -19.961  -0.953  39.550  1.00  0.00     0.274 HD
ATOM     30  H32 UNL     1     -20.320  -1.378  40.998  1.00  0.00     0.274 HD
ATOM     31  H31 UNL     1     -21.546  -1.439  39.844  1.00  0.00     0.274 HD
ENDBRANCH   2  28
BRANCH   6  32
HETATM   32  O4  UNL     1     -24.016   2.227  41.819  1.00  0.00    -0.391 OA
ATOM     33  H4  UNL     1     -24.385   2.235  42.694  1.00  0.00     0.210 HD
ENDBRANCH   6  32
BRANCH   1  34
HETATM   34  O1  UNL     1     -23.103  -0.542  41.222  1.00  0.00    -0.349 OA
BRANCH  34  35
HETATM   35  C6  UNL     1     -24.446  -0.757  41.048  1.00  0.00     0.291 C 
HETATM   36  C5  UNL     1     -24.885  -1.130  39.691  1.00  0.00     0.238 C 
HETATM   37  C4  UNL     1     -26.335  -1.587  39.760  1.00  0.00     0.040 C 
HETATM   38  C3  UNL     1     -26.372  -2.874  40.567  1.00  0.00     0.036 C 
HETATM   39  C2  UNL     1     -25.304  -2.855  41.640  1.00  0.00     0.150 C 
HETATM   40  O5  UNL     1     -24.925  -1.599  42.000  1.00  0.00    -0.352 OA
BRANCH  36  41
HETATM   41  N2  UNL     1     -24.139  -2.254  39.114  1.00  0.00    -0.070 N 
ATOM     42  H23 UNL     1     -24.729  -2.931  38.630  1.00  0.00     0.274 HD
ATOM     43  H22 UNL     1     -23.566  -1.995  38.311  1.00  0.00     0.274 HD
ATOM     44  H21 UNL     1     -23.604  -2.657  39.884  1.00  0.00     0.274 HD
ENDBRANCH  36  41
BRANCH  39  45
HETATM   45  C1  UNL     1     -25.911  -3.528  42.870  1.00  0.00     0.261 C 
BRANCH  45  46
HETATM   46  N1  UNL     1     -27.339  -3.641  42.654  1.00  0.00    -0.077 N 
ATOM     47  H13 UNL     1     -27.639  -3.239  41.765  1.00  0.00     0.274 HD
ATOM     48  H12 UNL     1     -27.637  -4.600  42.475  1.00  0.00     0.274 HD
ATOM     49  H11 UNL     1     -27.811  -3.223  43.457  1.00  0.00     0.274 HD
ENDBRANCH  45  46
ENDBRANCH  39  45
ENDBRANCH  34  35
ENDBRANCH   1  34
TORSDOF 13
ENDMDL
