MODEL 1
REMARK VINA RESULT: -6.543566965      0.000      0.000
REMARK  5 active torsions:
REMARK  status: ('A' for Active; 'I' for Inactive)
REMARK    1  A    between atoms: C1_2  and  N1_3 
REMARK    2  A    between atoms: C1_2  and  N3_17 
REMARK    3  A    between atoms: N1_3  and  C2_5 
REMARK    4  A    between atoms: C2_5  and  C3_6 
REMARK    5  A    between atoms: N2_9  and  C6_10 
ROOT
HETATM    1  C3  UNL     1     -17.237  -9.975 -61.049  1.00  0.00     0.013 C 
HETATM    2  C4  UNL     1     -18.261  -9.596 -62.067  1.00  0.00     0.051 C 
HETATM    3  C5  UNL     1     -17.713  -8.571 -63.009  1.00  0.00     0.064 C 
HETATM    4  N2  UNL     1     -17.018  -7.518 -62.397  1.00  0.00    -0.369 N 
HETATM    5  C11 UNL     1     -16.772  -7.513 -61.018  1.00  0.00     0.064 C 
HETATM    6  C12 UNL     1     -16.574  -8.855 -60.381  1.00  0.00     0.051 C 
ENDROOT
BRANCH   1   7
HETATM    7  C2  UNL     1     -17.786 -11.076 -60.135  1.00  0.00     0.127 C 
BRANCH   7   8
HETATM    8  N1  UNL     1     -18.357 -12.138 -60.878  1.00  0.00    -0.367 N 
ATOM      9  H1  UNL     1     -17.871 -12.387 -61.739  1.00  0.00     0.161 HD
BRANCH   8  10
HETATM   10  C1  UNL     1     -19.494 -12.883 -60.589  1.00  0.00     0.169 C 
HETATM   11  S1  UNL     1     -20.199 -12.695 -59.079  1.00  0.00    -0.041 SA
BRANCH  10  12
HETATM   12  N3  UNL     1     -20.094 -13.784 -61.502  1.00  0.00    -0.358 N 
HETATM   13  C13 UNL     1     -20.305 -13.363 -62.911  1.00  0.00     0.125 C 
HETATM   14  C14 UNL     1     -20.494 -14.700 -63.602  1.00  0.00     0.021 C 
HETATM   15  C15 UNL     1     -21.444 -15.337 -62.576  1.00  0.00     0.021 C 
HETATM   16  C16 UNL     1     -20.580 -15.119 -61.328  1.00  0.00     0.125 C 
ENDBRANCH  10  12
ENDBRANCH   8  10
ENDBRANCH   7   8
ENDBRANCH   1   7
BRANCH   4  17
HETATM   17  C6  UNL     1     -16.341  -6.601 -63.226  1.00  0.00     0.088 C 
HETATM   18  C7  UNL     1     -16.296  -5.236 -62.570  1.00  0.00     0.026 C 
HETATM   19  C8  UNL     1     -17.747  -4.797 -62.662  1.00  0.00     0.002 C 
HETATM   20  C9  UNL     1     -18.158  -5.258 -64.057  1.00  0.00     0.002 C 
HETATM   21  C10 UNL     1     -17.131  -6.292 -64.481  1.00  0.00     0.026 C 
ENDBRANCH   4  17
TORSDOF 5
ENDMDL
MODEL 2
REMARK VINA RESULT: -6.543027748      0.881      1.271
REMARK  5 active torsions:
REMARK  status: ('A' for Active; 'I' for Inactive)
REMARK    1  A    between atoms: C1_2  and  N1_3 
REMARK    2  A    between atoms: C1_2  and  N3_17 
REMARK    3  A    between atoms: N1_3  and  C2_5 
REMARK    4  A    between atoms: C2_5  and  C3_6 
REMARK    5  A    between atoms: N2_9  and  C6_10 
ROOT
HETATM    1  C3  UNL     1     -17.193 -10.269 -62.558  1.00  0.00     0.013 C 
HETATM    2  C4  UNL     1     -18.466  -9.559 -62.876  1.00  0.00     0.051 C 
HETATM    3  C5  UNL     1     -18.194  -8.312 -63.656  1.00  0.00     0.064 C 
HETATM    4  N2  UNL     1     -17.143  -7.525 -63.162  1.00  0.00    -0.369 N 
HETATM    5  C11 UNL     1     -16.353  -7.955 -62.089  1.00  0.00     0.064 C 
HETATM    6  C12 UNL     1     -16.136  -9.434 -61.985  1.00  0.00     0.051 C 
ENDROOT
BRANCH   1   7
HETATM    7  C2  UNL     1     -17.490 -11.580 -61.822  1.00  0.00     0.127 C 
BRANCH   7   8
HETATM    8  N1  UNL     1     -18.725 -11.526 -61.133  1.00  0.00    -0.367 N 
ATOM      9  H1  UNL     1     -19.028 -10.597 -60.839  1.00  0.00     0.161 HD
BRANCH   8  10
HETATM   10  C1  UNL     1     -19.580 -12.571 -60.804  1.00  0.00     0.169 C 
HETATM   11  S1  UNL     1     -20.033 -12.745 -59.199  1.00  0.00    -0.041 SA
BRANCH  10  12
HETATM   12  N3  UNL     1     -20.097 -13.489 -61.749  1.00  0.00    -0.358 N 
HETATM   13  C13 UNL     1     -20.428 -14.872 -61.320  1.00  0.00     0.125 C 
HETATM   14  C14 UNL     1     -21.351 -15.325 -62.437  1.00  0.00     0.021 C 
HETATM   15  C15 UNL     1     -20.526 -14.795 -63.620  1.00  0.00     0.021 C 
HETATM   16  C16 UNL     1     -20.385 -13.345 -63.144  1.00  0.00     0.125 C 
ENDBRANCH  10  12
ENDBRANCH   8  10
ENDBRANCH   7   8
ENDBRANCH   1   7
BRANCH   4  17
HETATM   17  C6  UNL     1     -16.726  -6.419 -63.931  1.00  0.00     0.088 C 
HETATM   18  C7  UNL     1     -16.076  -5.378 -63.043  1.00  0.00     0.026 C 
HETATM   19  C8  UNL     1     -17.267  -4.844 -62.265  1.00  0.00     0.002 C 
HETATM   20  C9  UNL     1     -18.359  -4.758 -63.326  1.00  0.00     0.002 C 
HETATM   21  C10 UNL     1     -17.905  -5.639 -64.475  1.00  0.00     0.026 C 
ENDBRANCH   4  17
TORSDOF 5
ENDMDL
MODEL 3
REMARK VINA RESULT: -6.484465011      2.122      7.899
REMARK  5 active torsions:
REMARK  status: ('A' for Active; 'I' for Inactive)
REMARK    1  A    between atoms: C1_2  and  N1_3 
REMARK    2  A    between atoms: C1_2  and  N3_17 
REMARK    3  A    between atoms: N1_3  and  C2_5 
REMARK    4  A    between atoms: C2_5  and  C3_6 
REMARK    5  A    between atoms: N2_9  and  C6_10 
ROOT
HETATM    1  C3  UNL     1     -17.769 -12.055 -62.769  1.00  0.00     0.013 C 
HETATM    2  C4  UNL     1     -18.959 -11.905 -63.655  1.00  0.00     0.051 C 
HETATM    3  C5  UNL     1     -19.887 -13.068 -63.494  1.00  0.00     0.064 C 
HETATM    4  N2  UNL     1     -19.263 -14.324 -63.489  1.00  0.00    -0.369 N 
HETATM    5  C11 UNL     1     -17.868 -14.444 -63.519  1.00  0.00     0.064 C 
HETATM    6  C12 UNL     1     -17.100 -13.355 -62.832  1.00  0.00     0.051 C 
ENDROOT
BRANCH   1   7
HETATM    7  C2  UNL     1     -16.863 -10.824 -62.891  1.00  0.00     0.127 C 
BRANCH   7   8
HETATM    8  N1  UNL     1     -17.594  -9.669 -63.258  1.00  0.00    -0.367 N 
ATOM      9  H1  UNL     1     -18.274  -9.796 -64.008  1.00  0.00     0.161 HD
BRANCH   8  10
HETATM   10  C1  UNL     1     -17.508  -8.386 -62.732  1.00  0.00     0.169 C 
HETATM   11  S1  UNL     1     -17.465  -8.217 -61.065  1.00  0.00    -0.041 SA
BRANCH  10  12
HETATM   12  N3  UNL     1     -17.443  -7.216 -63.527  1.00  0.00    -0.358 N 
HETATM   13  C13 UNL     1     -16.434  -6.172 -63.209  1.00  0.00     0.125 C 
HETATM   14  C14 UNL     1     -16.383  -5.393 -64.510  1.00  0.00     0.021 C 
HETATM   15  C15 UNL     1     -17.896  -5.304 -64.763  1.00  0.00     0.021 C 
HETATM   16  C16 UNL     1     -18.214  -6.800 -64.659  1.00  0.00     0.125 C 
ENDBRANCH  10  12
ENDBRANCH   8  10
ENDBRANCH   7   8
ENDBRANCH   1   7
BRANCH   4  17
HETATM   17  C6  UNL     1     -20.050 -15.452 -63.184  1.00  0.00     0.088 C 
HETATM   18  C7  UNL     1     -21.144 -15.080 -62.205  1.00  0.00     0.026 C 
HETATM   19  C8  UNL     1     -20.354 -14.842 -60.930  1.00  0.00     0.002 C 
HETATM   20  C9  UNL     1     -19.325 -15.968 -60.948  1.00  0.00     0.002 C 
HETATM   21  C10 UNL     1     -19.275 -16.474 -62.377  1.00  0.00     0.026 C 
ENDBRANCH   4  17
TORSDOF 5
ENDMDL
MODEL 4
REMARK VINA RESULT: -6.480450928      2.445      6.882
REMARK  5 active torsions:
REMARK  status: ('A' for Active; 'I' for Inactive)
REMARK    1  A    between atoms: C1_2  and  N1_3 
REMARK    2  A    between atoms: C1_2  and  N3_17 
REMARK    3  A    between atoms: N1_3  and  C2_5 
REMARK    4  A    between atoms: C2_5  and  C3_6 
REMARK    5  A    between atoms: N2_9  and  C6_10 
ROOT
HETATM    1  C3  UNL     1     -17.743  -9.570 -60.768  1.00  0.00     0.013 C 
HETATM    2  C4  UNL     1     -17.447 -10.757 -59.913  1.00  0.00     0.051 C 
HETATM    3  C5  UNL     1     -17.990 -12.004 -60.537  1.00  0.00     0.064 C 
HETATM    4  N2  UNL     1     -19.298 -11.897 -61.030  1.00  0.00    -0.369 N 
HETATM    5  C11 UNL     1     -19.979 -10.672 -61.028  1.00  0.00     0.064 C 
HETATM    6  C12 UNL     1     -19.131  -9.450 -61.214  1.00  0.00     0.051 C 
ENDROOT
BRANCH   1   7
HETATM    7  C2  UNL     1     -17.121  -8.311 -60.154  1.00  0.00     0.127 C 
BRANCH   7   8
HETATM    8  N1  UNL     1     -16.438  -7.538 -61.124  1.00  0.00    -0.367 N 
ATOM      9  H1  UNL     1     -15.523  -7.888 -61.406  1.00  0.00     0.161 HD
BRANCH   8  10
HETATM   10  C1  UNL     1     -16.851  -6.363 -61.742  1.00  0.00     0.169 C 
HETATM   11  S1  UNL     1     -16.768  -4.937 -60.863  1.00  0.00    -0.041 SA
BRANCH  10  12
HETATM   12  N3  UNL     1     -17.326  -6.303 -63.074  1.00  0.00    -0.358 N 
HETATM   13  C13 UNL     1     -17.362  -4.996 -63.779  1.00  0.00     0.125 C 
HETATM   14  C14 UNL     1     -17.454  -5.434 -65.229  1.00  0.00     0.021 C 
HETATM   15  C15 UNL     1     -18.520  -6.526 -65.053  1.00  0.00     0.021 C 
HETATM   16  C16 UNL     1     -17.821  -7.325 -63.946  1.00  0.00     0.125 C 
ENDBRANCH  10  12
ENDBRANCH   8  10
ENDBRANCH   7   8
ENDBRANCH   1   7
BRANCH   4  17
HETATM   17  C6  UNL     1     -19.818 -12.978 -61.769  1.00  0.00     0.088 C 
HETATM   18  C7  UNL     1     -18.708 -13.680 -62.523  1.00  0.00     0.026 C 
HETATM   19  C8  UNL     1     -18.358 -12.656 -63.589  1.00  0.00     0.002 C 
HETATM   20  C9  UNL     1     -19.722 -12.127 -64.018  1.00  0.00     0.002 C 
HETATM   21  C10 UNL     1     -20.691 -12.506 -62.913  1.00  0.00     0.026 C 
ENDBRANCH   4  17
TORSDOF 5
ENDMDL
MODEL 5
REMARK VINA RESULT: -6.476730904      2.098      8.041
REMARK  5 active torsions:
REMARK  status: ('A' for Active; 'I' for Inactive)
REMARK    1  A    between atoms: C1_2  and  N1_3 
REMARK    2  A    between atoms: C1_2  and  N3_17 
REMARK    3  A    between atoms: N1_3  and  C2_5 
REMARK    4  A    between atoms: C2_5  and  C3_6 
REMARK    5  A    between atoms: N2_9  and  C6_10 
ROOT
HETATM    1  C3  UNL     1     -17.376 -11.977 -63.196  1.00  0.00     0.013 C 
HETATM    2  C4  UNL     1     -17.175 -12.960 -62.092  1.00  0.00     0.051 C 
HETATM    3  C5  UNL     1     -17.859 -14.253 -62.407  1.00  0.00     0.064 C 
HETATM    4  N2  UNL     1     -19.165 -14.124 -62.902  1.00  0.00    -0.369 N 
HETATM    5  C11 UNL     1     -19.718 -12.868 -63.179  1.00  0.00     0.064 C 
HETATM    6  C12 UNL     1     -18.758 -11.817 -63.649  1.00  0.00     0.051 C 
ENDROOT
BRANCH   1   7
HETATM    7  C2  UNL     1     -16.612 -10.683 -62.895  1.00  0.00     0.127 C 
BRANCH   7   8
HETATM    8  N1  UNL     1     -17.390  -9.535 -63.181  1.00  0.00    -0.367 N 
ATOM      9  H1  UNL     1     -18.109  -9.655 -63.894  1.00  0.00     0.161 HD
BRANCH   8  10
HETATM   10  C1  UNL     1     -17.303  -8.268 -62.618  1.00  0.00     0.169 C 
HETATM   11  S1  UNL     1     -17.253  -8.148 -60.946  1.00  0.00    -0.041 SA
BRANCH  10  12
HETATM   12  N3  UNL     1     -17.243  -7.075 -63.378  1.00  0.00    -0.358 N 
HETATM   13  C13 UNL     1     -16.259  -6.023 -63.010  1.00  0.00     0.125 C 
HETATM   14  C14 UNL     1     -16.196  -5.206 -64.288  1.00  0.00     0.021 C 
HETATM   15  C15 UNL     1     -17.705  -5.137 -64.570  1.00  0.00     0.021 C 
HETATM   16  C16 UNL     1     -17.997  -6.640 -64.514  1.00  0.00     0.125 C 
ENDBRANCH  10  12
ENDBRANCH   8  10
ENDBRANCH   7   8
ENDBRANCH   1   7
BRANCH   4  17
HETATM   17  C6  UNL     1     -19.814 -15.285 -63.366  1.00  0.00     0.088 C 
HETATM   18  C7  UNL     1     -21.268 -15.280 -62.939  1.00  0.00     0.026 C 
HETATM   19  C8  UNL     1     -21.153 -15.511 -61.442  1.00  0.00     0.002 C 
HETATM   20  C9  UNL     1     -20.051 -16.560 -61.338  1.00  0.00     0.002 C 
HETATM   21  C10 UNL     1     -19.310 -16.528 -62.662  1.00  0.00     0.026 C 
ENDBRANCH   4  17
TORSDOF 5
ENDMDL
