MODEL 1
REMARK VINA RESULT: -7.444921047      0.000      0.000
REMARK  1 active torsions:
REMARK  status: ('A' for Active; 'I' for Inactive)
REMARK    1  A    between atoms: C2_2  and  C3_3 
REMARK       I    between atoms: C3_3  and  N1_5 
ROOT
HETATM    1  C1  UNL     1      17.718 -19.787  20.979  1.00  0.00     0.060 C 
HETATM    2  C2  UNL     1      19.213 -19.720  21.171  1.00  0.00     0.194 C 
HETATM    3  N4  UNL     1      19.689 -18.473  20.610  1.00  0.00    -0.317 N 
ATOM      4  H4  UNL     1      19.719 -17.569  21.082  1.00  0.00     0.166 HD
HETATM    5  C5  UNL     1      20.106 -18.748  19.280  1.00  0.00     0.324 C 
HETATM    6  O2  UNL     1      20.317 -17.884  18.358  1.00  0.00    -0.247 OA
HETATM    7  N5  UNL     1      20.256 -20.155  19.135  1.00  0.00    -0.277 N 
ATOM      8  H5  UNL     1      20.545 -20.648  18.290  1.00  0.00     0.173 HD
HETATM    9  C6  UNL     1      19.927 -20.750  20.386  1.00  0.00     0.263 C 
HETATM   10  O3  UNL     1      20.208 -21.941  20.730  1.00  0.00    -0.270 OA
ENDROOT
BRANCH   2  11
HETATM   11  C3  UNL     1      19.504 -19.825  22.625  1.00  0.00     0.261 C 
HETATM   12  O1  UNL     1      20.389 -20.648  22.975  1.00  0.00    -0.270 OA
HETATM   13  N1  UNL     1      18.772 -19.005  23.498  1.00  0.00    -0.301 N 
HETATM   14  C4  UNL     1      19.262 -18.013  24.155  1.00  0.00     0.203 C 
ATOM     15  H1  UNL     1      17.781 -19.210  23.621  1.00  0.00     0.171 HD
HETATM   16  N2  UNL     1      18.377 -17.289  24.997  1.00  0.00    -0.066 NA
HETATM   17  N3  UNL     1      20.614 -17.611  24.089  1.00  0.00    -0.066 NA
ENDBRANCH   2  11
TORSDOF 1
ENDMDL
MODEL 2
REMARK VINA RESULT: -7.443807677      1.867      3.294
REMARK  1 active torsions:
REMARK  status: ('A' for Active; 'I' for Inactive)
REMARK    1  A    between atoms: C2_2  and  C3_3 
REMARK       I    between atoms: C3_3  and  N1_5 
ROOT
HETATM    1  C1  UNL     1      19.898 -20.334  18.401  1.00  0.00     0.060 C 
HETATM    2  C2  UNL     1      19.838 -20.554  19.892  1.00  0.00     0.194 C 
HETATM    3  N4  UNL     1      20.828 -21.549  20.246  1.00  0.00    -0.317 N 
ATOM      4  H4  UNL     1      21.814 -21.380  20.442  1.00  0.00     0.166 HD
HETATM    5  C5  UNL     1      20.164 -22.806  20.269  1.00  0.00     0.324 C 
HETATM    6  O2  UNL     1      20.722 -23.958  20.252  1.00  0.00    -0.247 OA
HETATM    7  N5  UNL     1      18.761 -22.575  20.314  1.00  0.00    -0.277 N 
ATOM      8  H5  UNL     1      18.032 -23.288  20.339  1.00  0.00     0.173 HD
HETATM    9  C6  UNL     1      18.561 -21.164  20.319  1.00  0.00     0.263 C 
HETATM   10  O3  UNL     1      17.479 -20.577  20.635  1.00  0.00    -0.270 OA
ENDROOT
BRANCH   2  11
HETATM   11  C3  UNL     1      20.088 -19.254  20.567  1.00  0.00     0.261 C 
HETATM   12  O1  UNL     1      19.639 -18.221  20.008  1.00  0.00    -0.270 OA
HETATM   13  N1  UNL     1      20.805 -19.272  21.774  1.00  0.00    -0.301 N 
HETATM   14  C4  UNL     1      20.303 -19.011  22.929  1.00  0.00     0.203 C 
ATOM     15  H1  UNL     1      21.797 -19.508  21.732  1.00  0.00     0.171 HD
HETATM   16  N2  UNL     1      21.175 -19.075  24.048  1.00  0.00    -0.066 NA
HETATM   17  N3  UNL     1      18.950 -18.668  23.144  1.00  0.00    -0.066 NA
ENDBRANCH   2  11
TORSDOF 1
ENDMDL
MODEL 3
REMARK VINA RESULT: -7.292165842      2.299      4.516
REMARK  1 active torsions:
REMARK  status: ('A' for Active; 'I' for Inactive)
REMARK    1  A    between atoms: C2_2  and  C3_3 
REMARK       I    between atoms: C3_3  and  N1_5 
ROOT
HETATM    1  C1  UNL     1      18.104 -18.435  22.323  1.00  0.00     0.060 C 
HETATM    2  C2  UNL     1      18.903 -19.632  21.872  1.00  0.00     0.194 C 
HETATM    3  N4  UNL     1      19.441 -20.289  23.044  1.00  0.00    -0.317 N 
ATOM      4  H4  UNL     1      18.967 -20.986  23.620  1.00  0.00     0.166 HD
HETATM    5  C5  UNL     1      20.753 -19.781  23.240  1.00  0.00     0.324 C 
HETATM    6  O2  UNL     1      21.453 -19.880  24.308  1.00  0.00    -0.247 OA
HETATM    7  N5  UNL     1      21.171 -19.136  22.043  1.00  0.00    -0.277 N 
ATOM      8  H5  UNL     1      22.069 -18.677  21.886  1.00  0.00     0.173 HD
HETATM    9  C6  UNL     1      20.106 -19.248  21.104  1.00  0.00     0.263 C 
HETATM   10  O3  UNL     1      20.207 -19.049  19.853  1.00  0.00    -0.270 OA
ENDROOT
BRANCH   2  11
HETATM   11  C3  UNL     1      18.006 -20.526  21.093  1.00  0.00     0.261 C 
HETATM   12  O1  UNL     1      17.047 -19.987  20.483  1.00  0.00    -0.270 OA
HETATM   13  N1  UNL     1      18.291 -21.901  21.096  1.00  0.00    -0.301 N 
HETATM   14  C4  UNL     1      18.724 -22.562  20.081  1.00  0.00     0.203 C 
ATOM     15  H1  UNL     1      18.144 -22.413  21.966  1.00  0.00     0.171 HD
HETATM   16  N2  UNL     1      18.960 -23.951  20.261  1.00  0.00    -0.066 NA
HETATM   17  N3  UNL     1      18.973 -21.991  18.813  1.00  0.00    -0.066 NA
ENDBRANCH   2  11
TORSDOF 1
ENDMDL
MODEL 4
REMARK VINA RESULT: -7.063761249      1.757      2.265
REMARK  1 active torsions:
REMARK  status: ('A' for Active; 'I' for Inactive)
REMARK    1  A    between atoms: C2_2  and  C3_3 
REMARK       I    between atoms: C3_3  and  N1_5 
ROOT
HETATM    1  C1  UNL     1      20.457 -19.014  20.515  1.00  0.00     0.060 C 
HETATM    2  C2  UNL     1      19.856 -20.261  21.113  1.00  0.00     0.194 C 
HETATM    3  N4  UNL     1      20.669 -21.392  20.721  1.00  0.00    -0.317 N 
ATOM      4  H4  UNL     1      21.508 -21.728  21.192  1.00  0.00     0.166 HD
HETATM    5  C5  UNL     1      20.075 -21.947  19.554  1.00  0.00     0.324 C 
HETATM    6  O2  UNL     1      20.628 -22.763  18.737  1.00  0.00    -0.247 OA
HETATM    7  N5  UNL     1      18.749 -21.444  19.440  1.00  0.00    -0.277 N 
ATOM      8  H5  UNL     1      18.080 -21.666  18.702  1.00  0.00     0.173 HD
HETATM    9  C6  UNL     1      18.527 -20.572  20.544  1.00  0.00     0.263 C 
HETATM   10  O3  UNL     1      17.390 -20.162  20.939  1.00  0.00    -0.270 OA
ENDROOT
BRANCH   2  11
HETATM   11  C3  UNL     1      19.805 -20.095  22.589  1.00  0.00     0.261 C 
HETATM   12  O1  UNL     1      20.634 -20.753  23.269  1.00  0.00    -0.270 OA
HETATM   13  N1  UNL     1      18.841 -19.221  23.116  1.00  0.00    -0.301 N 
HETATM   14  C4  UNL     1      19.101 -18.090  23.670  1.00  0.00     0.203 C 
ATOM     15  H1  UNL     1      17.863 -19.504  23.055  1.00  0.00     0.171 HD
HETATM   16  N2  UNL     1      18.001 -17.332  24.150  1.00  0.00    -0.066 NA
HETATM   17  N3  UNL     1      20.404 -17.567  23.827  1.00  0.00    -0.066 NA
ENDBRANCH   2  11
TORSDOF 1
ENDMDL
MODEL 5
REMARK VINA RESULT: -7.016954887      1.642      2.053
REMARK  1 active torsions:
REMARK  status: ('A' for Active; 'I' for Inactive)
REMARK    1  A    between atoms: C2_2  and  C3_3 
REMARK       I    between atoms: C3_3  and  N1_5 
ROOT
HETATM    1  C1  UNL     1      17.415 -19.520  21.129  1.00  0.00     0.060 C 
HETATM    2  C2  UNL     1      18.818 -18.991  21.288  1.00  0.00     0.194 C 
HETATM    3  N4  UNL     1      19.309 -18.601  19.983  1.00  0.00    -0.317 N 
ATOM      4  H4  UNL     1      19.162 -17.703  19.523  1.00  0.00     0.166 HD
HETATM    5  C5  UNL     1      20.035 -19.707  19.465  1.00  0.00     0.324 C 
HETATM    6  O2  UNL     1      20.380 -19.883  18.244  1.00  0.00    -0.247 OA
HETATM    7  N5  UNL     1      20.323 -20.600  20.535  1.00  0.00    -0.277 N 
ATOM      8  H5  UNL     1      20.834 -21.481  20.466  1.00  0.00     0.173 HD
HETATM    9  C6  UNL     1      19.769 -20.038  21.720  1.00  0.00     0.263 C 
HETATM   10  O3  UNL     1      20.058 -20.392  22.906  1.00  0.00    -0.270 OA
ENDROOT
BRANCH   2  11
HETATM   11  C3  UNL     1      18.782 -17.845  22.235  1.00  0.00     0.261 C 
HETATM   12  O1  UNL     1      17.716 -17.179  22.288  1.00  0.00    -0.270 OA
HETATM   13  N1  UNL     1      19.933 -17.591  22.997  1.00  0.00    -0.301 N 
HETATM   14  C4  UNL     1      20.026 -17.771  24.267  1.00  0.00     0.203 C 
ATOM     15  H1  UNL     1      20.755 -17.237  22.508  1.00  0.00     0.171 HD
HETATM   16  N2  UNL     1      21.269 -17.461  24.880  1.00  0.00    -0.066 NA
HETATM   17  N3  UNL     1      18.974 -18.253  25.077  1.00  0.00    -0.066 NA
ENDBRANCH   2  11
TORSDOF 1
ENDMDL
