MODEL 1
REMARK VINA RESULT: -6.832608537      0.000      0.000
REMARK  6 active torsions:
REMARK  status: ('A' for Active; 'I' for Inactive)
REMARK    1  A    between atoms: C2_2  and  N1_3 
REMARK    2  A    between atoms: C2_2  and  C3_7 
REMARK    3  A    between atoms: C2_2  and  C10_18 
REMARK    4  A    between atoms: C3_7  and  N2_8 
REMARK    5  A    between atoms: N2_8  and  C4_10 
REMARK    6  A    between atoms: C9_15  and  O1_16 
ROOT
HETATM    1  C1  UNL     1       3.925   1.474  29.693  1.00  0.00     0.052 C 
HETATM    2  C2  UNL     1       4.685   1.901  30.947  1.00  0.00     0.155 C 
ENDROOT
BRANCH   2   3
HETATM    3  N1  UNL     1       4.423   0.970  31.982  1.00  0.00    -0.066 N 
ATOM      4  H13 UNL     1       3.513   1.120  32.419  1.00  0.00     0.275 HD
ATOM      5  H12 UNL     1       4.256   0.029  31.625  1.00  0.00     0.275 HD
ATOM      6  H11 UNL     1       5.188   1.001  32.655  1.00  0.00     0.275 HD
ENDBRANCH   2   3
BRANCH   2   7
HETATM    7  C3  UNL     1       4.400   3.310  31.331  1.00  0.00     0.094 C 
BRANCH   7   8
HETATM    8  N2  UNL     1       3.254   3.979  30.894  1.00  0.00    -0.393 N 
ATOM      9  H2  UNL     1       3.319   4.522  30.033  1.00  0.00     0.159 HD
BRANCH   8  10
HETATM   10  C4  UNL     1       2.028   3.955  31.558  1.00  0.00     0.109 C 
HETATM   11  C5  UNL     1       0.957   3.157  30.837  1.00  0.00     0.028 C 
HETATM   12  C6  UNL     1       0.128   4.004  29.917  1.00  0.00     0.002 C 
HETATM   13  C7  UNL     1       0.804   5.211  29.360  1.00  0.00     0.003 C 
HETATM   14  C8  UNL     1       1.334   6.095  30.465  1.00  0.00     0.034 C 
HETATM   15  C9  UNL     1       1.429   5.346  31.780  1.00  0.00     0.140 C 
BRANCH  15  16
HETATM   16  O1  UNL     1       0.203   5.207  32.367  1.00  0.00    -0.394 OA
ATOM     17  H1  UNL     1       0.310   4.745  33.191  1.00  0.00     0.210 HD
ENDBRANCH  15  16
ENDBRANCH   8  10
ENDBRANCH   7   8
ENDBRANCH   2   7
BRANCH   2  18
HETATM   18  C10 UNL     1       6.143   1.770  30.519  1.00  0.00     0.026 C 
HETATM   19  C11 UNL     1       6.987   1.209  31.619  1.00  0.00     0.007 C 
HETATM   20  C12 UNL     1       8.437   1.149  31.128  1.00  0.00     0.000 C 
HETATM   21  C13 UNL     1       8.496   1.156  29.608  1.00  0.00     0.000 C 
HETATM   22  C14 UNL     1       7.903   2.395  29.000  1.00  0.00     0.000 C 
HETATM   23  C15 UNL     1       6.781   2.948  29.913  1.00  0.00     0.007 C 
ENDBRANCH   2  18
TORSDOF 6
ENDMDL
MODEL 2
REMARK VINA RESULT: -6.706892044      2.420      3.114
REMARK  6 active torsions:
REMARK  status: ('A' for Active; 'I' for Inactive)
REMARK    1  A    between atoms: C2_2  and  N1_3 
REMARK    2  A    between atoms: C2_2  and  C3_7 
REMARK    3  A    between atoms: C2_2  and  C10_18 
REMARK    4  A    between atoms: C3_7  and  N2_8 
REMARK    5  A    between atoms: N2_8  and  C4_10 
REMARK    6  A    between atoms: C9_15  and  O1_16 
ROOT
HETATM    1  C1  UNL     1       4.995   1.824  29.202  1.00  0.00     0.052 C 
HETATM    2  C2  UNL     1       5.973   2.284  30.280  1.00  0.00     0.155 C 
ENDROOT
BRANCH   2   3
HETATM    3  N1  UNL     1       5.712   1.566  31.473  1.00  0.00    -0.066 N 
ATOM      4  H13 UNL     1       5.293   2.152  32.196  1.00  0.00     0.275 HD
ATOM      5  H12 UNL     1       4.945   0.902  31.367  1.00  0.00     0.275 HD
ATOM      6  H11 UNL     1       6.574   1.119  31.785  1.00  0.00     0.275 HD
ENDBRANCH   2   3
BRANCH   2   7
HETATM    7  C3  UNL     1       5.964   3.760  30.463  1.00  0.00     0.094 C 
BRANCH   7   8
HETATM    8  N2  UNL     1       5.456   4.360  31.618  1.00  0.00    -0.393 N 
ATOM      9  H2  UNL     1       4.931   3.774  32.267  1.00  0.00     0.159 HD
BRANCH   8  10
HETATM   10  C4  UNL     1       5.621   5.706  31.943  1.00  0.00     0.109 C 
HETATM   11  C5  UNL     1       5.295   6.032  33.389  1.00  0.00     0.028 C 
HETATM   12  C6  UNL     1       3.866   6.446  33.579  1.00  0.00     0.002 C 
HETATM   13  C7  UNL     1       2.892   5.890  32.597  1.00  0.00     0.003 C 
HETATM   14  C8  UNL     1       3.297   6.229  31.181  1.00  0.00     0.034 C 
HETATM   15  C9  UNL     1       4.752   6.645  31.102  1.00  0.00     0.140 C 
BRANCH  15  16
HETATM   16  O1  UNL     1       4.932   7.925  31.547  1.00  0.00    -0.394 OA
ATOM     17  H1  UNL     1       5.676   8.304  31.093  1.00  0.00     0.210 HD
ENDBRANCH  15  16
ENDBRANCH   8  10
ENDBRANCH   7   8
ENDBRANCH   2   7
BRANCH   2  18
HETATM   18  C10 UNL     1       7.322   1.844  29.722  1.00  0.00     0.026 C 
HETATM   19  C11 UNL     1       8.141   1.142  30.758  1.00  0.00     0.007 C 
HETATM   20  C12 UNL     1       9.490   0.772  30.135  1.00  0.00     0.000 C 
HETATM   21  C13 UNL     1       9.396   0.736  28.617  1.00  0.00     0.000 C 
HETATM   22  C14 UNL     1       9.011   2.059  28.019  1.00  0.00     0.000 C 
HETATM   23  C15 UNL     1       8.124   2.852  29.011  1.00  0.00     0.007 C 
ENDBRANCH   2  18
TORSDOF 6
ENDMDL
MODEL 3
REMARK VINA RESULT: -6.617909783      1.498      2.523
REMARK  6 active torsions:
REMARK  status: ('A' for Active; 'I' for Inactive)
REMARK    1  A    between atoms: C2_2  and  N1_3 
REMARK    2  A    between atoms: C2_2  and  C3_7 
REMARK    3  A    between atoms: C2_2  and  C10_18 
REMARK    4  A    between atoms: C3_7  and  N2_8 
REMARK    5  A    between atoms: N2_8  and  C4_10 
REMARK    6  A    between atoms: C9_15  and  O1_16 
ROOT
HETATM    1  C1  UNL     1       6.521   1.159  32.885  1.00  0.00     0.052 C 
HETATM    2  C2  UNL     1       5.981   2.129  31.837  1.00  0.00     0.155 C 
ENDROOT
BRANCH   2   3
HETATM    3  N1  UNL     1       5.918   3.426  32.403  1.00  0.00    -0.066 N 
ATOM      4  H13 UNL     1       5.545   3.418  33.353  1.00  0.00     0.275 HD
ATOM      5  H12 UNL     1       6.842   3.803  32.616  1.00  0.00     0.275 HD
ATOM      6  H11 UNL     1       5.385   4.033  31.780  1.00  0.00     0.275 HD
ENDBRANCH   2   3
BRANCH   2   7
HETATM    7  C3  UNL     1       4.691   1.674  31.252  1.00  0.00     0.094 C 
BRANCH   7   8
HETATM    8  N2  UNL     1       3.511   2.407  31.401  1.00  0.00    -0.393 N 
ATOM      9  H2  UNL     1       3.128   2.508  32.342  1.00  0.00     0.159 HD
BRANCH   8  10
HETATM   10  C4  UNL     1       2.823   3.011  30.350  1.00  0.00     0.109 C 
HETATM   11  C5  UNL     1       3.386   4.361  29.943  1.00  0.00     0.028 C 
HETATM   12  C6  UNL     1       2.727   5.500  30.664  1.00  0.00     0.002 C 
HETATM   13  C7  UNL     1       2.175   5.184  32.012  1.00  0.00     0.003 C 
HETATM   14  C8  UNL     1       1.190   4.041  31.940  1.00  0.00     0.034 C 
HETATM   15  C9  UNL     1       1.342   3.254  30.654  1.00  0.00     0.140 C 
BRANCH  15  16
HETATM   16  O1  UNL     1       0.780   3.912  29.595  1.00  0.00    -0.394 OA
ATOM     17  H1  UNL     1       1.247   3.671  28.803  1.00  0.00     0.210 HD
ENDBRANCH  15  16
ENDBRANCH   8  10
ENDBRANCH   7   8
ENDBRANCH   2   7
BRANCH   2  18
HETATM   18  C10 UNL     1       7.066   2.108  30.766  1.00  0.00     0.026 C 
HETATM   19  C11 UNL     1       6.535   2.549  29.440  1.00  0.00     0.007 C 
HETATM   20  C12 UNL     1       7.670   2.460  28.415  1.00  0.00     0.000 C 
HETATM   21  C13 UNL     1       9.027   2.478  29.103  1.00  0.00     0.000 C 
HETATM   22  C14 UNL     1       9.226   1.325  30.044  1.00  0.00     0.000 C 
HETATM   23  C15 UNL     1       7.864   0.880  30.633  1.00  0.00     0.007 C 
ENDBRANCH   2  18
TORSDOF 6
ENDMDL
MODEL 4
REMARK VINA RESULT: -6.616638456      1.209      2.051
REMARK  6 active torsions:
REMARK  status: ('A' for Active; 'I' for Inactive)
REMARK    1  A    between atoms: C2_2  and  N1_3 
REMARK    2  A    between atoms: C2_2  and  C3_7 
REMARK    3  A    between atoms: C2_2  and  C10_18 
REMARK    4  A    between atoms: C3_7  and  N2_8 
REMARK    5  A    between atoms: N2_8  and  C4_10 
REMARK    6  A    between atoms: C9_15  and  O1_16 
ROOT
HETATM    1  C1  UNL     1       5.290   4.541  32.129  1.00  0.00     0.052 C 
HETATM    2  C2  UNL     1       4.943   3.582  30.993  1.00  0.00     0.155 C 
ENDROOT
BRANCH   2   3
HETATM    3  N1  UNL     1       4.998   4.286  29.765  1.00  0.00    -0.066 N 
ATOM      4  H13 UNL     1       5.917   4.696  29.593  1.00  0.00     0.275 HD
ATOM      5  H12 UNL     1       4.966   3.664  28.958  1.00  0.00     0.275 HD
ATOM      6  H11 UNL     1       4.253   4.982  29.750  1.00  0.00     0.275 HD
ENDBRANCH   2   3
BRANCH   2   7
HETATM    7  C3  UNL     1       3.651   2.881  31.216  1.00  0.00     0.094 C 
BRANCH   7   8
HETATM    8  N2  UNL     1       2.510   3.173  30.464  1.00  0.00    -0.393 N 
ATOM      9  H2  UNL     1       2.581   3.114  29.448  1.00  0.00     0.159 HD
BRANCH   8  10
HETATM   10  C4  UNL     1       1.281   3.541  31.011  1.00  0.00     0.109 C 
HETATM   11  C5  UNL     1       0.188   3.749  29.977  1.00  0.00     0.028 C 
HETATM   12  C6  UNL     1       0.096   5.173  29.515  1.00  0.00     0.002 C 
HETATM   13  C7  UNL     1       1.360   5.961  29.582  1.00  0.00     0.003 C 
HETATM   14  C8  UNL     1       1.929   5.956  30.981  1.00  0.00     0.034 C 
HETATM   15  C9  UNL     1       1.339   4.840  31.819  1.00  0.00     0.140 C 
BRANCH  15  16
HETATM   16  O1  UNL     1       0.076   5.147  32.245  1.00  0.00    -0.394 OA
ATOM     17  H1  UNL     1      -0.327   4.362  32.596  1.00  0.00     0.210 HD
ENDBRANCH  15  16
ENDBRANCH   8  10
ENDBRANCH   7   8
ENDBRANCH   2   7
BRANCH   2  18
HETATM   18  C10 UNL     1       6.088   2.576  31.038  1.00  0.00     0.026 C 
HETATM   19  C11 UNL     1       6.691   2.370  29.685  1.00  0.00     0.007 C 
HETATM   20  C12 UNL     1       7.798   1.320  29.807  1.00  0.00     0.000 C 
HETATM   21  C13 UNL     1       8.290   1.213  31.243  1.00  0.00     0.000 C 
HETATM   22  C14 UNL     1       7.214   0.796  32.204  1.00  0.00     0.000 C 
HETATM   23  C15 UNL     1       5.834   1.288  31.703  1.00  0.00     0.007 C 
ENDBRANCH   2  18
TORSDOF 6
ENDMDL
MODEL 5
REMARK VINA RESULT: -6.518384677      0.810      1.262
REMARK  6 active torsions:
REMARK  status: ('A' for Active; 'I' for Inactive)
REMARK    1  A    between atoms: C2_2  and  N1_3 
REMARK    2  A    between atoms: C2_2  and  C3_7 
REMARK    3  A    between atoms: C2_2  and  C10_18 
REMARK    4  A    between atoms: C3_7  and  N2_8 
REMARK    5  A    between atoms: N2_8  and  C4_10 
REMARK    6  A    between atoms: C9_15  and  O1_16 
ROOT
HETATM    1  C1  UNL     1       4.111   1.457  29.438  1.00  0.00     0.052 C 
HETATM    2  C2  UNL     1       4.845   2.111  30.606  1.00  0.00     0.155 C 
ENDROOT
BRANCH   2   3
HETATM    3  N1  UNL     1       4.573   1.378  31.787  1.00  0.00    -0.066 N 
ATOM      4  H13 UNL     1       4.089   0.500  31.596  1.00  0.00     0.275 HD
ATOM      5  H12 UNL     1       5.418   0.986  32.205  1.00  0.00     0.275 HD
ATOM      6  H11 UNL     1       4.059   1.974  32.435  1.00  0.00     0.275 HD
ENDBRANCH   2   3
BRANCH   2   7
HETATM    7  C3  UNL     1       4.543   3.562  30.727  1.00  0.00     0.094 C 
BRANCH   7   8
HETATM    8  N2  UNL     1       3.500   4.037  31.527  1.00  0.00    -0.393 N 
ATOM      9  H2  UNL     1       3.732   4.372  32.462  1.00  0.00     0.159 HD
BRANCH   8  10
HETATM   10  C4  UNL     1       2.164   4.084  31.131  1.00  0.00     0.109 C 
HETATM   11  C5  UNL     1       1.936   4.834  29.831  1.00  0.00     0.028 C 
HETATM   12  C6  UNL     1       1.635   6.287  30.049  1.00  0.00     0.002 C 
HETATM   13  C7  UNL     1       2.209   6.891  31.285  1.00  0.00     0.003 C 
HETATM   14  C8  UNL     1       1.770   6.130  32.515  1.00  0.00     0.034 C 
HETATM   15  C9  UNL     1       1.248   4.752  32.160  1.00  0.00     0.140 C 
BRANCH  15  16
HETATM   16  O1  UNL     1      -0.018   4.813  31.647  1.00  0.00    -0.394 OA
ATOM     17  H1  UNL     1      -0.481   5.531  32.062  1.00  0.00     0.210 HD
ENDBRANCH  15  16
ENDBRANCH   8  10
ENDBRANCH   7   8
ENDBRANCH   2   7
BRANCH   2  18
HETATM   18  C10 UNL     1       6.311   1.922  30.232  1.00  0.00     0.026 C 
HETATM   19  C11 UNL     1       7.091   1.322  31.359  1.00  0.00     0.007 C 
HETATM   20  C12 UNL     1       8.554   1.204  30.921  1.00  0.00     0.000 C 
HETATM   21  C13 UNL     1       8.670   1.215  29.404  1.00  0.00     0.000 C 
HETATM   22  C14 UNL     1       8.151   2.480  28.782  1.00  0.00     0.000 C 
HETATM   23  C15 UNL     1       7.020   3.075  29.656  1.00  0.00     0.007 C 
ENDBRANCH   2  18
TORSDOF 6
ENDMDL
