MODEL 1
REMARK VINA RESULT: -6.966313666      0.000      0.000
REMARK  5 active torsions:
REMARK  status: ('A' for Active; 'I' for Inactive)
REMARK    1  A    between atoms: C2_2  and  O1_3 
REMARK    2  A    between atoms: O1_3  and  C3_4 
REMARK    3  A    between atoms: C3_4  and  C4_6 
REMARK    4  A    between atoms: C5_7  and  N1_8 
REMARK       I    between atoms: N1_8  and  C6_10 
REMARK    5  A    between atoms: C6_10  and  C7_12 
ROOT
HETATM    1  C4  UNL     1      -3.256  -5.439  15.472  1.00  0.00     0.109 A 
HETATM    2  C5  UNL     1      -2.483  -6.556  15.236  1.00  0.00     0.077 A 
HETATM    3  C11 UNL     1      -1.843  -6.853  16.431  1.00  0.00     0.174 A 
HETATM    4  O5  UNL     1      -2.208  -5.960  17.346  1.00  0.00    -0.312 OA
HETATM    5  C12 UNL     1      -3.039  -5.118  16.804  1.00  0.00     0.139 A 
HETATM    6 BR1  UNL     1      -3.901  -3.615  17.637  1.00  0.00    -0.022 Br
ENDROOT
BRANCH   2   7
HETATM    7  N1  UNL     1      -2.391  -7.236  14.001  1.00  0.00    -0.322 N 
HETATM    8  C6  UNL     1      -1.549  -6.762  12.966  1.00  0.00     0.251 C 
HETATM    9  O3  UNL     1      -0.825  -5.741  13.019  1.00  0.00    -0.270 OA
ATOM     10  H1  UNL     1      -2.940  -8.082  13.852  1.00  0.00     0.169 HD
BRANCH   8  11
HETATM   11  C7  UNL     1      -1.474  -7.510  11.662  1.00  0.00     0.213 C 
HETATM   12  C8  UNL     1      -0.429  -8.587  11.861  1.00  0.00     0.044 C 
HETATM   13  C9  UNL     1       0.825  -7.938  11.316  1.00  0.00     0.029 C 
HETATM   14  C10 UNL     1       0.350  -6.670  10.693  1.00  0.00     0.168 C 
HETATM   15  O4  UNL     1      -1.031  -6.674  10.686  1.00  0.00    -0.376 OA
ENDBRANCH   8  11
ENDBRANCH   2   7
BRANCH   1  16
HETATM   16  C3  UNL     1      -4.116  -4.739  14.535  1.00  0.00     0.299 C 
HETATM   17  O2  UNL     1      -5.365  -4.782  14.511  1.00  0.00    -0.259 OA
BRANCH  16  18
HETATM   18  O1  UNL     1      -3.558  -3.918  13.532  1.00  0.00    -0.318 OA
BRANCH  18  19
HETATM   19  C2  UNL     1      -4.010  -2.594  13.315  1.00  0.00     0.174 C 
HETATM   20  C1  UNL     1      -5.020  -2.611  12.170  1.00  0.00     0.034 C 
ENDBRANCH  18  19
ENDBRANCH  16  18
ENDBRANCH   1  16
TORSDOF 5
ENDMDL
MODEL 2
REMARK VINA RESULT: -6.837299448      8.938     10.381
REMARK  5 active torsions:
REMARK  status: ('A' for Active; 'I' for Inactive)
REMARK    1  A    between atoms: C2_2  and  O1_3 
REMARK    2  A    between atoms: O1_3  and  C3_4 
REMARK    3  A    between atoms: C3_4  and  C4_6 
REMARK    4  A    between atoms: C5_7  and  N1_8 
REMARK       I    between atoms: N1_8  and  C6_10 
REMARK    5  A    between atoms: C6_10  and  C7_12 
ROOT
HETATM    1  C4  UNL     1      -1.927  -2.921  24.593  1.00  0.00     0.109 A 
HETATM    2  C5  UNL     1      -0.683  -3.513  24.538  1.00  0.00     0.077 A 
HETATM    3  C11 UNL     1       0.247  -2.484  24.584  1.00  0.00     0.174 A 
HETATM    4  O5  UNL     1      -0.401  -1.325  24.663  1.00  0.00    -0.312 OA
HETATM    5  C12 UNL     1      -1.681  -1.558  24.670  1.00  0.00     0.139 A 
HETATM    6 BR1  UNL     1      -3.109  -0.275  24.769  1.00  0.00    -0.022 Br
ENDROOT
BRANCH   2   7
HETATM    7  N1  UNL     1      -0.447  -4.903  24.452  1.00  0.00    -0.322 N 
HETATM    8  C6  UNL     1      -0.360  -5.555  23.198  1.00  0.00     0.251 C 
HETATM    9  O3  UNL     1      -0.475  -5.007  22.077  1.00  0.00    -0.270 OA
ATOM     10  H1  UNL     1      -0.337  -5.447  25.308  1.00  0.00     0.169 HD
BRANCH   8  11
HETATM   11  C7  UNL     1      -0.107  -7.038  23.142  1.00  0.00     0.213 C 
HETATM   12  C8  UNL     1      -0.829  -7.536  21.909  1.00  0.00     0.044 C 
HETATM   13  C9  UNL     1      -2.158  -7.998  22.466  1.00  0.00     0.029 C 
HETATM   14  C10 UNL     1      -1.995  -7.911  23.946  1.00  0.00     0.168 C 
HETATM   15  O4  UNL     1      -0.671  -7.634  24.226  1.00  0.00    -0.376 OA
ENDBRANCH   8  11
ENDBRANCH   2   7
BRANCH   1  16
HETATM   16  C3  UNL     1      -3.224  -3.574  24.577  1.00  0.00     0.299 C 
HETATM   17  O2  UNL     1      -4.045  -3.601  25.519  1.00  0.00    -0.259 OA
BRANCH  16  18
HETATM   18  O1  UNL     1      -3.661  -4.260  23.424  1.00  0.00    -0.318 OA
BRANCH  18  19
HETATM   19  C2  UNL     1      -3.709  -3.633  22.155  1.00  0.00     0.174 C 
HETATM   20  C1  UNL     1      -4.819  -2.584  22.178  1.00  0.00     0.034 C 
ENDBRANCH  18  19
ENDBRANCH  16  18
ENDBRANCH   1  16
TORSDOF 5
ENDMDL
MODEL 3
REMARK VINA RESULT: -6.799822535      8.458     10.371
REMARK  5 active torsions:
REMARK  status: ('A' for Active; 'I' for Inactive)
REMARK    1  A    between atoms: C2_2  and  O1_3 
REMARK    2  A    between atoms: O1_3  and  C3_4 
REMARK    3  A    between atoms: C3_4  and  C4_6 
REMARK    4  A    between atoms: C5_7  and  N1_8 
REMARK       I    between atoms: N1_8  and  C6_10 
REMARK    5  A    between atoms: C6_10  and  C7_12 
ROOT
HETATM    1  C4  UNL     1      -2.827  -0.971  23.416  1.00  0.00     0.109 A 
HETATM    2  C5  UNL     1      -2.570  -1.566  22.198  1.00  0.00     0.077 A 
HETATM    3  C11 UNL     1      -3.359  -0.911  21.264  1.00  0.00     0.174 A 
HETATM    4  O5  UNL     1      -4.060   0.034  21.884  1.00  0.00    -0.312 OA
HETATM    5  C12 UNL     1      -3.763   0.017  23.150  1.00  0.00     0.139 A 
HETATM    6 BR1  UNL     1      -4.460   1.150  24.537  1.00  0.00    -0.022 Br
ENDROOT
BRANCH   2   7
HETATM    7  N1  UNL     1      -1.668  -2.633  21.989  1.00  0.00    -0.322 N 
HETATM    8  C6  UNL     1      -2.131  -3.922  21.628  1.00  0.00     0.251 C 
HETATM    9  O3  UNL     1      -3.329  -4.251  21.461  1.00  0.00    -0.270 OA
ATOM     10  H1  UNL     1      -0.667  -2.473  22.099  1.00  0.00     0.169 HD
BRANCH   8  11
HETATM   11  C7  UNL     1      -1.144  -5.037  21.412  1.00  0.00     0.213 C 
HETATM   12  C8  UNL     1      -1.890  -6.318  21.719  1.00  0.00     0.044 C 
HETATM   13  C9  UNL     1      -1.536  -6.571  23.169  1.00  0.00     0.029 C 
HETATM   14  C10 UNL     1      -0.492  -5.553  23.482  1.00  0.00     0.168 C 
HETATM   15  O4  UNL     1      -0.128  -4.922  22.308  1.00  0.00    -0.376 OA
ENDBRANCH   8  11
ENDBRANCH   2   7
BRANCH   1  16
HETATM   16  C3  UNL     1      -2.247  -1.300  24.706  1.00  0.00     0.299 C 
HETATM   17  O2  UNL     1      -1.193  -0.825  25.180  1.00  0.00    -0.259 OA
BRANCH  16  18
HETATM   18  O1  UNL     1      -2.879  -2.234  25.554  1.00  0.00    -0.318 OA
BRANCH  18  19
HETATM   19  C2  UNL     1      -4.134  -2.805  25.232  1.00  0.00     0.174 C 
HETATM   20  C1  UNL     1      -3.919  -4.279  24.892  1.00  0.00     0.034 C 
ENDBRANCH  18  19
ENDBRANCH  16  18
ENDBRANCH   1  16
TORSDOF 5
ENDMDL
MODEL 4
REMARK VINA RESULT: -6.698577197      8.531     10.262
REMARK  5 active torsions:
REMARK  status: ('A' for Active; 'I' for Inactive)
REMARK    1  A    between atoms: C2_2  and  O1_3 
REMARK    2  A    between atoms: O1_3  and  C3_4 
REMARK    3  A    between atoms: C3_4  and  C4_6 
REMARK    4  A    between atoms: C5_7  and  N1_8 
REMARK       I    between atoms: N1_8  and  C6_10 
REMARK    5  A    between atoms: C6_10  and  C7_12 
ROOT
HETATM    1  C4  UNL     1      -2.719  -1.756  23.259  1.00  0.00     0.109 A 
HETATM    2  C5  UNL     1      -2.318  -2.270  22.044  1.00  0.00     0.077 A 
HETATM    3  C11 UNL     1      -2.762  -1.382  21.074  1.00  0.00     0.174 A 
HETATM    4  O5  UNL     1      -3.399  -0.380  21.671  1.00  0.00    -0.312 OA
HETATM    5  C12 UNL     1      -3.386  -0.579  22.956  1.00  0.00     0.139 A 
HETATM    6 BR1  UNL     1      -4.150   0.533  24.326  1.00  0.00    -0.022 Br
ENDROOT
BRANCH   2   7
HETATM    7  N1  UNL     1      -1.597  -3.472  21.867  1.00  0.00    -0.322 N 
HETATM    8  C6  UNL     1      -2.256  -4.725  21.846  1.00  0.00     0.251 C 
HETATM    9  O3  UNL     1      -3.490  -4.907  21.974  1.00  0.00    -0.270 OA
ATOM     10  H1  UNL     1      -0.584  -3.437  21.753  1.00  0.00     0.169 HD
BRANCH   8  11
HETATM   11  C7  UNL     1      -1.458  -5.987  21.655  1.00  0.00     0.213 C 
HETATM   12  C8  UNL     1      -2.254  -7.086  22.323  1.00  0.00     0.044 C 
HETATM   13  C9  UNL     1      -1.634  -7.155  23.702  1.00  0.00     0.029 C 
HETATM   14  C10 UNL     1      -0.446  -6.256  23.624  1.00  0.00     0.168 C 
HETATM   15  O4  UNL     1      -0.272  -5.874  22.308  1.00  0.00    -0.376 OA
ENDBRANCH   8  11
ENDBRANCH   2   7
BRANCH   1  16
HETATM   16  C3  UNL     1      -2.495  -2.317  24.579  1.00  0.00     0.299 C 
HETATM   17  O2  UNL     1      -3.341  -2.402  25.495  1.00  0.00    -0.259 OA
BRANCH  16  18
HETATM   18  O1  UNL     1      -1.228  -2.832  24.929  1.00  0.00    -0.318 OA
BRANCH  18  19
HETATM   19  C2  UNL     1      -0.058  -2.036  24.876  1.00  0.00     0.174 C 
HETATM   20  C1  UNL     1       1.048  -2.852  24.211  1.00  0.00     0.034 C 
ENDBRANCH  18  19
ENDBRANCH  16  18
ENDBRANCH   1  16
TORSDOF 5
ENDMDL
MODEL 5
REMARK VINA RESULT: -6.690146351      1.865      3.874
REMARK  5 active torsions:
REMARK  status: ('A' for Active; 'I' for Inactive)
REMARK    1  A    between atoms: C2_2  and  O1_3 
REMARK    2  A    between atoms: O1_3  and  C3_4 
REMARK    3  A    between atoms: C3_4  and  C4_6 
REMARK    4  A    between atoms: C5_7  and  N1_8 
REMARK       I    between atoms: N1_8  and  C6_10 
REMARK    5  A    between atoms: C6_10  and  C7_12 
ROOT
HETATM    1  C4  UNL     1      -2.512  -6.721  16.145  1.00  0.00     0.109 A 
HETATM    2  C5  UNL     1      -2.647  -6.523  14.787  1.00  0.00     0.077 A 
HETATM    3  C11 UNL     1      -3.149  -5.240  14.623  1.00  0.00     0.174 A 
HETATM    4  O5  UNL     1      -3.310  -4.687  15.821  1.00  0.00    -0.312 OA
HETATM    5  C12 UNL     1      -2.942  -5.540  16.731  1.00  0.00     0.139 A 
HETATM    6 BR1  UNL     1      -2.950  -5.302  18.639  1.00  0.00    -0.022 Br
ENDROOT
BRANCH   2   7
HETATM    7  N1  UNL     1      -2.325  -7.471  13.790  1.00  0.00    -0.322 N 
HETATM    8  C6  UNL     1      -1.642  -7.090  12.610  1.00  0.00     0.251 C 
HETATM    9  O3  UNL     1      -1.263  -5.930  12.324  1.00  0.00    -0.270 OA
ATOM     10  H1  UNL     1      -2.589  -8.448  13.923  1.00  0.00     0.169 HD
BRANCH   8  11
HETATM   11  C7  UNL     1      -1.314  -8.126  11.568  1.00  0.00     0.213 C 
HETATM   12  C8  UNL     1      -0.123  -8.890  12.104  1.00  0.00     0.044 C 
HETATM   13  C9  UNL     1       1.047  -8.178  11.458  1.00  0.00     0.029 C 
HETATM   14  C10 UNL     1       0.421  -7.235  10.488  1.00  0.00     0.168 C 
HETATM   15  O4  UNL     1      -0.931  -7.506  10.420  1.00  0.00    -0.376 OA
ENDBRANCH   8  11
ENDBRANCH   2   7
BRANCH   1  16
HETATM   16  C3  UNL     1      -2.024  -7.907  16.826  1.00  0.00     0.299 C 
HETATM   17  O2  UNL     1      -1.304  -7.923  17.847  1.00  0.00    -0.259 OA
BRANCH  16  18
HETATM   18  O1  UNL     1      -2.354  -9.191  16.345  1.00  0.00    -0.318 OA
BRANCH  18  19
HETATM   19  C2  UNL     1      -3.558  -9.840  16.713  1.00  0.00     0.174 C 
HETATM   20  C1  UNL     1      -3.219 -11.252  17.185  1.00  0.00     0.034 C 
ENDBRANCH  18  19
ENDBRANCH  16  18
ENDBRANCH   1  16
TORSDOF 5
ENDMDL
