MODEL 1
REMARK VINA RESULT: -4.353227339      0.000      0.000
REMARK  4 active torsions:
REMARK  status: ('A' for Active; 'I' for Inactive)
REMARK    1  A    between atoms: N1_1  and  C1_5 
REMARK    2  A    between atoms: C1_5  and  C2_6 
REMARK    3  A    between atoms: C2_6  and  N2_7 
REMARK    4  A    between atoms: N2_7  and  C3_9 
ROOT
HETATM    1  N2  UNL     1      92.499 -24.506  48.931  1.00  0.00    -0.361 N 
ATOM      2  H2  UNL     1      92.181 -23.996  48.107  1.00  0.00     0.162 HD
ENDROOT
BRANCH   1   3
HETATM    3  C2  UNL     1      91.862 -25.754  49.301  1.00  0.00     0.150 C 
BRANCH   3   4
HETATM    4  C1  UNL     1      92.556 -26.928  48.692  1.00  0.00     0.249 C 
BRANCH   4   5
HETATM    5  N1  UNL     1      91.883 -27.333  47.477  1.00  0.00    -0.078 N 
ATOM      6  H13 UNL     1      91.308 -28.163  47.619  1.00  0.00     0.274 HD
ATOM      7  H12 UNL     1      91.144 -26.681  47.216  1.00  0.00     0.274 HD
ATOM      8  H11 UNL     1      92.560 -27.464  46.724  1.00  0.00     0.274 HD
ENDBRANCH   4   5
ENDBRANCH   3   4
ENDBRANCH   1   3
BRANCH   1   9
HETATM    9  C3  UNL     1      93.578 -23.989  49.723  1.00  0.00     0.171 C 
HETATM   10  N3  UNL     1      93.842 -24.336  50.928  1.00  0.00    -0.361 N 
HETATM   11  C4  UNL     1      94.988 -23.630  51.434  1.00  0.00     0.142 C 
ATOM     12  H3  UNL     1      93.308 -25.024  51.460  1.00  0.00     0.162 HD
HETATM   13  C5  UNL     1      95.063 -22.417  50.536  1.00  0.00     0.142 C 
HETATM   14  N4  UNL     1      94.521 -23.004  49.298  1.00  0.00    -0.361 N 
ATOM     15  H4  UNL     1      94.768 -22.758  48.340  1.00  0.00     0.162 HD
ENDBRANCH   1   9
TORSDOF 4
ENDMDL
MODEL 2
REMARK VINA RESULT: -4.285871311      0.657      1.482
REMARK  4 active torsions:
REMARK  status: ('A' for Active; 'I' for Inactive)
REMARK    1  A    between atoms: N1_1  and  C1_5 
REMARK    2  A    between atoms: C1_5  and  C2_6 
REMARK    3  A    between atoms: C2_6  and  N2_7 
REMARK    4  A    between atoms: N2_7  and  C3_9 
ROOT
HETATM    1  N2  UNL     1      93.100 -24.632  48.503  1.00  0.00    -0.361 N 
ATOM      2  H2  UNL     1      92.261 -24.228  48.084  1.00  0.00     0.162 HD
ENDROOT
BRANCH   1   3
HETATM    3  C2  UNL     1      93.586 -25.919  48.050  1.00  0.00     0.150 C 
BRANCH   3   4
HETATM    4  C1  UNL     1      92.631 -27.017  48.386  1.00  0.00     0.249 C 
BRANCH   4   5
HETATM    5  N1  UNL     1      91.884 -27.408  47.211  1.00  0.00    -0.078 N 
ATOM      6  H13 UNL     1      90.903 -27.134  47.274  1.00  0.00     0.274 HD
ATOM      7  H12 UNL     1      92.142 -26.855  46.394  1.00  0.00     0.274 HD
ATOM      8  H11 UNL     1      91.989 -28.409  47.041  1.00  0.00     0.274 HD
ENDBRANCH   4   5
ENDBRANCH   3   4
ENDBRANCH   1   3
BRANCH   1   9
HETATM    9  C3  UNL     1      93.796 -23.924  49.538  1.00  0.00     0.171 C 
HETATM   10  N3  UNL     1      94.511 -22.875  49.362  1.00  0.00    -0.361 N 
HETATM   11  C4  UNL     1      95.071 -22.413  50.604  1.00  0.00     0.142 C 
ATOM     12  H3  UNL     1      94.664 -22.425  48.459  1.00  0.00     0.162 HD
HETATM   13  C5  UNL     1      95.015 -23.643  51.480  1.00  0.00     0.142 C 
HETATM   14  N4  UNL     1      93.809 -24.278  50.922  1.00  0.00    -0.361 N 
ATOM     15  H4  UNL     1      93.127 -24.851  51.419  1.00  0.00     0.162 HD
ENDBRANCH   1   9
TORSDOF 4
ENDMDL
MODEL 3
REMARK VINA RESULT: -4.242907357      1.810      4.557
REMARK  4 active torsions:
REMARK  status: ('A' for Active; 'I' for Inactive)
REMARK    1  A    between atoms: N1_1  and  C1_5 
REMARK    2  A    between atoms: C1_5  and  C2_6 
REMARK    3  A    between atoms: C2_6  and  N2_7 
REMARK    4  A    between atoms: N2_7  and  C3_9 
ROOT
HETATM    1  N2  UNL     1      95.129 -24.932  48.265  1.00  0.00    -0.361 N 
ATOM      2  H2  UNL     1      95.769 -24.802  47.482  1.00  0.00     0.162 HD
ENDROOT
BRANCH   1   3
HETATM    3  C2  UNL     1      95.383 -24.266  49.526  1.00  0.00     0.150 C 
BRANCH   3   4
HETATM    4  C1  UNL     1      94.490 -23.084  49.715  1.00  0.00     0.249 C 
BRANCH   4   5
HETATM    5  N1  UNL     1      94.819 -22.398  50.946  1.00  0.00    -0.078 N 
ATOM      6  H13 UNL     1      95.808 -22.491  51.181  1.00  0.00     0.274 HD
ATOM      7  H12 UNL     1      94.785 -21.385  50.837  1.00  0.00     0.274 HD
ATOM      8  H11 UNL     1      94.217 -22.722  51.703  1.00  0.00     0.274 HD
ENDBRANCH   4   5
ENDBRANCH   3   4
ENDBRANCH   1   3
BRANCH   1   9
HETATM    9  C3  UNL     1      93.976 -25.773  48.117  1.00  0.00     0.171 C 
HETATM   10  N3  UNL     1      93.558 -26.614  48.990  1.00  0.00    -0.361 N 
HETATM   11  C4  UNL     1      92.378 -27.296  48.532  1.00  0.00     0.142 C 
ATOM     12  H3  UNL     1      94.005 -26.778  49.893  1.00  0.00     0.162 HD
HETATM   13  C5  UNL     1      92.445 -27.120  47.033  1.00  0.00     0.142 C 
HETATM   14  N4  UNL     1      93.117 -25.811  46.976  1.00  0.00    -0.361 N 
ATOM     15  H4  UNL     1      92.995 -25.085  46.271  1.00  0.00     0.162 HD
ENDBRANCH   1   9
TORSDOF 4
ENDMDL
MODEL 4
REMARK VINA RESULT: -4.241908917      4.638      7.111
REMARK  4 active torsions:
REMARK  status: ('A' for Active; 'I' for Inactive)
REMARK    1  A    between atoms: N1_1  and  C1_5 
REMARK    2  A    between atoms: C1_5  and  C2_6 
REMARK    3  A    between atoms: C2_6  and  N2_7 
REMARK    4  A    between atoms: N2_7  and  C3_9 
ROOT
HETATM    1  N2  UNL     1      96.178 -21.412  54.212  1.00  0.00    -0.361 N 
ATOM      2  H2  UNL     1      97.142 -21.267  54.513  1.00  0.00     0.162 HD
ENDROOT
BRANCH   1   3
HETATM    3  C2  UNL     1      95.367 -20.280  53.812  1.00  0.00     0.150 C 
BRANCH   3   4
HETATM    4  C1  UNL     1      95.305 -19.242  54.884  1.00  0.00     0.249 C 
BRANCH   4   5
HETATM    5  N1  UNL     1      95.584 -17.934  54.331  1.00  0.00    -0.078 N 
ATOM      6  H13 UNL     1      96.054 -17.995  53.427  1.00  0.00     0.274 HD
ATOM      7  H12 UNL     1      94.734 -17.460  54.027  1.00  0.00     0.274 HD
ATOM      8  H11 UNL     1      96.115 -17.374  54.999  1.00  0.00     0.274 HD
ENDBRANCH   4   5
ENDBRANCH   3   4
ENDBRANCH   1   3
BRANCH   1   9
HETATM    9  C3  UNL     1      95.627 -22.736  54.184  1.00  0.00     0.171 C 
HETATM   10  N3  UNL     1      95.938 -23.683  54.990  1.00  0.00    -0.361 N 
HETATM   11  C4  UNL     1      95.204 -24.883  54.691  1.00  0.00     0.142 C 
ATOM     12  H3  UNL     1      96.617 -23.596  55.747  1.00  0.00     0.162 HD
HETATM   13  C5  UNL     1      94.788 -24.677  53.253  1.00  0.00     0.142 C 
HETATM   14  N4  UNL     1      94.653 -23.210  53.252  1.00  0.00    -0.361 N 
ATOM     15  H4  UNL     1      94.002 -22.651  52.702  1.00  0.00     0.162 HD
ENDBRANCH   1   9
TORSDOF 4
ENDMDL
MODEL 5
REMARK VINA RESULT: -4.232119807      4.403      6.923
REMARK  4 active torsions:
REMARK  status: ('A' for Active; 'I' for Inactive)
REMARK    1  A    between atoms: N1_1  and  C1_5 
REMARK    2  A    between atoms: C1_5  and  C2_6 
REMARK    3  A    between atoms: C2_6  and  N2_7 
REMARK    4  A    between atoms: N2_7  and  C3_9 
ROOT
HETATM    1  N2  UNL     1      95.131 -21.147  53.391  1.00  0.00    -0.361 N 
ATOM      2  H2  UNL     1      94.600 -20.754  52.614  1.00  0.00     0.162 HD
ENDROOT
BRANCH   1   3
HETATM    3  C2  UNL     1      95.819 -20.269  54.315  1.00  0.00     0.150 C 
BRANCH   3   4
HETATM    4  C1  UNL     1      95.132 -18.948  54.434  1.00  0.00     0.249 C 
BRANCH   4   5
HETATM    5  N1  UNL     1      95.688 -18.007  53.487  1.00  0.00    -0.078 N 
ATOM      6  H13 UNL     1      96.482 -17.498  53.877  1.00  0.00     0.274 HD
ATOM      7  H12 UNL     1      96.171 -18.477  52.722  1.00  0.00     0.274 HD
ATOM      8  H11 UNL     1      94.961 -17.376  53.148  1.00  0.00     0.274 HD
ENDBRANCH   4   5
ENDBRANCH   3   4
ENDBRANCH   1   3
BRANCH   1   9
HETATM    9  C3  UNL     1      95.197 -22.569  53.567  1.00  0.00     0.171 C 
HETATM   10  N3  UNL     1      94.679 -23.436  52.778  1.00  0.00    -0.361 N 
HETATM   11  C4  UNL     1      94.926 -24.775  53.241  1.00  0.00     0.142 C 
ATOM     12  H3  UNL     1      94.158 -23.207  51.931  1.00  0.00     0.162 HD
HETATM   13  C5  UNL     1      95.223 -24.577  54.710  1.00  0.00     0.142 C 
HETATM   14  N4  UNL     1      95.843 -23.242  54.649  1.00  0.00    -0.361 N 
ATOM     15  H4  UNL     1      96.578 -22.876  55.254  1.00  0.00     0.162 HD
ENDBRANCH   1   9
TORSDOF 4
ENDMDL
