MODEL 1
REMARK VINA RESULT: -4.671762820      0.000      0.000
REMARK  3 active torsions:
REMARK  status: ('A' for Active; 'I' for Inactive)
REMARK    1  A    between atoms: O1_2  and  C2_3 
REMARK    2  A    between atoms: C4_5  and  N1_6 
REMARK    3  A    between atoms: N1_6  and  C5_8 
ROOT
HETATM    1  C2  UNL     1      95.421 -23.067  54.248  1.00  0.00     0.326 C 
HETATM    2  C3  UNL     1      96.839 -22.523  54.308  1.00  0.00     0.115 C 
HETATM    3  C4  UNL     1      96.238 -21.196  53.955  1.00  0.00     0.291 C 
HETATM    4  N3  UNL     1      95.058 -21.871  53.473  1.00  0.00    -0.028 N 
ATOM      5  H31 UNL     1      94.141 -21.443  53.597  1.00  0.00     0.282 HD
ATOM      6  H32 UNL     1      94.889 -21.947  52.470  1.00  0.00     0.282 HD
ENDROOT
BRANCH   3   7
HETATM    7  N1  UNL     1      96.903 -20.434  52.940  1.00  0.00    -0.359 N 
ATOM      8  H1  UNL     1      97.214 -20.928  52.104  1.00  0.00     0.162 HD
BRANCH   7   9
HETATM    9  C5  UNL     1      97.159 -19.038  53.016  1.00  0.00     0.170 C 
HETATM   10  N2  UNL     1      96.226 -18.265  53.423  1.00  0.00    -0.395 N 
ATOM     11  H22 UNL     1      95.322 -18.657  53.685  1.00  0.00     0.156 HD
ATOM     12  H21 UNL     1      96.411 -17.262  53.477  1.00  0.00     0.156 HD
ENDBRANCH   7   9
ENDBRANCH   3   7
BRANCH   1  13
HETATM   13  O1  UNL     1      94.747 -23.021  55.466  1.00  0.00    -0.364 OA
HETATM   14  C1  UNL     1      93.818 -24.069  55.458  1.00  0.00     0.204 C 
ENDBRANCH   1  13
TORSDOF 3
ENDMDL
MODEL 2
REMARK VINA RESULT: -4.511422886      1.765      1.794
REMARK  3 active torsions:
REMARK  status: ('A' for Active; 'I' for Inactive)
REMARK    1  A    between atoms: O1_2  and  C2_3 
REMARK    2  A    between atoms: C4_5  and  N1_6 
REMARK    3  A    between atoms: N1_6  and  C5_8 
ROOT
HETATM    1  C2  UNL     1      95.701 -23.226  52.740  1.00  0.00     0.326 C 
HETATM    2  C3  UNL     1      96.539 -22.771  53.924  1.00  0.00     0.115 C 
HETATM    3  C4  UNL     1      95.630 -21.581  53.982  1.00  0.00     0.291 C 
HETATM    4  N3  UNL     1      95.221 -21.840  52.623  1.00  0.00    -0.028 N 
ATOM      5  H31 UNL     1      94.259 -21.657  52.338  1.00  0.00     0.282 HD
ATOM      6  H32 UNL     1      95.559 -21.246  51.867  1.00  0.00     0.282 HD
ENDROOT
BRANCH   3   7
HETATM    7  N1  UNL     1      96.251 -20.300  54.146  1.00  0.00    -0.359 N 
ATOM      8  H1  UNL     1      97.084 -20.103  53.591  1.00  0.00     0.162 HD
BRANCH   7   9
HETATM    9  C5  UNL     1      95.789 -19.285  55.027  1.00  0.00     0.170 C 
HETATM   10  N2  UNL     1      95.837 -18.068  54.640  1.00  0.00    -0.395 N 
ATOM     11  H22 UNL     1      96.202 -17.846  53.714  1.00  0.00     0.156 HD
ATOM     12  H21 UNL     1      95.506 -17.340  55.273  1.00  0.00     0.156 HD
ENDBRANCH   7   9
ENDBRANCH   3   7
BRANCH   1  13
HETATM   13  O1  UNL     1      94.624 -24.036  53.089  1.00  0.00    -0.364 OA
HETATM   14  C1  UNL     1      95.096 -25.354  53.116  1.00  0.00     0.204 C 
ENDBRANCH   1  13
TORSDOF 3
ENDMDL
MODEL 3
REMARK VINA RESULT: -4.409412179      2.348      2.397
REMARK  3 active torsions:
REMARK  status: ('A' for Active; 'I' for Inactive)
REMARK    1  A    between atoms: O1_2  and  C2_3 
REMARK    2  A    between atoms: C4_5  and  N1_6 
REMARK    3  A    between atoms: N1_6  and  C5_8 
ROOT
HETATM    1  C2  UNL     1      95.236 -23.476  51.339  1.00  0.00     0.326 C 
HETATM    2  C3  UNL     1      96.650 -23.263  51.855  1.00  0.00     0.115 C 
HETATM    3  C4  UNL     1      96.201 -21.881  52.223  1.00  0.00     0.291 C 
HETATM    4  N3  UNL     1      95.088 -22.013  51.314  1.00  0.00    -0.028 N 
ATOM      5  H31 UNL     1      94.190 -21.588  51.544  1.00  0.00     0.282 HD
ATOM      6  H32 UNL     1      95.097 -21.516  50.424  1.00  0.00     0.282 HD
ENDROOT
BRANCH   3   7
HETATM    7  N1  UNL     1      97.079 -20.803  51.883  1.00  0.00    -0.359 N 
ATOM      8  H1  UNL     1      97.362 -20.711  50.907  1.00  0.00     0.162 HD
BRANCH   7   9
HETATM    9  C5  UNL     1      97.585 -19.850  52.809  1.00  0.00     0.170 C 
HETATM   10  N2  UNL     1      97.292 -18.617  52.642  1.00  0.00    -0.395 N 
ATOM     11  H22 UNL     1      96.706 -18.339  51.855  1.00  0.00     0.156 HD
ATOM     12  H21 UNL     1      97.656 -17.934  53.307  1.00  0.00     0.156 HD
ENDBRANCH   7   9
ENDBRANCH   3   7
BRANCH   1  13
HETATM   13  O1  UNL     1      94.360 -23.990  52.291  1.00  0.00    -0.364 OA
HETATM   14  C1  UNL     1      94.353 -25.381  52.130  1.00  0.00     0.204 C 
ENDBRANCH   1  13
TORSDOF 3
ENDMDL
MODEL 4
REMARK VINA RESULT: -4.379271277      6.543      7.788
REMARK  3 active torsions:
REMARK  status: ('A' for Active; 'I' for Inactive)
REMARK    1  A    between atoms: O1_2  and  C2_3 
REMARK    2  A    between atoms: C4_5  and  N1_6 
REMARK    3  A    between atoms: N1_6  and  C5_8 
ROOT
HETATM    1  C2  UNL     1      93.899 -23.751  49.656  1.00  0.00     0.326 C 
HETATM    2  C3  UNL     1      92.726 -24.619  49.231  1.00  0.00     0.115 C 
HETATM    3  C4  UNL     1      93.741 -25.479  48.541  1.00  0.00     0.291 C 
HETATM    4  N3  UNL     1      94.681 -24.385  48.584  1.00  0.00    -0.028 N 
ATOM      5  H31 UNL     1      95.674 -24.573  48.721  1.00  0.00     0.282 HD
ATOM      6  H32 UNL     1      94.895 -23.864  47.734  1.00  0.00     0.282 HD
ENDROOT
BRANCH   3   7
HETATM    7  N1  UNL     1      93.433 -25.902  47.208  1.00  0.00    -0.359 N 
ATOM      8  H1  UNL     1      93.401 -25.188  46.480  1.00  0.00     0.162 HD
BRANCH   7   9
HETATM    9  C5  UNL     1      93.168 -27.246  46.828  1.00  0.00     0.170 C 
HETATM   10  N2  UNL     1      91.955 -27.647  46.798  1.00  0.00    -0.395 N 
ATOM     11  H22 UNL     1      91.203 -27.003  47.045  1.00  0.00     0.156 HD
ATOM     12  H21 UNL     1      91.766 -28.612  46.525  1.00  0.00     0.156 HD
ENDBRANCH   7   9
ENDBRANCH   3   7
BRANCH   1  13
HETATM   13  O1  UNL     1      94.455 -24.114  50.880  1.00  0.00    -0.364 OA
HETATM   14  C1  UNL     1      95.447 -23.171  51.175  1.00  0.00     0.204 C 
ENDBRANCH   1  13
TORSDOF 3
ENDMDL
MODEL 5
REMARK VINA RESULT: -4.355263581      3.158      4.327
REMARK  3 active torsions:
REMARK  status: ('A' for Active; 'I' for Inactive)
REMARK    1  A    between atoms: O1_2  and  C2_3 
REMARK    2  A    between atoms: C4_5  and  N1_6 
REMARK    3  A    between atoms: N1_6  and  C5_8 
ROOT
HETATM    1  C2  UNL     1      95.686 -21.514  53.187  1.00  0.00     0.326 C 
HETATM    2  C3  UNL     1      96.546 -21.599  51.937  1.00  0.00     0.115 C 
HETATM    3  C4  UNL     1      95.457 -22.457  51.367  1.00  0.00     0.291 C 
HETATM    4  N3  UNL     1      94.967 -22.702  52.702  1.00  0.00    -0.028 N 
ATOM      5  H31 UNL     1      93.965 -22.793  52.867  1.00  0.00     0.282 HD
ATOM      6  H32 UNL     1      95.123 -23.607  53.144  1.00  0.00     0.282 HD
ENDROOT
BRANCH   3   7
HETATM    7  N1  UNL     1      95.863 -23.653  50.691  1.00  0.00    -0.359 N 
ATOM      8  H1  UNL     1      96.594 -24.217  51.124  1.00  0.00     0.162 HD
BRANCH   7   9
HETATM    9  C5  UNL     1      95.319 -24.108  49.459  1.00  0.00     0.170 C 
HETATM   10  N2  UNL     1      94.172 -23.676  49.098  1.00  0.00    -0.395 N 
ATOM     11  H22 UNL     1      93.670 -23.017  49.693  1.00  0.00     0.156 HD
ATOM     12  H21 UNL     1      93.783 -24.003  48.213  1.00  0.00     0.156 HD
ENDBRANCH   7   9
ENDBRANCH   3   7
BRANCH   1  13
HETATM   13  O1  UNL     1      94.802 -20.438  53.192  1.00  0.00    -0.364 OA
HETATM   14  C1  UNL     1      95.367 -19.450  54.008  1.00  0.00     0.204 C 
ENDBRANCH   1  13
TORSDOF 3
ENDMDL
