MODEL 1
REMARK VINA RESULT: -7.729346987      0.000      0.000
REMARK  7 active torsions:
REMARK  status: ('A' for Active; 'I' for Inactive)
REMARK    1  A    between atoms: C2_2  and  C3_3 
REMARK    2  A    between atoms: C3_3  and  C4_4 
REMARK    3  A    between atoms: C4_4  and  C5_5 
REMARK       I    between atoms: C5_5  and  N1_7 
REMARK       I    between atoms: N1_7  and  C6_9 
REMARK       I    between atoms: C6_9  and  N3_13 
REMARK    4  A    between atoms: N3_13  and  C7_15 
REMARK    5  A    between atoms: C7_15  and  N4_16 
REMARK    6  A    between atoms: C7_15  and  C8_20 
REMARK    7  A    between atoms: C21_36  and  N6_37 
ROOT
HETATM    1  C8  UNL     1       3.969  37.411  24.693  1.00  0.00     0.044 C 
HETATM    2  C9  UNL     1       2.750  38.209  24.400  1.00  0.00     0.020 C 
HETATM    3  C10 UNL     1       2.269  39.095  25.493  1.00  0.00     0.011 C 
HETATM    4  C11 UNL     1       2.502  38.605  26.888  1.00  0.00    -0.032 C 
HETATM    5  C12 UNL     1       3.471  39.600  27.551  1.00  0.00     0.016 C 
HETATM    6  C13 UNL     1       3.160  37.254  26.963  1.00  0.00    -0.000 C 
HETATM    7  C14 UNL     1       4.419  37.407  26.121  1.00  0.00     0.025 C 
HETATM    8  C15 UNL     1       2.313  36.089  26.650  1.00  0.00    -0.004 C 
HETATM    9  C16 UNL     1       2.441  35.491  25.260  1.00  0.00     0.057 C 
HETATM   10  C17 UNL     1       3.576  35.955  24.496  1.00  0.00    -0.007 C 
HETATM   11  N5  UNL     1       4.265  35.276  23.724  1.00  0.00    -0.405 N 
ATOM     12  H51 UNL     1       4.000  34.300  23.592  1.00  0.00     0.155 HD
ATOM     13  H52 UNL     1       5.066  35.604  23.184  1.00  0.00     0.155 HD
HETATM   14  C18 UNL     1       0.867  36.220  26.974  1.00  0.00     0.011 C 
HETATM   15  C19 UNL     1       0.335  37.555  27.286  1.00  0.00    -0.003 C 
HETATM   16  C20 UNL     1      -0.820  37.513  28.289  1.00  0.00     0.041 C 
HETATM   17  C21 UNL     1      -0.393  37.117  29.663  1.00  0.00     0.223 C 
HETATM   18  C27 UNL     1       1.066  37.379  29.945  1.00  0.00     0.036 C 
HETATM   19  C28 UNL     1       1.625  38.541  29.215  1.00  0.00     0.012 C 
HETATM   20  C29 UNL     1       1.276  38.595  27.753  1.00  0.00    -0.033 C 
HETATM   21  C30 UNL     1       0.598  39.959  27.532  1.00  0.00     0.016 C 
ENDROOT
BRANCH   1  22
HETATM   22  C7  UNL     1       5.061  37.739  23.703  1.00  0.00     0.311 C 
BRANCH  22  23
HETATM   23  N3  UNL     1       6.243  38.266  24.290  1.00  0.00    -0.196 N 
HETATM   24  C6  UNL     1       7.476  37.577  24.140  1.00  0.00     0.676 C 
HETATM   25  N1  UNL     1       8.618  38.099  23.488  1.00  0.00    -0.160 N 
HETATM   26  N2  UNL     1       7.611  36.362  24.637  1.00  0.00    -0.235 N 
HETATM   27  C5  UNL     1       8.562  39.410  22.905  1.00  0.00     0.235 C 
ATOM     28  H1  UNL     1       9.474  37.547  23.432  1.00  0.00     0.187 HD
HETATM   29  O1  UNL     1       7.505  40.057  22.986  1.00  0.00    -0.273 OA
ATOM     30  H22 UNL     1       8.496  35.867  24.529  1.00  0.00     0.174 HD
ATOM     31  H21 UNL     1       6.788  35.986  25.107  1.00  0.00     0.174 HD
ATOM     32  H3  UNL     1       6.206  39.138  24.818  1.00  0.00     0.180 HD
BRANCH  27  33
HETATM   33  C4  UNL     1       9.761  39.894  22.253  1.00  0.00     0.103 C 
BRANCH  33  34
HETATM   34  C3  UNL     1      10.127  39.463  20.893  1.00  0.00     0.009 C 
BRANCH  34  35
HETATM   35  C2  UNL     1       9.110  39.080  19.907  1.00  0.00    -0.004 C 
HETATM   36  C1  UNL     1       9.027  39.745  18.588  1.00  0.00     0.005 C 
ENDBRANCH  34  35
ENDBRANCH  33  34
ENDBRANCH  27  33
ENDBRANCH  22  23
BRANCH  22  37
HETATM   37  N4  UNL     1       4.614  38.543  22.614  1.00  0.00    -0.057 N 
ATOM     38  H43 UNL     1       3.723  38.992  22.823  1.00  0.00     0.276 HD
ATOM     39  H42 UNL     1       5.191  39.377  22.505  1.00  0.00     0.276 HD
ATOM     40  H41 UNL     1       4.567  38.007  21.747  1.00  0.00     0.276 HD
ENDBRANCH  22  37
ENDBRANCH   1  22
BRANCH  17  41
HETATM   41  N6  UNL     1      -1.259  37.593  30.689  1.00  0.00     0.093 N 
HETATM   42  C22 UNL     1      -0.799  37.534  32.025  1.00  0.00     0.273 C 
HETATM   43  C23 UNL     1      -1.865  38.214  32.902  1.00  0.00     0.030 C 
HETATM   44  C24 UNL     1      -1.699  39.719  32.662  1.00  0.00     0.003 C 
HETATM   45  C25 UNL     1      -1.438  39.996  31.213  1.00  0.00     0.030 C 
HETATM   46  C26 UNL     1      -1.818  38.857  30.306  1.00  0.00     0.273 C 
ENDBRANCH  17  41
TORSDOF 7
ENDMDL
MODEL 2
REMARK VINA RESULT: -7.658558040      2.889      4.240
REMARK  7 active torsions:
REMARK  status: ('A' for Active; 'I' for Inactive)
REMARK    1  A    between atoms: C2_2  and  C3_3 
REMARK    2  A    between atoms: C3_3  and  C4_4 
REMARK    3  A    between atoms: C4_4  and  C5_5 
REMARK       I    between atoms: C5_5  and  N1_7 
REMARK       I    between atoms: N1_7  and  C6_9 
REMARK       I    between atoms: C6_9  and  N3_13 
REMARK    4  A    between atoms: N3_13  and  C7_15 
REMARK    5  A    between atoms: C7_15  and  N4_16 
REMARK    6  A    between atoms: C7_15  and  C8_20 
REMARK    7  A    between atoms: C21_36  and  N6_37 
ROOT
HETATM    1  C8  UNL     1       1.087  37.313  26.145  1.00  0.00     0.044 C 
HETATM    2  C9  UNL     1       1.146  38.767  26.451  1.00  0.00     0.020 C 
HETATM    3  C10 UNL     1       1.616  39.131  27.813  1.00  0.00     0.011 C 
HETATM    4  C11 UNL     1       1.271  38.169  28.907  1.00  0.00    -0.032 C 
HETATM    5  C12 UNL     1       2.602  37.604  29.435  1.00  0.00     0.016 C 
HETATM    6  C13 UNL     1       0.456  36.987  28.453  1.00  0.00    -0.000 C 
HETATM    7  C14 UNL     1       1.269  36.393  27.312  1.00  0.00     0.025 C 
HETATM    8  C15 UNL     1      -0.968  37.239  28.168  1.00  0.00    -0.004 C 
HETATM    9  C16 UNL     1      -1.365  37.406  26.712  1.00  0.00     0.057 C 
HETATM   10  C17 UNL     1      -0.354  37.024  25.754  1.00  0.00    -0.007 C 
HETATM   11  N5  UNL     1      -0.550  36.465  24.667  1.00  0.00    -0.405 N 
ATOM     12  H51 UNL     1      -1.517  36.271  24.405  1.00  0.00     0.155 HD
ATOM     13  H52 UNL     1       0.164  36.195  23.990  1.00  0.00     0.155 HD
HETATM   14  C18 UNL     1      -1.617  38.319  28.959  1.00  0.00     0.011 C 
HETATM   15  C19 UNL     1      -0.764  39.240  29.725  1.00  0.00    -0.003 C 
HETATM   16  C20 UNL     1      -1.433  39.742  31.006  1.00  0.00     0.041 C 
HETATM   17  C21 UNL     1      -1.597  38.678  32.040  1.00  0.00     0.223 C 
HETATM   18  C27 UNL     1      -0.624  37.532  31.893  1.00  0.00     0.036 C 
HETATM   19  C28 UNL     1       0.683  37.918  31.311  1.00  0.00     0.012 C 
HETATM   20  C29 UNL     1       0.597  38.795  30.093  1.00  0.00    -0.033 C 
HETATM   21  C30 UNL     1       1.417  40.055  30.421  1.00  0.00     0.016 C 
ENDROOT
BRANCH   1  22
HETATM   22  C7  UNL     1       1.968  36.990  24.961  1.00  0.00     0.311 C 
BRANCH  22  23
HETATM   23  N3  UNL     1       2.959  36.006  25.222  1.00  0.00    -0.196 N 
HETATM   24  C6  UNL     1       3.891  35.655  24.210  1.00  0.00     0.676 C 
HETATM   25  N1  UNL     1       5.292  35.830  24.307  1.00  0.00    -0.160 N 
HETATM   26  N2  UNL     1       3.463  35.117  23.084  1.00  0.00    -0.235 N 
HETATM   27  C5  UNL     1       5.850  36.419  25.492  1.00  0.00     0.235 C 
ATOM     28  H1  UNL     1       5.901  35.540  23.542  1.00  0.00     0.187 HD
HETATM   29  O1  UNL     1       5.085  36.766  26.407  1.00  0.00    -0.273 OA
ATOM     30  H22 UNL     1       4.133  34.864  22.357  1.00  0.00     0.174 HD
ATOM     31  H21 UNL     1       2.454  34.991  23.014  1.00  0.00     0.174 HD
ATOM     32  H3  UNL     1       3.001  35.552  26.135  1.00  0.00     0.180 HD
BRANCH  27  33
HETATM   33  C4  UNL     1       7.290  36.571  25.538  1.00  0.00     0.103 C 
BRANCH  33  34
HETATM   34  C3  UNL     1       8.092  35.990  26.627  1.00  0.00     0.009 C 
BRANCH  34  35
HETATM   35  C2  UNL     1       9.030  34.886  26.389  1.00  0.00    -0.004 C 
HETATM   36  C1  UNL     1       9.641  34.139  27.509  1.00  0.00     0.005 C 
ENDBRANCH  34  35
ENDBRANCH  33  34
ENDBRANCH  27  33
ENDBRANCH  22  23
BRANCH  22  37
HETATM   37  N4  UNL     1       2.526  38.145  24.340  1.00  0.00    -0.057 N 
ATOM     38  H43 UNL     1       3.498  37.990  24.071  1.00  0.00     0.276 HD
ATOM     39  H42 UNL     1       2.128  38.299  23.414  1.00  0.00     0.276 HD
ATOM     40  H41 UNL     1       2.430  38.972  24.930  1.00  0.00     0.276 HD
ENDBRANCH  22  37
ENDBRANCH   1  22
BRANCH  17  41
HETATM   41  N6  UNL     1      -1.674  39.182  33.370  1.00  0.00     0.093 N 
HETATM   42  C22 UNL     1      -1.356  38.303  34.432  1.00  0.00     0.273 C 
HETATM   43  C23 UNL     1      -1.402  39.127  35.730  1.00  0.00     0.030 C 
HETATM   44  C24 UNL     1      -0.122  39.970  35.731  1.00  0.00     0.003 C 
HETATM   45  C25 UNL     1       0.161  40.499  34.359  1.00  0.00     0.030 C 
HETATM   46  C26 UNL     1      -1.032  40.462  33.443  1.00  0.00     0.273 C 
ENDBRANCH  17  41
TORSDOF 7
ENDMDL
MODEL 3
REMARK VINA RESULT: -7.432490289      3.350      4.672
REMARK  7 active torsions:
REMARK  status: ('A' for Active; 'I' for Inactive)
REMARK    1  A    between atoms: C2_2  and  C3_3 
REMARK    2  A    between atoms: C3_3  and  C4_4 
REMARK    3  A    between atoms: C4_4  and  C5_5 
REMARK       I    between atoms: C5_5  and  N1_7 
REMARK       I    between atoms: N1_7  and  C6_9 
REMARK       I    between atoms: C6_9  and  N3_13 
REMARK    4  A    between atoms: N3_13  and  C7_15 
REMARK    5  A    between atoms: C7_15  and  N4_16 
REMARK    6  A    between atoms: C7_15  and  C8_20 
REMARK    7  A    between atoms: C21_36  and  N6_37 
ROOT
HETATM    1  C8  UNL     1       2.735  37.466  23.876  1.00  0.00     0.044 C 
HETATM    2  C9  UNL     1       1.675  36.492  24.249  1.00  0.00     0.020 C 
HETATM    3  C10 UNL     1       0.592  37.008  25.127  1.00  0.00     0.011 C 
HETATM    4  C11 UNL     1       0.990  38.065  26.110  1.00  0.00    -0.032 C 
HETATM    5  C12 UNL     1       0.227  39.343  25.718  1.00  0.00     0.016 C 
HETATM    6  C13 UNL     1       2.453  38.415  26.079  1.00  0.00    -0.000 C 
HETATM    7  C14 UNL     1       2.720  38.764  24.621  1.00  0.00     0.025 C 
HETATM    8  C15 UNL     1       3.377  37.442  26.688  1.00  0.00    -0.004 C 
HETATM    9  C16 UNL     1       4.118  36.507  25.749  1.00  0.00     0.057 C 
HETATM   10  C17 UNL     1       4.047  36.860  24.350  1.00  0.00    -0.007 C 
HETATM   11  N5  UNL     1       4.955  36.740  23.517  1.00  0.00    -0.405 N 
ATOM     12  H51 UNL     1       5.835  36.334  23.836  1.00  0.00     0.155 HD
ATOM     13  H52 UNL     1       4.904  36.990  22.530  1.00  0.00     0.155 HD
HETATM   14  C18 UNL     1       2.838  36.641  27.819  1.00  0.00     0.011 C 
HETATM   15  C19 UNL     1       1.386  36.644  28.055  1.00  0.00    -0.003 C 
HETATM   16  C20 UNL     1       1.024  36.493  29.533  1.00  0.00     0.041 C 
HETATM   17  C21 UNL     1       1.385  37.687  30.353  1.00  0.00     0.223 C 
HETATM   18  C27 UNL     1       1.492  38.963  29.553  1.00  0.00     0.036 C 
HETATM   19  C28 UNL     1       0.595  39.017  28.375  1.00  0.00     0.012 C 
HETATM   20  C29 UNL     1       0.592  37.774  27.527  1.00  0.00    -0.033 C 
HETATM   21  C30 UNL     1      -0.874  37.311  27.462  1.00  0.00     0.016 C 
ENDROOT
BRANCH   1  22
HETATM   22  C7  UNL     1       2.804  37.617  22.375  1.00  0.00     0.311 C 
BRANCH  22  23
HETATM   23  N3  UNL     1       3.000  38.952  21.930  1.00  0.00    -0.196 N 
HETATM   24  C6  UNL     1       3.014  39.241  20.540  1.00  0.00     0.676 C 
HETATM   25  N1  UNL     1       2.090  40.087  19.882  1.00  0.00    -0.160 N 
HETATM   26  N2  UNL     1       3.943  38.708  19.771  1.00  0.00    -0.235 N 
HETATM   27  C5  UNL     1       1.036  40.704  20.636  1.00  0.00     0.235 C 
ATOM     28  H1  UNL     1       2.173  40.257  18.880  1.00  0.00     0.187 HD
HETATM   29  O1  UNL     1       0.958  40.477  21.855  1.00  0.00    -0.273 OA
ATOM     30  H22 UNL     1       3.954  38.915  18.772  1.00  0.00     0.174 HD
ATOM     31  H21 UNL     1       4.609  38.097  20.245  1.00  0.00     0.174 HD
ATOM     32  H3  UNL     1       3.130  39.703  22.609  1.00  0.00     0.180 HD
BRANCH  27  33
HETATM   33  C4  UNL     1       0.122  41.563  19.912  1.00  0.00     0.103 C 
BRANCH  33  34
HETATM   34  C3  UNL     1       0.183  41.692  18.446  1.00  0.00     0.009 C 
BRANCH  34  35
HETATM   35  C2  UNL     1      -0.786  41.020  17.572  1.00  0.00    -0.004 C 
HETATM   36  C1  UNL     1      -0.723  41.159  16.101  1.00  0.00     0.005 C 
ENDBRANCH  34  35
ENDBRANCH  33  34
ENDBRANCH  27  33
ENDBRANCH  22  23
BRANCH  22  37
HETATM   37  N4  UNL     1       1.720  36.991  21.693  1.00  0.00    -0.057 N 
ATOM     38  H43 UNL     1       1.578  37.397  20.768  1.00  0.00     0.276 HD
ATOM     39  H42 UNL     1       1.955  36.039  21.415  1.00  0.00     0.276 HD
ATOM     40  H41 UNL     1       0.863  37.018  22.247  1.00  0.00     0.276 HD
ENDBRANCH  22  37
ENDBRANCH   1  22
BRANCH  17  41
HETATM   41  N6  UNL     1       0.600  37.827  31.533  1.00  0.00     0.093 N 
HETATM   42  C22 UNL     1       0.433  39.126  32.068  1.00  0.00     0.273 C 
HETATM   43  C23 UNL     1      -0.542  39.006  33.251  1.00  0.00     0.030 C 
HETATM   44  C24 UNL     1      -1.931  38.829  32.627  1.00  0.00     0.003 C 
HETATM   45  C25 UNL     1      -1.862  37.914  31.442  1.00  0.00     0.030 C 
HETATM   46  C26 UNL     1      -0.614  37.076  31.402  1.00  0.00     0.273 C 
ENDBRANCH  17  41
TORSDOF 7
ENDMDL
MODEL 4
REMARK VINA RESULT: -7.336133351      4.230      6.945
REMARK  7 active torsions:
REMARK  status: ('A' for Active; 'I' for Inactive)
REMARK    1  A    between atoms: C2_2  and  C3_3 
REMARK    2  A    between atoms: C3_3  and  C4_4 
REMARK    3  A    between atoms: C4_4  and  C5_5 
REMARK       I    between atoms: C5_5  and  N1_7 
REMARK       I    between atoms: N1_7  and  C6_9 
REMARK       I    between atoms: C6_9  and  N3_13 
REMARK    4  A    between atoms: N3_13  and  C7_15 
REMARK    5  A    between atoms: C7_15  and  N4_16 
REMARK    6  A    between atoms: C7_15  and  C8_20 
REMARK    7  A    between atoms: C21_36  and  N6_37 
ROOT
HETATM    1  C8  UNL     1       2.727  39.203  23.220  1.00  0.00     0.044 C 
HETATM    2  C9  UNL     1       3.328  40.105  24.238  1.00  0.00     0.020 C 
HETATM    3  C10 UNL     1       4.809  40.057  24.360  1.00  0.00     0.011 C 
HETATM    4  C11 UNL     1       5.450  38.731  24.091  1.00  0.00    -0.032 C 
HETATM    5  C12 UNL     1       6.329  38.910  22.841  1.00  0.00     0.016 C 
HETATM    6  C13 UNL     1       4.475  37.630  23.773  1.00  0.00    -0.000 C 
HETATM    7  C14 UNL     1       3.649  38.187  22.621  1.00  0.00     0.025 C 
HETATM    8  C15 UNL     1       3.710  37.078  24.906  1.00  0.00    -0.004 C 
HETATM    9  C16 UNL     1       2.286  37.573  25.088  1.00  0.00     0.057 C 
HETATM   10  C17 UNL     1       1.747  38.315  23.972  1.00  0.00    -0.007 C 
HETATM   11  N5  UNL     1       0.581  38.275  23.561  1.00  0.00    -0.405 N 
ATOM     12  H51 UNL     1      -0.076  37.680  24.066  1.00  0.00     0.155 HD
ATOM     13  H52 UNL     1       0.200  38.800  22.774  1.00  0.00     0.155 HD
HETATM   14  C18 UNL     1       4.388  37.099  26.230  1.00  0.00     0.011 C 
HETATM   15  C19 UNL     1       5.603  37.913  26.386  1.00  0.00    -0.003 C 
HETATM   16  C20 UNL     1       6.590  37.318  27.392  1.00  0.00     0.041 C 
HETATM   17  C21 UNL     1       7.227  36.055  26.916  1.00  0.00     0.223 C 
HETATM   18  C27 UNL     1       7.239  35.909  25.413  1.00  0.00     0.036 C 
HETATM   19  C28 UNL     1       7.316  37.195  24.680  1.00  0.00     0.012 C 
HETATM   20  C29 UNL     1       6.376  38.260  25.174  1.00  0.00    -0.033 C 
HETATM   21  C30 UNL     1       7.257  39.471  25.526  1.00  0.00     0.016 C 
ENDROOT
BRANCH   1  22
HETATM   22  C7  UNL     1       1.948  40.004  22.204  1.00  0.00     0.311 C 
BRANCH  22  23
HETATM   23  N3  UNL     1       2.163  39.606  20.857  1.00  0.00    -0.196 N 
HETATM   24  C6  UNL     1       1.994  40.546  19.806  1.00  0.00     0.676 C 
HETATM   25  N1  UNL     1       3.019  40.964  18.924  1.00  0.00    -0.160 N 
HETATM   26  N2  UNL     1       0.809  41.087  19.596  1.00  0.00    -0.235 N 
HETATM   27  C5  UNL     1       4.345  40.437  19.082  1.00  0.00     0.235 C 
ATOM     28  H1  UNL     1       2.817  41.634  18.182  1.00  0.00     0.187 HD
HETATM   29  O1  UNL     1       4.563  39.624  19.996  1.00  0.00    -0.273 OA
ATOM     30  H22 UNL     1       0.687  41.762  18.841  1.00  0.00     0.174 HD
ATOM     31  H21 UNL     1       0.070  40.786  20.232  1.00  0.00     0.174 HD
ATOM     32  H3  UNL     1       2.438  38.647  20.645  1.00  0.00     0.180 HD
BRANCH  27  33
HETATM   33  C4  UNL     1       5.353  40.897  18.150  1.00  0.00     0.103 C 
BRANCH  33  34
HETATM   34  C3  UNL     1       6.732  41.182  18.583  1.00  0.00     0.009 C 
BRANCH  34  35
HETATM   35  C2  UNL     1       7.856  40.326  18.185  1.00  0.00    -0.004 C 
HETATM   36  C1  UNL     1       8.399  39.295  19.096  1.00  0.00     0.005 C 
ENDBRANCH  34  35
ENDBRANCH  33  34
ENDBRANCH  27  33
ENDBRANCH  22  23
BRANCH  22  37
HETATM   37  N4  UNL     1       2.093  41.413  22.364  1.00  0.00    -0.057 N 
ATOM     38  H43 UNL     1       2.838  41.639  23.023  1.00  0.00     0.276 HD
ATOM     39  H42 UNL     1       2.484  41.844  21.527  1.00  0.00     0.276 HD
ATOM     40  H41 UNL     1       1.212  41.852  22.633  1.00  0.00     0.276 HD
ENDBRANCH  22  37
ENDBRANCH   1  22
BRANCH  17  41
HETATM   41  N6  UNL     1       8.492  35.793  27.516  1.00  0.00     0.093 N 
HETATM   42  C22 UNL     1       8.512  35.403  28.876  1.00  0.00     0.273 C 
HETATM   43  C23 UNL     1       9.972  35.071  29.230  1.00  0.00     0.030 C 
HETATM   44  C24 UNL     1      10.252  33.706  28.590  1.00  0.00     0.003 C 
HETATM   45  C25 UNL     1       9.632  33.626  27.228  1.00  0.00     0.030 C 
HETATM   46  C26 UNL     1       9.281  34.968  26.648  1.00  0.00     0.273 C 
ENDBRANCH  17  41
TORSDOF 7
ENDMDL
MODEL 5
REMARK VINA RESULT: -7.267566478      4.810      7.846
REMARK  7 active torsions:
REMARK  status: ('A' for Active; 'I' for Inactive)
REMARK    1  A    between atoms: C2_2  and  C3_3 
REMARK    2  A    between atoms: C3_3  and  C4_4 
REMARK    3  A    between atoms: C4_4  and  C5_5 
REMARK       I    between atoms: C5_5  and  N1_7 
REMARK       I    between atoms: N1_7  and  C6_9 
REMARK       I    between atoms: C6_9  and  N3_13 
REMARK    4  A    between atoms: N3_13  and  C7_15 
REMARK    5  A    between atoms: C7_15  and  N4_16 
REMARK    6  A    between atoms: C7_15  and  C8_20 
REMARK    7  A    between atoms: C21_36  and  N6_37 
ROOT
HETATM    1  C8  UNL     1       3.770  37.490  24.397  1.00  0.00     0.044 C 
HETATM    2  C9  UNL     1       3.833  37.300  22.924  1.00  0.00     0.020 C 
HETATM    3  C10 UNL     1       4.211  38.497  22.126  1.00  0.00     0.011 C 
HETATM    4  C11 UNL     1       3.770  39.819  22.673  1.00  0.00    -0.032 C 
HETATM    5  C12 UNL     1       5.048  40.602  23.023  1.00  0.00     0.016 C 
HETATM    6  C13 UNL     1       2.968  39.722  23.943  1.00  0.00    -0.000 C 
HETATM    7  C14 UNL     1       3.849  38.905  24.877  1.00  0.00     0.025 C 
HETATM    8  C15 UNL     1       1.573  39.265  23.808  1.00  0.00    -0.004 C 
HETATM    9  C16 UNL     1       1.286  37.810  24.136  1.00  0.00     0.057 C 
HETATM   10  C17 UNL     1       2.355  37.110  24.808  1.00  0.00    -0.007 C 
HETATM   11  N5  UNL     1       2.228  36.258  25.697  1.00  0.00    -0.405 N 
ATOM     12  H51 UNL     1       1.279  36.004  25.972  1.00  0.00     0.155 HD
ATOM     13  H52 UNL     1       2.983  35.764  26.171  1.00  0.00     0.155 HD
HETATM   14  C18 UNL     1       0.889  39.603  22.532  1.00  0.00     0.011 C 
HETATM   15  C19 UNL     1       1.702  40.082  21.403  1.00  0.00    -0.003 C 
HETATM   16  C20 UNL     1       0.952  41.071  20.510  1.00  0.00     0.041 C 
HETATM   17  C21 UNL     1       0.694  42.384  21.172  1.00  0.00     0.223 C 
HETATM   18  C27 UNL     1       1.652  42.697  22.296  1.00  0.00     0.036 C 
HETATM   19  C28 UNL     1       3.005  42.120  22.116  1.00  0.00     0.012 C 
HETATM   20  C29 UNL     1       3.024  40.676  21.694  1.00  0.00    -0.033 C 
HETATM   21  C30 UNL     1       3.842  40.629  20.391  1.00  0.00     0.016 C 
ENDROOT
BRANCH   1  22
HETATM   22  C7  UNL     1       4.727  36.548  25.089  1.00  0.00     0.311 C 
BRANCH  22  23
HETATM   23  N3  UNL     1       5.648  37.189  25.961  1.00  0.00    -0.196 N 
HETATM   24  C6  UNL     1       5.658  36.863  27.343  1.00  0.00     0.676 C 
HETATM   25  N1  UNL     1       6.755  36.290  28.029  1.00  0.00    -0.160 N 
HETATM   26  N2  UNL     1       4.590  37.102  28.079  1.00  0.00    -0.235 N 
HETATM   27  C5  UNL     1       7.958  35.984  27.307  1.00  0.00     0.235 C 
ATOM     28  H1  UNL     1       6.692  36.096  29.028  1.00  0.00     0.187 HD
HETATM   29  O1  UNL     1       8.006  36.228  26.090  1.00  0.00    -0.273 OA
ATOM     30  H22 UNL     1       4.597  36.868  29.072  1.00  0.00     0.174 HD
ATOM     31  H21 UNL     1       3.799  37.514  27.585  1.00  0.00     0.174 HD
ATOM     32  H3  UNL     1       6.301  37.882  25.595  1.00  0.00     0.180 HD
BRANCH  27  33
HETATM   33  C4  UNL     1       9.050  35.402  28.061  1.00  0.00     0.103 C 
BRANCH  33  34
HETATM   34  C3  UNL     1       9.752  34.195  27.593  1.00  0.00     0.009 C 
BRANCH  34  35
HETATM   35  C2  UNL     1      10.248  33.180  28.531  1.00  0.00    -0.004 C 
HETATM   36  C1  UNL     1       9.861  33.196  29.958  1.00  0.00     0.005 C 
ENDBRANCH  34  35
ENDBRANCH  33  34
ENDBRANCH  27  33
ENDBRANCH  22  23
BRANCH  22  37
HETATM   37  N4  UNL     1       5.386  35.655  24.195  1.00  0.00    -0.057 N 
ATOM     38  H43 UNL     1       6.155  36.116  23.708  1.00  0.00     0.276 HD
ATOM     39  H42 UNL     1       5.920  34.949  24.701  1.00  0.00     0.276 HD
ATOM     40  H41 UNL     1       4.731  35.229  23.539  1.00  0.00     0.276 HD
ENDBRANCH  22  37
ENDBRANCH   1  22
BRANCH  17  41
HETATM   41  N6  UNL     1       0.530  43.463  20.256  1.00  0.00     0.093 N 
HETATM   42  C22 UNL     1       0.080  43.160  18.950  1.00  0.00     0.273 C 
HETATM   43  C23 UNL     1      -0.123  44.499  18.219  1.00  0.00     0.030 C 
HETATM   44  C24 UNL     1      -1.420  45.087  18.785  1.00  0.00     0.003 C 
HETATM   45  C25 UNL     1      -1.496  44.867  20.265  1.00  0.00     0.030 C 
HETATM   46  C26 UNL     1      -0.168  44.540  20.893  1.00  0.00     0.273 C 
ENDBRANCH  17  41
TORSDOF 7
ENDMDL
