MODEL 1
REMARK VINA RESULT: -7.190267698      0.000      0.000
REMARK  5 active torsions:
REMARK  status: ('A' for Active; 'I' for Inactive)
REMARK    1  A    between atoms: C2_2  and  N1_3 
REMARK       I    between atoms: C3_5  and  N2_6 
REMARK       I    between atoms: C3_5  and  N4_11 
REMARK    2  A    between atoms: N2_6  and  N3_8 
REMARK    3  A    between atoms: N4_11  and  C4_13 
REMARK    4  A    between atoms: C5_14  and  O1_15 
REMARK    5  A    between atoms: C5_14  and  N5_17 
REMARK       I    between atoms: N6_20  and  C8_21 
ROOT
HETATM    1  C4  UNL     1      -5.878  31.813   2.150  1.00  0.00     0.161 C 
HETATM    2  C5  UNL     1      -6.831  31.500   3.177  1.00  0.00     0.154 C 
ENDROOT
BRANCH   2   3
HETATM    3  O1  UNL     1      -7.004  32.436   4.101  1.00  0.00    -0.345 OA
ATOM      4  H1  UNL     1      -6.806  32.172   4.992  1.00  0.00     0.219 HD
ENDBRANCH   2   3
BRANCH   2   5
HETATM    5  N5  UNL     1      -7.639  30.379   3.414  1.00  0.00    -0.358 N 
HETATM    6  C6  UNL     1      -8.925  30.300   2.689  1.00  0.00     0.145 C 
HETATM    7  C7  UNL     1     -10.068  30.041   3.644  1.00  0.00     0.145 C 
HETATM    8  N6  UNL     1      -9.746  28.917   4.509  1.00  0.00    -0.353 N 
HETATM    9  C8  UNL     1     -10.725  28.450   5.397  1.00  0.00     0.185 C 
HETATM   10  C10 UNL     1      -8.451  28.285   4.472  1.00  0.00     0.145 C 
HETATM   11  N7  UNL     1     -11.284  29.387   6.317  1.00  0.00    -0.064 NA
HETATM   12  N8  UNL     1     -11.166  27.241   5.459  1.00  0.00    -0.369 N 
HETATM   13  C9  UNL     1     -10.726  26.158   4.622  1.00  0.00     0.148 C 
ATOM     14  H8  UNL     1     -11.883  27.037   6.155  1.00  0.00     0.161 HD
HETATM   15  C11 UNL     1      -7.336  29.306   4.303  1.00  0.00     0.145 C 
ENDBRANCH   2   5
BRANCH   1  16
HETATM   16  N4  UNL     1      -5.570  30.968   1.078  1.00  0.00    -0.197 N 
HETATM   17  C3  UNL     1      -4.570  31.382   0.080  1.00  0.00     0.692 C 
HETATM   18  N1  UNL     1      -4.850  32.293  -0.754  1.00  0.00    -0.225 N 
HETATM   19  N2  UNL     1      -3.340  30.705   0.139  1.00  0.00    -0.139 N 
ATOM     20  H1  UNL     1      -5.780  32.705  -0.691  1.00  0.00     0.177 HD
ATOM     21  H2  UNL     1      -2.477  31.227   0.294  1.00  0.00     0.205 HD
ATOM     22  H4  UNL     1      -6.037  30.065   0.988  1.00  0.00     0.183 HD
BRANCH  18  23
HETATM   23  C2  UNL     1      -3.990  32.800  -1.773  1.00  0.00     0.134 C 
HETATM   24  C1  UNL     1      -3.962  34.304  -1.826  1.00  0.00     0.027 C 
ENDBRANCH  18  23
BRANCH  19  25
HETATM   25  N3  UNL     1      -3.301  29.329  -0.015  1.00  0.00    -0.331 N 
ATOM     26  H32 UNL     1      -4.092  28.856  -0.452  1.00  0.00     0.177 HD
ATOM     27  H31 UNL     1      -2.488  28.804   0.309  1.00  0.00     0.177 HD
ENDBRANCH  19  25
ENDBRANCH   1  16
TORSDOF 5
ENDMDL
MODEL 2
REMARK VINA RESULT: -6.629910120      2.577      3.619
REMARK  5 active torsions:
REMARK  status: ('A' for Active; 'I' for Inactive)
REMARK    1  A    between atoms: C2_2  and  N1_3 
REMARK       I    between atoms: C3_5  and  N2_6 
REMARK       I    between atoms: C3_5  and  N4_11 
REMARK    2  A    between atoms: N2_6  and  N3_8 
REMARK    3  A    between atoms: N4_11  and  C4_13 
REMARK    4  A    between atoms: C5_14  and  O1_15 
REMARK    5  A    between atoms: C5_14  and  N5_17 
REMARK       I    between atoms: N6_20  and  C8_21 
ROOT
HETATM    1  C4  UNL     1      -3.606  29.368   0.125  1.00  0.00     0.161 C 
HETATM    2  C5  UNL     1      -4.686  28.478   0.446  1.00  0.00     0.154 C 
ENDROOT
BRANCH   2   3
HETATM    3  O1  UNL     1      -4.569  27.245  -0.030  1.00  0.00    -0.345 OA
ATOM      4  H1  UNL     1      -5.311  26.928  -0.532  1.00  0.00     0.219 HD
ENDBRANCH   2   3
BRANCH   2   5
HETATM    5  N5  UNL     1      -5.871  28.645   1.175  1.00  0.00    -0.358 N 
HETATM    6  C6  UNL     1      -7.107  28.064   0.608  1.00  0.00     0.145 C 
HETATM    7  C7  UNL     1      -8.211  29.096   0.552  1.00  0.00     0.145 C 
HETATM    8  N6  UNL     1      -8.341  29.753   1.843  1.00  0.00    -0.353 N 
HETATM    9  C8  UNL     1      -9.384  30.670   2.029  1.00  0.00     0.185 C 
HETATM   10  C10 UNL     1      -7.423  29.482   2.921  1.00  0.00     0.145 C 
HETATM   11  N7  UNL     1      -9.466  31.769   1.123  1.00  0.00    -0.064 NA
HETATM   12  N8  UNL     1     -10.280  30.610   2.953  1.00  0.00    -0.369 N 
HETATM   13  C9  UNL     1     -10.362  29.585   3.958  1.00  0.00     0.148 C 
ATOM     14  H8  UNL     1     -10.985  31.347   2.972  1.00  0.00     0.161 HD
HETATM   15  C11 UNL     1      -5.996  29.334   2.417  1.00  0.00     0.145 C 
ENDBRANCH   2   5
BRANCH   1  16
HETATM   16  N4  UNL     1      -3.532  30.701   0.548  1.00  0.00    -0.197 N 
HETATM   17  C3  UNL     1      -4.195  31.757  -0.234  1.00  0.00     0.692 C 
HETATM   18  N1  UNL     1      -3.714  32.113  -1.350  1.00  0.00    -0.225 N 
HETATM   19  N2  UNL     1      -5.353  32.304   0.346  1.00  0.00    -0.139 N 
ATOM     20  H1  UNL     1      -2.867  31.637  -1.659  1.00  0.00     0.177 HD
ATOM     21  H2  UNL     1      -6.244  32.253  -0.147  1.00  0.00     0.205 HD
ATOM     22  H4  UNL     1      -3.020  30.940   1.398  1.00  0.00     0.183 HD
BRANCH  18  23
HETATM   23  C2  UNL     1      -4.241  33.116  -2.217  1.00  0.00     0.134 C 
HETATM   24  C1  UNL     1      -3.687  34.487  -1.939  1.00  0.00     0.027 C 
ENDBRANCH  18  23
BRANCH  19  25
HETATM   25  N3  UNL     1      -5.282  32.911   1.590  1.00  0.00    -0.331 N 
ATOM     26  H32 UNL     1      -5.006  32.353   2.399  1.00  0.00     0.177 HD
ATOM     27  H31 UNL     1      -5.503  33.902   1.686  1.00  0.00     0.177 HD
ENDBRANCH  19  25
ENDBRANCH   1  16
TORSDOF 5
ENDMDL
MODEL 3
REMARK VINA RESULT: -6.618021429      2.417      3.923
REMARK  5 active torsions:
REMARK  status: ('A' for Active; 'I' for Inactive)
REMARK    1  A    between atoms: C2_2  and  N1_3 
REMARK       I    between atoms: C3_5  and  N2_6 
REMARK       I    between atoms: C3_5  and  N4_11 
REMARK    2  A    between atoms: N2_6  and  N3_8 
REMARK    3  A    between atoms: N4_11  and  C4_13 
REMARK    4  A    between atoms: C5_14  and  O1_15 
REMARK    5  A    between atoms: C5_14  and  N5_17 
REMARK       I    between atoms: N6_20  and  C8_21 
ROOT
HETATM    1  C4  UNL     1      -4.438  31.700  -0.332  1.00  0.00     0.161 C 
HETATM    2  C5  UNL     1      -5.110  32.069   0.882  1.00  0.00     0.154 C 
ENDROOT
BRANCH   2   3
HETATM    3  O1  UNL     1      -4.587  33.100   1.533  1.00  0.00    -0.345 OA
ATOM      4  H1  UNL     1      -4.573  33.022   2.480  1.00  0.00     0.219 HD
ENDBRANCH   2   3
BRANCH   2   5
HETATM    5  N5  UNL     1      -6.232  31.551   1.543  1.00  0.00    -0.358 N 
HETATM    6  C6  UNL     1      -5.997  30.775   2.779  1.00  0.00     0.145 C 
HETATM    7  C7  UNL     1      -6.701  29.438   2.717  1.00  0.00     0.145 C 
HETATM    8  N6  UNL     1      -8.089  29.624   2.328  1.00  0.00    -0.353 N 
HETATM    9  C8  UNL     1      -8.941  28.511   2.317  1.00  0.00     0.185 C 
HETATM   10  C10 UNL     1      -8.598  30.920   1.954  1.00  0.00     0.145 C 
HETATM   11  N7  UNL     1      -8.554  27.392   1.522  1.00  0.00    -0.064 NA
HETATM   12  N8  UNL     1     -10.050  28.410   2.964  1.00  0.00    -0.369 N 
HETATM   13  C9  UNL     1     -10.608  29.428   3.812  1.00  0.00     0.148 C 
ATOM     14  H8  UNL     1     -10.573  27.539   2.867  1.00  0.00     0.161 HD
HETATM   15  C11 UNL     1      -7.588  31.699   1.125  1.00  0.00     0.145 C 
ENDBRANCH   2   5
BRANCH   1  16
HETATM   16  N4  UNL     1      -4.845  30.655  -1.170  1.00  0.00    -0.197 N 
HETATM   17  C3  UNL     1      -4.779  29.264  -0.694  1.00  0.00     0.692 C 
HETATM   18  N1  UNL     1      -3.657  28.691  -0.569  1.00  0.00    -0.225 N 
HETATM   19  N2  UNL     1      -6.017  28.664  -0.405  1.00  0.00    -0.139 N 
ATOM     20  H1  UNL     1      -2.831  29.238  -0.812  1.00  0.00     0.177 HD
ATOM     21  H2  UNL     1      -6.208  28.313   0.533  1.00  0.00     0.205 HD
ATOM     22  H4  UNL     1      -5.186  30.857  -2.110  1.00  0.00     0.183 HD
BRANCH  18  23
HETATM   23  C2  UNL     1      -3.434  27.355  -0.120  1.00  0.00     0.134 C 
HETATM   24  C1  UNL     1      -2.388  27.262   0.958  1.00  0.00     0.027 C 
ENDBRANCH  18  23
BRANCH  19  25
HETATM   25  N3  UNL     1      -6.977  28.551  -1.398  1.00  0.00    -0.331 N 
ATOM     26  H32 UNL     1      -6.801  27.934  -2.191  1.00  0.00     0.177 HD
ATOM     27  H31 UNL     1      -7.846  29.082  -1.328  1.00  0.00     0.177 HD
ENDBRANCH  19  25
ENDBRANCH   1  16
TORSDOF 5
ENDMDL
MODEL 4
REMARK VINA RESULT: -6.578971582      2.855      3.774
REMARK  5 active torsions:
REMARK  status: ('A' for Active; 'I' for Inactive)
REMARK    1  A    between atoms: C2_2  and  N1_3 
REMARK       I    between atoms: C3_5  and  N2_6 
REMARK       I    between atoms: C3_5  and  N4_11 
REMARK    2  A    between atoms: N2_6  and  N3_8 
REMARK    3  A    between atoms: N4_11  and  C4_13 
REMARK    4  A    between atoms: C5_14  and  O1_15 
REMARK    5  A    between atoms: C5_14  and  N5_17 
REMARK       I    between atoms: N6_20  and  C8_21 
ROOT
HETATM    1  C4  UNL     1      -4.306  28.045  -0.408  1.00  0.00     0.161 C 
HETATM    2  C5  UNL     1      -4.876  27.743   0.875  1.00  0.00     0.154 C 
ENDROOT
BRANCH   2   3
HETATM    3  O1  UNL     1      -4.134  26.977   1.663  1.00  0.00    -0.345 OA
ATOM      4  H1  UNL     1      -3.290  27.339   1.908  1.00  0.00     0.219 HD
ENDBRANCH   2   3
BRANCH   2   5
HETATM    5  N5  UNL     1      -6.088  28.097   1.484  1.00  0.00    -0.358 N 
HETATM    6  C6  UNL     1      -7.336  27.718   0.789  1.00  0.00     0.145 C 
HETATM    7  C7  UNL     1      -8.253  28.911   0.638  1.00  0.00     0.145 C 
HETATM    8  N6  UNL     1      -8.407  29.584   1.918  1.00  0.00    -0.353 N 
HETATM    9  C8  UNL     1      -9.305  30.655   2.011  1.00  0.00     0.185 C 
HETATM   10  C10 UNL     1      -7.656  29.174   3.078  1.00  0.00     0.145 C 
HETATM   11  N7  UNL     1      -9.122  31.751   1.117  1.00  0.00    -0.064 NA
HETATM   12  N8  UNL     1     -10.287  30.740   2.841  1.00  0.00    -0.369 N 
HETATM   13  C9  UNL     1     -10.631  29.744   3.819  1.00  0.00     0.148 C 
ATOM     14  H8  UNL     1     -10.866  31.579   2.800  1.00  0.00     0.161 HD
HETATM   15  C11 UNL     1      -6.227  28.801   2.717  1.00  0.00     0.145 C 
ENDBRANCH   2   5
BRANCH   1  16
HETATM   16  N4  UNL     1      -4.922  28.852  -1.373  1.00  0.00    -0.197 N 
HETATM   17  C3  UNL     1      -4.426  30.216  -1.614  1.00  0.00     0.692 C 
HETATM   18  N1  UNL     1      -4.636  31.126  -0.759  1.00  0.00    -0.225 N 
HETATM   19  N2  UNL     1      -3.732  30.403  -2.822  1.00  0.00    -0.139 N 
ATOM     20  H1  UNL     1      -5.154  30.860   0.078  1.00  0.00     0.177 HD
ATOM     21  H2  UNL     1      -2.767  30.730  -2.811  1.00  0.00     0.205 HD
ATOM     22  H4  UNL     1      -5.714  28.494  -1.908  1.00  0.00     0.183 HD
BRANCH  18  23
HETATM   23  C2  UNL     1      -4.219  32.487  -0.851  1.00  0.00     0.134 C 
HETATM   24  C1  UNL     1      -3.669  33.024   0.443  1.00  0.00     0.027 C 
ENDBRANCH  18  23
BRANCH  19  25
HETATM   25  N3  UNL     1      -4.363  30.141  -4.028  1.00  0.00    -0.331 N 
ATOM     26  H32 UNL     1      -5.172  29.520  -4.041  1.00  0.00     0.177 HD
ATOM     27  H31 UNL     1      -4.015  30.569  -4.887  1.00  0.00     0.177 HD
ENDBRANCH  19  25
ENDBRANCH   1  16
TORSDOF 5
ENDMDL
MODEL 5
REMARK VINA RESULT: -6.491572437      2.110      3.083
REMARK  5 active torsions:
REMARK  status: ('A' for Active; 'I' for Inactive)
REMARK    1  A    between atoms: C2_2  and  N1_3 
REMARK       I    between atoms: C3_5  and  N2_6 
REMARK       I    between atoms: C3_5  and  N4_11 
REMARK    2  A    between atoms: N2_6  and  N3_8 
REMARK    3  A    between atoms: N4_11  and  C4_13 
REMARK    4  A    between atoms: C5_14  and  O1_15 
REMARK    5  A    between atoms: C5_14  and  N5_17 
REMARK       I    between atoms: N6_20  and  C8_21 
ROOT
HETATM    1  C4  UNL     1      -4.605  32.084  -0.103  1.00  0.00     0.161 C 
HETATM    2  C5  UNL     1      -5.437  31.896   1.052  1.00  0.00     0.154 C 
ENDROOT
BRANCH   2   3
HETATM    3  O1  UNL     1      -5.458  32.907   1.911  1.00  0.00    -0.345 OA
ATOM      4  H1  UNL     1      -4.695  33.474   1.893  1.00  0.00     0.219 HD
ENDBRANCH   2   3
BRANCH   2   5
HETATM    5  N5  UNL     1      -6.254  30.838   1.473  1.00  0.00    -0.358 N 
HETATM    6  C6  UNL     1      -7.629  30.781   0.933  1.00  0.00     0.145 C 
HETATM    7  C7  UNL     1      -8.641  30.645   2.048  1.00  0.00     0.145 C 
HETATM    8  N6  UNL     1      -8.255  29.564   2.940  1.00  0.00    -0.353 N 
HETATM    9  C8  UNL     1      -9.122  29.208   3.981  1.00  0.00     0.185 C 
HETATM   10  C10 UNL     1      -7.006  28.863   2.775  1.00  0.00     0.145 C 
HETATM   11  N7  UNL     1      -9.508  30.230   4.899  1.00  0.00    -0.064 NA
HETATM   12  N8  UNL     1      -9.604  28.031   4.186  1.00  0.00    -0.369 N 
HETATM   13  C9  UNL     1      -9.331  26.874   3.377  1.00  0.00     0.148 C 
ATOM     14  H8  UNL     1     -10.228  27.910   4.984  1.00  0.00     0.161 HD
HETATM   15  C11 UNL     1      -5.880  29.809   2.388  1.00  0.00     0.145 C 
ENDBRANCH   2   5
BRANCH   1  16
HETATM   16  N4  UNL     1      -4.464  31.145  -1.133  1.00  0.00    -0.197 N 
HETATM   17  C3  UNL     1      -4.065  29.764  -0.818  1.00  0.00     0.692 C 
HETATM   18  N1  UNL     1      -2.874  29.515  -0.465  1.00  0.00    -0.225 N 
HETATM   19  N2  UNL     1      -5.079  28.798  -0.940  1.00  0.00    -0.139 N 
ATOM     20  H1  UNL     1      -2.234  30.307  -0.416  1.00  0.00     0.177 HD
ATOM     21  H2  UNL     1      -5.348  28.236  -0.132  1.00  0.00     0.205 HD
ATOM     22  H4  UNL     1      -4.638  31.418  -2.100  1.00  0.00     0.183 HD
BRANCH  18  23
HETATM   23  C2  UNL     1      -2.342  28.236  -0.128  1.00  0.00     0.134 C 
HETATM   24  C1  UNL     1      -1.218  28.309   0.871  1.00  0.00     0.027 C 
ENDBRANCH  18  23
BRANCH  19  25
HETATM   25  N3  UNL     1      -5.712  28.611  -2.158  1.00  0.00    -0.331 N 
ATOM     26  H32 UNL     1      -6.619  29.050  -2.318  1.00  0.00     0.177 HD
ATOM     27  H31 UNL     1      -5.269  28.042  -2.879  1.00  0.00     0.177 HD
ENDBRANCH  19  25
ENDBRANCH   1  16
TORSDOF 5
ENDMDL
