MODEL 1
REMARK VINA RESULT: -6.622989054      0.000      0.000
REMARK  4 active torsions:
REMARK  status: ('A' for Active; 'I' for Inactive)
REMARK    1  A    between atoms: C2_2  and  N1_5 
REMARK    2  A    between atoms: N1_5  and  C5_7 
REMARK    3  A    between atoms: C10_12  and  C11_13 
REMARK    4  A    between atoms: C12_14  and  C13_15 
ROOT
HETATM    1  C5  UNL     1       2.504 -11.066  -7.369  1.00  0.00     0.079 C 
HETATM    2  C6  UNL     1       1.498 -12.108  -7.091  1.00  0.00     0.025 C 
HETATM    3  C7  UNL     1       1.294 -12.411  -5.627  1.00  0.00     0.008 C 
HETATM    4  C8  UNL     1       2.415 -12.042  -4.730  1.00  0.00     0.008 A 
HETATM    5  C9  UNL     1       2.149 -10.848  -3.799  1.00  0.00     0.029 A 
HETATM    6  C10 UNL     1       3.074 -10.740  -4.961  1.00  0.00     0.029 A 
HETATM    7  C14 UNL     1       2.528 -10.089  -6.175  1.00  0.00     0.047 C 
ENDROOT
BRANCH   1   8
HETATM    8  N1  UNL     1       2.395 -10.282  -8.520  1.00  0.00    -0.409 N 
ATOM      9  H1  UNL     1       1.900  -9.392  -8.471  1.00  0.00     0.154 HD
BRANCH   8  10
HETATM   10  C2  UNL     1       2.955 -10.692  -9.746  1.00  0.00     0.015 C 
HETATM   11  C1  UNL     1       2.055 -11.431 -10.697  1.00  0.00     0.037 C 
HETATM   12  C3  UNL     1       4.200 -11.548  -9.536  1.00  0.00     0.037 C 
HETATM   13  C4  UNL     1       3.449  -9.448 -10.465  1.00  0.00     0.037 C 
ENDBRANCH   8  10
ENDBRANCH   1   8
BRANCH   6  14
HETATM   14  C11 UNL     1       4.510 -10.700  -4.652  1.00  0.00    -0.095 C 
HETATM   15  C12 UNL     1       5.678 -10.675  -4.378  1.00  0.00    -0.091 C 
BRANCH  15  16
HETATM   16  C13 UNL     1       7.103 -10.636  -4.017  1.00  0.00     0.208 C 
HETATM   17 CL1  UNL     1       7.708 -12.274  -3.795  1.00  0.00    -0.117 Cl
ENDBRANCH  15  16
ENDBRANCH   6  14
TORSDOF 4
ENDMDL
MODEL 2
REMARK VINA RESULT: -6.566274538      0.079      1.052
REMARK  4 active torsions:
REMARK  status: ('A' for Active; 'I' for Inactive)
REMARK    1  A    between atoms: C2_2  and  N1_5 
REMARK    2  A    between atoms: N1_5  and  C5_7 
REMARK    3  A    between atoms: C10_12  and  C11_13 
REMARK    4  A    between atoms: C12_14  and  C13_15 
ROOT
HETATM    1  C5  UNL     1       2.511 -11.070  -7.307  1.00  0.00     0.079 C 
HETATM    2  C6  UNL     1       1.509 -12.114  -7.024  1.00  0.00     0.025 C 
HETATM    3  C7  UNL     1       1.314 -12.418  -5.559  1.00  0.00     0.008 C 
HETATM    4  C8  UNL     1       2.440 -12.048  -4.669  1.00  0.00     0.008 A 
HETATM    5  C9  UNL     1       2.178 -10.856  -3.735  1.00  0.00     0.029 A 
HETATM    6  C10 UNL     1       3.095 -10.745  -4.902  1.00  0.00     0.029 A 
HETATM    7  C14 UNL     1       2.540 -10.093  -6.113  1.00  0.00     0.047 C 
ENDROOT
BRANCH   1   8
HETATM    8  N1  UNL     1       2.393 -10.284  -8.457  1.00  0.00    -0.409 N 
ATOM      9  H1  UNL     1       1.844  -9.426  -8.420  1.00  0.00     0.154 HD
BRANCH   8  10
HETATM   10  C2  UNL     1       3.016 -10.651  -9.665  1.00  0.00     0.015 C 
HETATM   11  C1  UNL     1       4.209 -11.563  -9.572  1.00  0.00     0.037 C 
HETATM   12  C3  UNL     1       3.440  -9.427 -10.473  1.00  0.00     0.037 C 
HETATM   13  C4  UNL     1       1.978 -11.350 -10.526  1.00  0.00     0.037 C 
ENDBRANCH   8  10
ENDBRANCH   1   8
BRANCH   6  14
HETATM   14  C11 UNL     1       4.533 -10.701  -4.603  1.00  0.00    -0.095 C 
HETATM   15  C12 UNL     1       5.703 -10.680  -4.339  1.00  0.00    -0.091 C 
BRANCH  15  16
HETATM   16  C13 UNL     1       7.131 -10.651  -3.988  1.00  0.00     0.208 C 
HETATM   17 CL1  UNL     1       7.736 -12.294  -3.812  1.00  0.00    -0.117 Cl
ENDBRANCH  15  16
ENDBRANCH   6  14
TORSDOF 4
ENDMDL
MODEL 3
REMARK VINA RESULT: -6.525869537      0.674      1.243
REMARK  4 active torsions:
REMARK  status: ('A' for Active; 'I' for Inactive)
REMARK    1  A    between atoms: C2_2  and  N1_5 
REMARK    2  A    between atoms: N1_5  and  C5_7 
REMARK    3  A    between atoms: C10_12  and  C11_13 
REMARK    4  A    between atoms: C12_14  and  C13_15 
ROOT
HETATM    1  C5  UNL     1       2.413 -11.074  -7.276  1.00  0.00     0.079 C 
HETATM    2  C6  UNL     1       1.442 -12.147  -6.991  1.00  0.00     0.025 C 
HETATM    3  C7  UNL     1       1.286 -12.482  -5.528  1.00  0.00     0.008 C 
HETATM    4  C8  UNL     1       2.420 -12.101  -4.655  1.00  0.00     0.008 A 
HETATM    5  C9  UNL     1       2.149 -10.931  -3.694  1.00  0.00     0.029 A 
HETATM    6  C10 UNL     1       3.039 -10.778  -4.877  1.00  0.00     0.029 A 
HETATM    7  C14 UNL     1       2.444 -10.118  -6.065  1.00  0.00     0.047 C 
ENDROOT
BRANCH   1   8
HETATM    8  N1  UNL     1       2.254 -10.272  -8.409  1.00  0.00    -0.409 N 
ATOM      9  H1  UNL     1       1.655  -9.448  -8.355  1.00  0.00     0.154 HD
BRANCH   8  10
HETATM   10  C2  UNL     1       2.901 -10.574  -9.622  1.00  0.00     0.015 C 
HETATM   11  C1  UNL     1       3.412  -9.415 -10.433  1.00  0.00     0.037 C 
HETATM   12  C3  UNL     1       2.016 -11.416 -10.537  1.00  0.00     0.037 C 
HETATM   13  C4  UNL     1       4.091 -11.461  -9.300  1.00  0.00     0.037 C 
ENDBRANCH   8  10
ENDBRANCH   1   8
BRANCH   6  14
HETATM   14  C11 UNL     1       4.481 -10.705  -4.606  1.00  0.00    -0.095 C 
HETATM   15  C12 UNL     1       5.656 -10.657  -4.364  1.00  0.00    -0.091 C 
BRANCH  15  16
HETATM   16  C13 UNL     1       7.089 -10.593  -4.040  1.00  0.00     0.208 C 
HETATM   17 CL1  UNL     1       7.301 -10.089  -2.368  1.00  0.00    -0.117 Cl
ENDBRANCH  15  16
ENDBRANCH   6  14
TORSDOF 4
ENDMDL
MODEL 4
REMARK VINA RESULT: -6.344589123      3.028      3.649
REMARK  4 active torsions:
REMARK  status: ('A' for Active; 'I' for Inactive)
REMARK    1  A    between atoms: C2_2  and  N1_5 
REMARK    2  A    between atoms: N1_5  and  C5_7 
REMARK    3  A    between atoms: C10_12  and  C11_13 
REMARK    4  A    between atoms: C12_14  and  C13_15 
ROOT
HETATM    1  C5  UNL     1       2.121 -11.676  -8.889  1.00  0.00     0.079 C 
HETATM    2  C6  UNL     1       1.092 -10.710  -9.317  1.00  0.00     0.025 C 
HETATM    3  C7  UNL     1       0.471  -9.914  -8.197  1.00  0.00     0.008 C 
HETATM    4  C8  UNL     1       0.569 -10.516  -6.846  1.00  0.00     0.008 A 
HETATM    5  C9  UNL     1       1.528  -9.807  -5.876  1.00  0.00     0.029 A 
HETATM    6  C10 UNL     1       1.856 -11.134  -6.466  1.00  0.00     0.029 A 
HETATM    7  C14 UNL     1       2.795 -11.127  -7.614  1.00  0.00     0.047 C 
ENDROOT
BRANCH   1   8
HETATM    8  N1  UNL     1       3.154 -12.027  -9.762  1.00  0.00    -0.409 N 
ATOM      9  H1  UNL     1       3.688 -12.878  -9.584  1.00  0.00     0.154 HD
BRANCH   8  10
HETATM   10  C2  UNL     1       3.474 -11.235 -10.880  1.00  0.00     0.015 C 
HETATM   11  C1  UNL     1       3.501  -9.745 -10.679  1.00  0.00     0.037 C 
HETATM   12  C3  UNL     1       2.544 -11.520 -12.056  1.00  0.00     0.037 C 
HETATM   13  C4  UNL     1       4.854 -11.651 -11.361  1.00  0.00     0.037 C 
ENDBRANCH   8  10
ENDBRANCH   1   8
BRANCH   6  14
HETATM   14  C11 UNL     1       1.757 -12.293  -5.568  1.00  0.00    -0.095 C 
HETATM   15  C12 UNL     1       1.684 -13.225  -4.816  1.00  0.00    -0.091 C 
BRANCH  15  16
HETATM   16  C13 UNL     1       1.619 -14.360  -3.884  1.00  0.00     0.208 C 
HETATM   17 CL1  UNL     1       0.243 -14.169  -2.804  1.00  0.00    -0.117 Cl
ENDBRANCH  15  16
ENDBRANCH   6  14
TORSDOF 4
ENDMDL
MODEL 5
REMARK VINA RESULT: -5.791844823      2.973      5.572
REMARK  4 active torsions:
REMARK  status: ('A' for Active; 'I' for Inactive)
REMARK    1  A    between atoms: C2_2  and  N1_5 
REMARK    2  A    between atoms: N1_5  and  C5_7 
REMARK    3  A    between atoms: C10_12  and  C11_13 
REMARK    4  A    between atoms: C12_14  and  C13_15 
ROOT
HETATM    1  C5  UNL     1       2.877 -10.253  -6.546  1.00  0.00     0.079 C 
HETATM    2  C6  UNL     1       1.484  -9.805  -6.366  1.00  0.00     0.025 C 
HETATM    3  C7  UNL     1       0.493 -10.433  -7.316  1.00  0.00     0.008 C 
HETATM    4  C8  UNL     1       1.061 -10.980  -8.571  1.00  0.00     0.008 A 
HETATM    5  C9  UNL     1       1.068 -12.514  -8.677  1.00  0.00     0.029 A 
HETATM    6  C10 UNL     1       2.324 -11.740  -8.474  1.00  0.00     0.029 A 
HETATM    7  C14 UNL     1       2.852 -11.698  -7.089  1.00  0.00     0.047 C 
ENDROOT
BRANCH   1   8
HETATM    8  N1  UNL     1       3.755 -10.255  -5.459  1.00  0.00    -0.409 N 
ATOM      9  H1  UNL     1       4.693  -9.872  -5.576  1.00  0.00     0.154 HD
BRANCH   8  10
HETATM   10  C2  UNL     1       3.374 -10.774  -4.207  1.00  0.00     0.015 C 
HETATM   11  C1  UNL     1       2.310 -11.837  -4.200  1.00  0.00     0.037 C 
HETATM   12  C3  UNL     1       2.923  -9.671  -3.254  1.00  0.00     0.037 C 
HETATM   13  C4  UNL     1       4.612 -11.371  -3.560  1.00  0.00     0.037 C 
ENDBRANCH   8  10
ENDBRANCH   1   8
BRANCH   6  14
HETATM   14  C11 UNL     1       3.217 -11.625  -9.635  1.00  0.00    -0.095 C 
HETATM   15  C12 UNL     1       3.940 -11.555 -10.590  1.00  0.00    -0.091 C 
BRANCH  15  16
HETATM   16  C13 UNL     1       4.836 -11.494 -11.755  1.00  0.00     0.208 C 
HETATM   17 CL1  UNL     1       4.003 -12.102 -13.181  1.00  0.00    -0.117 Cl
ENDBRANCH  15  16
ENDBRANCH   6  14
TORSDOF 4
ENDMDL
