MODEL 1
REMARK VINA RESULT: -5.891417199      0.000      0.000
REMARK  2 active torsions:
REMARK  status: ('A' for Active; 'I' for Inactive)
REMARK    1  A    between atoms: C2_2  and  C4_5 
REMARK       I    between atoms: C4_5  and  N1_7 
REMARK    2  A    between atoms: N1_7  and  C5_9 
ROOT
HETATM    1  C5  UNL     1       3.005 -11.456  -3.913  1.00  0.00     0.100 C 
HETATM    2  C6  UNL     1       2.464 -12.598  -3.118  1.00  0.00    -0.026 C 
HETATM    3  C7  UNL     1       1.497 -13.424  -3.984  1.00  0.00     0.017 C 
HETATM    4  C8  UNL     1       1.626 -12.127  -1.932  1.00  0.00     0.017 C 
HETATM    5  C9  UNL     1       3.474 -13.543  -2.580  1.00  0.00     0.011 C 
HETATM    6  C10 UNL     1       4.716 -12.874  -2.036  1.00  0.00     0.002 C 
HETATM    7  C11 UNL     1       5.325 -12.173  -3.228  1.00  0.00     0.011 C 
HETATM    8  C12 UNL     1       4.422 -11.093  -3.677  1.00  0.00    -0.026 C 
HETATM    9  C13 UNL     1       5.028 -10.529  -4.973  1.00  0.00     0.017 C 
HETATM   10  C14 UNL     1       4.553  -9.950  -2.664  1.00  0.00     0.017 C 
ENDROOT
BRANCH   1  11
HETATM   11  N1  UNL     1       2.809 -11.628  -5.340  1.00  0.00    -0.353 N 
HETATM   12  C4  UNL     1       2.061 -10.730  -6.146  1.00  0.00     0.241 C 
HETATM   13  O1  UNL     1       1.557  -9.744  -5.554  1.00  0.00    -0.271 OA
ATOM     14  H1  UNL     1       3.232 -12.440  -5.789  1.00  0.00     0.163 HD
BRANCH  12  15
HETATM   15  C2  UNL     1       1.846 -10.874  -7.577  1.00  0.00     0.110 C 
HETATM   16  C1  UNL     1       1.554 -12.336  -7.869  1.00  0.00     0.042 C 
HETATM   17  C3  UNL     1       3.015 -10.432  -8.419  1.00  0.00     0.042 C 
HETATM   18 CL1  UNL     1       0.417  -9.951  -8.086  1.00  0.00    -0.110 Cl
ENDBRANCH  12  15
ENDBRANCH   1  11
TORSDOF 2
ENDMDL
MODEL 2
REMARK VINA RESULT: -5.863935457      0.802      1.102
REMARK  2 active torsions:
REMARK  status: ('A' for Active; 'I' for Inactive)
REMARK    1  A    between atoms: C2_2  and  C4_5 
REMARK       I    between atoms: C4_5  and  N1_7 
REMARK    2  A    between atoms: N1_7  and  C5_9 
ROOT
HETATM    1  C5  UNL     1       3.021 -11.443  -3.922  1.00  0.00     0.100 C 
HETATM    2  C6  UNL     1       2.465 -12.577  -3.126  1.00  0.00    -0.026 C 
HETATM    3  C7  UNL     1       1.503 -13.403  -3.997  1.00  0.00     0.017 C 
HETATM    4  C8  UNL     1       1.617 -12.093  -1.952  1.00  0.00     0.017 C 
HETATM    5  C9  UNL     1       3.464 -13.523  -2.571  1.00  0.00     0.011 C 
HETATM    6  C10 UNL     1       4.703 -12.858  -2.018  1.00  0.00     0.002 C 
HETATM    7  C11 UNL     1       5.329 -12.167  -3.207  1.00  0.00     0.011 C 
HETATM    8  C12 UNL     1       4.437 -11.086  -3.674  1.00  0.00    -0.026 C 
HETATM    9  C13 UNL     1       5.060 -10.534  -4.967  1.00  0.00     0.017 C 
HETATM   10  C14 UNL     1       4.564  -9.937  -2.667  1.00  0.00     0.017 C 
ENDROOT
BRANCH   1  11
HETATM   11  N1  UNL     1       2.839 -11.623  -5.350  1.00  0.00    -0.353 N 
HETATM   12  C4  UNL     1       2.065 -10.753  -6.162  1.00  0.00     0.241 C 
HETATM   13  O1  UNL     1       1.523  -9.785  -5.574  1.00  0.00    -0.271 OA
ATOM     14  H1  UNL     1       3.293 -12.421  -5.796  1.00  0.00     0.163 HD
BRANCH  12  15
HETATM   15  C2  UNL     1       1.863 -10.907  -7.594  1.00  0.00     0.110 C 
HETATM   16  C1  UNL     1       3.114 -10.420  -8.306  1.00  0.00     0.042 C 
HETATM   17  C3  UNL     1       0.673 -10.153  -8.129  1.00  0.00     0.042 C 
HETATM   18 CL1  UNL     1       1.665 -12.621  -8.012  1.00  0.00    -0.110 Cl
ENDBRANCH  12  15
ENDBRANCH   1  11
TORSDOF 2
ENDMDL
MODEL 3
REMARK VINA RESULT: -5.834700319      0.788      1.082
REMARK  2 active torsions:
REMARK  status: ('A' for Active; 'I' for Inactive)
REMARK    1  A    between atoms: C2_2  and  C4_5 
REMARK       I    between atoms: C4_5  and  N1_7 
REMARK    2  A    between atoms: N1_7  and  C5_9 
ROOT
HETATM    1  C5  UNL     1       3.030 -11.369  -3.866  1.00  0.00     0.100 C 
HETATM    2  C6  UNL     1       2.460 -12.474  -3.039  1.00  0.00    -0.026 C 
HETATM    3  C7  UNL     1       1.472 -13.298  -3.881  1.00  0.00     0.017 C 
HETATM    4  C8  UNL     1       1.637 -11.948  -1.867  1.00  0.00     0.017 C 
HETATM    5  C9  UNL     1       3.447 -13.428  -2.474  1.00  0.00     0.011 C 
HETATM    6  C10 UNL     1       4.706 -12.776  -1.950  1.00  0.00     0.002 C 
HETATM    7  C11 UNL     1       5.331 -12.125  -3.161  1.00  0.00     0.011 C 
HETATM    8  C12 UNL     1       4.456 -11.035  -3.640  1.00  0.00    -0.026 C 
HETATM    9  C13 UNL     1       5.075 -10.524  -4.952  1.00  0.00     0.017 C 
HETATM   10  C14 UNL     1       4.617  -9.868  -2.660  1.00  0.00     0.017 C 
ENDROOT
BRANCH   1  11
HETATM   11  N1  UNL     1       2.828 -11.576  -5.287  1.00  0.00    -0.353 N 
HETATM   12  C4  UNL     1       2.038 -10.724  -6.103  1.00  0.00     0.241 C 
HETATM   13  O1  UNL     1       1.501  -9.748  -5.525  1.00  0.00    -0.271 OA
ATOM     14  H1  UNL     1       3.280 -12.379  -5.725  1.00  0.00     0.163 HD
BRANCH  12  15
HETATM   15  C2  UNL     1       1.816 -10.904  -7.529  1.00  0.00     0.110 C 
HETATM   16  C1  UNL     1       0.596 -10.092  -7.927  1.00  0.00     0.042 C 
HETATM   17  C3  UNL     1       1.603 -12.339  -7.938  1.00  0.00     0.042 C 
HETATM   18 CL1  UNL     1       3.188 -10.264  -8.456  1.00  0.00    -0.110 Cl
ENDBRANCH  12  15
ENDBRANCH   1  11
TORSDOF 2
ENDMDL
MODEL 4
REMARK VINA RESULT: -5.457798110      1.439      2.914
REMARK  2 active torsions:
REMARK  status: ('A' for Active; 'I' for Inactive)
REMARK    1  A    between atoms: C2_2  and  C4_5 
REMARK       I    between atoms: C4_5  and  N1_7 
REMARK    2  A    between atoms: N1_7  and  C5_9 
ROOT
HETATM    1  C5  UNL     1       2.718 -11.673  -4.157  1.00  0.00     0.100 C 
HETATM    2  C6  UNL     1       2.666 -10.440  -3.315  1.00  0.00    -0.026 C 
HETATM    3  C7  UNL     1       2.120  -9.266  -4.145  1.00  0.00     0.017 C 
HETATM    4  C8  UNL     1       4.053  -9.994  -2.864  1.00  0.00     0.017 C 
HETATM    5  C9  UNL     1       1.826 -10.531  -2.094  1.00  0.00     0.011 C 
HETATM    6  C10 UNL     1       1.952 -11.844  -1.356  1.00  0.00     0.002 C 
HETATM    7  C11 UNL     1       1.458 -12.882  -2.337  1.00  0.00     0.011 C 
HETATM    8  C12 UNL     1       2.382 -12.951  -3.488  1.00  0.00    -0.026 C 
HETATM    9  C13 UNL     1       1.740 -13.908  -4.506  1.00  0.00     0.017 C 
HETATM   10  C14 UNL     1       3.638 -13.688  -3.008  1.00  0.00     0.017 C 
ENDROOT
BRANCH   1  11
HETATM   11  N1  UNL     1       1.914 -11.561  -5.359  1.00  0.00    -0.353 N 
HETATM   12  C4  UNL     1       2.432 -11.159  -6.618  1.00  0.00     0.241 C 
HETATM   13  O1  UNL     1       3.659 -10.893  -6.652  1.00  0.00    -0.271 OA
ATOM     14  H1  UNL     1       0.921 -11.784  -5.296  1.00  0.00     0.163 HD
BRANCH  12  15
HETATM   15  C2  UNL     1       1.653 -11.036  -7.841  1.00  0.00     0.110 C 
HETATM   16  C1  UNL     1       0.489 -10.099  -7.571  1.00  0.00     0.042 C 
HETATM   17  C3  UNL     1       1.116 -12.346  -8.357  1.00  0.00     0.042 C 
HETATM   18 CL1  UNL     1       2.628 -10.293  -9.125  1.00  0.00    -0.110 Cl
ENDBRANCH  12  15
ENDBRANCH   1  11
TORSDOF 2
ENDMDL
MODEL 5
REMARK VINA RESULT: -5.413476476      1.429      2.909
REMARK  2 active torsions:
REMARK  status: ('A' for Active; 'I' for Inactive)
REMARK    1  A    between atoms: C2_2  and  C4_5 
REMARK       I    between atoms: C4_5  and  N1_7 
REMARK    2  A    between atoms: N1_7  and  C5_9 
ROOT
HETATM    1  C5  UNL     1       2.803 -11.593  -4.146  1.00  0.00     0.100 C 
HETATM    2  C6  UNL     1       2.743 -10.345  -3.328  1.00  0.00    -0.026 C 
HETATM    3  C7  UNL     1       2.185  -9.191  -4.178  1.00  0.00     0.017 C 
HETATM    4  C8  UNL     1       4.129  -9.878  -2.890  1.00  0.00     0.017 C 
HETATM    5  C9  UNL     1       1.909 -10.420  -2.102  1.00  0.00     0.011 C 
HETATM    6  C10 UNL     1       2.049 -11.717  -1.340  1.00  0.00     0.002 C 
HETATM    7  C11 UNL     1       1.560 -12.778  -2.298  1.00  0.00     0.011 C 
HETATM    8  C12 UNL     1       2.481 -12.861  -3.451  1.00  0.00    -0.026 C 
HETATM    9  C13 UNL     1       1.843 -13.843  -4.449  1.00  0.00     0.017 C 
HETATM   10  C14 UNL     1       3.745 -13.578  -2.963  1.00  0.00     0.017 C 
ENDROOT
BRANCH   1  11
HETATM   11  N1  UNL     1       1.994 -11.511  -5.347  1.00  0.00    -0.353 N 
HETATM   12  C4  UNL     1       2.497 -11.100  -6.609  1.00  0.00     0.241 C 
HETATM   13  O1  UNL     1       3.715 -10.798  -6.647  1.00  0.00    -0.271 OA
ATOM     14  H1  UNL     1       1.008 -11.763  -5.281  1.00  0.00     0.163 HD
BRANCH  12  15
HETATM   15  C2  UNL     1       1.712 -11.007  -7.831  1.00  0.00     0.110 C 
HETATM   16  C1  UNL     1       2.602 -10.443  -8.926  1.00  0.00     0.042 C 
HETATM   17  C3  UNL     1       0.485 -10.142  -7.705  1.00  0.00     0.042 C 
HETATM   18 CL1  UNL     1       1.199 -12.621  -8.362  1.00  0.00    -0.110 Cl
ENDBRANCH  12  15
ENDBRANCH   1  11
TORSDOF 2
ENDMDL
