MODEL 1
REMARK VINA RESULT: -5.029551088      0.000      0.000
REMARK  2 active torsions:
REMARK  status: ('A' for Active; 'I' for Inactive)
REMARK    1  A    between atoms: N2_6  and  C4_7 
REMARK    2  A    between atoms: C7_19  and  N6_20 
ROOT
HETATM    1  C1  UNL     1      -2.734   0.242   2.136  1.00  0.00     0.021 C 
HETATM    2  C2  UNL     1      -1.550   0.021   2.269  1.00  0.00    -0.039 C 
HETATM    3  C3  UNL     1      -0.146  -0.261   2.439  1.00  0.00     0.190 A 
HETATM    4  N1  UNL     1       0.813  -0.305   1.499  1.00  0.00    -0.258 N 
ATOM      5  H1  UNL     1       0.670  -0.140   0.503  1.00  0.00     0.190 HD
HETATM    6  N2  UNL     1       1.969  -0.596   2.064  1.00  0.00    -0.084 N 
HETATM    7  C7  UNL     1       1.791  -0.749   3.397  1.00  0.00     0.697 A 
HETATM    8  N7  UNL     1       0.487  -0.539   3.607  1.00  0.00    -0.166 N 
ATOM      9  H7  UNL     1       0.031  -0.582   4.519  1.00  0.00     0.186 HD
ENDROOT
BRANCH   6  10
HETATM   10  C4  UNL     1       3.244  -0.734   1.377  1.00  0.00     0.340 C 
HETATM   11  O1  UNL     1       4.091   0.322   1.855  1.00  0.00    -0.286 OA
HETATM   12  C5  UNL     1       3.939   1.420   1.002  1.00  0.00     0.220 C 
HETATM   13  N3  UNL     1       4.298   2.611   1.295  1.00  0.00    -0.365 N 
HETATM   14  N4  UNL     1       3.325   0.947  -0.210  1.00  0.00    -0.309 N 
ATOM     15  H32 UNL     1       4.734   2.947   2.154  1.00  0.00     0.159 HD
ATOM     16  H31 UNL     1       4.188   3.412   0.672  1.00  0.00     0.159 HD
HETATM   17  C6  UNL     1       3.105  -0.454  -0.083  1.00  0.00     0.131 C 
ATOM     18  H4  UNL     1       3.087   1.518  -1.022  1.00  0.00     0.170 HD
HETATM   19  N5  UNL     1       2.845  -1.272  -1.047  1.00  0.00    -0.385 N 
ATOM     20  H52 UNL     1       2.687  -2.276  -0.956  1.00  0.00     0.157 HD
ATOM     21  H51 UNL     1       2.749  -1.081  -2.044  1.00  0.00     0.157 HD
ENDBRANCH   6  10
BRANCH   7  22
HETATM   22  N6  UNL     1       2.678  -1.035   4.292  1.00  0.00    -0.233 N 
ATOM     23  H62 UNL     1       3.660  -1.257   4.125  1.00  0.00     0.174 HD
ATOM     24  H61 UNL     1       2.558  -1.090   5.303  1.00  0.00     0.174 HD
ENDBRANCH   7  22
TORSDOF 2
ENDMDL
MODEL 2
REMARK VINA RESULT: -4.395831540      1.578      4.911
REMARK  2 active torsions:
REMARK  status: ('A' for Active; 'I' for Inactive)
REMARK    1  A    between atoms: N2_6  and  C4_7 
REMARK    2  A    between atoms: C7_19  and  N6_20 
ROOT
HETATM    1  C1  UNL     1       4.951   3.891   1.352  1.00  0.00     0.021 C 
HETATM    2  C2  UNL     1       4.364   2.836   1.241  1.00  0.00    -0.039 C 
HETATM    3  C3  UNL     1       3.684   1.572   1.100  1.00  0.00     0.190 A 
HETATM    4  N1  UNL     1       3.068   0.849   2.050  1.00  0.00    -0.258 N 
ATOM      5  H1  UNL     1       2.996   1.108   3.034  1.00  0.00     0.190 HD
HETATM    6  N2  UNL     1       2.569  -0.247   1.512  1.00  0.00    -0.084 N 
HETATM    7  C7  UNL     1       2.850  -0.266   0.188  1.00  0.00     0.697 A 
HETATM    8  N7  UNL     1       3.535   0.859  -0.045  1.00  0.00    -0.166 N 
ATOM      9  H7  UNL     1       3.894   1.142  -0.957  1.00  0.00     0.186 HD
ENDROOT
BRANCH   6  10
HETATM   10  C4  UNL     1       1.829  -1.283   2.218  1.00  0.00     0.340 C 
HETATM   11  O1  UNL     1       0.509  -1.308   1.656  1.00  0.00    -0.286 OA
HETATM   12  C5  UNL     1      -0.300  -0.451   2.411  1.00  0.00     0.220 C 
HETATM   13  N3  UNL     1      -1.430  -0.000   2.018  1.00  0.00    -0.365 N 
HETATM   14  N4  UNL     1       0.378  -0.197   3.654  1.00  0.00    -0.309 N 
ATOM     15  H32 UNL     1      -1.910  -0.180   1.136  1.00  0.00     0.159 HD
ATOM     16  H31 UNL     1      -2.019   0.624   2.569  1.00  0.00     0.159 HD
HETATM   17  C6  UNL     1       1.609  -0.913   3.648  1.00  0.00     0.131 C 
ATOM     18  H4  UNL     1       0.035   0.393   4.412  1.00  0.00     0.170 HD
HETATM   19  N5  UNL     1       2.346  -1.166   4.676  1.00  0.00    -0.385 N 
ATOM     20  H52 UNL     1       3.228  -1.677   4.672  1.00  0.00     0.157 HD
ATOM     21  H51 UNL     1       2.196  -0.912   5.653  1.00  0.00     0.157 HD
ENDBRANCH   6  10
BRANCH   7  22
HETATM   22  N6  UNL     1       2.533  -1.168  -0.680  1.00  0.00    -0.233 N 
ATOM     23  H62 UNL     1       2.248  -2.127  -0.484  1.00  0.00     0.174 HD
ATOM     24  H61 UNL     1       2.511  -1.083  -1.696  1.00  0.00     0.174 HD
ENDBRANCH   7  22
TORSDOF 2
ENDMDL
MODEL 3
REMARK VINA RESULT: -3.704775865      2.216      3.858
REMARK  2 active torsions:
REMARK  status: ('A' for Active; 'I' for Inactive)
REMARK    1  A    between atoms: N2_6  and  C4_7 
REMARK    2  A    between atoms: C7_19  and  N6_20 
ROOT
HETATM    1  C1  UNL     1       2.333   1.141  -2.402  1.00  0.00     0.021 C 
HETATM    2  C2  UNL     1       1.927   0.983  -1.270  1.00  0.00    -0.039 C 
HETATM    3  C3  UNL     1       1.425   0.791   0.068  1.00  0.00     0.190 A 
HETATM    4  N1  UNL     1       1.848  -0.081   0.998  1.00  0.00    -0.258 N 
ATOM      5  H1  UNL     1       2.609  -0.748   0.877  1.00  0.00     0.190 HD
HETATM    6  N2  UNL     1       1.126   0.062   2.093  1.00  0.00    -0.084 N 
HETATM    7  C7  UNL     1       0.207   1.037   1.902  1.00  0.00     0.697 A 
HETATM    8  N7  UNL     1       0.407   1.473   0.653  1.00  0.00    -0.166 N 
ATOM      9  H7  UNL     1      -0.130   2.214   0.203  1.00  0.00     0.186 HD
ENDROOT
BRANCH   6  10
HETATM   10  C4  UNL     1       1.280  -0.703   3.322  1.00  0.00     0.340 C 
HETATM   11  O1  UNL     1       2.345  -0.089   4.063  1.00  0.00    -0.286 OA
HETATM   12  C5  UNL     1       3.541  -0.727   3.713  1.00  0.00     0.220 C 
HETATM   13  N3  UNL     1       4.703  -0.247   3.940  1.00  0.00    -0.365 N 
HETATM   14  N4  UNL     1       3.199  -1.971   3.075  1.00  0.00    -0.309 N 
ATOM     15  H32 UNL     1       4.945   0.636   4.393  1.00  0.00     0.159 HD
ATOM     16  H31 UNL     1       5.574  -0.712   3.685  1.00  0.00     0.159 HD
HETATM   17  C6  UNL     1       1.780  -2.082   3.042  1.00  0.00     0.131 C 
ATOM     18  H4  UNL     1       3.860  -2.656   2.709  1.00  0.00     0.170 HD
HETATM   19  N5  UNL     1       1.108  -3.161   2.816  1.00  0.00    -0.385 N 
ATOM     20  H52 UNL     1       0.091  -3.240   2.792  1.00  0.00     0.157 HD
ATOM     21  H51 UNL     1       1.449  -4.102   2.625  1.00  0.00     0.157 HD
ENDBRANCH   6  10
BRANCH   7  22
HETATM   22  N6  UNL     1      -0.680   1.470   2.735  1.00  0.00    -0.233 N 
ATOM     23  H62 UNL     1      -0.570   1.566   3.744  1.00  0.00     0.174 HD
ATOM     24  H61 UNL     1      -1.629   1.786   2.536  1.00  0.00     0.174 HD
ENDBRANCH   7  22
TORSDOF 2
ENDMDL
MODEL 4
REMARK VINA RESULT: -3.217486915      1.601      2.132
REMARK  2 active torsions:
REMARK  status: ('A' for Active; 'I' for Inactive)
REMARK    1  A    between atoms: N2_6  and  C4_7 
REMARK    2  A    between atoms: C7_19  and  N6_20 
ROOT
HETATM    1  C1  UNL     1      -3.667   0.033   1.384  1.00  0.00     0.021 C 
HETATM    2  C2  UNL     1      -2.503   0.084   1.720  1.00  0.00    -0.039 C 
HETATM    3  C3  UNL     1      -1.119   0.123   2.122  1.00  0.00     0.190 A 
HETATM    4  N1  UNL     1      -0.087   0.713   1.495  1.00  0.00    -0.258 N 
ATOM      5  H1  UNL     1      -0.149   1.231   0.619  1.00  0.00     0.190 HD
HETATM    6  N2  UNL     1       1.017   0.519   2.190  1.00  0.00    -0.084 N 
HETATM    7  C7  UNL     1       0.731  -0.207   3.296  1.00  0.00     0.697 A 
HETATM    8  N7  UNL     1      -0.585  -0.440   3.236  1.00  0.00    -0.166 N 
ATOM      9  H7  UNL     1      -1.114  -0.967   3.931  1.00  0.00     0.186 HD
ENDROOT
BRANCH   6  10
HETATM   10  C4  UNL     1       2.343   1.004   1.838  1.00  0.00     0.340 C 
HETATM   11  O1  UNL     1       2.280   1.429   0.468  1.00  0.00    -0.286 OA
HETATM   12  C5  UNL     1       2.643   0.346  -0.340  1.00  0.00     0.220 C 
HETATM   13  N3  UNL     1       2.405   0.275  -1.593  1.00  0.00    -0.365 N 
HETATM   14  N4  UNL     1       3.305  -0.619   0.498  1.00  0.00    -0.309 N 
ATOM     15  H32 UNL     1       1.935   0.959  -2.188  1.00  0.00     0.159 HD
ATOM     16  H31 UNL     1       2.670  -0.515  -2.182  1.00  0.00     0.159 HD
HETATM   17  C6  UNL     1       3.341  -0.108   1.827  1.00  0.00     0.131 C 
ATOM     18  H4  UNL     1       3.683  -1.515   0.193  1.00  0.00     0.170 HD
HETATM   19  N5  UNL     1       4.088  -0.540   2.787  1.00  0.00    -0.385 N 
ATOM     20  H52 UNL     1       4.113  -0.175   3.738  1.00  0.00     0.157 HD
ATOM     21  H51 UNL     1       4.768  -1.299   2.779  1.00  0.00     0.157 HD
ENDBRANCH   6  10
BRANCH   7  22
HETATM   22  N6  UNL     1       1.541  -0.601   4.222  1.00  0.00    -0.233 N 
ATOM     23  H62 UNL     1       2.461  -1.019   4.087  1.00  0.00     0.174 HD
ATOM     24  H61 UNL     1       1.406  -0.564   5.233  1.00  0.00     0.174 HD
ENDBRANCH   7  22
TORSDOF 2
ENDMDL
MODEL 5
REMARK VINA RESULT: -2.669539900      2.057      4.598
REMARK  2 active torsions:
REMARK  status: ('A' for Active; 'I' for Inactive)
REMARK    1  A    between atoms: N2_6  and  C4_7 
REMARK    2  A    between atoms: C7_19  and  N6_20 
ROOT
HETATM    1  C1  UNL     1       4.831   3.712   1.427  1.00  0.00     0.021 C 
HETATM    2  C2  UNL     1       4.166   2.726   1.190  1.00  0.00    -0.039 C 
HETATM    3  C3  UNL     1       3.392   1.544   0.900  1.00  0.00     0.190 A 
HETATM    4  N1  UNL     1       2.631   0.822   1.739  1.00  0.00    -0.258 N 
ATOM      5  H1  UNL     1       2.495   1.020   2.730  1.00  0.00     0.190 HD
HETATM    6  N2  UNL     1       2.087  -0.185   1.082  1.00  0.00    -0.084 N 
HETATM    7  C7  UNL     1       2.483  -0.143  -0.212  1.00  0.00     0.697 A 
HETATM    8  N7  UNL     1       3.283   0.926  -0.304  1.00  0.00    -0.166 N 
ATOM      9  H7  UNL     1       3.747   1.234  -1.159  1.00  0.00     0.186 HD
ENDROOT
BRANCH   6  10
HETATM   10  C4  UNL     1       1.199  -1.191   1.644  1.00  0.00     0.340 C 
HETATM   11  O1  UNL     1       0.793  -0.712   2.935  1.00  0.00    -0.286 OA
HETATM   12  C5  UNL     1       1.691  -1.213   3.885  1.00  0.00     0.220 C 
HETATM   13  N3  UNL     1       1.813  -0.750   5.070  1.00  0.00    -0.365 N 
HETATM   14  N4  UNL     1       2.407  -2.301   3.275  1.00  0.00    -0.309 N 
ATOM     15  H32 UNL     1       1.304   0.022   5.503  1.00  0.00     0.159 HD
ATOM     16  H31 UNL     1       2.467  -1.115   5.763  1.00  0.00     0.159 HD
HETATM   17  C6  UNL     1       1.934  -2.456   1.941  1.00  0.00     0.131 C 
ATOM     18  H4  UNL     1       3.131  -2.864   3.721  1.00  0.00     0.170 HD
HETATM   19  N5  UNL     1       2.121  -3.485   1.184  1.00  0.00    -0.385 N 
ATOM     20  H52 UNL     1       1.783  -3.597   0.229  1.00  0.00     0.157 HD
ATOM     21  H51 UNL     1       2.623  -4.349   1.387  1.00  0.00     0.157 HD
ENDBRANCH   6  10
BRANCH   7  22
HETATM   22  N6  UNL     1       2.167  -0.951  -1.169  1.00  0.00    -0.233 N 
ATOM     23  H62 UNL     1       2.391  -0.839  -2.157  1.00  0.00     0.174 HD
ATOM     24  H61 UNL     1       1.647  -1.826  -1.107  1.00  0.00     0.174 HD
ENDBRANCH   7  22
TORSDOF 2
ENDMDL
