MODEL 1
REMARK VINA RESULT: -8.210770624      0.000      0.000
REMARK  3 active torsions:
REMARK  status: ('A' for Active; 'I' for Inactive)
REMARK       I    between atoms: C2_2  and  N1_4 
REMARK    1  A    between atoms: C3_6  and  C4_7 
REMARK    2  A    between atoms: C8_14  and  C9_15 
REMARK    3  A    between atoms: C9_15  and  O2_17 
ROOT
HETATM    1  C4  UNL     1     -13.396 -11.037  -9.732  1.00  0.00     0.023 A 
HETATM    2  C5  UNL     1     -14.175 -12.185  -9.878  1.00  0.00     0.100 A 
HETATM    3  N2  UNL     1     -13.866 -13.544  -9.485  1.00  0.00    -0.093 NA
HETATM    4  S1  UNL     1     -15.580 -11.609 -10.632  1.00  0.00    -0.072 SA
HETATM    5  C6  UNL     1     -15.168  -9.963 -10.750  1.00  0.00     0.043 A 
HETATM    6  C7  UNL     1     -15.887  -8.909 -11.270  1.00  0.00     0.077 A 
HETATM    7  N3  UNL     1     -17.172  -9.129 -11.819  1.00  0.00    -0.100 NA
HETATM    8  C8  UNL     1     -15.368  -7.605 -11.268  1.00  0.00     0.025 A 
HETATM    9  C11 UNL     1     -14.124  -7.503 -10.715  1.00  0.00    -0.041 A 
HETATM   10  C12 UNL     1     -13.532  -6.153 -10.529  1.00  0.00     0.050 C 
HETATM   11  C13 UNL     1     -13.400  -8.572 -10.197  1.00  0.00    -0.043 A 
HETATM   12  C14 UNL     1     -12.000  -8.236  -9.803  1.00  0.00     0.049 C 
HETATM   13  C15 UNL     1     -13.914  -9.881 -10.191  1.00  0.00     0.003 A 
ENDROOT
BRANCH   1  14
HETATM   14  C3  UNL     1     -12.112 -11.234  -9.033  1.00  0.00     0.105 C 
HETATM   15  N1  UNL     1     -11.850 -12.347  -8.387  1.00  0.00    -0.337 N 
HETATM   16  C2  UNL     1     -10.618 -12.487  -7.740  1.00  0.00     0.217 C 
ATOM     17  H1  UNL     1     -12.537 -13.100  -8.359  1.00  0.00     0.168 HD
HETATM   18  C1  UNL     1     -10.282 -11.791  -6.480  1.00  0.00     0.117 C 
HETATM   19  O1  UNL     1      -9.744 -13.239  -8.245  1.00  0.00    -0.274 OA
ENDBRANCH   1  14
BRANCH   8  20
HETATM   20  C9  UNL     1     -16.161  -6.564 -11.858  1.00  0.00     0.052 C 
HETATM   21  C10 UNL     1     -16.679  -5.320 -11.285  1.00  0.00     0.077 C 
BRANCH  20  22
HETATM   22  O2  UNL     1     -16.471  -6.743 -13.111  1.00  0.00    -0.364 OA
ATOM     23  H2  UNL     1     -17.357  -6.496 -13.349  1.00  0.00     0.217 HD
ENDBRANCH  20  22
ENDBRANCH   8  20
TORSDOF 3
ENDMDL
MODEL 2
REMARK VINA RESULT: -8.193540236      2.748      7.255
REMARK  3 active torsions:
REMARK  status: ('A' for Active; 'I' for Inactive)
REMARK       I    between atoms: C2_2  and  N1_4 
REMARK    1  A    between atoms: C3_6  and  C4_7 
REMARK    2  A    between atoms: C8_14  and  C9_15 
REMARK    3  A    between atoms: C9_15  and  O2_17 
ROOT
HETATM    1  C4  UNL     1     -16.595  -8.188 -12.082  1.00  0.00     0.023 A 
HETATM    2  C5  UNL     1     -16.273  -6.834 -11.985  1.00  0.00     0.100 A 
HETATM    3  N2  UNL     1     -16.998  -5.692 -12.502  1.00  0.00    -0.093 NA
HETATM    4  S1  UNL     1     -14.818  -6.840 -11.114  1.00  0.00    -0.072 SA
HETATM    5  C6  UNL     1     -14.643  -8.518 -10.893  1.00  0.00     0.043 A 
HETATM    6  C7  UNL     1     -13.654  -9.223 -10.243  1.00  0.00     0.077 A 
HETATM    7  N3  UNL     1     -12.572  -8.538  -9.642  1.00  0.00    -0.100 NA
HETATM    8  C8  UNL     1     -13.694 -10.624 -10.163  1.00  0.00     0.025 A 
HETATM    9  C11 UNL     1     -14.779 -11.184 -10.773  1.00  0.00    -0.041 A 
HETATM   10  C12 UNL     1     -15.004 -12.646 -10.632  1.00  0.00     0.050 C 
HETATM   11  C13 UNL     1     -15.772 -10.467 -11.433  1.00  0.00    -0.043 A 
HETATM   12  C14 UNL     1     -16.763 -11.312 -12.163  1.00  0.00     0.049 C 
HETATM   13  C15 UNL     1     -15.742  -9.064 -11.515  1.00  0.00     0.003 A 
ENDROOT
BRANCH   1  14
HETATM   14  C3  UNL     1     -17.875  -8.483 -12.753  1.00  0.00     0.105 C 
HETATM   15  N1  UNL     1     -19.021  -8.111 -12.230  1.00  0.00    -0.337 N 
HETATM   16  C2  UNL     1     -20.209  -8.413 -12.904  1.00  0.00     0.217 C 
ATOM     17  H1  UNL     1     -19.044  -7.607 -11.344  1.00  0.00     0.168 HD
HETATM   18  C1  UNL     1     -20.785  -9.774 -12.958  1.00  0.00     0.117 C 
HETATM   19  O1  UNL     1     -20.826  -7.492 -13.499  1.00  0.00    -0.274 OA
ENDBRANCH   1  14
BRANCH   8  20
HETATM   20  C9  UNL     1     -12.610 -11.292  -9.500  1.00  0.00     0.052 C 
HETATM   21  C10 UNL     1     -12.560 -11.970  -8.203  1.00  0.00     0.077 C 
BRANCH  20  22
HETATM   22  O2  UNL     1     -11.483 -11.307 -10.153  1.00  0.00    -0.364 OA
ATOM     23  H2  UNL     1     -10.704 -11.203  -9.620  1.00  0.00     0.217 HD
ENDBRANCH  20  22
ENDBRANCH   8  20
TORSDOF 3
ENDMDL
MODEL 3
REMARK VINA RESULT: -8.173621304      1.379      1.494
REMARK  3 active torsions:
REMARK  status: ('A' for Active; 'I' for Inactive)
REMARK       I    between atoms: C2_2  and  N1_4 
REMARK    1  A    between atoms: C3_6  and  C4_7 
REMARK    2  A    between atoms: C8_14  and  C9_15 
REMARK    3  A    between atoms: C9_15  and  O2_17 
ROOT
HETATM    1  C4  UNL     1     -13.287 -11.631 -10.750  1.00  0.00     0.023 A 
HETATM    2  C5  UNL     1     -13.594 -12.868 -11.319  1.00  0.00     0.100 A 
HETATM    3  N2  UNL     1     -12.884 -14.124 -11.192  1.00  0.00    -0.093 NA
HETATM    4  S1  UNL     1     -15.006 -12.551 -12.203  1.00  0.00    -0.072 SA
HETATM    5  C6  UNL     1     -15.180 -10.896 -11.849  1.00  0.00     0.043 A 
HETATM    6  C7  UNL     1     -16.150 -10.006 -12.254  1.00  0.00     0.077 A 
HETATM    7  N3  UNL     1     -17.198 -10.434 -13.102  1.00  0.00    -0.100 NA
HETATM    8  C8  UNL     1     -16.121  -8.664 -11.842  1.00  0.00     0.025 A 
HETATM    9  C11 UNL     1     -15.070  -8.356 -11.028  1.00  0.00    -0.041 A 
HETATM   10  C12 UNL     1     -15.013  -7.004 -10.414  1.00  0.00     0.050 C 
HETATM   11  C13 UNL     1     -14.090  -9.259 -10.626  1.00  0.00    -0.043 A 
HETATM   12  C14 UNL     1     -12.955  -8.645  -9.875  1.00  0.00     0.049 C 
HETATM   13  C15 UNL     1     -14.113 -10.604 -11.031  1.00  0.00     0.003 A 
ENDROOT
BRANCH   1  14
HETATM   14  C3  UNL     1     -12.113 -11.625  -9.857  1.00  0.00     0.105 C 
HETATM   15  N1  UNL     1     -11.809 -12.670  -9.122  1.00  0.00    -0.337 N 
HETATM   16  C2  UNL     1     -10.686 -12.616  -8.290  1.00  0.00     0.217 C 
ATOM     17  H1  UNL     1     -12.385 -13.511  -9.157  1.00  0.00     0.168 HD
HETATM   18  C1  UNL     1     -10.646 -11.840  -7.032  1.00  0.00     0.117 C 
HETATM   19  O1  UNL     1      -9.651 -13.253  -8.618  1.00  0.00    -0.274 OA
ENDBRANCH   1  14
BRANCH   8  20
HETATM   20  C9  UNL     1     -17.145  -7.787 -12.333  1.00  0.00     0.052 C 
HETATM   21  C10 UNL     1     -17.050  -6.565 -13.135  1.00  0.00     0.077 C 
BRANCH  20  22
HETATM   22  O2  UNL     1     -18.365  -8.127 -12.024  1.00  0.00    -0.364 OA
ATOM     23  H2  UNL     1     -18.865  -7.466 -11.560  1.00  0.00     0.217 HD
ENDBRANCH  20  22
ENDBRANCH   8  20
TORSDOF 3
ENDMDL
MODEL 4
REMARK VINA RESULT: -8.155037774      3.513      6.208
REMARK  3 active torsions:
REMARK  status: ('A' for Active; 'I' for Inactive)
REMARK       I    between atoms: C2_2  and  N1_4 
REMARK    1  A    between atoms: C3_6  and  C4_7 
REMARK    2  A    between atoms: C8_14  and  C9_15 
REMARK    3  A    between atoms: C9_15  and  O2_17 
ROOT
HETATM    1  C4  UNL     1     -17.284 -10.523 -12.022  1.00  0.00     0.023 A 
HETATM    2  C5  UNL     1     -16.725 -11.760 -11.700  1.00  0.00     0.100 A 
HETATM    3  N2  UNL     1     -17.283 -13.082 -11.889  1.00  0.00    -0.093 NA
HETATM    4  S1  UNL     1     -15.223 -11.347 -11.028  1.00  0.00    -0.072 SA
HETATM    5  C6  UNL     1     -15.326  -9.654 -11.159  1.00  0.00     0.043 A 
HETATM    6  C7  UNL     1     -14.416  -8.684 -10.796  1.00  0.00     0.077 A 
HETATM    7  N3  UNL     1     -13.183  -9.052 -10.208  1.00  0.00    -0.100 NA
HETATM    8  C8  UNL     1     -14.688  -7.322 -10.996  1.00  0.00     0.025 A 
HETATM    9  C11 UNL     1     -15.903  -7.076 -11.569  1.00  0.00    -0.041 A 
HETATM   10  C12 UNL     1     -16.242  -5.684 -11.959  1.00  0.00     0.050 C 
HETATM   11  C13 UNL     1     -16.820  -8.060 -11.928  1.00  0.00    -0.043 A 
HETATM   12  C14 UNL     1     -18.142  -7.535 -12.381  1.00  0.00     0.049 C 
HETATM   13  C15 UNL     1     -16.554  -9.426 -11.735  1.00  0.00     0.003 A 
ENDROOT
BRANCH   1  14
HETATM   14  C3  UNL     1     -18.595 -10.582 -12.695  1.00  0.00     0.105 C 
HETATM   15  N1  UNL     1     -19.676 -10.956 -12.050  1.00  0.00    -0.337 N 
HETATM   16  C2  UNL     1     -20.897 -10.996 -12.732  1.00  0.00     0.217 C 
ATOM     17  H1  UNL     1     -19.626 -11.214 -11.065  1.00  0.00     0.168 HD
HETATM   18  C1  UNL     1     -21.240 -12.043 -13.718  1.00  0.00     0.117 C 
HETATM   19  O1  UNL     1     -21.754 -10.103 -12.504  1.00  0.00    -0.274 OA
ENDBRANCH   1  14
BRANCH   8  20
HETATM   20  C9  UNL     1     -13.708  -6.368 -10.561  1.00  0.00     0.052 C 
HETATM   21  C10 UNL     1     -12.927  -5.390 -11.321  1.00  0.00     0.077 C 
BRANCH  20  22
HETATM   22  O2  UNL     1     -13.470  -6.361  -9.280  1.00  0.00    -0.364 OA
ATOM     23  H2  UNL     1     -12.679  -5.906  -9.017  1.00  0.00     0.217 HD
ENDBRANCH  20  22
ENDBRANCH   8  20
TORSDOF 3
ENDMDL
MODEL 5
REMARK VINA RESULT: -8.154202218      2.176      3.285
REMARK  3 active torsions:
REMARK  status: ('A' for Active; 'I' for Inactive)
REMARK       I    between atoms: C2_2  and  N1_4 
REMARK    1  A    between atoms: C3_6  and  C4_7 
REMARK    2  A    between atoms: C8_14  and  C9_15 
REMARK    3  A    between atoms: C9_15  and  O2_17 
ROOT
HETATM    1  C4  UNL     1     -13.252  -9.481  -9.860  1.00  0.00     0.023 A 
HETATM    2  C5  UNL     1     -12.412  -8.385  -9.660  1.00  0.00     0.100 A 
HETATM    3  N2  UNL     1     -11.135  -8.337  -8.979  1.00  0.00    -0.093 NA
HETATM    4  S1  UNL     1     -13.247  -7.112 -10.406  1.00  0.00    -0.072 SA
HETATM    5  C6  UNL     1     -14.615  -7.966 -10.945  1.00  0.00     0.043 A 
HETATM    6  C7  UNL     1     -15.712  -7.519 -11.649  1.00  0.00     0.077 A 
HETATM    7  N3  UNL     1     -15.812  -6.157 -12.020  1.00  0.00    -0.100 NA
HETATM    8  C8  UNL     1     -16.749  -8.394 -12.011  1.00  0.00     0.025 A 
HETATM    9  C11 UNL     1     -16.554  -9.683 -11.606  1.00  0.00    -0.041 A 
HETATM   10  C12 UNL     1     -17.512 -10.726 -12.053  1.00  0.00     0.050 C 
HETATM   11  C13 UNL     1     -15.446 -10.127 -10.890  1.00  0.00    -0.043 A 
HETATM   12  C14 UNL     1     -15.541 -11.540 -10.419  1.00  0.00     0.049 C 
HETATM   13  C15 UNL     1     -14.402  -9.259 -10.527  1.00  0.00     0.003 A 
ENDROOT
BRANCH   1  14
HETATM   14  C3  UNL     1     -12.737 -10.768  -9.357  1.00  0.00     0.105 C 
HETATM   15  N1  UNL     1     -11.500 -11.143  -9.586  1.00  0.00    -0.337 N 
HETATM   16  C2  UNL     1     -11.057 -12.373  -9.088  1.00  0.00     0.217 C 
ATOM     17  H1  UNL     1     -10.869 -10.546 -10.120  1.00  0.00     0.168 HD
HETATM   18  C1  UNL     1     -11.457 -13.673  -9.667  1.00  0.00     0.117 C 
HETATM   19  O1  UNL     1     -10.280 -12.388  -8.097  1.00  0.00    -0.274 OA
ENDBRANCH   1  14
BRANCH   8  20
HETATM   20  C9  UNL     1     -17.876  -7.850 -12.714  1.00  0.00     0.052 C 
HETATM   21  C10 UNL     1     -19.296  -7.821 -12.358  1.00  0.00     0.077 C 
BRANCH  20  22
HETATM   22  O2  UNL     1     -17.599  -7.281 -13.853  1.00  0.00    -0.364 OA
ATOM     23  H2  UNL     1     -18.325  -6.832 -14.268  1.00  0.00     0.217 HD
ENDBRANCH  20  22
ENDBRANCH   8  20
TORSDOF 3
ENDMDL
