MODEL 1
REMARK VINA RESULT: -8.584574144      0.000      0.000
REMARK  4 active torsions:
REMARK  status: ('A' for Active; 'I' for Inactive)
REMARK    1  A    between atoms: C7_7  and  N1_8 
REMARK    2  A    between atoms: N1_8  and  N2_10 
REMARK       I    between atoms: N2_10  and  C8_12 
REMARK       I    between atoms: C8_12  and  N3_14 
REMARK       I    between atoms: N3_14  and  C9_16 
REMARK    3  A    between atoms: C9_16  and  C10_18 
REMARK    4  A    between atoms: C13_21  and  N4_22 
ROOT
HETATM    1  N2  UNL     1       8.575  56.648   0.830  1.00  0.00    -0.251 N 
ATOM      2  H2  UNL     1       8.562  57.083   1.753  1.00  0.00     0.191 HD
HETATM    3  C8  UNL     1       8.913  55.282   0.710  1.00  0.00     0.341 C 
HETATM    4  O1  UNL     1       9.869  54.966  -0.047  1.00  0.00    -0.245 OA
HETATM    5  N3  UNL     1       8.166  54.306   1.443  1.00  0.00    -0.274 N 
ATOM      6  H3  UNL     1       7.398  54.608   2.044  1.00  0.00     0.173 HD
HETATM    7  C9  UNL     1       8.477  52.930   1.347  1.00  0.00     0.259 C 
HETATM    8  O2  UNL     1       9.415  52.570   0.607  1.00  0.00    -0.267 OA
ENDROOT
BRANCH   1   9
HETATM    9  N1  UNL     1       8.282  57.352  -0.207  1.00  0.00    -0.296 N 
ATOM     10  H1  UNL     1       8.748  57.166  -1.096  1.00  0.00     0.187 HD
BRANCH   9  11
HETATM   11  C7  UNL     1       7.313  58.388  -0.116  1.00  0.00     0.054 A 
HETATM   12  C2  UNL     1       7.583  59.570  -0.779  1.00  0.00    -0.034 A 
HETATM   13  C1  UNL     1       8.852  59.713  -1.547  1.00  0.00     0.050 C 
HETATM   14  C3  UNL     1       6.643  60.575  -0.690  1.00  0.00     0.009 A 
HETATM   15  C4  UNL     1       5.471  60.384   0.045  1.00  0.00     0.001 A 
HETATM   16  C5  UNL     1       5.215  59.193   0.703  1.00  0.00     0.002 A 
HETATM   17  C6  UNL     1       6.155  58.197   0.611  1.00  0.00     0.031 A 
ENDBRANCH   9  11
ENDBRANCH   1   9
BRANCH   7  18
HETATM   18  C10 UNL     1       7.734  51.943   2.083  1.00  0.00     0.032 A 
HETATM   19  C11 UNL     1       8.367  50.848   2.617  1.00  0.00     0.019 A 
HETATM   20  C12 UNL     1       7.581  49.926   3.328  1.00  0.00     0.037 A 
HETATM   21  C13 UNL     1       6.225  50.093   3.497  1.00  0.00     0.102 A 
HETATM   22  C14 UNL     1       5.613  51.199   2.953  1.00  0.00     0.037 A 
HETATM   23  C15 UNL     1       6.353  52.123   2.249  1.00  0.00     0.019 A 
BRANCH  21  24
HETATM   24  N4  UNL     1       5.477  49.115   4.235  1.00  0.00    -0.116 N 
HETATM   25  O3  UNL     1       4.338  49.397   4.657  1.00  0.00    -0.532 OA
HETATM   26  O4  UNL     1       5.978  47.872   4.491  1.00  0.00    -0.532 OA
ENDBRANCH  21  24
ENDBRANCH   7  18
TORSDOF 4
ENDMDL
MODEL 2
REMARK VINA RESULT: -8.266486949      2.956      4.877
REMARK  4 active torsions:
REMARK  status: ('A' for Active; 'I' for Inactive)
REMARK    1  A    between atoms: C7_7  and  N1_8 
REMARK    2  A    between atoms: N1_8  and  N2_10 
REMARK       I    between atoms: N2_10  and  C8_12 
REMARK       I    between atoms: C8_12  and  N3_14 
REMARK       I    between atoms: N3_14  and  C9_16 
REMARK    3  A    between atoms: C9_16  and  C10_18 
REMARK    4  A    between atoms: C13_21  and  N4_22 
ROOT
HETATM    1  N2  UNL     1       6.119  55.716  -0.076  1.00  0.00    -0.251 N 
ATOM      2  H2  UNL     1       6.250  55.666  -1.086  1.00  0.00     0.191 HD
HETATM    3  C8  UNL     1       6.547  54.640   0.734  1.00  0.00     0.341 C 
HETATM    4  O1  UNL     1       5.704  54.089   1.491  1.00  0.00    -0.245 OA
HETATM    5  N3  UNL     1       7.912  54.214   0.672  1.00  0.00    -0.274 N 
ATOM      6  H3  UNL     1       8.560  54.691   0.045  1.00  0.00     0.173 HD
HETATM    7  C9  UNL     1       8.374  53.140   1.468  1.00  0.00     0.259 C 
HETATM    8  O2  UNL     1       7.576  52.566   2.235  1.00  0.00    -0.267 OA
ENDROOT
BRANCH   1   9
HETATM    9  N1  UNL     1       5.567  56.756   0.443  1.00  0.00    -0.296 N 
ATOM     10  H1  UNL     1       4.765  56.651   1.065  1.00  0.00     0.187 HD
BRANCH   9  11
HETATM   11  C7  UNL     1       6.074  58.052   0.150  1.00  0.00     0.054 A 
HETATM   12  C2  UNL     1       5.313  59.136   0.548  1.00  0.00    -0.034 A 
HETATM   13  C1  UNL     1       4.019  58.911   1.252  1.00  0.00     0.050 C 
HETATM   14  C3  UNL     1       5.804  60.393   0.264  1.00  0.00     0.009 A 
HETATM   15  C4  UNL     1       7.025  60.542  -0.399  1.00  0.00     0.001 A 
HETATM   16  C5  UNL     1       7.775  59.446  -0.790  1.00  0.00     0.002 A 
HETATM   17  C6  UNL     1       7.280  58.198  -0.505  1.00  0.00     0.031 A 
ENDBRANCH   9  11
ENDBRANCH   1   9
BRANCH   7  18
HETATM   18  C10 UNL     1       9.743  52.703   1.410  1.00  0.00     0.032 A 
HETATM   19  C11 UNL     1      10.764  53.617   1.329  1.00  0.00     0.019 A 
HETATM   20  C12 UNL     1      12.078  53.122   1.280  1.00  0.00     0.037 A 
HETATM   21  C13 UNL     1      12.356  51.773   1.310  1.00  0.00     0.102 A 
HETATM   22  C14 UNL     1      11.315  50.877   1.391  1.00  0.00     0.037 A 
HETATM   23  C15 UNL     1      10.015  51.328   1.441  1.00  0.00     0.019 A 
BRANCH  21  24
HETATM   24  N4  UNL     1      13.720  51.330   1.257  1.00  0.00    -0.116 N 
HETATM   25  O3  UNL     1      14.188  50.657   2.197  1.00  0.00    -0.532 OA
HETATM   26  O4  UNL     1      14.529  51.622   0.199  1.00  0.00    -0.532 OA
ENDBRANCH  21  24
ENDBRANCH   7  18
TORSDOF 4
ENDMDL
MODEL 3
REMARK VINA RESULT: -8.223240314      1.431      2.223
REMARK  4 active torsions:
REMARK  status: ('A' for Active; 'I' for Inactive)
REMARK    1  A    between atoms: C7_7  and  N1_8 
REMARK    2  A    between atoms: N1_8  and  N2_10 
REMARK       I    between atoms: N2_10  and  C8_12 
REMARK       I    between atoms: C8_12  and  N3_14 
REMARK       I    between atoms: N3_14  and  C9_16 
REMARK    3  A    between atoms: C9_16  and  C10_18 
REMARK    4  A    between atoms: C13_21  and  N4_22 
ROOT
HETATM    1  N2  UNL     1       5.885  56.565   1.666  1.00  0.00    -0.251 N 
ATOM      2  H2  UNL     1       5.722  56.889   2.619  1.00  0.00     0.191 HD
HETATM    3  C8  UNL     1       6.691  55.425   1.446  1.00  0.00     0.341 C 
HETATM    4  O1  UNL     1       7.693  55.537   0.691  1.00  0.00    -0.245 OA
HETATM    5  N3  UNL     1       6.348  54.190   2.081  1.00  0.00    -0.274 N 
ATOM      6  H3  UNL     1       5.526  54.145   2.685  1.00  0.00     0.173 HD
HETATM    7  C9  UNL     1       7.132  53.029   1.884  1.00  0.00     0.259 C 
HETATM    8  O2  UNL     1       8.132  53.092   1.142  1.00  0.00    -0.267 OA
ENDROOT
BRANCH   1   9
HETATM    9  N1  UNL     1       5.355  57.201   0.680  1.00  0.00    -0.296 N 
ATOM     10  H1  UNL     1       4.588  56.778   0.156  1.00  0.00     0.187 HD
BRANCH   9  11
HETATM   11  C7  UNL     1       5.836  58.489   0.321  1.00  0.00     0.054 A 
HETATM   12  C2  UNL     1       5.073  59.579   0.696  1.00  0.00    -0.034 A 
HETATM   13  C1  UNL     1       3.802  59.369   1.445  1.00  0.00     0.050 C 
HETATM   14  C3  UNL     1       5.540  60.829   0.348  1.00  0.00     0.009 A 
HETATM   15  C4  UNL     1       6.739  60.966  -0.355  1.00  0.00     0.001 A 
HETATM   16  C5  UNL     1       7.492  59.864  -0.723  1.00  0.00     0.002 A 
HETATM   17  C6  UNL     1       7.022  58.623  -0.373  1.00  0.00     0.031 A 
ENDBRANCH   9  11
ENDBRANCH   1   9
BRANCH   7  18
HETATM   18  C10 UNL     1       6.796  51.785   2.521  1.00  0.00     0.032 A 
HETATM   19  C11 UNL     1       7.750  50.813   2.699  1.00  0.00     0.019 A 
HETATM   20  C12 UNL     1       7.354  49.623   3.333  1.00  0.00     0.037 A 
HETATM   21  C13 UNL     1       6.065  49.416   3.768  1.00  0.00     0.102 A 
HETATM   22  C14 UNL     1       5.127  50.405   3.579  1.00  0.00     0.037 A 
HETATM   23  C15 UNL     1       5.480  51.585   2.961  1.00  0.00     0.019 A 
BRANCH  21  24
HETATM   24  N4  UNL     1       5.723  48.178   4.409  1.00  0.00    -0.116 N 
HETATM   25  O3  UNL     1       6.621  47.365   4.702  1.00  0.00    -0.532 OA
HETATM   26  O4  UNL     1       4.431  47.860   4.715  1.00  0.00    -0.532 OA
ENDBRANCH  21  24
ENDBRANCH   7  18
TORSDOF 4
ENDMDL
MODEL 4
REMARK VINA RESULT: -8.221861512      2.915      4.787
REMARK  4 active torsions:
REMARK  status: ('A' for Active; 'I' for Inactive)
REMARK    1  A    between atoms: C7_7  and  N1_8 
REMARK    2  A    between atoms: N1_8  and  N2_10 
REMARK       I    between atoms: N2_10  and  C8_12 
REMARK       I    between atoms: C8_12  and  N3_14 
REMARK       I    between atoms: N3_14  and  C9_16 
REMARK    3  A    between atoms: C9_16  and  C10_18 
REMARK    4  A    between atoms: C13_21  and  N4_22 
ROOT
HETATM    1  N2  UNL     1       5.857  55.788   0.113  1.00  0.00    -0.251 N 
ATOM      2  H2  UNL     1       5.922  55.698  -0.901  1.00  0.00     0.191 HD
HETATM    3  C8  UNL     1       6.303  54.730   0.935  1.00  0.00     0.341 C 
HETATM    4  O1  UNL     1       5.493  54.233   1.763  1.00  0.00    -0.245 OA
HETATM    5  N3  UNL     1       7.647  54.258   0.806  1.00  0.00    -0.274 N 
ATOM      6  H3  UNL     1       8.269  54.691   0.122  1.00  0.00     0.173 HD
HETATM    7  C9  UNL     1       8.127  53.200   1.613  1.00  0.00     0.259 C 
HETATM    8  O2  UNL     1       7.362  52.680   2.449  1.00  0.00    -0.267 OA
ENDROOT
BRANCH   1   9
HETATM    9  N1  UNL     1       5.369  56.864   0.624  1.00  0.00    -0.296 N 
ATOM     10  H1  UNL     1       4.597  56.807   1.288  1.00  0.00     0.187 HD
BRANCH   9  11
HETATM   11  C7  UNL     1       5.906  58.131   0.265  1.00  0.00     0.054 A 
HETATM   12  C2  UNL     1       5.178  59.251   0.617  1.00  0.00    -0.034 A 
HETATM   13  C1  UNL     1       3.886  59.095   1.343  1.00  0.00     0.050 C 
HETATM   14  C3  UNL     1       5.699  60.480   0.268  1.00  0.00     0.009 A 
HETATM   15  C4  UNL     1       6.915  60.565  -0.412  1.00  0.00     0.001 A 
HETATM   16  C5  UNL     1       7.632  59.433  -0.757  1.00  0.00     0.002 A 
HETATM   17  C6  UNL     1       7.108  58.213  -0.408  1.00  0.00     0.031 A 
ENDBRANCH   9  11
ENDBRANCH   1   9
BRANCH   7  18
HETATM   18  C10 UNL     1       9.476  52.718   1.487  1.00  0.00     0.032 A 
HETATM   19  C11 UNL     1       9.746  51.374   1.566  1.00  0.00     0.019 A 
HETATM   20  C12 UNL     1      11.085  50.972   1.430  1.00  0.00     0.037 A 
HETATM   21  C13 UNL     1      12.106  51.873   1.225  1.00  0.00     0.102 A 
HETATM   22  C14 UNL     1      11.810  53.214   1.149  1.00  0.00     0.037 A 
HETATM   23  C15 UNL     1      10.508  53.644   1.278  1.00  0.00     0.019 A 
BRANCH  21  24
HETATM   24  N4  UNL     1      13.454  51.399   1.093  1.00  0.00    -0.116 N 
HETATM   25  O3  UNL     1      14.084  51.611   0.038  1.00  0.00    -0.532 OA
HETATM   26  O4  UNL     1      14.077  50.716   2.098  1.00  0.00    -0.532 OA
ENDBRANCH  21  24
ENDBRANCH   7  18
TORSDOF 4
ENDMDL
MODEL 5
REMARK VINA RESULT: -8.163519270      1.705      2.368
REMARK  4 active torsions:
REMARK  status: ('A' for Active; 'I' for Inactive)
REMARK    1  A    between atoms: C7_7  and  N1_8 
REMARK    2  A    between atoms: N1_8  and  N2_10 
REMARK       I    between atoms: N2_10  and  C8_12 
REMARK       I    between atoms: C8_12  and  N3_14 
REMARK       I    between atoms: N3_14  and  C9_16 
REMARK    3  A    between atoms: C9_16  and  C10_18 
REMARK    4  A    between atoms: C13_21  and  N4_22 
ROOT
HETATM    1  N2  UNL     1       8.166  56.540   0.979  1.00  0.00    -0.251 N 
ATOM      2  H2  UNL     1       7.609  56.693   1.820  1.00  0.00     0.191 HD
HETATM    3  C8  UNL     1       9.205  55.583   0.998  1.00  0.00     0.341 C 
HETATM    4  O1  UNL     1      10.369  55.957   0.694  1.00  0.00    -0.245 OA
HETATM    5  N3  UNL     1       8.908  54.230   1.358  1.00  0.00    -0.274 N 
ATOM      6  H3  UNL     1       7.950  53.972   1.596  1.00  0.00     0.173 HD
HETATM    7  C9  UNL     1       9.924  53.246   1.388  1.00  0.00     0.259 C 
HETATM    8  O2  UNL     1      11.091  53.570   1.092  1.00  0.00    -0.267 OA
ENDROOT
BRANCH   1   9
HETATM    9  N1  UNL     1       7.914  57.221  -0.082  1.00  0.00    -0.296 N 
ATOM     10  H1  UNL     1       8.324  56.945  -0.975  1.00  0.00     0.187 HD
BRANCH   9  11
HETATM   11  C7  UNL     1       7.063  58.359  -0.014  1.00  0.00     0.054 A 
HETATM   12  C2  UNL     1       7.484  59.506  -0.660  1.00  0.00    -0.034 A 
HETATM   13  C1  UNL     1       8.784  59.509  -1.388  1.00  0.00     0.050 C 
HETATM   14  C3  UNL     1       6.659  60.609  -0.593  1.00  0.00     0.009 A 
HETATM   15  C4  UNL     1       5.450  60.547   0.105  1.00  0.00     0.001 A 
HETATM   16  C5  UNL     1       5.043  59.390   0.746  1.00  0.00     0.002 A 
HETATM   17  C6  UNL     1       5.869  58.296   0.676  1.00  0.00     0.031 A 
ENDBRANCH   9  11
ENDBRANCH   1   9
BRANCH   7  18
HETATM   18  C10 UNL     1       9.634  51.885   1.752  1.00  0.00     0.032 A 
HETATM   19  C11 UNL     1       8.555  51.591   2.548  1.00  0.00     0.019 A 
HETATM   20  C12 UNL     1       8.328  50.240   2.861  1.00  0.00     0.037 A 
HETATM   21  C13 UNL     1       9.143  49.232   2.398  1.00  0.00     0.102 A 
HETATM   22  C14 UNL     1      10.218  49.552   1.601  1.00  0.00     0.037 A 
HETATM   23  C15 UNL     1      10.471  50.866   1.275  1.00  0.00     0.019 A 
BRANCH  21  24
HETATM   24  N4  UNL     1       8.857  47.870   2.752  1.00  0.00    -0.116 N 
HETATM   25  O3  UNL     1       9.586  46.954   2.324  1.00  0.00    -0.532 OA
HETATM   26  O4  UNL     1       7.802  47.543   3.553  1.00  0.00    -0.532 OA
ENDBRANCH  21  24
ENDBRANCH   7  18
TORSDOF 4
ENDMDL
