MODEL 1
REMARK VINA RESULT: -9.310158395      0.000      0.000
REMARK  3 active torsions:
REMARK  status: ('A' for Active; 'I' for Inactive)
REMARK       I    between atoms: C1_2  and  N1_3 
REMARK    1  A    between atoms: C1_2  and  C15_20 
REMARK    2  A    between atoms: N1_3  and  C2_5 
REMARK    3  A    between atoms: C18_23  and  O4_24 
ROOT
HETATM    1  C2  UNL     1       6.625  54.779   1.807  1.00  0.00     0.037 A 
HETATM    2  C3  UNL     1       5.715  55.836   1.955  1.00  0.00     0.030 A 
HETATM    3  C4  UNL     1       5.881  57.048   1.329  1.00  0.00     0.020 A 
HETATM    4  C5  UNL     1       6.968  57.239   0.533  1.00  0.00     0.049 A 
HETATM    5  C6  UNL     1       7.156  58.446  -0.104  1.00  0.00     0.198 A 
HETATM    6  O2  UNL     1       6.340  59.405   0.023  1.00  0.00    -0.286 OA
HETATM    7  C7  UNL     1       8.283  58.578  -0.903  1.00  0.00     0.049 A 
HETATM    8  C8  UNL     1       8.515  59.753  -1.555  1.00  0.00     0.018 A 
HETATM    9  C9  UNL     1       9.645  59.877  -2.352  1.00  0.00     0.001 A 
HETATM   10  C10 UNL     1      10.530  58.821  -2.484  1.00  0.00     0.003 A 
HETATM   11  C11 UNL     1      10.291  57.629  -1.819  1.00  0.00     0.038 A 
HETATM   12  C12 UNL     1       9.165  57.528  -1.035  1.00  0.00     0.090 A 
HETATM   13  O3  UNL     1       8.953  56.393  -0.412  1.00  0.00    -0.309 OA
HETATM   14  C13 UNL     1       7.887  56.257   0.347  1.00  0.00     0.092 A 
HETATM   15  C14 UNL     1       7.694  55.019   1.001  1.00  0.00     0.067 A 
ENDROOT
BRANCH   1  16
HETATM   16  N1  UNL     1       6.380  53.564   2.472  1.00  0.00    -0.321 N 
HETATM   17  C1  UNL     1       6.014  52.323   1.936  1.00  0.00     0.280 C 
HETATM   18  O1  UNL     1       5.852  52.123   0.732  1.00  0.00    -0.265 OA
ATOM     19  H1  UNL     1       6.483  53.591   3.486  1.00  0.00     0.169 HD
BRANCH  17  20
HETATM   20  C15 UNL     1       5.812  51.189   2.868  1.00  0.00     0.146 A 
HETATM   21  C16 UNL     1       6.758  50.240   3.192  1.00  0.00     0.048 A 
HETATM   22  C17 UNL     1       6.151  49.383   4.082  1.00  0.00     0.067 A 
HETATM   23  C18 UNL     1       4.861  49.826   4.278  1.00  0.00     0.183 A 
HETATM   24  O5  UNL     1       4.743  50.890   3.530  1.00  0.00    -0.282 OA
BRANCH  23  25
HETATM   25  O4  UNL     1       3.898  49.244   5.108  1.00  0.00    -0.341 OA
ATOM     26  H4  UNL     1       3.435  49.668   5.820  1.00  0.00     0.220 HD
ENDBRANCH  23  25
ENDBRANCH  17  20
ENDBRANCH   1  16
TORSDOF 3
ENDMDL
MODEL 2
REMARK VINA RESULT: -9.248042114      1.448      2.599
REMARK  3 active torsions:
REMARK  status: ('A' for Active; 'I' for Inactive)
REMARK       I    between atoms: C1_2  and  N1_3 
REMARK    1  A    between atoms: C1_2  and  C15_20 
REMARK    2  A    between atoms: N1_3  and  C2_5 
REMARK    3  A    between atoms: C18_23  and  O4_24 
ROOT
HETATM    1  C2  UNL     1       6.753  53.899   2.033  1.00  0.00     0.037 A 
HETATM    2  C3  UNL     1       7.970  53.903   1.335  1.00  0.00     0.030 A 
HETATM    3  C4  UNL     1       8.418  54.998   0.634  1.00  0.00     0.020 A 
HETATM    4  C5  UNL     1       7.656  56.125   0.611  1.00  0.00     0.049 A 
HETATM    5  C6  UNL     1       8.084  57.235  -0.085  1.00  0.00     0.198 A 
HETATM    6  O2  UNL     1       9.180  57.249  -0.716  1.00  0.00    -0.286 OA
HETATM    7  C7  UNL     1       7.262  58.354  -0.070  1.00  0.00     0.049 A 
HETATM    8  C8  UNL     1       7.640  59.478  -0.743  1.00  0.00     0.018 A 
HETATM    9  C9  UNL     1       6.813  60.593  -0.724  1.00  0.00     0.001 A 
HETATM   10  C10 UNL     1       5.616  60.567  -0.030  1.00  0.00     0.003 A 
HETATM   11  C11 UNL     1       5.235  59.422   0.653  1.00  0.00     0.038 A 
HETATM   12  C12 UNL     1       6.070  58.329   0.620  1.00  0.00     0.090 A 
HETATM   13  O3  UNL     1       5.697  57.254   1.272  1.00  0.00    -0.309 OA
HETATM   14  C13 UNL     1       6.468  56.188   1.265  1.00  0.00     0.092 A 
HETATM   15  C14 UNL     1       6.030  55.050   1.978  1.00  0.00     0.067 A 
ENDROOT
BRANCH   1  16
HETATM   16  N1  UNL     1       6.369  52.743   2.735  1.00  0.00    -0.321 N 
HETATM   17  C1  UNL     1       5.578  51.671   2.304  1.00  0.00     0.280 C 
HETATM   18  O1  UNL     1       5.086  51.597   1.178  1.00  0.00    -0.265 OA
ATOM     19  H1  UNL     1       6.715  52.676   3.692  1.00  0.00     0.169 HD
BRANCH  17  20
HETATM   20  C15 UNL     1       5.318  50.564   3.255  1.00  0.00     0.146 A 
HETATM   21  C16 UNL     1       6.220  49.582   3.606  1.00  0.00     0.048 A 
HETATM   22  C17 UNL     1       5.568  48.769   4.506  1.00  0.00     0.067 A 
HETATM   23  C18 UNL     1       4.297  49.270   4.679  1.00  0.00     0.183 A 
HETATM   24  O5  UNL     1       4.231  50.324   3.911  1.00  0.00    -0.282 OA
BRANCH  23  25
HETATM   25  O4  UNL     1       3.302  48.745   5.510  1.00  0.00    -0.341 OA
ATOM     26  H4  UNL     1       2.568  48.205   5.241  1.00  0.00     0.220 HD
ENDBRANCH  23  25
ENDBRANCH  17  20
ENDBRANCH   1  16
TORSDOF 3
ENDMDL
MODEL 3
REMARK VINA RESULT: -9.215428618      3.790      9.174
REMARK  3 active torsions:
REMARK  status: ('A' for Active; 'I' for Inactive)
REMARK       I    between atoms: C1_2  and  N1_3 
REMARK    1  A    between atoms: C1_2  and  C15_20 
REMARK    2  A    between atoms: N1_3  and  C2_5 
REMARK    3  A    between atoms: C18_23  and  O4_24 
ROOT
HETATM    1  C2  UNL     1       8.924  59.230  -1.513  1.00  0.00     0.037 A 
HETATM    2  C3  UNL     1       7.932  60.167  -1.187  1.00  0.00     0.030 A 
HETATM    3  C4  UNL     1       6.799  59.830  -0.484  1.00  0.00     0.020 A 
HETATM    4  C5  UNL     1       6.626  58.540  -0.087  1.00  0.00     0.049 A 
HETATM    5  C6  UNL     1       5.498  58.179   0.618  1.00  0.00     0.198 A 
HETATM    6  O2  UNL     1       4.598  59.016   0.917  1.00  0.00    -0.286 OA
HETATM    7  C7  UNL     1       5.379  56.848   0.996  1.00  0.00     0.049 A 
HETATM    8  C8  UNL     1       4.282  56.440   1.695  1.00  0.00     0.018 A 
HETATM    9  C9  UNL     1       4.171  55.108   2.069  1.00  0.00     0.001 A 
HETATM   10  C10 UNL     1       5.162  54.200   1.736  1.00  0.00     0.003 A 
HETATM   11  C11 UNL     1       6.276  54.620   1.025  1.00  0.00     0.038 A 
HETATM   12  C12 UNL     1       6.365  55.945   0.665  1.00  0.00     0.090 A 
HETATM   13  O3  UNL     1       7.425  56.326  -0.006  1.00  0.00    -0.309 OA
HETATM   14  C13 UNL     1       7.547  57.585  -0.369  1.00  0.00     0.092 A 
HETATM   15  C14 UNL     1       8.704  57.956  -1.092  1.00  0.00     0.067 A 
ENDROOT
BRANCH   1  16
HETATM   16  N1  UNL     1      10.061  59.654  -2.225  1.00  0.00    -0.321 N 
HETATM   17  C1  UNL     1      10.963  58.895  -2.979  1.00  0.00     0.280 C 
HETATM   18  O1  UNL     1      10.870  57.676  -3.127  1.00  0.00    -0.265 OA
ATOM     19  H1  UNL     1      10.254  60.655  -2.186  1.00  0.00     0.169 HD
BRANCH  17  20
HETATM   20  C15 UNL     1      12.093  59.595  -3.634  1.00  0.00     0.146 A 
HETATM   21  C16 UNL     1      13.228  60.053  -2.999  1.00  0.00     0.048 A 
HETATM   22  C17 UNL     1      14.004  60.634  -3.977  1.00  0.00     0.067 A 
HETATM   23  C18 UNL     1      13.330  60.518  -5.172  1.00  0.00     0.183 A 
HETATM   24  O5  UNL     1      12.218  59.896  -4.885  1.00  0.00    -0.282 OA
BRANCH  23  25
HETATM   25  O4  UNL     1      13.763  60.976  -6.420  1.00  0.00    -0.341 OA
ATOM     26  H4  UNL     1      13.538  60.609  -7.267  1.00  0.00     0.220 HD
ENDBRANCH  23  25
ENDBRANCH  17  20
ENDBRANCH   1  16
TORSDOF 3
ENDMDL
MODEL 4
REMARK VINA RESULT: -9.156540870      4.482      9.070
REMARK  3 active torsions:
REMARK  status: ('A' for Active; 'I' for Inactive)
REMARK       I    between atoms: C1_2  and  N1_3 
REMARK    1  A    between atoms: C1_2  and  C15_20 
REMARK    2  A    between atoms: N1_3  and  C2_5 
REMARK    3  A    between atoms: C18_23  and  O4_24 
ROOT
HETATM    1  C2  UNL     1      10.115  58.561  -1.969  1.00  0.00     0.037 A 
HETATM    2  C3  UNL     1       9.617  59.873  -1.990  1.00  0.00     0.030 A 
HETATM    3  C4  UNL     1       8.402  60.211  -1.442  1.00  0.00     0.020 A 
HETATM    4  C5  UNL     1       7.647  59.242  -0.856  1.00  0.00     0.049 A 
HETATM    5  C6  UNL     1       6.425  59.557  -0.301  1.00  0.00     0.198 A 
HETATM    6  O2  UNL     1       5.968  60.736  -0.314  1.00  0.00    -0.286 OA
HETATM    7  C7  UNL     1       5.703  58.525   0.282  1.00  0.00     0.049 A 
HETATM    8  C8  UNL     1       4.489  58.785   0.845  1.00  0.00     0.018 A 
HETATM    9  C9  UNL     1       3.773  57.747   1.426  1.00  0.00     0.001 A 
HETATM   10  C10 UNL     1       4.283  56.461   1.434  1.00  0.00     0.003 A 
HETATM   11  C11 UNL     1       5.519  56.201   0.860  1.00  0.00     0.038 A 
HETATM   12  C12 UNL     1       6.211  57.244   0.291  1.00  0.00     0.090 A 
HETATM   13  O3  UNL     1       7.378  56.983  -0.248  1.00  0.00    -0.309 OA
HETATM   14  C13 UNL     1       8.070  57.954  -0.803  1.00  0.00     0.092 A 
HETATM   15  C14 UNL     1       9.323  57.631  -1.372  1.00  0.00     0.067 A 
ENDROOT
BRANCH   1  16
HETATM   16  N1  UNL     1      11.372  58.297  -2.541  1.00  0.00    -0.321 N 
HETATM   17  C1  UNL     1      11.890  58.725  -3.769  1.00  0.00     0.280 C 
HETATM   18  O1  UNL     1      11.270  59.438  -4.559  1.00  0.00    -0.265 OA
ATOM     19  H1  UNL     1      11.993  57.711  -1.983  1.00  0.00     0.169 HD
BRANCH  17  20
HETATM   20  C15 UNL     1      13.259  58.296  -4.141  1.00  0.00     0.146 A 
HETATM   21  C16 UNL     1      13.607  57.047  -4.611  1.00  0.00     0.048 A 
HETATM   22  C17 UNL     1      14.966  57.086  -4.827  1.00  0.00     0.067 A 
HETATM   23  C18 UNL     1      15.410  58.345  -4.487  1.00  0.00     0.183 A 
HETATM   24  O5  UNL     1      14.346  58.993  -4.095  1.00  0.00    -0.282 OA
BRANCH  23  25
HETATM   25  O4  UNL     1      16.727  58.810  -4.555  1.00  0.00    -0.341 OA
ATOM     26  H4  UNL     1      17.174  59.130  -5.330  1.00  0.00     0.220 HD
ENDBRANCH  23  25
ENDBRANCH  17  20
ENDBRANCH   1  16
TORSDOF 3
ENDMDL
MODEL 5
REMARK VINA RESULT: -9.113475538      1.202      1.580
REMARK  3 active torsions:
REMARK  status: ('A' for Active; 'I' for Inactive)
REMARK       I    between atoms: C1_2  and  N1_3 
REMARK    1  A    between atoms: C1_2  and  C15_20 
REMARK    2  A    between atoms: N1_3  and  C2_5 
REMARK    3  A    between atoms: C18_23  and  O4_24 
ROOT
HETATM    1  C2  UNL     1       6.959  55.653   0.961  1.00  0.00     0.037 A 
HETATM    2  C3  UNL     1       6.176  56.816   0.995  1.00  0.00     0.030 A 
HETATM    3  C4  UNL     1       6.535  57.970   0.338  1.00  0.00     0.020 A 
HETATM    4  C5  UNL     1       7.695  57.992  -0.373  1.00  0.00     0.049 A 
HETATM    5  C6  UNL     1       8.077  59.137  -1.039  1.00  0.00     0.198 A 
HETATM    6  O2  UNL     1       7.377  60.190  -1.015  1.00  0.00    -0.286 OA
HETATM    7  C7  UNL     1       9.270  59.096  -1.748  1.00  0.00     0.049 A 
HETATM    8  C8  UNL     1       9.691  60.203  -2.423  1.00  0.00     0.018 A 
HETATM    9  C9  UNL     1      10.886  60.154  -3.130  1.00  0.00     0.001 A 
HETATM   10  C10 UNL     1      11.643  58.996  -3.149  1.00  0.00     0.003 A 
HETATM   11  C11 UNL     1      11.210  57.873  -2.461  1.00  0.00     0.038 A 
HETATM   12  C12 UNL     1      10.024  57.943  -1.768  1.00  0.00     0.090 A 
HETATM   13  O3  UNL     1       9.628  56.873  -1.122  1.00  0.00    -0.309 OA
HETATM   14  C13 UNL     1       8.499  56.901  -0.447  1.00  0.00     0.092 A 
HETATM   15  C14 UNL     1       8.107  55.727   0.235  1.00  0.00     0.067 A 
ENDROOT
BRANCH   1  16
HETATM   16  N1  UNL     1       6.518  54.509   1.649  1.00  0.00    -0.321 N 
HETATM   17  C1  UNL     1       5.934  53.343   1.140  1.00  0.00     0.280 C 
HETATM   18  O1  UNL     1       5.720  53.156  -0.059  1.00  0.00    -0.265 OA
ATOM     19  H1  UNL     1       6.640  54.532   2.661  1.00  0.00     0.169 HD
BRANCH  17  20
HETATM   20  C15 UNL     1       5.553  52.275   2.093  1.00  0.00     0.146 A 
HETATM   21  C16 UNL     1       4.372  51.564   2.068  1.00  0.00     0.048 A 
HETATM   22  C17 UNL     1       4.434  50.682   3.123  1.00  0.00     0.067 A 
HETATM   23  C18 UNL     1       5.641  50.875   3.760  1.00  0.00     0.183 A 
HETATM   24  O5  UNL     1       6.237  51.826   3.093  1.00  0.00    -0.282 OA
BRANCH  23  25
HETATM   25  O4  UNL     1       6.109  50.185   4.883  1.00  0.00    -0.341 OA
ATOM     26  H4  UNL     1       6.950  50.302   5.308  1.00  0.00     0.220 HD
ENDBRANCH  23  25
ENDBRANCH  17  20
ENDBRANCH   1  16
TORSDOF 3
ENDMDL
