MODEL 1
REMARK VINA RESULT: -10.576635124      0.000      0.000
REMARK  4 active torsions:
REMARK  status: ('A' for Active; 'I' for Inactive)
REMARK    1  A    between atoms: C3_5  and  C4_6 
REMARK    2  A    between atoms: N1_7  and  N2_9 
REMARK    3  A    between atoms: N2_9  and  C5_11 
REMARK    4  A    between atoms: C11_17  and  O3_18 
ROOT
HETATM    1  O1  UNL     1       4.288  56.359   1.303  1.00  0.00    -0.259 OA
HETATM    2  C1  UNL     1       5.451  56.690   0.907  1.00  0.00     0.299 A 
HETATM    3  O2  UNL     1       6.370  55.760   0.925  1.00  0.00    -0.273 OA
HETATM    4  C2  UNL     1       7.584  56.054   0.525  1.00  0.00     0.105 A 
HETATM    5  C3  UNL     1       8.532  55.022   0.564  1.00  0.00     0.049 A 
HETATM    6  C11 UNL     1       9.811  55.279   0.157  1.00  0.00     0.080 A 
HETATM    7  C12 UNL     1      10.177  56.554  -0.293  1.00  0.00     0.038 A 
HETATM    8  C13 UNL     1       9.243  57.578  -0.333  1.00  0.00     0.018 A 
HETATM    9  C14 UNL     1       7.961  57.312   0.076  1.00  0.00     0.010 A 
HETATM   10  C15 UNL     1       6.983  58.303   0.057  1.00  0.00    -0.007 A 
HETATM   11  C16 UNL     1       7.270  59.569  -0.368  1.00  0.00     0.013 A 
HETATM   12  C17 UNL     1       6.243  60.492  -0.355  1.00  0.00     0.001 A 
HETATM   13  C18 UNL     1       4.967  60.202   0.061  1.00  0.00     0.001 A 
HETATM   14  C19 UNL     1       4.702  58.918   0.485  1.00  0.00     0.018 A 
HETATM   15  C20 UNL     1       5.721  57.971   0.480  1.00  0.00     0.051 A 
ENDROOT
BRANCH   5  16
HETATM   16  C4  UNL     1       8.121  53.710   1.047  1.00  0.00     0.124 C 
HETATM   17  N1  UNL     1       7.596  53.595   2.204  1.00  0.00    -0.310 N 
ATOM     18  H1  UNL     1       7.471  54.431   2.774  1.00  0.00     0.186 HD
BRANCH  17  19
HETATM   19  N2  UNL     1       7.193  52.387   2.705  1.00  0.00    -0.301 N 
ATOM     20  H2  UNL     1       7.851  51.832   3.251  1.00  0.00     0.187 HD
BRANCH  19  21
HETATM   21  C5  UNL     1       5.887  51.889   2.485  1.00  0.00     0.048 A 
HETATM   22  C6  UNL     1       5.376  50.911   3.308  1.00  0.00     0.031 A 
HETATM   23  C7  UNL     1       4.122  50.390   3.120  1.00  0.00     0.002 A 
HETATM   24  C8  UNL     1       3.356  50.859   2.082  1.00  0.00     0.000 A 
HETATM   25  C9  UNL     1       3.841  51.842   1.238  1.00  0.00     0.002 A 
HETATM   26  C10 UNL     1       5.099  52.350   1.444  1.00  0.00     0.031 A 
ENDBRANCH  19  21
ENDBRANCH  17  19
ENDBRANCH   5  16
BRANCH   6  27
HETATM   27  O3  UNL     1      10.795  54.289   0.176  1.00  0.00    -0.360 OA
ATOM     28  H3  UNL     1      11.594  54.374  -0.331  1.00  0.00     0.217 HD
ENDBRANCH   6  27
TORSDOF 4
ENDMDL
MODEL 2
REMARK VINA RESULT: -10.571481207      1.375      3.625
REMARK  4 active torsions:
REMARK  status: ('A' for Active; 'I' for Inactive)
REMARK    1  A    between atoms: C3_5  and  C4_6 
REMARK    2  A    between atoms: N1_7  and  N2_9 
REMARK    3  A    between atoms: N2_9  and  C5_11 
REMARK    4  A    between atoms: C11_17  and  O3_18 
ROOT
HETATM    1  O1  UNL     1       9.221  55.370   0.172  1.00  0.00    -0.259 OA
HETATM    2  C1  UNL     1       8.146  56.045   0.261  1.00  0.00     0.299 A 
HETATM    3  O2  UNL     1       7.148  55.488   0.897  1.00  0.00    -0.273 OA
HETATM    4  C2  UNL     1       6.020  56.145   1.015  1.00  0.00     0.105 A 
HETATM    5  C3  UNL     1       4.981  55.505   1.704  1.00  0.00     0.049 A 
HETATM    6  C11 UNL     1       3.785  56.149   1.854  1.00  0.00     0.080 A 
HETATM    7  C12 UNL     1       3.592  57.433   1.327  1.00  0.00     0.038 A 
HETATM    8  C13 UNL     1       4.617  58.071   0.644  1.00  0.00     0.018 A 
HETATM    9  C14 UNL     1       5.815  57.417   0.499  1.00  0.00     0.010 A 
HETATM   10  C15 UNL     1       6.877  58.011  -0.179  1.00  0.00    -0.007 A 
HETATM   11  C16 UNL     1       6.758  59.260  -0.719  1.00  0.00     0.013 A 
HETATM   12  C17 UNL     1       7.859  59.776  -1.375  1.00  0.00     0.001 A 
HETATM   13  C18 UNL     1       9.048  59.101  -1.508  1.00  0.00     0.001 A 
HETATM   14  C19 UNL     1       9.142  57.843  -0.954  1.00  0.00     0.018 A 
HETATM   15  C20 UNL     1       8.046  57.303  -0.289  1.00  0.00     0.051 A 
ENDROOT
BRANCH   5  16
HETATM   16  C4  UNL     1       5.211  54.165   2.231  1.00  0.00     0.124 C 
HETATM   17  N1  UNL     1       5.580  53.229   1.447  1.00  0.00    -0.310 N 
ATOM     18  H1  UNL     1       5.709  53.437   0.457  1.00  0.00     0.186 HD
BRANCH  17  19
HETATM   19  N2  UNL     1       5.809  51.955   1.890  1.00  0.00    -0.301 N 
ATOM     20  H2  UNL     1       6.747  51.563   1.813  1.00  0.00     0.187 HD
BRANCH  19  21
HETATM   21  C5  UNL     1       4.776  51.167   2.451  1.00  0.00     0.048 A 
HETATM   22  C6  UNL     1       5.009  50.447   3.602  1.00  0.00     0.031 A 
HETATM   23  C7  UNL     1       4.042  49.659   4.169  1.00  0.00     0.002 A 
HETATM   24  C8  UNL     1       2.807  49.587   3.573  1.00  0.00     0.000 A 
HETATM   25  C9  UNL     1       2.543  50.300   2.417  1.00  0.00     0.002 A 
HETATM   26  C10 UNL     1       3.525  51.083   1.865  1.00  0.00     0.031 A 
ENDBRANCH  19  21
ENDBRANCH  17  19
ENDBRANCH   5  16
BRANCH   6  27
HETATM   27  O3  UNL     1       2.718  55.557   2.531  1.00  0.00    -0.360 OA
ATOM     28  H3  UNL     1       1.905  56.025   2.681  1.00  0.00     0.217 HD
ENDBRANCH   6  27
TORSDOF 4
ENDMDL
MODEL 3
REMARK VINA RESULT: -10.548244961      1.718      2.602
REMARK  4 active torsions:
REMARK  status: ('A' for Active; 'I' for Inactive)
REMARK    1  A    between atoms: C3_5  and  C4_6 
REMARK    2  A    between atoms: N1_7  and  N2_9 
REMARK    3  A    between atoms: N2_9  and  C5_11 
REMARK    4  A    between atoms: C11_17  and  O3_18 
ROOT
HETATM    1  O1  UNL     1       3.375  57.861   1.076  1.00  0.00    -0.259 OA
HETATM    2  C1  UNL     1       4.520  57.362   0.831  1.00  0.00     0.299 A 
HETATM    3  O2  UNL     1       4.669  56.082   1.049  1.00  0.00    -0.273 OA
HETATM    4  C2  UNL     1       5.830  55.524   0.811  1.00  0.00     0.105 A 
HETATM    5  C3  UNL     1       5.938  54.149   1.062  1.00  0.00     0.049 A 
HETATM    6  C11 UNL     1       7.129  53.521   0.830  1.00  0.00     0.080 A 
HETATM    7  C12 UNL     1       8.233  54.236   0.347  1.00  0.00     0.038 A 
HETATM    8  C13 UNL     1       8.132  55.596   0.097  1.00  0.00     0.018 A 
HETATM    9  C14 UNL     1       6.933  56.219   0.333  1.00  0.00     0.010 A 
HETATM   10  C15 UNL     1       6.776  57.583   0.100  1.00  0.00    -0.007 A 
HETATM   11  C16 UNL     1       7.810  58.341  -0.368  1.00  0.00     0.013 A 
HETATM   12  C17 UNL     1       7.572  59.686  -0.571  1.00  0.00     0.001 A 
HETATM   13  C18 UNL     1       6.361  60.288  -0.326  1.00  0.00     0.001 A 
HETATM   14  C19 UNL     1       5.333  59.500   0.146  1.00  0.00     0.018 A 
HETATM   15  C20 UNL     1       5.551  58.144   0.358  1.00  0.00     0.051 A 
ENDROOT
BRANCH   5  16
HETATM   16  C4  UNL     1       4.773  53.437   1.573  1.00  0.00     0.124 C 
HETATM   17  N1  UNL     1       4.474  52.288   1.106  1.00  0.00    -0.310 N 
ATOM     18  H1  UNL     1       5.062  51.885   0.376  1.00  0.00     0.186 HD
BRANCH  17  19
HETATM   19  N2  UNL     1       3.392  51.579   1.549  1.00  0.00    -0.301 N 
ATOM     20  H2  UNL     1       2.487  51.721   1.101  1.00  0.00     0.187 HD
BRANCH  19  21
HETATM   21  C5  UNL     1       3.497  50.653   2.615  1.00  0.00     0.048 A 
HETATM   22  C6  UNL     1       2.402  49.904   2.984  1.00  0.00     0.031 A 
HETATM   23  C7  UNL     1       2.456  49.008   4.020  1.00  0.00     0.002 A 
HETATM   24  C8  UNL     1       3.635  48.854   4.706  1.00  0.00     0.000 A 
HETATM   25  C9  UNL     1       4.752  49.593   4.358  1.00  0.00     0.002 A 
HETATM   26  C10 UNL     1       4.677  50.484   3.318  1.00  0.00     0.031 A 
ENDBRANCH  19  21
ENDBRANCH  17  19
ENDBRANCH   5  16
BRANCH   6  27
HETATM   27  O3  UNL     1       7.291  52.154   1.062  1.00  0.00    -0.360 OA
ATOM     28  H3  UNL     1       7.271  51.795   1.941  1.00  0.00     0.217 HD
ENDBRANCH   6  27
TORSDOF 4
ENDMDL
MODEL 4
REMARK VINA RESULT: -10.302500674      2.720      3.831
REMARK  4 active torsions:
REMARK  status: ('A' for Active; 'I' for Inactive)
REMARK    1  A    between atoms: C3_5  and  C4_6 
REMARK    2  A    between atoms: N1_7  and  N2_9 
REMARK    3  A    between atoms: N2_9  and  C5_11 
REMARK    4  A    between atoms: C11_17  and  O3_18 
ROOT
HETATM    1  O1  UNL     1       6.152  54.011   1.861  1.00  0.00    -0.259 OA
HETATM    2  C1  UNL     1       6.444  55.095   1.262  1.00  0.00     0.299 A 
HETATM    3  O2  UNL     1       7.656  55.199   0.783  1.00  0.00    -0.273 OA
HETATM    4  C2  UNL     1       8.004  56.298   0.158  1.00  0.00     0.105 A 
HETATM    5  C3  UNL     1       9.314  56.361  -0.336  1.00  0.00     0.049 A 
HETATM    6  C11 UNL     1       9.724  57.485  -0.996  1.00  0.00     0.080 A 
HETATM    7  C12 UNL     1       8.850  58.565  -1.180  1.00  0.00     0.038 A 
HETATM    8  C13 UNL     1       7.553  58.508  -0.693  1.00  0.00     0.018 A 
HETATM    9  C14 UNL     1       7.150  57.375  -0.032  1.00  0.00     0.010 A 
HETATM   10  C15 UNL     1       5.858  57.265   0.477  1.00  0.00    -0.007 A 
HETATM   11  C16 UNL     1       4.956  58.280   0.335  1.00  0.00     0.013 A 
HETATM   12  C17 UNL     1       3.696  58.090   0.870  1.00  0.00     0.001 A 
HETATM   13  C18 UNL     1       3.316  56.947   1.529  1.00  0.00     0.001 A 
HETATM   14  C19 UNL     1       4.246  55.937   1.659  1.00  0.00     0.018 A 
HETATM   15  C20 UNL     1       5.519  56.106   1.128  1.00  0.00     0.051 A 
ENDROOT
BRANCH   5  16
HETATM   16  C4  UNL     1      10.200  55.224  -0.119  1.00  0.00     0.124 C 
HETATM   17  N1  UNL     1      10.541  54.902   1.067  1.00  0.00    -0.310 N 
ATOM     18  H1  UNL     1      10.185  55.450   1.849  1.00  0.00     0.186 HD
BRANCH  17  19
HETATM   19  N2  UNL     1      11.370  53.845   1.326  1.00  0.00    -0.301 N 
ATOM     20  H2  UNL     1      12.357  54.021   1.514  1.00  0.00     0.187 HD
BRANCH  19  21
HETATM   21  C5  UNL     1      10.893  52.512   1.340  1.00  0.00     0.048 A 
HETATM   22  C6  UNL     1       9.590  52.252   1.700  1.00  0.00     0.031 A 
HETATM   23  C7  UNL     1       9.093  50.975   1.742  1.00  0.00     0.002 A 
HETATM   24  C8  UNL     1       9.919  49.929   1.415  1.00  0.00     0.000 A 
HETATM   25  C9  UNL     1      11.234  50.158   1.049  1.00  0.00     0.002 A 
HETATM   26  C10 UNL     1      11.711  51.444   1.014  1.00  0.00     0.031 A 
ENDBRANCH  19  21
ENDBRANCH  17  19
ENDBRANCH   5  16
BRANCH   6  27
HETATM   27  O3  UNL     1      11.017  57.600  -1.507  1.00  0.00    -0.360 OA
ATOM     28  H3  UNL     1      11.430  58.447  -1.626  1.00  0.00     0.217 HD
ENDBRANCH   6  27
TORSDOF 4
ENDMDL
MODEL 5
REMARK VINA RESULT: -10.263355840      2.607      3.460
REMARK  4 active torsions:
REMARK  status: ('A' for Active; 'I' for Inactive)
REMARK    1  A    between atoms: C3_5  and  C4_6 
REMARK    2  A    between atoms: N1_7  and  N2_9 
REMARK    3  A    between atoms: N2_9  and  C5_11 
REMARK    4  A    between atoms: C11_17  and  O3_18 
ROOT
HETATM    1  O1  UNL     1       6.113  55.252   1.897  1.00  0.00    -0.259 OA
HETATM    2  C1  UNL     1       6.513  56.224   1.180  1.00  0.00     0.299 A 
HETATM    3  O2  UNL     1       7.682  56.097   0.609  1.00  0.00    -0.273 OA
HETATM    4  C2  UNL     1       8.137  57.072  -0.141  1.00  0.00     0.105 A 
HETATM    5  C3  UNL     1       9.396  56.887  -0.729  1.00  0.00     0.049 A 
HETATM    6  C11 UNL     1       9.912  57.875  -1.519  1.00  0.00     0.080 A 
HETATM    7  C12 UNL     1       9.199  59.061  -1.742  1.00  0.00     0.038 A 
HETATM    8  C13 UNL     1       7.953  59.248  -1.162  1.00  0.00     0.018 A 
HETATM    9  C14 UNL     1       7.442  58.251  -0.371  1.00  0.00     0.010 A 
HETATM   10  C15 UNL     1       6.196  58.387   0.237  1.00  0.00    -0.007 A 
HETATM   11  C16 UNL     1       5.447  59.516   0.064  1.00  0.00     0.013 A 
HETATM   12  C17 UNL     1       4.223  59.571   0.702  1.00  0.00     0.001 A 
HETATM   13  C18 UNL     1       3.733  58.560   1.491  1.00  0.00     0.001 A 
HETATM   14  C19 UNL     1       4.507  57.431   1.649  1.00  0.00     0.018 A 
HETATM   15  C20 UNL     1       5.743  57.354   1.016  1.00  0.00     0.051 A 
ENDROOT
BRANCH   5  16
HETATM   16  C4  UNL     1      10.115  55.647  -0.469  1.00  0.00     0.124 C 
HETATM   17  N1  UNL     1      10.420  55.328   0.728  1.00  0.00    -0.310 N 
ATOM     18  H1  UNL     1      10.151  55.953   1.488  1.00  0.00     0.186 HD
BRANCH  17  19
HETATM   19  N2  UNL     1      11.095  54.177   1.027  1.00  0.00    -0.301 N 
ATOM     20  H2  UNL     1      12.114  54.194   1.066  1.00  0.00     0.187 HD
BRANCH  19  21
HETATM   21  C5  UNL     1      10.416  52.962   1.284  1.00  0.00     0.048 A 
HETATM   22  C6  UNL     1      11.085  51.764   1.176  1.00  0.00     0.031 A 
HETATM   23  C7  UNL     1      10.461  50.564   1.401  1.00  0.00     0.002 A 
HETATM   24  C8  UNL     1       9.132  50.560   1.745  1.00  0.00     0.000 A 
HETATM   25  C9  UNL     1       8.433  51.749   1.862  1.00  0.00     0.002 A 
HETATM   26  C10 UNL     1       9.077  52.938   1.632  1.00  0.00     0.031 A 
ENDBRANCH  19  21
ENDBRANCH  17  19
ENDBRANCH   5  16
BRANCH   6  27
HETATM   27  O3  UNL     1      11.160  57.744  -2.129  1.00  0.00    -0.360 OA
ATOM     28  H3  UNL     1      11.419  58.299  -2.855  1.00  0.00     0.217 HD
ENDBRANCH   6  27
TORSDOF 4
ENDMDL
