MODEL 1
REMARK VINA RESULT: -7.997297906      0.000      0.000
REMARK  9 active torsions:
REMARK  status: ('A' for Active; 'I' for Inactive)
REMARK    1  A    between atoms: C2_2  and  O2_4 
REMARK    2  A    between atoms: O2_4  and  C3_5 
REMARK    3  A    between atoms: C4_6  and  O3_7 
REMARK    4  A    between atoms: C5_9  and  N1_10 
REMARK    5  A    between atoms: C8_16  and  N2_17 
REMARK    6  A    between atoms: C9_21  and  O4_22 
REMARK    7  A    between atoms: O4_22  and  C10_23 
REMARK    8  A    between atoms: C10_23  and  C11_25 
REMARK    9  A    between atoms: N3_27  and  N4_29 
REMARK       I    between atoms: N4_29  and  C13_31 
ROOT
HETATM    1  C3  UNL     1      19.735 -32.686   8.785  1.00  0.00     0.194 C 
HETATM    2  C4  UNL     1      20.745 -31.675   9.262  1.00  0.00     0.181 C 
HETATM    3  C5  UNL     1      20.160 -30.296   8.924  1.00  0.00     0.220 C 
HETATM    4  C6  UNL     1      19.809 -30.173   7.481  1.00  0.00     0.048 C 
HETATM    5  C7  UNL     1      19.112 -28.878   7.236  1.00  0.00     0.014 C 
HETATM    6  C8  UNL     1      18.908 -31.315   6.982  1.00  0.00     0.221 C 
HETATM    7  C9  UNL     1      19.652 -32.575   7.274  1.00  0.00     0.195 C 
ENDROOT
BRANCH   7   8
HETATM    8  O4  UNL     1      19.208 -33.737   6.721  1.00  0.00    -0.306 OA
BRANCH   8   9
HETATM    9  C10 UNL     1      19.317 -34.232   5.449  1.00  0.00     0.307 C 
HETATM   10  O5  UNL     1      20.456 -34.225   4.976  1.00  0.00    -0.258 OA
BRANCH   9  11
HETATM   11  C11 UNL     1      18.211 -34.744   4.655  1.00  0.00     0.097 C 
HETATM   12  C12 UNL     1      16.852 -34.225   4.942  1.00  0.00     0.076 C 
HETATM   13  N3  UNL     1      18.365 -35.618   3.726  1.00  0.00    -0.296 N 
ATOM     14  H3  UNL     1      19.289 -35.991   3.511  1.00  0.00     0.187 HD
BRANCH  13  15
HETATM   15  N4  UNL     1      17.240 -36.046   3.019  1.00  0.00    -0.254 N 
HETATM   16  C13 UNL     1      17.238 -36.119   1.583  1.00  0.00     0.347 C 
HETATM   17  N5  UNL     1      16.083 -36.557   0.881  1.00  0.00    -0.038 NA
HETATM   18  O6  UNL     1      18.266 -35.793   0.941  1.00  0.00    -0.249 OA
ATOM     19  H4  UNL     1      16.400 -36.313   3.532  1.00  0.00     0.191 HD
ENDBRANCH  13  15
ENDBRANCH   9  11
ENDBRANCH   8   9
ENDBRANCH   7   8
BRANCH   1  20
HETATM   20  O2  UNL     1      19.903 -33.964   9.277  1.00  0.00    -0.311 OA
BRANCH  20  21
HETATM   21  C2  UNL     1      19.028 -34.587  10.151  1.00  0.00     0.255 C 
HETATM   22  C1  UNL     1      18.109 -33.868  11.056  1.00  0.00     0.126 C 
HETATM   23  O1  UNL     1      19.080 -35.861  10.110  1.00  0.00    -0.266 OA
ENDBRANCH  20  21
ENDBRANCH   1  20
BRANCH   6  24
HETATM   24  N2  UNL     1      17.663 -31.189   7.673  1.00  0.00    -0.072 N 
ATOM     25  H23 UNL     1      17.330 -32.070   8.067  1.00  0.00     0.274 HD
ATOM     26  H22 UNL     1      17.741 -30.677   8.552  1.00  0.00     0.274 HD
ATOM     27  H21 UNL     1      17.005 -30.767   7.018  1.00  0.00     0.274 HD
ENDBRANCH   6  24
BRANCH   2  28
HETATM   28  O3  UNL     1      20.895 -31.695  10.645  1.00  0.00    -0.391 OA
ATOM     29  H3  UNL     1      21.644 -32.212  10.918  1.00  0.00     0.210 HD
ENDBRANCH   2  28
BRANCH   3  30
HETATM   30  N1  UNL     1      19.104 -29.943   9.828  1.00  0.00    -0.072 N 
ATOM     31  H13 UNL     1      18.227 -30.398   9.575  1.00  0.00     0.274 HD
ATOM     32  H12 UNL     1      19.241 -30.364  10.747  1.00  0.00     0.274 HD
ATOM     33  H11 UNL     1      18.995 -28.931   9.892  1.00  0.00     0.274 HD
ENDBRANCH   3  30
TORSDOF 9
ENDMDL
MODEL 2
REMARK VINA RESULT: -7.991535791      1.916      2.319
REMARK  9 active torsions:
REMARK  status: ('A' for Active; 'I' for Inactive)
REMARK    1  A    between atoms: C2_2  and  O2_4 
REMARK    2  A    between atoms: O2_4  and  C3_5 
REMARK    3  A    between atoms: C4_6  and  O3_7 
REMARK    4  A    between atoms: C5_9  and  N1_10 
REMARK    5  A    between atoms: C8_16  and  N2_17 
REMARK    6  A    between atoms: C9_21  and  O4_22 
REMARK    7  A    between atoms: O4_22  and  C10_23 
REMARK    8  A    between atoms: C10_23  and  C11_25 
REMARK    9  A    between atoms: N3_27  and  N4_29 
REMARK       I    between atoms: N4_29  and  C13_31 
ROOT
HETATM    1  C3  UNL     1      18.744 -33.581   8.451  1.00  0.00     0.194 C 
HETATM    2  C4  UNL     1      20.025 -33.276   9.184  1.00  0.00     0.181 C 
HETATM    3  C5  UNL     1      19.684 -32.173  10.197  1.00  0.00     0.220 C 
HETATM    4  C6  UNL     1      19.057 -30.987   9.547  1.00  0.00     0.048 C 
HETATM    5  C7  UNL     1      18.613 -30.014  10.585  1.00  0.00     0.014 C 
HETATM    6  C8  UNL     1      17.848 -31.353   8.669  1.00  0.00     0.221 C 
HETATM    7  C9  UNL     1      18.355 -32.339   7.671  1.00  0.00     0.195 C 
ENDROOT
BRANCH   7   8
HETATM    8  O4  UNL     1      17.565 -32.656   6.609  1.00  0.00    -0.306 OA
BRANCH   8   9
HETATM    9  C10 UNL     1      17.853 -32.794   5.278  1.00  0.00     0.307 C 
HETATM   10  O5  UNL     1      18.022 -31.738   4.662  1.00  0.00    -0.258 OA
BRANCH   9  11
HETATM   11  C11 UNL     1      17.965 -34.063   4.574  1.00  0.00     0.097 C 
HETATM   12  C12 UNL     1      19.323 -34.606   4.339  1.00  0.00     0.076 C 
HETATM   13  N3  UNL     1      16.944 -34.720   4.154  1.00  0.00    -0.296 N 
ATOM     14  H3  UNL     1      16.000 -34.365   4.302  1.00  0.00     0.187 HD
BRANCH  13  15
HETATM   15  N4  UNL     1      17.157 -35.929   3.489  1.00  0.00    -0.254 N 
HETATM   16  C13 UNL     1      16.902 -36.067   2.081  1.00  0.00     0.347 C 
HETATM   17  N5  UNL     1      17.125 -37.306   1.422  1.00  0.00    -0.038 NA
HETATM   18  O6  UNL     1      16.480 -35.084   1.425  1.00  0.00    -0.249 OA
ATOM     19  H4  UNL     1      17.500 -36.733   4.015  1.00  0.00     0.191 HD
ENDBRANCH  13  15
ENDBRANCH   9  11
ENDBRANCH   8   9
ENDBRANCH   7   8
BRANCH   1  20
HETATM   20  O2  UNL     1      18.743 -34.758   7.732  1.00  0.00    -0.311 OA
BRANCH  20  21
HETATM   21  C2  UNL     1      17.811 -35.769   7.887  1.00  0.00     0.255 C 
HETATM   22  C1  UNL     1      17.181 -36.125   9.175  1.00  0.00     0.126 C 
HETATM   23  O1  UNL     1      17.531 -36.384   6.805  1.00  0.00    -0.266 OA
ENDBRANCH  20  21
ENDBRANCH   1  20
BRANCH   6  24
HETATM   24  N2  UNL     1      16.842 -31.864   9.547  1.00  0.00    -0.072 N 
ATOM     25  H23 UNL     1      16.540 -32.808   9.307  1.00  0.00     0.274 HD
ATOM     26  H22 UNL     1      17.192 -32.075  10.482  1.00  0.00     0.274 HD
ATOM     27  H21 UNL     1      16.081 -31.185   9.547  1.00  0.00     0.274 HD
ENDBRANCH   6  24
BRANCH   2  28
HETATM   28  O3  UNL     1      20.469 -34.358   9.938  1.00  0.00    -0.391 OA
ATOM     29  H3  UNL     1      21.230 -34.141  10.464  1.00  0.00     0.210 HD
ENDBRANCH   2  28
BRANCH   3  30
HETATM   30  N1  UNL     1      18.953 -32.698  11.313  1.00  0.00    -0.072 N 
ATOM     31  H13 UNL     1      17.978 -32.400  11.295  1.00  0.00     0.274 HD
ATOM     32  H12 UNL     1      18.811 -33.705  11.228  1.00  0.00     0.274 HD
ATOM     33  H11 UNL     1      19.401 -32.457  12.196  1.00  0.00     0.274 HD
ENDBRANCH   3  30
TORSDOF 9
ENDMDL
MODEL 3
REMARK VINA RESULT: -7.917313901      1.974      3.354
REMARK  9 active torsions:
REMARK  status: ('A' for Active; 'I' for Inactive)
REMARK    1  A    between atoms: C2_2  and  O2_4 
REMARK    2  A    between atoms: O2_4  and  C3_5 
REMARK    3  A    between atoms: C4_6  and  O3_7 
REMARK    4  A    between atoms: C5_9  and  N1_10 
REMARK    5  A    between atoms: C8_16  and  N2_17 
REMARK    6  A    between atoms: C9_21  and  O4_22 
REMARK    7  A    between atoms: O4_22  and  C10_23 
REMARK    8  A    between atoms: C10_23  and  C11_25 
REMARK    9  A    between atoms: N3_27  and  N4_29 
REMARK       I    between atoms: N4_29  and  C13_31 
ROOT
HETATM    1  C3  UNL     1      20.406 -32.520   7.786  1.00  0.00     0.194 C 
HETATM    2  C4  UNL     1      20.081 -31.167   8.363  1.00  0.00     0.181 C 
HETATM    3  C5  UNL     1      19.691 -31.411   9.828  1.00  0.00     0.220 C 
HETATM    4  C6  UNL     1      18.591 -32.409   9.958  1.00  0.00     0.048 C 
HETATM    5  C7  UNL     1      18.352 -32.718  11.396  1.00  0.00     0.014 C 
HETATM    6  C8  UNL     1      18.883 -33.724   9.216  1.00  0.00     0.221 C 
HETATM    7  C9  UNL     1      19.130 -33.341   7.795  1.00  0.00     0.195 C 
ENDROOT
BRANCH   7   8
HETATM    8  O4  UNL     1      19.174 -34.324   6.854  1.00  0.00    -0.306 OA
BRANCH   8   9
HETATM    9  C10 UNL     1      18.224 -35.216   6.435  1.00  0.00     0.307 C 
HETATM   10  O5  UNL     1      17.963 -36.123   7.231  1.00  0.00    -0.258 OA
BRANCH   9  11
HETATM   11  C11 UNL     1      17.533 -35.161   5.156  1.00  0.00     0.097 C 
HETATM   12  C12 UNL     1      16.808 -33.915   4.813  1.00  0.00     0.076 C 
HETATM   13  N3  UNL     1      17.527 -36.140   4.323  1.00  0.00    -0.296 N 
ATOM     14  H3  UNL     1      18.017 -37.008   4.537  1.00  0.00     0.187 HD
BRANCH  13  15
HETATM   15  N4  UNL     1      16.835 -35.988   3.121  1.00  0.00    -0.254 N 
HETATM   16  C13 UNL     1      17.166 -36.770   1.960  1.00  0.00     0.347 C 
HETATM   17  N5  UNL     1      16.450 -36.602   0.744  1.00  0.00    -0.038 NA
HETATM   18  O6  UNL     1      18.097 -37.610   2.019  1.00  0.00    -0.249 OA
ATOM     19  H4  UNL     1      16.077 -35.308   3.064  1.00  0.00     0.191 HD
ENDBRANCH  13  15
ENDBRANCH   9  11
ENDBRANCH   8   9
ENDBRANCH   7   8
BRANCH   1  20
HETATM   20  O2  UNL     1      21.091 -32.501   6.589  1.00  0.00    -0.311 OA
BRANCH  20  21
HETATM   21  C2  UNL     1      20.853 -31.598   5.566  1.00  0.00     0.255 C 
HETATM   22  C1  UNL     1      19.669 -31.640   4.684  1.00  0.00     0.126 C 
HETATM   23  O1  UNL     1      21.758 -30.708   5.443  1.00  0.00    -0.266 OA
ENDBRANCH  20  21
ENDBRANCH   1  20
BRANCH   6  24
HETATM   24  N2  UNL     1      20.002 -34.326   9.871  1.00  0.00    -0.072 N 
ATOM     25  H23 UNL     1      20.519 -34.970   9.273  1.00  0.00     0.274 HD
ATOM     26  H22 UNL     1      20.765 -33.672  10.046  1.00  0.00     0.274 HD
ATOM     27  H21 UNL     1      19.644 -34.763  10.720  1.00  0.00     0.274 HD
ENDBRANCH   6  24
BRANCH   2  28
HETATM   28  O3  UNL     1      21.193 -30.331   8.402  1.00  0.00    -0.391 OA
ATOM     29  H3  UNL     1      21.408 -30.060   9.287  1.00  0.00     0.210 HD
ENDBRANCH   2  28
BRANCH   3  30
HETATM   30  N1  UNL     1      20.843 -31.685  10.636  1.00  0.00    -0.072 N 
ATOM     31  H13 UNL     1      21.706 -31.423  10.159  1.00  0.00     0.274 HD
ATOM     32  H12 UNL     1      20.904 -31.047  11.430  1.00  0.00     0.274 HD
ATOM     33  H11 UNL     1      20.862 -32.659  10.937  1.00  0.00     0.274 HD
ENDBRANCH   3  30
TORSDOF 9
ENDMDL
MODEL 4
REMARK VINA RESULT: -7.877353027      2.237      3.631
REMARK  9 active torsions:
REMARK  status: ('A' for Active; 'I' for Inactive)
REMARK    1  A    between atoms: C2_2  and  O2_4 
REMARK    2  A    between atoms: O2_4  and  C3_5 
REMARK    3  A    between atoms: C4_6  and  O3_7 
REMARK    4  A    between atoms: C5_9  and  N1_10 
REMARK    5  A    between atoms: C8_16  and  N2_17 
REMARK    6  A    between atoms: C9_21  and  O4_22 
REMARK    7  A    between atoms: O4_22  and  C10_23 
REMARK    8  A    between atoms: C10_23  and  C11_25 
REMARK    9  A    between atoms: N3_27  and  N4_29 
REMARK       I    between atoms: N4_29  and  C13_31 
ROOT
HETATM    1  C3  UNL     1      18.577 -32.712   7.461  1.00  0.00     0.194 C 
HETATM    2  C4  UNL     1      17.981 -32.244   8.763  1.00  0.00     0.181 C 
HETATM    3  C5  UNL     1      17.762 -33.507   9.609  1.00  0.00     0.220 C 
HETATM    4  C6  UNL     1      16.942 -34.527   8.895  1.00  0.00     0.048 C 
HETATM    5  C7  UNL     1      16.884 -35.783   9.696  1.00  0.00     0.014 C 
HETATM    6  C8  UNL     1      17.486 -34.862   7.496  1.00  0.00     0.221 C 
HETATM    7  C9  UNL     1      17.537 -33.566   6.760  1.00  0.00     0.195 C 
ENDROOT
BRANCH   7   8
HETATM    8  O4  UNL     1      17.748 -33.588   5.415  1.00  0.00    -0.306 OA
BRANCH   8   9
HETATM    9  C10 UNL     1      18.488 -34.432   4.631  1.00  0.00     0.307 C 
HETATM   10  O5  UNL     1      19.704 -34.223   4.632  1.00  0.00    -0.258 OA
BRANCH   9  11
HETATM   11  C11 UNL     1      17.945 -35.516   3.827  1.00  0.00     0.097 C 
HETATM   12  C12 UNL     1      18.250 -36.906   4.241  1.00  0.00     0.076 C 
HETATM   13  N3  UNL     1      17.221 -35.316   2.784  1.00  0.00    -0.296 N 
ATOM     14  H3  UNL     1      16.999 -34.369   2.478  1.00  0.00     0.187 HD
BRANCH  13  15
HETATM   15  N4  UNL     1      16.746 -36.423   2.079  1.00  0.00    -0.254 N 
HETATM   16  C13 UNL     1      17.267 -36.769   0.785  1.00  0.00     0.347 C 
HETATM   17  N5  UNL     1      16.771 -37.900   0.082  1.00  0.00    -0.038 NA
HETATM   18  O6  UNL     1      18.168 -36.066   0.267  1.00  0.00    -0.249 OA
ATOM     19  H4  UNL     1      16.013 -37.000   2.492  1.00  0.00     0.191 HD
ENDBRANCH  13  15
ENDBRANCH   9  11
ENDBRANCH   8   9
ENDBRANCH   7   8
BRANCH   1  20
HETATM   20  O2  UNL     1      19.153 -31.725   6.689  1.00  0.00    -0.311 OA
BRANCH  20  21
HETATM   21  C2  UNL     1      20.517 -31.540   6.543  1.00  0.00     0.255 C 
HETATM   22  C1  UNL     1      21.146 -30.904   5.368  1.00  0.00     0.126 C 
HETATM   23  O1  UNL     1      21.204 -31.973   7.527  1.00  0.00    -0.266 OA
ENDBRANCH  20  21
ENDBRANCH   1  20
BRANCH   6  24
HETATM   24  N2  UNL     1      18.759 -35.484   7.688  1.00  0.00    -0.072 N 
ATOM     25  H23 UNL     1      19.467 -34.848   8.056  1.00  0.00     0.274 HD
ATOM     26  H22 UNL     1      18.769 -36.149   8.461  1.00  0.00     0.274 HD
ATOM     27  H21 UNL     1      19.019 -35.902   6.795  1.00  0.00     0.274 HD
ENDBRANCH   6  24
BRANCH   2  28
HETATM   28  O3  UNL     1      18.863 -31.449   9.490  1.00  0.00    -0.391 OA
ATOM     29  H3  UNL     1      18.980 -30.592   9.097  1.00  0.00     0.210 HD
ENDBRANCH   2  28
BRANCH   3  30
HETATM   30  N1  UNL     1      18.999 -34.000  10.140  1.00  0.00    -0.072 N 
ATOM     31  H13 UNL     1      18.910 -34.963  10.465  1.00  0.00     0.274 HD
ATOM     32  H12 UNL     1      19.691 -34.146   9.403  1.00  0.00     0.274 HD
ATOM     33  H11 UNL     1      19.358 -33.389  10.873  1.00  0.00     0.274 HD
ENDBRANCH   3  30
TORSDOF 9
ENDMDL
MODEL 5
REMARK VINA RESULT: -7.871290150      1.870      2.267
REMARK  9 active torsions:
REMARK  status: ('A' for Active; 'I' for Inactive)
REMARK    1  A    between atoms: C2_2  and  O2_4 
REMARK    2  A    between atoms: O2_4  and  C3_5 
REMARK    3  A    between atoms: C4_6  and  O3_7 
REMARK    4  A    between atoms: C5_9  and  N1_10 
REMARK    5  A    between atoms: C8_16  and  N2_17 
REMARK    6  A    between atoms: C9_21  and  O4_22 
REMARK    7  A    between atoms: O4_22  and  C10_23 
REMARK    8  A    between atoms: C10_23  and  C11_25 
REMARK    9  A    between atoms: N3_27  and  N4_29 
REMARK       I    between atoms: N4_29  and  C13_31 
ROOT
HETATM    1  C3  UNL     1      18.539 -34.146   7.579  1.00  0.00     0.194 C 
HETATM    2  C4  UNL     1      19.911 -33.602   7.883  1.00  0.00     0.181 C 
HETATM    3  C5  UNL     1      19.836 -32.090   7.625  1.00  0.00     0.220 C 
HETATM    4  C6  UNL     1      19.346 -31.777   6.252  1.00  0.00     0.048 C 
HETATM    5  C7  UNL     1      19.152 -30.307   6.105  1.00  0.00     0.014 C 
HETATM    6  C8  UNL     1      18.023 -32.483   5.912  1.00  0.00     0.221 C 
HETATM    7  C9  UNL     1      18.281 -33.940   6.099  1.00  0.00     0.195 C 
ENDROOT
BRANCH   7   8
HETATM    8  O4  UNL     1      17.361 -34.830   5.634  1.00  0.00    -0.306 OA
BRANCH   8   9
HETATM    9  C10 UNL     1      17.455 -35.819   4.692  1.00  0.00     0.307 C 
HETATM   10  O5  UNL     1      17.844 -36.912   5.111  1.00  0.00    -0.258 OA
BRANCH   9  11
HETATM   11  C11 UNL     1      17.138 -35.660   3.281  1.00  0.00     0.097 C 
HETATM   12  C12 UNL     1      16.822 -34.298   2.790  1.00  0.00     0.076 C 
HETATM   13  N3  UNL     1      17.121 -36.645   2.455  1.00  0.00    -0.296 N 
ATOM     14  H3  UNL     1      17.333 -37.592   2.769  1.00  0.00     0.187 HD
BRANCH  13  15
HETATM   15  N4  UNL     1      16.805 -36.390   1.120  1.00  0.00    -0.254 N 
HETATM   16  C13 UNL     1      17.561 -36.973   0.045  1.00  0.00     0.347 C 
HETATM   17  N5  UNL     1      17.224 -36.702  -1.309  1.00  0.00    -0.038 NA
HETATM   18  O6  UNL     1      18.529 -37.729   0.302  1.00  0.00    -0.249 OA
ATOM     19  H4  UNL     1      16.020 -35.776   0.901  1.00  0.00     0.191 HD
ENDBRANCH  13  15
ENDBRANCH   9  11
ENDBRANCH   8   9
ENDBRANCH   7   8
BRANCH   1  20
HETATM   20  O2  UNL     1      18.292 -35.417   8.054  1.00  0.00    -0.311 OA
BRANCH  20  21
HETATM   21  C2  UNL     1      17.326 -35.728   8.996  1.00  0.00     0.255 C 
HETATM   22  C1  UNL     1      16.505 -34.723   9.702  1.00  0.00     0.126 C 
HETATM   23  O1  UNL     1      17.198 -36.978   9.211  1.00  0.00    -0.266 OA
ENDBRANCH  20  21
ENDBRANCH   1  20
BRANCH   6  24
HETATM   24  N2  UNL     1      17.030 -31.941   6.787  1.00  0.00    -0.072 N 
ATOM     25  H23 UNL     1      17.184 -32.179   7.767  1.00  0.00     0.274 HD
ATOM     26  H22 UNL     1      17.094 -30.928   6.888  1.00  0.00     0.274 HD
ATOM     27  H21 UNL     1      16.126 -32.253   6.434  1.00  0.00     0.274 HD
ENDBRANCH   6  24
BRANCH   2  28
HETATM   28  O3  UNL     1      20.246 -33.740   9.227  1.00  0.00    -0.391 OA
ATOM     29  H3  UNL     1      20.152 -34.636   9.530  1.00  0.00     0.210 HD
ENDBRANCH   2  28
BRANCH   3  30
HETATM   30  N1  UNL     1      19.133 -31.416   8.678  1.00  0.00    -0.072 N 
ATOM     31  H13 UNL     1      19.469 -31.703   9.596  1.00  0.00     0.274 HD
ATOM     32  H12 UNL     1      19.382 -30.427   8.721  1.00  0.00     0.274 HD
ATOM     33  H11 UNL     1      18.125 -31.544   8.591  1.00  0.00     0.274 HD
ENDBRANCH   3  30
TORSDOF 9
ENDMDL
