MODEL 1
REMARK VINA RESULT: -7.811165963      0.000      0.000
REMARK  7 active torsions:
REMARK  status: ('A' for Active; 'I' for Inactive)
REMARK    1  A    between atoms: C2_2  and  N1_4 
REMARK       I    between atoms: N1_4  and  C4_6 
REMARK    2  A    between atoms: C4_6  and  C5_8 
REMARK    3  A    between atoms: C5_8  and  C6_9 
REMARK       I    between atoms: C6_9  and  N2_11 
REMARK    4  A    between atoms: N2_11  and  C7_13 
REMARK    5  A    between atoms: C14_20  and  C15_21 
REMARK    6  A    between atoms: C20_28  and  C21_29 
REMARK    7  A    between atoms: C22_30  and  C23_31 
ROOT
HETATM    1  C6  UNL     1       7.763  10.798  -5.972  1.00  0.00     0.236 C 
HETATM    2  O2  UNL     1       8.519  11.503  -6.692  1.00  0.00    -0.272 OA
HETATM    3  N2  UNL     1       7.967  10.783  -4.550  1.00  0.00    -0.355 N 
ATOM      4  H2  UNL     1       7.364  10.219  -3.950  1.00  0.00     0.162 HD
ENDROOT
BRANCH   1   5
HETATM    5  C5  UNL     1       6.714  10.036  -6.646  1.00  0.00     0.122 C 
HETATM    6  C18 UNL     1       7.179   8.745  -7.254  1.00  0.00     0.030 C 
HETATM    7  C19 UNL     1       6.233   8.464  -8.403  1.00  0.00     0.019 C 
HETATM    8  C20 UNL     1       5.610   9.790  -8.769  1.00  0.00     0.067 C 
HETATM    9  C24 UNL     1       6.192  10.788  -7.819  1.00  0.00     0.046 C 
BRANCH   5  10
HETATM   10  C4  UNL     1       5.642   9.773  -5.627  1.00  0.00     0.236 C 
HETATM   11  N1  UNL     1       4.904  10.840  -5.069  1.00  0.00    -0.356 N 
ATOM     12  H1  UNL     1       5.099  11.798  -5.360  1.00  0.00     0.162 HD
HETATM   13  O1  UNL     1       5.421   8.605  -5.288  1.00  0.00    -0.272 OA
BRANCH  11  14
HETATM   14  C2  UNL     1       3.875  10.582  -4.090  1.00  0.00     0.076 C 
HETATM   15  C1  UNL     1       4.491  10.621  -2.686  1.00  0.00     0.032 C 
HETATM   16  C3  UNL     1       2.846  11.702  -4.228  1.00  0.00     0.032 C 
ENDBRANCH  11  14
ENDBRANCH   5  10
BRANCH   8  17
HETATM   17  C21 UNL     1       6.027  10.116 -10.139  1.00  0.00    -0.099 C 
HETATM   18  C22 UNL     1       6.356  10.372 -11.273  1.00  0.00    -0.075 C 
BRANCH  18  19
HETATM   19  C23 UNL     1       6.736  10.668 -12.663  1.00  0.00     0.315 C 
HETATM   20  F1  UNL     1       6.113  11.841 -13.034  1.00  0.00    -0.242 F 
ENDBRANCH  18  19
ENDBRANCH   8  17
ENDBRANCH   1   5
BRANCH   3  21
HETATM   21  C7  UNL     1       9.015  11.558  -3.984  1.00  0.00     0.092 C 
HETATM   22  C8  UNL     1       9.906  10.796  -3.035  1.00  0.00     0.010 C 
HETATM   23  C9  UNL     1       9.290  10.554  -1.694  1.00  0.00     0.011 C 
HETATM   24  C17 UNL     1      11.141  11.651  -2.822  1.00  0.00     0.025 C 
HETATM   25  C10 UNL     1       8.964  11.875  -1.033  1.00  0.00    -0.013 C 
HETATM   26  C11 UNL     1       7.937  12.551  -1.938  1.00  0.00     0.011 C 
HETATM   27  C16 UNL     1      10.147  12.774  -0.891  1.00  0.00     0.023 C 
HETATM   28  C12 UNL     1       8.530  12.807  -3.283  1.00  0.00     0.010 C 
HETATM   29  C13 UNL     1       9.736  13.705  -3.100  1.00  0.00     0.025 C 
HETATM   30  C14 UNL     1      10.776  12.985  -2.253  1.00  0.00     0.040 C 
BRANCH  30  31
HETATM   31  C15 UNL     1      11.958  13.859  -2.191  1.00  0.00     0.239 C 
HETATM   32  N3  UNL     1      11.815  15.220  -1.847  1.00  0.00    -0.061 NA
HETATM   33  O3  UNL     1      13.080  13.395  -2.444  1.00  0.00    -0.276 OA
ENDBRANCH  30  31
ENDBRANCH   3  21
TORSDOF 7
ENDMDL
MODEL 2
REMARK VINA RESULT: -7.758691822      4.178      7.789
REMARK  7 active torsions:
REMARK  status: ('A' for Active; 'I' for Inactive)
REMARK    1  A    between atoms: C2_2  and  N1_4 
REMARK       I    between atoms: N1_4  and  C4_6 
REMARK    2  A    between atoms: C4_6  and  C5_8 
REMARK    3  A    between atoms: C5_8  and  C6_9 
REMARK       I    between atoms: C6_9  and  N2_11 
REMARK    4  A    between atoms: N2_11  and  C7_13 
REMARK    5  A    between atoms: C14_20  and  C15_21 
REMARK    6  A    between atoms: C20_28  and  C21_29 
REMARK    7  A    between atoms: C22_30  and  C23_31 
ROOT
HETATM    1  C6  UNL     1       5.157  10.437  -4.804  1.00  0.00     0.236 C 
HETATM    2  O2  UNL     1       4.121  10.949  -5.307  1.00  0.00    -0.272 OA
HETATM    3  N2  UNL     1       6.119   9.813  -5.669  1.00  0.00    -0.355 N 
ATOM      4  H2  UNL     1       6.965   9.395  -5.281  1.00  0.00     0.162 HD
ENDROOT
BRANCH   1   5
HETATM    5  C5  UNL     1       5.309  10.518  -3.353  1.00  0.00     0.122 C 
HETATM    6  C18 UNL     1       6.733  10.542  -2.879  1.00  0.00     0.030 C 
HETATM    7  C19 UNL     1       6.713   9.961  -1.480  1.00  0.00     0.019 C 
HETATM    8  C20 UNL     1       5.443   9.151  -1.378  1.00  0.00     0.067 C 
HETATM    9  C24 UNL     1       4.760   9.297  -2.700  1.00  0.00     0.046 C 
BRANCH   5  10
HETATM   10  C4  UNL     1       4.593  11.761  -2.907  1.00  0.00     0.236 C 
HETATM   11  N1  UNL     1       3.208  11.733  -2.632  1.00  0.00    -0.356 N 
ATOM     12  H1  UNL     1       2.688  10.862  -2.736  1.00  0.00     0.162 HD
HETATM   13  O1  UNL     1       5.241  12.807  -2.786  1.00  0.00    -0.272 OA
BRANCH  11  14
HETATM   14  C2  UNL     1       2.524  12.931  -2.204  1.00  0.00     0.076 C 
HETATM   15  C1  UNL     1       1.767  13.534  -3.393  1.00  0.00     0.032 C 
HETATM   16  C3  UNL     1       1.531  12.509  -1.125  1.00  0.00     0.032 C 
ENDBRANCH  11  14
ENDBRANCH   5  10
BRANCH   8  17
HETATM   17  C21 UNL     1       5.825   7.747  -1.177  1.00  0.00    -0.099 C 
HETATM   18  C22 UNL     1       6.149   6.593  -1.030  1.00  0.00    -0.075 C 
BRANCH  18  19
HETATM   19  C23 UNL     1       6.558   5.187  -0.874  1.00  0.00     0.315 C 
HETATM   20  F1  UNL     1       7.237   4.813  -2.014  1.00  0.00    -0.242 F 
ENDBRANCH  18  19
ENDBRANCH   8  17
ENDBRANCH   1   5
BRANCH   3  21
HETATM   21  C7  UNL     1       5.885   9.784  -7.071  1.00  0.00     0.092 C 
HETATM   22  C8  UNL     1       6.627   8.690  -7.799  1.00  0.00     0.010 C 
HETATM   23  C9  UNL     1       8.082   8.977  -7.994  1.00  0.00     0.011 C 
HETATM   24  C17 UNL     1       5.995   8.581  -9.173  1.00  0.00     0.025 C 
HETATM   25  C10 UNL     1       8.250  10.243  -8.804  1.00  0.00    -0.013 C 
HETATM   26  C11 UNL     1       7.631  11.359  -7.965  1.00  0.00     0.011 C 
HETATM   27  C16 UNL     1       7.562  10.197 -10.127  1.00  0.00     0.023 C 
HETATM   28  C12 UNL     1       6.177  11.098  -7.760  1.00  0.00     0.010 C 
HETATM   29  C13 UNL     1       5.514  11.038  -9.120  1.00  0.00     0.025 C 
HETATM   30  C14 UNL     1       6.098   9.877  -9.913  1.00  0.00     0.040 C 
BRANCH  30  31
HETATM   31  C15 UNL     1       5.351   9.807 -11.180  1.00  0.00     0.239 C 
HETATM   32  N3  UNL     1       5.877  10.403 -12.345  1.00  0.00    -0.061 NA
HETATM   33  O3  UNL     1       4.258   9.222 -11.218  1.00  0.00    -0.276 OA
ENDBRANCH  30  31
ENDBRANCH   3  21
TORSDOF 7
ENDMDL
MODEL 3
REMARK VINA RESULT: -7.723388012      4.123      7.603
REMARK  7 active torsions:
REMARK  status: ('A' for Active; 'I' for Inactive)
REMARK    1  A    between atoms: C2_2  and  N1_4 
REMARK       I    between atoms: N1_4  and  C4_6 
REMARK    2  A    between atoms: C4_6  and  C5_8 
REMARK    3  A    between atoms: C5_8  and  C6_9 
REMARK       I    between atoms: C6_9  and  N2_11 
REMARK    4  A    between atoms: N2_11  and  C7_13 
REMARK    5  A    between atoms: C14_20  and  C15_21 
REMARK    6  A    between atoms: C20_28  and  C21_29 
REMARK    7  A    between atoms: C22_30  and  C23_31 
ROOT
HETATM    1  C6  UNL     1       5.383  10.491  -4.058  1.00  0.00     0.236 C 
HETATM    2  O2  UNL     1       4.277  10.884  -4.516  1.00  0.00    -0.272 OA
HETATM    3  N2  UNL     1       6.477  10.274  -4.964  1.00  0.00    -0.355 N 
ATOM      4  H2  UNL     1       7.381   9.957  -4.612  1.00  0.00     0.162 HD
ENDROOT
BRANCH   1   5
HETATM    5  C5  UNL     1       5.476  10.283  -2.615  1.00  0.00     0.122 C 
HETATM    6  C18 UNL     1       6.877  10.294  -2.077  1.00  0.00     0.030 C 
HETATM    7  C19 UNL     1       6.846   9.440  -0.825  1.00  0.00     0.019 C 
HETATM    8  C20 UNL     1       5.632   8.551  -0.952  1.00  0.00     0.067 C 
HETATM    9  C24 UNL     1       4.989   8.924  -2.250  1.00  0.00     0.046 C 
BRANCH   5  10
HETATM   10  C4  UNL     1       4.662  11.363  -1.964  1.00  0.00     0.236 C 
HETATM   11  N1  UNL     1       3.274  11.193  -1.760  1.00  0.00    -0.356 N 
ATOM     12  H1  UNL     1       2.820  10.329  -2.057  1.00  0.00     0.162 HD
HETATM   13  O1  UNL     1       5.230  12.403  -1.611  1.00  0.00    -0.272 OA
BRANCH  11  14
HETATM   14  C2  UNL     1       2.495  12.235  -1.134  1.00  0.00     0.076 C 
HETATM   15  C1  UNL     1       1.798  13.067  -2.217  1.00  0.00     0.032 C 
HETATM   16  C3  UNL     1       1.447  11.541  -0.268  1.00  0.00     0.032 C 
ENDBRANCH  11  14
ENDBRANCH   5  10
BRANCH   8  17
HETATM   17  C21 UNL     1       6.102   7.161  -1.019  1.00  0.00    -0.099 C 
HETATM   18  C22 UNL     1       6.480   6.016  -1.094  1.00  0.00    -0.075 C 
BRANCH  18  19
HETATM   19  C23 UNL     1       6.930   4.620  -1.209  1.00  0.00     0.315 C 
HETATM   20  F1  UNL     1       7.303   4.400  -2.518  1.00  0.00    -0.242 F 
ENDBRANCH  18  19
ENDBRANCH   8  17
ENDBRANCH   1   5
BRANCH   3  21
HETATM   21  C7  UNL     1       6.291  10.504  -6.354  1.00  0.00     0.092 C 
HETATM   22  C8  UNL     1       5.400   9.494  -7.035  1.00  0.00     0.010 C 
HETATM   23  C9  UNL     1       6.065   8.179  -7.287  1.00  0.00     0.011 C 
HETATM   24  C17 UNL     1       5.031  10.085  -8.382  1.00  0.00     0.025 C 
HETATM   25  C10 UNL     1       7.272   8.376  -8.177  1.00  0.00    -0.013 C 
HETATM   26  C11 UNL     1       8.226   9.273  -7.390  1.00  0.00     0.011 C 
HETATM   27  C16 UNL     1       6.950   9.037  -9.475  1.00  0.00     0.023 C 
HETATM   28  C12 UNL     1       7.587  10.595  -7.129  1.00  0.00     0.010 C 
HETATM   29  C13 UNL     1       7.257  11.228  -8.464  1.00  0.00     0.025 C 
HETATM   30  C14 UNL     1       6.252  10.353  -9.202  1.00  0.00     0.040 C 
BRANCH  30  31
HETATM   31  C15 UNL     1       5.895  11.063 -10.441  1.00  0.00     0.239 C 
HETATM   32  N3  UNL     1       6.475  10.680 -11.669  1.00  0.00    -0.061 NA
HETATM   33  O3  UNL     1       5.083  11.999 -10.401  1.00  0.00    -0.276 OA
ENDBRANCH  30  31
ENDBRANCH   3  21
TORSDOF 7
ENDMDL
MODEL 4
REMARK VINA RESULT: -7.524010266      4.028      7.653
REMARK  7 active torsions:
REMARK  status: ('A' for Active; 'I' for Inactive)
REMARK    1  A    between atoms: C2_2  and  N1_4 
REMARK       I    between atoms: N1_4  and  C4_6 
REMARK    2  A    between atoms: C4_6  and  C5_8 
REMARK    3  A    between atoms: C5_8  and  C6_9 
REMARK       I    between atoms: C6_9  and  N2_11 
REMARK    4  A    between atoms: N2_11  and  C7_13 
REMARK    5  A    between atoms: C14_20  and  C15_21 
REMARK    6  A    between atoms: C20_28  and  C21_29 
REMARK    7  A    between atoms: C22_30  and  C23_31 
ROOT
HETATM    1  C6  UNL     1       5.606  10.777  -4.175  1.00  0.00     0.236 C 
HETATM    2  O2  UNL     1       4.526  11.266  -4.601  1.00  0.00    -0.272 OA
HETATM    3  N2  UNL     1       6.623  10.401  -5.118  1.00  0.00    -0.355 N 
ATOM      4  H2  UNL     1       7.505  10.005  -4.792  1.00  0.00     0.162 HD
ENDROOT
BRANCH   1   5
HETATM    5  C5  UNL     1       5.751  10.626  -2.728  1.00  0.00     0.122 C 
HETATM    6  C18 UNL     1       7.170  10.485  -2.259  1.00  0.00     0.030 C 
HETATM    7  C19 UNL     1       7.101   9.701  -0.964  1.00  0.00     0.019 C 
HETATM    8  C20 UNL     1       5.781   8.968  -0.985  1.00  0.00     0.067 C 
HETATM    9  C24 UNL     1       5.120   9.358  -2.269  1.00  0.00     0.046 C 
BRANCH   5  10
HETATM   10  C4  UNL     1       5.113  11.830  -2.097  1.00  0.00     0.236 C 
HETATM   11  N1  UNL     1       5.577  13.130  -2.399  1.00  0.00    -0.356 N 
ATOM     12  H1  UNL     1       6.352  13.253  -3.052  1.00  0.00     0.162 HD
HETATM   13  O1  UNL     1       4.176  11.660  -1.310  1.00  0.00    -0.272 OA
BRANCH  11  14
HETATM   14  C2  UNL     1       4.961  14.285  -1.790  1.00  0.00     0.076 C 
HETATM   15  C1  UNL     1       6.051  15.279  -1.372  1.00  0.00     0.032 C 
HETATM   16  C3  UNL     1       4.069  14.920  -2.853  1.00  0.00     0.032 C 
ENDBRANCH  11  14
ENDBRANCH   5  10
BRANCH   8  17
HETATM   17  C21 UNL     1       6.071   7.529  -1.001  1.00  0.00    -0.099 C 
HETATM   18  C22 UNL     1       6.326   6.348  -1.027  1.00  0.00    -0.075 C 
BRANCH  18  19
HETATM   19  C23 UNL     1       6.657   4.915  -1.072  1.00  0.00     0.315 C 
HETATM   20  F1  UNL     1       7.282   4.661  -2.275  1.00  0.00    -0.242 F 
ENDBRANCH  18  19
ENDBRANCH   8  17
ENDBRANCH   1   5
BRANCH   3  21
HETATM   21  C7  UNL     1       6.392  10.586  -6.508  1.00  0.00     0.092 C 
HETATM   22  C8  UNL     1       5.454   9.575  -7.119  1.00  0.00     0.010 C 
HETATM   23  C9  UNL     1       6.079   8.235  -7.347  1.00  0.00     0.011 C 
HETATM   24  C17 UNL     1       5.049  10.126  -8.473  1.00  0.00     0.025 C 
HETATM   25  C10 UNL     1       7.257   8.372  -8.286  1.00  0.00    -0.013 C 
HETATM   26  C11 UNL     1       8.259   9.273  -7.567  1.00  0.00     0.011 C 
HETATM   27  C16 UNL     1       6.903   8.994  -9.595  1.00  0.00     0.023 C 
HETATM   28  C12 UNL     1       7.660  10.618  -7.332  1.00  0.00     0.010 C 
HETATM   29  C13 UNL     1       7.295  11.212  -8.676  1.00  0.00     0.025 C 
HETATM   30  C14 UNL     1       6.245  10.335  -9.345  1.00  0.00     0.040 C 
BRANCH  30  31
HETATM   31  C15 UNL     1       5.859  11.009 -10.596  1.00  0.00     0.239 C 
HETATM   32  N3  UNL     1       6.408  10.588 -11.825  1.00  0.00    -0.061 NA
HETATM   33  O3  UNL     1       5.049  11.948 -10.564  1.00  0.00    -0.276 OA
ENDBRANCH  30  31
ENDBRANCH   3  21
TORSDOF 7
ENDMDL
MODEL 5
REMARK VINA RESULT: -7.362814389      3.736      7.669
REMARK  7 active torsions:
REMARK  status: ('A' for Active; 'I' for Inactive)
REMARK    1  A    between atoms: C2_2  and  N1_4 
REMARK       I    between atoms: N1_4  and  C4_6 
REMARK    2  A    between atoms: C4_6  and  C5_8 
REMARK    3  A    between atoms: C5_8  and  C6_9 
REMARK       I    between atoms: C6_9  and  N2_11 
REMARK    4  A    between atoms: N2_11  and  C7_13 
REMARK    5  A    between atoms: C14_20  and  C15_21 
REMARK    6  A    between atoms: C20_28  and  C21_29 
REMARK    7  A    between atoms: C22_30  and  C23_31 
ROOT
HETATM    1  C6  UNL     1       5.065  10.666  -4.764  1.00  0.00     0.236 C 
HETATM    2  O2  UNL     1       3.986  11.046  -5.292  1.00  0.00    -0.272 OA
HETATM    3  N2  UNL     1       6.086  10.092  -5.596  1.00  0.00    -0.355 N 
ATOM      4  H2  UNL     1       6.967   9.780  -5.187  1.00  0.00     0.162 HD
ENDROOT
BRANCH   1   5
HETATM    5  C5  UNL     1       5.205  10.842  -3.320  1.00  0.00     0.122 C 
HETATM    6  C18 UNL     1       5.582  12.233  -2.898  1.00  0.00     0.030 C 
HETATM    7  C19 UNL     1       6.311  12.081  -1.579  1.00  0.00     0.019 C 
HETATM    8  C20 UNL     1       6.800  10.653  -1.529  1.00  0.00     0.067 C 
HETATM    9  C24 UNL     1       6.330  10.018  -2.799  1.00  0.00     0.046 C 
BRANCH   5  10
HETATM   10  C4  UNL     1       3.892  10.452  -2.703  1.00  0.00     0.236 C 
HETATM   11  N1  UNL     1       3.496   9.097  -2.653  1.00  0.00    -0.356 N 
ATOM     12  H1  UNL     1       4.106   8.376  -3.038  1.00  0.00     0.162 HD
HETATM   13  O1  UNL     1       3.167  11.341  -2.241  1.00  0.00    -0.272 OA
BRANCH  11  14
HETATM   14  C2  UNL     1       2.233   8.727  -2.059  1.00  0.00     0.076 C 
HETATM   15  C1  UNL     1       1.693   7.474  -2.759  1.00  0.00     0.032 C 
HETATM   16  C3  UNL     1       2.512   8.414  -0.592  1.00  0.00     0.032 C 
ENDBRANCH  11  14
ENDBRANCH   5  10
BRANCH   8  17
HETATM   17  C21 UNL     1       8.268  10.685  -1.511  1.00  0.00    -0.099 C 
HETATM   18  C22 UNL     1       9.476  10.690  -1.495  1.00  0.00    -0.075 C 
BRANCH  18  19
HETATM   19  C23 UNL     1      10.947  10.670  -1.474  1.00  0.00     0.315 C 
HETATM   20  F1  UNL     1      11.378   9.924  -2.549  1.00  0.00    -0.242 F 
ENDBRANCH  18  19
ENDBRANCH   8  17
ENDBRANCH   1   5
BRANCH   3  21
HETATM   21  C7  UNL     1       5.860   9.962  -6.993  1.00  0.00     0.092 C 
HETATM   22  C8  UNL     1       6.542   8.772  -7.622  1.00  0.00     0.010 C 
HETATM   23  C9  UNL     1       8.012   8.960  -7.823  1.00  0.00     0.011 C 
HETATM   24  C17 UNL     1       5.914   8.588  -8.990  1.00  0.00     0.025 C 
HETATM   25  C10 UNL     1       8.259  10.144  -8.731  1.00  0.00    -0.013 C 
HETATM   26  C11 UNL     1       7.700  11.358  -7.992  1.00  0.00     0.011 C 
HETATM   27  C16 UNL     1       7.577  10.029 -10.054  1.00  0.00     0.023 C 
HETATM   28  C12 UNL     1       6.232  11.197  -7.782  1.00  0.00     0.010 C 
HETATM   29  C13 UNL     1       5.575  11.064  -9.140  1.00  0.00     0.025 C 
HETATM   30  C14 UNL     1       6.096   9.811  -9.831  1.00  0.00     0.040 C 
BRANCH  30  31
HETATM   31  C15 UNL     1       5.355   9.681 -11.096  1.00  0.00     0.239 C 
HETATM   32  N3  UNL     1       5.896  10.200 -12.290  1.00  0.00    -0.061 NA
HETATM   33  O3  UNL     1       4.252   9.113 -11.107  1.00  0.00    -0.276 OA
ENDBRANCH  30  31
ENDBRANCH   3  21
TORSDOF 7
ENDMDL
