MODEL 1
REMARK VINA RESULT: -7.295162829      0.000      0.000
REMARK  6 active torsions:
REMARK  status: ('A' for Active; 'I' for Inactive)
REMARK    1  A    between atoms: C2_2  and  C4_10 
REMARK    2  A    between atoms: N1_3  and  N2_5 
REMARK    3  A    between atoms: N2_5  and  C3_7 
REMARK    4  A    between atoms: C4_10  and  N4_11 
REMARK    5  A    between atoms: N4_11  and  C5_13 
REMARK       I    between atoms: N5_17  and  C9_18 
REMARK    6  A    between atoms: C9_18  and  C10_20 
ROOT
HETATM    1  C4  UNL     1       4.786   9.834  -3.625  1.00  0.00     0.054 C 
HETATM    2  C12 UNL     1       4.461  11.068  -3.365  1.00  0.00    -0.051 C 
HETATM    3  C13 UNL     1       4.583  11.822  -2.099  1.00  0.00     0.036 C 
HETATM    4  C14 UNL     1       3.218  12.328  -1.606  1.00  0.00     0.004 C 
HETATM    5  C15 UNL     1       2.541  13.117  -2.713  1.00  0.00     0.001 C 
HETATM    6  C16 UNL     1       2.399  12.250  -3.916  1.00  0.00     0.004 C 
HETATM    7  C17 UNL     1       3.801  11.923  -4.451  1.00  0.00     0.036 C 
ENDROOT
BRANCH   1   8
HETATM    8  C2  UNL     1       5.346   8.919  -2.681  1.00  0.00     0.048 C 
HETATM    9  C1  UNL     1       6.499   9.405  -1.826  1.00  0.00     0.072 C 
HETATM   10  N1  UNL     1       5.024   7.700  -2.478  1.00  0.00    -0.301 N 
ATOM     11  H1  UNL     1       4.258   7.285  -3.008  1.00  0.00     0.186 HD
BRANCH  10  12
HETATM   12  N2  UNL     1       5.703   6.935  -1.544  1.00  0.00    -0.278 N 
ATOM     13  H2  UNL     1       6.715   7.050  -1.489  1.00  0.00     0.189 HD
BRANCH  12  14
HETATM   14  C3  UNL     1       5.111   6.017  -0.671  1.00  0.00     0.199 C 
HETATM   15  N3  UNL     1       5.903   5.125   0.080  1.00  0.00    -0.068 NA
HETATM   16  S1  UNL     1       3.495   5.973  -0.517  1.00  0.00    -0.043 SA
ENDBRANCH  12  14
ENDBRANCH  10  12
ENDBRANCH   1   8
BRANCH   1  17
HETATM   17  N4  UNL     1       4.568   9.369  -4.973  1.00  0.00    -0.382 N 
ATOM     18  H4  UNL     1       3.648   8.986  -5.191  1.00  0.00     0.160 HD
BRANCH  17  19
HETATM   19  C5  UNL     1       5.528   9.400  -6.024  1.00  0.00     0.100 C 
HETATM   20  C6  UNL     1       6.835   9.947  -5.493  1.00  0.00     0.028 C 
HETATM   21  C7  UNL     1       7.597  10.741  -6.498  1.00  0.00     0.022 C 
HETATM   22  C8  UNL     1       7.549   9.953  -7.815  1.00  0.00     0.126 C 
HETATM   23  N5  UNL     1       6.190  10.045  -8.270  1.00  0.00    -0.350 N 
HETATM   24  C9  UNL     1       5.884  10.071  -9.635  1.00  0.00     0.229 C 
HETATM   25  C11 UNL     1       5.117  10.109  -7.290  1.00  0.00     0.150 C 
HETATM   26  O1  UNL     1       4.668  10.153 -10.027  1.00  0.00    -0.273 OA
BRANCH  24  27
HETATM   27  C10 UNL     1       6.915  10.010 -10.699  1.00  0.00     0.188 C 
HETATM   28 BR1  UNL     1       6.211  10.780 -12.349  1.00  0.00    -0.087 Br
ENDBRANCH  24  27
ENDBRANCH  17  19
ENDBRANCH   1  17
TORSDOF 6
ENDMDL
MODEL 2
REMARK VINA RESULT: -7.123597490      4.597      7.558
REMARK  6 active torsions:
REMARK  status: ('A' for Active; 'I' for Inactive)
REMARK    1  A    between atoms: C2_2  and  C4_10 
REMARK    2  A    between atoms: N1_3  and  N2_5 
REMARK    3  A    between atoms: N2_5  and  C3_7 
REMARK    4  A    between atoms: C4_10  and  N4_11 
REMARK    5  A    between atoms: N4_11  and  C5_13 
REMARK       I    between atoms: N5_17  and  C9_18 
REMARK    6  A    between atoms: C9_18  and  C10_20 
ROOT
HETATM    1  C4  UNL     1       5.653  10.504  -4.955  1.00  0.00     0.054 C 
HETATM    2  C12 UNL     1       6.769  11.093  -4.635  1.00  0.00    -0.051 C 
HETATM    3  C13 UNL     1       8.023  11.209  -5.410  1.00  0.00     0.036 C 
HETATM    4  C14 UNL     1       9.212  10.581  -4.665  1.00  0.00     0.004 C 
HETATM    5  C15 UNL     1       9.309  11.180  -3.273  1.00  0.00     0.001 C 
HETATM    6  C16 UNL     1       8.028  10.947  -2.550  1.00  0.00     0.004 C 
HETATM    7  C17 UNL     1       6.917  11.739  -3.254  1.00  0.00     0.036 C 
ENDROOT
BRANCH   1   8
HETATM    8  C2  UNL     1       5.415   9.812  -6.182  1.00  0.00     0.048 C 
HETATM    9  C1  UNL     1       6.087   8.468  -6.376  1.00  0.00     0.072 C 
HETATM   10  N1  UNL     1       4.721  10.197  -7.183  1.00  0.00    -0.301 N 
ATOM     11  H1  UNL     1       4.231  11.090  -7.143  1.00  0.00     0.186 HD
BRANCH  10  12
HETATM   12  N2  UNL     1       4.626   9.414  -8.321  1.00  0.00    -0.278 N 
ATOM     13  H2  UNL     1       4.571   8.404  -8.193  1.00  0.00     0.189 HD
BRANCH  12  14
HETATM   14  C3  UNL     1       4.600   9.900  -9.632  1.00  0.00     0.199 C 
HETATM   15  N3  UNL     1       3.983   9.160 -10.661  1.00  0.00    -0.068 NA
HETATM   16  S1  UNL     1       5.287  11.330  -9.979  1.00  0.00    -0.043 SA
ENDBRANCH  12  14
ENDBRANCH  10  12
ENDBRANCH   1   8
BRANCH   1  17
HETATM   17  N4  UNL     1       4.579  10.569  -3.994  1.00  0.00    -0.382 N 
ATOM     18  H4  UNL     1       4.180  11.488  -3.803  1.00  0.00     0.160 HD
BRANCH  17  19
HETATM   19  C5  UNL     1       4.031   9.460  -3.289  1.00  0.00     0.100 C 
HETATM   20  C6  UNL     1       2.637   9.809  -2.814  1.00  0.00     0.028 C 
HETATM   21  C7  UNL     1       2.280   9.179  -1.511  1.00  0.00     0.022 C 
HETATM   22  C8  UNL     1       2.746   7.718  -1.583  1.00  0.00     0.126 C 
HETATM   23  N5  UNL     1       4.180   7.768  -1.553  1.00  0.00    -0.350 N 
HETATM   24  C9  UNL     1       4.928   6.752  -0.950  1.00  0.00     0.229 C 
HETATM   25  C11 UNL     1       4.862   8.898  -2.164  1.00  0.00     0.150 C 
HETATM   26  O1  UNL     1       6.207   6.810  -0.931  1.00  0.00    -0.273 OA
BRANCH  24  27
HETATM   27  C10 UNL     1       4.314   5.566  -0.305  1.00  0.00     0.188 C 
HETATM   28 BR1  UNL     1       3.855   5.981   1.546  1.00  0.00    -0.087 Br
ENDBRANCH  24  27
ENDBRANCH  17  19
ENDBRANCH   1  17
TORSDOF 6
ENDMDL
MODEL 3
REMARK VINA RESULT: -7.081480685      3.396      4.150
REMARK  6 active torsions:
REMARK  status: ('A' for Active; 'I' for Inactive)
REMARK    1  A    between atoms: C2_2  and  C4_10 
REMARK    2  A    between atoms: N1_3  and  N2_5 
REMARK    3  A    between atoms: N2_5  and  C3_7 
REMARK    4  A    between atoms: C4_10  and  N4_11 
REMARK    5  A    between atoms: N4_11  and  C5_13 
REMARK       I    between atoms: N5_17  and  C9_18 
REMARK    6  A    between atoms: C9_18  and  C10_20 
ROOT
HETATM    1  C4  UNL     1       6.113  10.903  -4.172  1.00  0.00     0.054 C 
HETATM    2  C12 UNL     1       5.013  11.585  -4.030  1.00  0.00    -0.051 C 
HETATM    3  C13 UNL     1       4.748  12.771  -3.187  1.00  0.00     0.036 C 
HETATM    4  C14 UNL     1       3.628  12.505  -2.168  1.00  0.00     0.004 C 
HETATM    5  C15 UNL     1       2.395  11.996  -2.894  1.00  0.00     0.001 C 
HETATM    6  C16 UNL     1       2.747  10.763  -3.652  1.00  0.00     0.004 C 
HETATM    7  C17 UNL     1       3.743  11.137  -4.760  1.00  0.00     0.036 C 
ENDROOT
BRANCH   1   8
HETATM    8  C2  UNL     1       7.341  11.181  -3.498  1.00  0.00     0.048 C 
HETATM    9  C1  UNL     1       7.583  10.502  -2.165  1.00  0.00     0.072 C 
HETATM   10  N1  UNL     1       8.277  11.972  -3.857  1.00  0.00    -0.301 N 
ATOM     11  H1  UNL     1       8.202  12.473  -4.742  1.00  0.00     0.186 HD
BRANCH  10  12
HETATM   12  N2  UNL     1       9.393  12.158  -3.059  1.00  0.00    -0.278 N 
ATOM     13  H2  UNL     1       9.727  11.355  -2.525  1.00  0.00     0.189 HD
BRANCH  12  14
HETATM   14  C3  UNL     1      10.097  13.358  -2.927  1.00  0.00     0.199 C 
HETATM   15  N3  UNL     1       9.526  14.577  -3.345  1.00  0.00    -0.068 NA
HETATM   16  S1  UNL     1      11.589  13.355  -2.286  1.00  0.00    -0.043 SA
ENDBRANCH  12  14
ENDBRANCH  10  12
ENDBRANCH   1   8
BRANCH   1  17
HETATM   17  N4  UNL     1       6.079   9.791  -5.090  1.00  0.00    -0.382 N 
ATOM     18  H4  UNL     1       5.596   8.947  -4.784  1.00  0.00     0.160 HD
BRANCH  17  19
HETATM   19  C5  UNL     1       6.664   9.772  -6.389  1.00  0.00     0.100 C 
HETATM   20  C6  UNL     1       8.038  10.403  -6.329  1.00  0.00     0.028 C 
HETATM   21  C7  UNL     1       8.406  11.141  -7.570  1.00  0.00     0.022 C 
HETATM   22  C8  UNL     1       7.999  10.250  -8.753  1.00  0.00     0.126 C 
HETATM   23  N5  UNL     1       6.563  10.259  -8.766  1.00  0.00    -0.350 N 
HETATM   24  C9  UNL     1       5.850  10.168  -9.966  1.00  0.00     0.229 C 
HETATM   25  C11 UNL     1       5.843  10.364  -7.506  1.00  0.00     0.150 C 
HETATM   26  O1  UNL     1       4.570  10.177  -9.963  1.00  0.00    -0.273 OA
BRANCH  24  27
HETATM   27  C10 UNL     1       6.503  10.058 -11.293  1.00  0.00     0.188 C 
HETATM   28 BR1  UNL     1       5.810  11.435 -12.489  1.00  0.00    -0.087 Br
ENDBRANCH  24  27
ENDBRANCH  17  19
ENDBRANCH   1  17
TORSDOF 6
ENDMDL
MODEL 4
REMARK VINA RESULT: -7.074654519      1.976      2.788
REMARK  6 active torsions:
REMARK  status: ('A' for Active; 'I' for Inactive)
REMARK    1  A    between atoms: C2_2  and  C4_10 
REMARK    2  A    between atoms: N1_3  and  N2_5 
REMARK    3  A    between atoms: N2_5  and  C3_7 
REMARK    4  A    between atoms: C4_10  and  N4_11 
REMARK    5  A    between atoms: N4_11  and  C5_13 
REMARK       I    between atoms: N5_17  and  C9_18 
REMARK    6  A    between atoms: C9_18  and  C10_20 
ROOT
HETATM    1  C4  UNL     1       5.081  10.064  -4.059  1.00  0.00     0.054 C 
HETATM    2  C12 UNL     1       6.169  10.170  -3.352  1.00  0.00    -0.051 C 
HETATM    3  C13 UNL     1       6.471   9.626  -2.011  1.00  0.00     0.036 C 
HETATM    4  C14 UNL     1       6.809  10.741  -1.008  1.00  0.00     0.004 C 
HETATM    5  C15 UNL     1       7.923  11.607  -1.571  1.00  0.00     0.001 C 
HETATM    6  C16 UNL     1       7.493  12.165  -2.883  1.00  0.00     0.004 C 
HETATM    7  C17 UNL     1       7.338  11.008  -3.880  1.00  0.00     0.036 C 
ENDROOT
BRANCH   1   8
HETATM    8  C2  UNL     1       3.902   9.367  -3.649  1.00  0.00     0.048 C 
HETATM    9  C1  UNL     1       2.753  10.189  -3.102  1.00  0.00     0.072 C 
HETATM   10  N1  UNL     1       3.691   8.108  -3.647  1.00  0.00    -0.301 N 
ATOM     11  H1  UNL     1       4.410   7.476  -3.998  1.00  0.00     0.186 HD
BRANCH  10  12
HETATM   12  N2  UNL     1       2.497   7.592  -3.174  1.00  0.00    -0.278 N 
ATOM     13  H2  UNL     1       1.674   7.690  -3.769  1.00  0.00     0.189 HD
BRANCH  12  14
HETATM   14  C3  UNL     1       2.330   6.946  -1.945  1.00  0.00     0.199 C 
HETATM   15  N3  UNL     1       3.438   6.689  -1.111  1.00  0.00    -0.068 NA
HETATM   16  S1  UNL     1       0.849   6.484  -1.468  1.00  0.00    -0.043 SA
ENDBRANCH  12  14
ENDBRANCH  10  12
ENDBRANCH   1   8
BRANCH   1  17
HETATM   17  N4  UNL     1       5.080  10.692  -5.358  1.00  0.00    -0.382 N 
ATOM     18  H4  UNL     1       5.019  11.710  -5.384  1.00  0.00     0.160 HD
BRANCH  17  19
HETATM   19  C5  UNL     1       5.158  10.011  -6.606  1.00  0.00     0.100 C 
HETATM   20  C6  UNL     1       6.044   8.794  -6.459  1.00  0.00     0.028 C 
HETATM   21  C7  UNL     1       6.823   8.475  -7.689  1.00  0.00     0.022 C 
HETATM   22  C8  UNL     1       5.855   8.607  -8.873  1.00  0.00     0.126 C 
HETATM   23  N5  UNL     1       5.586  10.012  -8.997  1.00  0.00    -0.350 N 
HETATM   24  C9  UNL     1       5.343  10.595 -10.245  1.00  0.00     0.229 C 
HETATM   25  C11 UNL     1       5.566  10.838  -7.800  1.00  0.00     0.150 C 
HETATM   26  O1  UNL     1       5.104  11.849 -10.340  1.00  0.00    -0.273 OA
BRANCH  24  27
HETATM   27  C10 UNL     1       5.344   9.828 -11.514  1.00  0.00     0.188 C 
HETATM   28 BR1  UNL     1       6.493  10.711 -12.821  1.00  0.00    -0.087 Br
ENDBRANCH  24  27
ENDBRANCH  17  19
ENDBRANCH   1  17
TORSDOF 6
ENDMDL
MODEL 5
REMARK VINA RESULT: -7.044828611      1.307      1.510
REMARK  6 active torsions:
REMARK  status: ('A' for Active; 'I' for Inactive)
REMARK    1  A    between atoms: C2_2  and  C4_10 
REMARK    2  A    between atoms: N1_3  and  N2_5 
REMARK    3  A    between atoms: N2_5  and  C3_7 
REMARK    4  A    between atoms: C4_10  and  N4_11 
REMARK    5  A    between atoms: N4_11  and  C5_13 
REMARK       I    between atoms: N5_17  and  C9_18 
REMARK    6  A    between atoms: C9_18  and  C10_20 
ROOT
HETATM    1  C4  UNL     1       5.684  10.470  -2.571  1.00  0.00     0.054 C 
HETATM    2  C12 UNL     1       4.682  11.277  -2.371  1.00  0.00    -0.051 C 
HETATM    3  C13 UNL     1       3.475  11.083  -1.538  1.00  0.00     0.036 C 
HETATM    4  C14 UNL     1       2.188  11.173  -2.373  1.00  0.00     0.004 C 
HETATM    5  C15 UNL     1       2.179  12.479  -3.149  1.00  0.00     0.001 C 
HETATM    6  C16 UNL     1       3.393  12.545  -4.009  1.00  0.00     0.004 C 
HETATM    7  C17 UNL     1       4.631  12.621  -3.104  1.00  0.00     0.036 C 
ENDROOT
BRANCH   1   8
HETATM    8  C2  UNL     1       5.813   9.167  -1.999  1.00  0.00     0.048 C 
HETATM    9  C1  UNL     1       6.759   9.003  -0.827  1.00  0.00     0.072 C 
HETATM   10  N1  UNL     1       5.252   8.082  -2.372  1.00  0.00    -0.301 N 
ATOM     11  H1  UNL     1       4.598   8.096  -3.154  1.00  0.00     0.186 HD
BRANCH  10  12
HETATM   12  N2  UNL     1       5.522   6.888  -1.726  1.00  0.00    -0.278 N 
ATOM     13  H2  UNL     1       6.451   6.486  -1.850  1.00  0.00     0.189 HD
BRANCH  12  14
HETATM   14  C3  UNL     1       4.621   6.189  -0.918  1.00  0.00     0.199 C 
HETATM   15  N3  UNL     1       5.061   5.128  -0.100  1.00  0.00    -0.068 NA
HETATM   16  S1  UNL     1       3.049   6.598  -0.915  1.00  0.00    -0.043 SA
ENDBRANCH  12  14
ENDBRANCH  10  12
ENDBRANCH   1   8
BRANCH   1  17
HETATM   17  N4  UNL     1       6.742  10.942  -3.430  1.00  0.00    -0.382 N 
ATOM     18  H4  UNL     1       7.284  11.743  -3.106  1.00  0.00     0.160 HD
BRANCH  17  19
HETATM   19  C5  UNL     1       7.094  10.384  -4.692  1.00  0.00     0.100 C 
HETATM   20  C6  UNL     1       8.519  10.766  -5.029  1.00  0.00     0.028 C 
HETATM   21  C7  UNL     1       8.750  10.964  -6.488  1.00  0.00     0.022 C 
HETATM   22  C8  UNL     1       8.055   9.800  -7.209  1.00  0.00     0.126 C 
HETATM   23  N5  UNL     1       6.648  10.036  -7.054  1.00  0.00    -0.350 N 
HETATM   24  C9  UNL     1       5.737   9.655  -8.045  1.00  0.00     0.229 C 
HETATM   25  C11 UNL     1       6.166  10.681  -5.843  1.00  0.00     0.150 C 
HETATM   26  O1  UNL     1       4.484   9.871  -7.894  1.00  0.00    -0.273 OA
BRANCH  24  27
HETATM   27  C10 UNL     1       6.142   8.993  -9.309  1.00  0.00     0.188 C 
HETATM   28 BR1  UNL     1       6.446  10.334 -10.693  1.00  0.00    -0.087 Br
ENDBRANCH  24  27
ENDBRANCH  17  19
ENDBRANCH   1  17
TORSDOF 6
ENDMDL
