MODEL 1
REMARK VINA RESULT: -5.781899985      0.000      0.000
REMARK  4 active torsions:
REMARK  status: ('A' for Active; 'I' for Inactive)
REMARK    1  A    between atoms: N2_3  and  C2_5 
REMARK    2  A    between atoms: C2_5  and  N3_7 
REMARK    3  A    between atoms: N3_7  and  N4_9 
REMARK       I    between atoms: N4_9  and  C3_11 
REMARK       I    between atoms: C3_11  and  N5_13 
REMARK    4  A    between atoms: N5_13  and  C4_15 
ROOT
HETATM    1  N1  UNL     1     -15.938  12.259  30.642  1.00  0.00    -0.172 NA
HETATM    2  C1  UNL     1     -15.889  11.260  31.237  1.00  0.00     0.184 C 
HETATM    3  N2  UNL     1     -15.796  10.077  31.959  1.00  0.00    -0.269 N 
ATOM      4  H2  UNL     1     -14.939   9.891  32.480  1.00  0.00     0.180 HD
ENDROOT
BRANCH   3   5
HETATM    5  C2  UNL     1     -16.825   9.126  32.007  1.00  0.00     0.199 C 
HETATM    6  S1  UNL     1     -16.547   7.703  31.190  1.00  0.00    -0.038 SA
BRANCH   5   7
HETATM    7  N3  UNL     1     -18.040   9.307  32.684  1.00  0.00    -0.272 N 
ATOM      8  H3  UNL     1     -18.397   8.486  33.172  1.00  0.00     0.189 HD
BRANCH   7   9
HETATM    9  N4  UNL     1     -18.815  10.438  32.780  1.00  0.00    -0.249 N 
HETATM   10  C3  UNL     1     -18.502  11.446  33.753  1.00  0.00     0.335 C 
HETATM   11  O1  UNL     1     -17.484  11.243  34.465  1.00  0.00    -0.246 OA
HETATM   12  N5  UNL     1     -19.302  12.606  33.905  1.00  0.00    -0.337 N 
ATOM     13  H5  UNL     1     -20.124  12.747  33.317  1.00  0.00     0.164 HD
ATOM     14  H4  UNL     1     -19.614  10.561  32.158  1.00  0.00     0.192 HD
BRANCH  12  15
HETATM   15  C4  UNL     1     -18.942  13.586  34.899  1.00  0.00     0.086 C 
HETATM   16  C5  UNL     1     -18.470  14.824  34.233  1.00  0.00     0.025 C 
HETATM   17  C6  UNL     1     -19.508  15.893  34.564  1.00  0.00     0.002 C 
HETATM   18  C7  UNL     1     -20.745  15.082  34.885  1.00  0.00     0.002 C 
HETATM   19  C8  UNL     1     -20.176  13.983  35.721  1.00  0.00     0.025 C 
ENDBRANCH  12  15
ENDBRANCH   7   9
ENDBRANCH   5   7
ENDBRANCH   3   5
TORSDOF 4
ENDMDL
MODEL 2
REMARK VINA RESULT: -5.694736568      2.080      2.474
REMARK  4 active torsions:
REMARK  status: ('A' for Active; 'I' for Inactive)
REMARK    1  A    between atoms: N2_3  and  C2_5 
REMARK    2  A    between atoms: C2_5  and  N3_7 
REMARK    3  A    between atoms: N3_7  and  N4_9 
REMARK       I    between atoms: N4_9  and  C3_11 
REMARK       I    between atoms: C3_11  and  N5_13 
REMARK    4  A    between atoms: N5_13  and  C4_15 
ROOT
HETATM    1  N1  UNL     1     -16.106  12.655  31.014  1.00  0.00    -0.172 NA
HETATM    2  C1  UNL     1     -16.171  11.493  31.032  1.00  0.00     0.184 C 
HETATM    3  N2  UNL     1     -16.225  10.105  31.022  1.00  0.00    -0.269 N 
ATOM      4  H2  UNL     1     -15.718   9.604  30.292  1.00  0.00     0.180 HD
ENDROOT
BRANCH   3   5
HETATM    5  C2  UNL     1     -16.943   9.360  31.967  1.00  0.00     0.199 C 
HETATM    6  S1  UNL     1     -16.866   7.705  31.810  1.00  0.00    -0.038 SA
BRANCH   5   7
HETATM    7  N3  UNL     1     -17.703   9.919  33.005  1.00  0.00    -0.272 N 
ATOM      8  H3  UNL     1     -17.190  10.123  33.864  1.00  0.00     0.189 HD
BRANCH   7   9
HETATM    9  N4  UNL     1     -19.042  10.230  33.025  1.00  0.00    -0.249 N 
HETATM   10  C3  UNL     1     -19.630  10.806  34.201  1.00  0.00     0.335 C 
HETATM   11  O1  UNL     1     -18.854  11.028  35.167  1.00  0.00    -0.246 OA
HETATM   12  N5  UNL     1     -21.014  11.104  34.269  1.00  0.00    -0.337 N 
ATOM     13  H5  UNL     1     -21.623  10.913  33.473  1.00  0.00     0.164 HD
ATOM     14  H4  UNL     1     -19.617  10.052  32.203  1.00  0.00     0.192 HD
BRANCH  12  15
HETATM   15  C4  UNL     1     -21.552  11.681  35.476  1.00  0.00     0.086 C 
HETATM   16  C5  UNL     1     -21.688  13.149  35.312  1.00  0.00     0.025 C 
HETATM   17  C6  UNL     1     -23.188  13.430  35.338  1.00  0.00     0.002 C 
HETATM   18  C7  UNL     1     -23.794  12.102  34.940  1.00  0.00     0.002 C 
HETATM   19  C8  UNL     1     -22.967  11.144  35.733  1.00  0.00     0.025 C 
ENDBRANCH  12  15
ENDBRANCH   7   9
ENDBRANCH   5   7
ENDBRANCH   3   5
TORSDOF 4
ENDMDL
MODEL 3
REMARK VINA RESULT: -5.678871834      3.272      3.991
REMARK  4 active torsions:
REMARK  status: ('A' for Active; 'I' for Inactive)
REMARK    1  A    between atoms: N2_3  and  C2_5 
REMARK    2  A    between atoms: C2_5  and  N3_7 
REMARK    3  A    between atoms: N3_7  and  N4_9 
REMARK       I    between atoms: N4_9  and  C3_11 
REMARK       I    between atoms: C3_11  and  N5_13 
REMARK    4  A    between atoms: N5_13  and  C4_15 
ROOT
HETATM    1  N1  UNL     1     -16.427   6.312  30.618  1.00  0.00    -0.172 NA
HETATM    2  C1  UNL     1     -16.739   7.063  31.451  1.00  0.00     0.184 C 
HETATM    3  N2  UNL     1     -17.137   7.932  32.458  1.00  0.00    -0.269 N 
ATOM      4  H2  UNL     1     -17.868   7.629  33.102  1.00  0.00     0.180 HD
ENDROOT
BRANCH   3   5
HETATM    5  C2  UNL     1     -16.582   9.208  32.632  1.00  0.00     0.199 C 
HETATM    6  S1  UNL     1     -15.629   9.769  31.388  1.00  0.00    -0.038 SA
BRANCH   5   7
HETATM    7  N3  UNL     1     -16.779  10.009  33.766  1.00  0.00    -0.272 N 
ATOM      8  H3  UNL     1     -16.902   9.504  34.645  1.00  0.00     0.189 HD
BRANCH   7   9
HETATM    9  N4  UNL     1     -16.830  11.380  33.858  1.00  0.00    -0.249 N 
HETATM   10  C3  UNL     1     -15.802  12.094  34.562  1.00  0.00     0.335 C 
HETATM   11  O1  UNL     1     -14.867  11.402  35.044  1.00  0.00    -0.246 OA
HETATM   12  N5  UNL     1     -15.843  13.503  34.708  1.00  0.00    -0.337 N 
ATOM     13  H5  UNL     1     -16.614  14.040  34.309  1.00  0.00     0.164 HD
ATOM     14  H4  UNL     1     -17.599  11.890  33.425  1.00  0.00     0.192 HD
BRANCH  12  15
HETATM   15  C4  UNL     1     -14.785  14.168  35.426  1.00  0.00     0.086 C 
HETATM   16  C5  UNL     1     -13.702  14.545  34.484  1.00  0.00     0.025 C 
HETATM   17  C6  UNL     1     -13.695  16.071  34.453  1.00  0.00     0.002 C 
HETATM   18  C7  UNL     1     -15.095  16.431  34.902  1.00  0.00     0.002 C 
HETATM   19  C8  UNL     1     -15.302  15.479  36.034  1.00  0.00     0.025 C 
ENDBRANCH  12  15
ENDBRANCH   7   9
ENDBRANCH   5   7
ENDBRANCH   3   5
TORSDOF 4
ENDMDL
MODEL 4
REMARK VINA RESULT: -5.670551917      5.505      6.217
REMARK  4 active torsions:
REMARK  status: ('A' for Active; 'I' for Inactive)
REMARK    1  A    between atoms: N2_3  and  C2_5 
REMARK    2  A    between atoms: C2_5  and  N3_7 
REMARK    3  A    between atoms: N3_7  and  N4_9 
REMARK       I    between atoms: N4_9  and  C3_11 
REMARK       I    between atoms: C3_11  and  N5_13 
REMARK    4  A    between atoms: N5_13  and  C4_15 
ROOT
HETATM    1  N1  UNL     1     -13.071   6.066  38.265  1.00  0.00    -0.172 NA
HETATM    2  C1  UNL     1     -13.170   7.213  38.095  1.00  0.00     0.184 C 
HETATM    3  N2  UNL     1     -13.249   8.584  37.886  1.00  0.00    -0.269 N 
ATOM      4  H2  UNL     1     -12.387   9.099  37.702  1.00  0.00     0.180 HD
ENDROOT
BRANCH   3   5
HETATM    5  C2  UNL     1     -14.457   9.295  37.916  1.00  0.00     0.199 C 
HETATM    6  S1  UNL     1     -15.430   9.032  39.240  1.00  0.00    -0.038 SA
BRANCH   5   7
HETATM    7  N3  UNL     1     -14.876  10.186  36.917  1.00  0.00    -0.272 N 
ATOM      8  H3  UNL     1     -15.150   9.757  36.033  1.00  0.00     0.189 HD
BRANCH   7   9
HETATM    9  N4  UNL     1     -14.968  11.557  36.965  1.00  0.00    -0.249 N 
HETATM   10  C3  UNL     1     -14.877  12.328  35.757  1.00  0.00     0.335 C 
HETATM   11  O1  UNL     1     -14.744  11.681  34.686  1.00  0.00    -0.246 OA
HETATM   12  N5  UNL     1     -14.930  13.744  35.775  1.00  0.00    -0.337 N 
ATOM     13  H5  UNL     1     -15.036  14.246  36.657  1.00  0.00     0.164 HD
ATOM     14  H4  UNL     1     -15.101  12.026  37.860  1.00  0.00     0.192 HD
BRANCH  12  15
HETATM   15  C4  UNL     1     -14.833  14.468  34.532  1.00  0.00     0.086 C 
HETATM   16  C5  UNL     1     -15.922  15.472  34.451  1.00  0.00     0.025 C 
HETATM   17  C6  UNL     1     -15.233  16.833  34.493  1.00  0.00     0.002 C 
HETATM   18  C7  UNL     1     -13.909  16.528  35.159  1.00  0.00     0.002 C 
HETATM   19  C8  UNL     1     -13.517  15.256  34.482  1.00  0.00     0.025 C 
ENDBRANCH  12  15
ENDBRANCH   7   9
ENDBRANCH   5   7
ENDBRANCH   3   5
TORSDOF 4
ENDMDL
MODEL 5
REMARK VINA RESULT: -5.611662851      2.971      3.318
REMARK  4 active torsions:
REMARK  status: ('A' for Active; 'I' for Inactive)
REMARK    1  A    between atoms: N2_3  and  C2_5 
REMARK    2  A    between atoms: C2_5  and  N3_7 
REMARK    3  A    between atoms: N3_7  and  N4_9 
REMARK       I    between atoms: N4_9  and  C3_11 
REMARK       I    between atoms: C3_11  and  N5_13 
REMARK    4  A    between atoms: N5_13  and  C4_15 
ROOT
HETATM    1  N1  UNL     1     -14.651   9.873  30.587  1.00  0.00    -0.172 NA
HETATM    2  C1  UNL     1     -15.662   9.597  31.095  1.00  0.00     0.184 C 
HETATM    3  N2  UNL     1     -16.869   9.236  31.680  1.00  0.00    -0.269 N 
ATOM      4  H2  UNL     1     -17.324   8.378  31.366  1.00  0.00     0.180 HD
ENDROOT
BRANCH   3   5
HETATM    5  C2  UNL     1     -17.493   9.994  32.680  1.00  0.00     0.199 C 
HETATM    6  S1  UNL     1     -16.482  10.819  33.713  1.00  0.00    -0.038 SA
BRANCH   5   7
HETATM    7  N3  UNL     1     -18.881  10.087  32.852  1.00  0.00    -0.272 N 
ATOM      8  H3  UNL     1     -19.414   9.260  32.581  1.00  0.00     0.189 HD
BRANCH   7   9
HETATM    9  N4  UNL     1     -19.624  11.139  33.336  1.00  0.00    -0.249 N 
HETATM   10  C3  UNL     1     -20.728  10.895  34.220  1.00  0.00     0.335 C 
HETATM   11  O1  UNL     1     -20.941   9.696  34.536  1.00  0.00    -0.246 OA
HETATM   12  N5  UNL     1     -21.537  11.953  34.706  1.00  0.00    -0.337 N 
ATOM     13  H5  UNL     1     -21.345  12.917  34.433  1.00  0.00     0.164 HD
ATOM     14  H4  UNL     1     -19.389  12.094  33.065  1.00  0.00     0.192 HD
BRANCH  12  15
HETATM   15  C4  UNL     1     -22.634  11.650  35.591  1.00  0.00     0.086 C 
HETATM   16  C5  UNL     1     -22.456  12.372  36.875  1.00  0.00     0.025 C 
HETATM   17  C6  UNL     1     -23.594  13.387  36.940  1.00  0.00     0.002 C 
HETATM   18  C7  UNL     1     -23.977  13.568  35.487  1.00  0.00     0.002 C 
HETATM   19  C8  UNL     1     -23.952  12.159  34.991  1.00  0.00     0.025 C 
ENDBRANCH  12  15
ENDBRANCH   7   9
ENDBRANCH   5   7
ENDBRANCH   3   5
TORSDOF 4
ENDMDL
