MODEL 1
REMARK VINA RESULT: -6.656219948      0.000      0.000
REMARK  3 active torsions:
REMARK  status: ('A' for Active; 'I' for Inactive)
REMARK    1  A    between atoms: N3_14  and  C11_15 
REMARK    2  A    between atoms: C11_15  and  C12_16 
REMARK    3  A    between atoms: C12_16  and  C13_17 
ROOT
HETATM    1  C1  UNL     1      -3.092  41.193  69.993  1.00  0.00     0.037 C 
HETATM    2  C2  UNL     1      -1.944  40.464  69.285  1.00  0.00     0.021 C 
HETATM    3  C3  UNL     1      -1.944  39.039  69.866  1.00  0.00     0.037 C 
HETATM    4  C4  UNL     1      -0.704  41.179  69.578  1.00  0.00     0.055 C 
HETATM    5  C5  UNL     1       0.119  41.702  68.453  1.00  0.00     0.086 C 
HETATM    6  C6  UNL     1       0.661  40.594  67.569  1.00  0.00     0.027 C 
HETATM    7  C7  UNL     1      -0.327  40.574  66.408  1.00  0.00     0.030 C 
HETATM    8  C8  UNL     1      -1.171  41.834  66.541  1.00  0.00     0.120 C 
HETATM    9  C9  UNL     1      -2.531  41.517  67.181  1.00  0.00     0.208 C 
HETATM   10  C10 UNL     1      -3.573  41.385  66.186  1.00  0.00     0.086 C 
HETATM   11  N1  UNL     1      -4.397  41.286  65.405  1.00  0.00    -0.195 NA
HETATM   12  N2  UNL     1      -2.337  40.299  67.921  1.00  0.00    -0.396 N 
ATOM     13  H2  UNL     1      -2.470  39.379  67.501  1.00  0.00     0.155 HD
HETATM   14  N3  UNL     1      -0.456  42.562  67.525  1.00  0.00    -0.381 N 
ENDROOT
BRANCH  14  15
HETATM   15  C11 UNL     1      -0.801  43.874  67.807  1.00  0.00     0.064 C 
BRANCH  15  16
HETATM   16  C12 UNL     1       0.213  44.832  67.196  1.00  0.00     0.115 C 
BRANCH  16  17
HETATM   17  C13 UNL     1      -0.291  46.235  67.472  1.00  0.00     0.357 C 
HETATM   18  F1  UNL     1      -0.431  46.884  66.260  1.00  0.00    -0.214 F 
HETATM   19  F2  UNL     1      -1.559  46.100  68.039  1.00  0.00    -0.214 F 
ENDBRANCH  16  17
ENDBRANCH  15  16
ENDBRANCH  14  15
TORSDOF 3
ENDMDL
MODEL 2
REMARK VINA RESULT: -6.632757386      2.845      4.713
REMARK  3 active torsions:
REMARK  status: ('A' for Active; 'I' for Inactive)
REMARK    1  A    between atoms: N3_14  and  C11_15 
REMARK    2  A    between atoms: C11_15  and  C12_16 
REMARK    3  A    between atoms: C12_16  and  C13_17 
ROOT
HETATM    1  C1  UNL     1      -4.975  39.844  66.104  1.00  0.00     0.037 C 
HETATM    2  C2  UNL     1      -3.972  40.995  65.985  1.00  0.00     0.021 C 
HETATM    3  C3  UNL     1      -4.321  41.708  64.668  1.00  0.00     0.037 C 
HETATM    4  C4  UNL     1      -2.627  40.424  65.963  1.00  0.00     0.055 C 
HETATM    5  C5  UNL     1      -1.637  40.849  66.992  1.00  0.00     0.086 C 
HETATM    6  C6  UNL     1      -1.295  42.323  66.891  1.00  0.00     0.027 C 
HETATM    7  C7  UNL     1      -2.185  42.951  67.957  1.00  0.00     0.030 C 
HETATM    8  C8  UNL     1      -2.739  41.801  68.785  1.00  0.00     0.120 C 
HETATM    9  C9  UNL     1      -4.175  41.460  68.357  1.00  0.00     0.208 C 
HETATM   10  C10 UNL     1      -5.153  42.061  69.237  1.00  0.00     0.086 C 
HETATM   11  N1  UNL     1      -5.926  42.528  69.932  1.00  0.00    -0.195 NA
HETATM   12  N2  UNL     1      -4.301  41.939  67.006  1.00  0.00    -0.396 N 
ATOM     13  H2  UNL     1      -4.605  42.889  66.792  1.00  0.00     0.155 HD
HETATM   14  N3  UNL     1      -1.949  40.713  68.339  1.00  0.00    -0.381 N 
ENDROOT
BRANCH  14  15
HETATM   15  C11 UNL     1      -2.015  39.491  68.990  1.00  0.00     0.064 C 
BRANCH  15  16
HETATM   16  C12 UNL     1      -1.563  39.635  70.436  1.00  0.00     0.115 C 
BRANCH  16  17
HETATM   17  C13 UNL     1      -0.047  39.658  70.420  1.00  0.00     0.357 C 
HETATM   18  F1  UNL     1       0.375  39.079  69.238  1.00  0.00    -0.214 F 
HETATM   19  F2  UNL     1       0.333  41.000  70.402  1.00  0.00    -0.214 F 
ENDBRANCH  16  17
ENDBRANCH  15  16
ENDBRANCH  14  15
TORSDOF 3
ENDMDL
MODEL 3
REMARK VINA RESULT: -6.558790852      3.092      4.874
REMARK  3 active torsions:
REMARK  status: ('A' for Active; 'I' for Inactive)
REMARK    1  A    between atoms: N3_14  and  C11_15 
REMARK    2  A    between atoms: C11_15  and  C12_16 
REMARK    3  A    between atoms: C12_16  and  C13_17 
ROOT
HETATM    1  C1  UNL     1      -5.011  39.873  66.108  1.00  0.00     0.037 C 
HETATM    2  C2  UNL     1      -3.986  41.006  65.996  1.00  0.00     0.021 C 
HETATM    3  C3  UNL     1      -4.315  41.727  64.677  1.00  0.00     0.037 C 
HETATM    4  C4  UNL     1      -2.652  40.411  65.980  1.00  0.00     0.055 C 
HETATM    5  C5  UNL     1      -1.660  40.816  67.015  1.00  0.00     0.086 C 
HETATM    6  C6  UNL     1      -1.291  42.285  66.917  1.00  0.00     0.027 C 
HETATM    7  C7  UNL     1      -2.175  42.927  67.979  1.00  0.00     0.030 C 
HETATM    8  C8  UNL     1      -2.755  41.787  68.803  1.00  0.00     0.120 C 
HETATM    9  C9  UNL     1      -4.194  41.473  68.366  1.00  0.00     0.208 C 
HETATM   10  C10 UNL     1      -5.166  42.090  69.242  1.00  0.00     0.086 C 
HETATM   11  N1  UNL     1      -5.934  42.570  69.933  1.00  0.00    -0.195 NA
HETATM   12  N2  UNL     1      -4.304  41.955  67.016  1.00  0.00    -0.396 N 
ATOM     13  H2  UNL     1      -4.589  42.910  66.800  1.00  0.00     0.155 HD
HETATM   14  N3  UNL     1      -1.982  40.685  68.360  1.00  0.00    -0.381 N 
ENDROOT
BRANCH  14  15
HETATM   15  C11 UNL     1      -2.074  39.464  69.010  1.00  0.00     0.064 C 
BRANCH  15  16
HETATM   16  C12 UNL     1      -0.812  39.196  69.818  1.00  0.00     0.115 C 
BRANCH  16  17
HETATM   17  C13 UNL     1      -1.173  39.413  71.275  1.00  0.00     0.357 C 
HETATM   18  F1  UNL     1      -0.610  40.609  71.680  1.00  0.00    -0.214 F 
HETATM   19  F2  UNL     1      -2.560  39.550  71.327  1.00  0.00    -0.214 F 
ENDBRANCH  16  17
ENDBRANCH  15  16
ENDBRANCH  14  15
TORSDOF 3
ENDMDL
MODEL 4
REMARK VINA RESULT: -6.537633374      3.117      4.515
REMARK  3 active torsions:
REMARK  status: ('A' for Active; 'I' for Inactive)
REMARK    1  A    between atoms: N3_14  and  C11_15 
REMARK    2  A    between atoms: C11_15  and  C12_16 
REMARK    3  A    between atoms: C12_16  and  C13_17 
ROOT
HETATM    1  C1  UNL     1      -3.710  42.030  69.761  1.00  0.00     0.037 C 
HETATM    2  C2  UNL     1      -3.264  41.542  68.379  1.00  0.00     0.021 C 
HETATM    3  C3  UNL     1      -4.560  41.373  67.566  1.00  0.00     0.037 C 
HETATM    4  C4  UNL     1      -2.553  40.277  68.552  1.00  0.00     0.055 C 
HETATM    5  C5  UNL     1      -1.151  40.156  68.063  1.00  0.00     0.086 C 
HETATM    6  C6  UNL     1      -1.049  40.307  66.557  1.00  0.00     0.027 C 
HETATM    7  C7  UNL     1      -0.637  41.765  66.391  1.00  0.00     0.030 C 
HETATM    8  C8  UNL     1      -0.243  42.261  67.775  1.00  0.00     0.120 C 
HETATM    9  C9  UNL     1      -1.383  43.072  68.410  1.00  0.00     0.208 C 
HETATM   10  C10 UNL     1      -1.174  44.495  68.261  1.00  0.00     0.086 C 
HETATM   11  N1  UNL     1      -1.010  45.618  68.150  1.00  0.00    -0.195 NA
HETATM   12  N2  UNL     1      -2.584  42.633  67.754  1.00  0.00    -0.396 N 
ATOM     13  H2  UNL     1      -2.929  43.070  66.899  1.00  0.00     0.155 HD
HETATM   14  N3  UNL     1      -0.189  41.052  68.513  1.00  0.00    -0.381 N 
ENDROOT
BRANCH  14  15
HETATM   15  C11 UNL     1       0.320  41.046  69.802  1.00  0.00     0.064 C 
BRANCH  15  16
HETATM   16  C12 UNL     1       0.793  39.648  70.178  1.00  0.00     0.115 C 
BRANCH  16  17
HETATM   17  C13 UNL     1       1.577  39.785  71.469  1.00  0.00     0.357 C 
HETATM   18  F1  UNL     1       2.785  39.134  71.305  1.00  0.00    -0.214 F 
HETATM   19  F2  UNL     1       1.839  41.145  71.635  1.00  0.00    -0.214 F 
ENDBRANCH  16  17
ENDBRANCH  15  16
ENDBRANCH  14  15
TORSDOF 3
ENDMDL
MODEL 5
REMARK VINA RESULT: -6.528441151      1.209      1.337
REMARK  3 active torsions:
REMARK  status: ('A' for Active; 'I' for Inactive)
REMARK    1  A    between atoms: N3_14  and  C11_15 
REMARK    2  A    between atoms: C11_15  and  C12_16 
REMARK    3  A    between atoms: C12_16  and  C13_17 
ROOT
HETATM    1  C1  UNL     1      -2.056  40.714  70.903  1.00  0.00     0.037 C 
HETATM    2  C2  UNL     1      -1.677  40.076  69.563  1.00  0.00     0.021 C 
HETATM    3  C3  UNL     1      -1.530  38.572  69.853  1.00  0.00     0.037 C 
HETATM    4  C4  UNL     1      -0.422  40.676  69.113  1.00  0.00     0.055 C 
HETATM    5  C5  UNL     1      -0.372  41.355  67.790  1.00  0.00     0.086 C 
HETATM    6  C6  UNL     1      -0.630  40.400  66.639  1.00  0.00     0.027 C 
HETATM    7  C7  UNL     1      -2.106  40.627  66.335  1.00  0.00     0.030 C 
HETATM    8  C8  UNL     1      -2.515  41.878  67.101  1.00  0.00     0.120 C 
HETATM    9  C9  UNL     1      -3.250  41.508  68.399  1.00  0.00     0.208 C 
HETATM   10  C10 UNL     1      -4.685  41.598  68.245  1.00  0.00     0.086 C 
HETATM   11  N1  UNL     1      -5.817  41.673  68.128  1.00  0.00    -0.195 NA
HETATM   12  N2  UNL     1      -2.825  40.172  68.719  1.00  0.00    -0.396 N 
ATOM     13  H2  UNL     1      -3.312  39.347  68.366  1.00  0.00     0.155 HD
HETATM   14  N3  UNL     1      -1.260  42.389  67.516  1.00  0.00    -0.381 N 
ENDROOT
BRANCH  14  15
HETATM   15  C11 UNL     1      -1.177  43.643  68.099  1.00  0.00     0.064 C 
BRANCH  15  16
HETATM   16  C12 UNL     1      -0.129  44.490  67.390  1.00  0.00     0.115 C 
BRANCH  16  17
HETATM   17  C13 UNL     1      -0.380  45.928  67.799  1.00  0.00     0.357 C 
HETATM   18  F1  UNL     1      -0.721  46.641  66.665  1.00  0.00    -0.214 F 
HETATM   19  F2  UNL     1      -1.487  45.915  68.648  1.00  0.00    -0.214 F 
ENDBRANCH  16  17
ENDBRANCH  15  16
ENDBRANCH  14  15
TORSDOF 3
ENDMDL
