MODEL 1
REMARK VINA RESULT: -7.423235436      0.000      0.000
REMARK  3 active torsions:
REMARK  status: ('A' for Active; 'I' for Inactive)
REMARK    1  A    between atoms: C2_5  and  N3_6 
REMARK    2  A    between atoms: N3_6  and  C3_8 
REMARK    3  A    between atoms: C3_8  and  C4_9 
ROOT
HETATM    1  N1  UNL     1       3.669  37.958  71.080  1.00  0.00    -0.172 NA
HETATM    2  C1  UNL     1       2.649  38.521  70.890  1.00  0.00     0.182 C 
HETATM    3  N2  UNL     1       1.452  39.173  70.640  1.00  0.00    -0.290 N 
ATOM      4  H2  UNL     1       1.164  39.311  69.672  1.00  0.00     0.178 HD
HETATM    5  C2  UNL     1       0.683  39.616  71.584  1.00  0.00     0.186 C 
ENDROOT
BRANCH   5   6
HETATM    6  N3  UNL     1      -0.517  40.266  71.208  1.00  0.00    -0.385 N 
ATOM      7  H3  UNL     1      -0.823  41.110  71.692  1.00  0.00     0.160 HD
BRANCH   6   8
HETATM    8  C3  UNL     1      -1.295  39.717  70.136  1.00  0.00     0.130 C 
BRANCH   8   9
HETATM    9  C4  UNL     1      -1.571  40.758  69.054  1.00  0.00    -0.018 C 
HETATM   10  C5  UNL     1      -2.830  41.477  69.476  1.00  0.00     0.016 C 
HETATM   11  C6  UNL     1      -3.195  42.529  68.457  1.00  0.00    -0.008 C 
HETATM   12  C7  UNL     1      -2.004  43.431  68.290  1.00  0.00     0.048 C 
HETATM   13  C11 UNL     1      -3.514  41.802  67.152  1.00  0.00     0.048 C 
HETATM   14  C8  UNL     1      -0.845  42.664  67.745  1.00  0.00     0.107 C 
HETATM   15  F1  UNL     1       0.229  43.496  67.483  1.00  0.00    -0.243 F 
HETATM   16  C9  UNL     1      -1.197  41.980  66.448  1.00  0.00     0.086 C 
HETATM   17  C13 UNL     1      -0.413  41.662  68.809  1.00  0.00     0.055 C 
HETATM   18  C10 UNL     1      -2.335  40.983  66.711  1.00  0.00     0.107 C 
HETATM   19  F2  UNL     1      -2.675  40.310  65.571  1.00  0.00    -0.243 F 
HETATM   20  C12 UNL     1      -1.835  40.022  67.732  1.00  0.00     0.055 C 
ENDBRANCH   8   9
ENDBRANCH   6   8
ENDBRANCH   5   6
TORSDOF 3
ENDMDL
MODEL 2
REMARK VINA RESULT: -7.174794182      1.046      2.512
REMARK  3 active torsions:
REMARK  status: ('A' for Active; 'I' for Inactive)
REMARK    1  A    between atoms: C2_5  and  N3_6 
REMARK    2  A    between atoms: N3_6  and  C3_8 
REMARK    3  A    between atoms: C3_8  and  C4_9 
ROOT
HETATM    1  N1  UNL     1       3.662  37.943  71.050  1.00  0.00    -0.172 NA
HETATM    2  C1  UNL     1       2.624  38.443  70.797  1.00  0.00     0.182 C 
HETATM    3  N2  UNL     1       1.406  39.021  70.474  1.00  0.00    -0.290 N 
ATOM      4  H2  UNL     1       1.184  39.172  69.490  1.00  0.00     0.178 HD
HETATM    5  C2  UNL     1       0.539  39.378  71.367  1.00  0.00     0.186 C 
ENDROOT
BRANCH   5   6
HETATM    6  N3  UNL     1      -0.672  39.959  70.918  1.00  0.00    -0.385 N 
ATOM      7  H3  UNL     1      -1.086  40.746  71.417  1.00  0.00     0.160 HD
BRANCH   6   8
HETATM    8  C3  UNL     1      -1.305  39.421  69.749  1.00  0.00     0.130 C 
BRANCH   8   9
HETATM    9  C4  UNL     1      -1.717  40.524  68.777  1.00  0.00    -0.018 C 
HETATM   10  C5  UNL     1      -1.551  39.946  67.392  1.00  0.00     0.016 C 
HETATM   11  C6  UNL     1      -1.928  40.973  66.352  1.00  0.00    -0.008 C 
HETATM   12  C7  UNL     1      -3.325  41.436  66.657  1.00  0.00     0.048 C 
HETATM   13  C11 UNL     1      -0.934  42.125  66.474  1.00  0.00     0.048 C 
HETATM   14  C8  UNL     1      -3.369  42.112  67.987  1.00  0.00     0.107 C 
HETATM   15  F1  UNL     1      -4.621  42.641  68.241  1.00  0.00    -0.243 F 
HETATM   16  C9  UNL     1      -2.387  43.255  68.057  1.00  0.00     0.086 C 
HETATM   17  C13 UNL     1      -3.080  41.059  69.050  1.00  0.00     0.055 C 
HETATM   18  C10 UNL     1      -0.970  42.699  67.862  1.00  0.00     0.107 C 
HETATM   19  F2  UNL     1      -0.033  43.691  67.946  1.00  0.00    -0.243 F 
HETATM   20  C12 UNL     1      -0.747  41.703  68.947  1.00  0.00     0.055 C 
ENDBRANCH   8   9
ENDBRANCH   6   8
ENDBRANCH   5   6
TORSDOF 3
ENDMDL
MODEL 3
REMARK VINA RESULT: -7.127923099      1.194      2.325
REMARK  3 active torsions:
REMARK  status: ('A' for Active; 'I' for Inactive)
REMARK    1  A    between atoms: C2_5  and  N3_6 
REMARK    2  A    between atoms: N3_6  and  C3_8 
REMARK    3  A    between atoms: C3_8  and  C4_9 
ROOT
HETATM    1  N1  UNL     1       3.685  37.974  71.143  1.00  0.00    -0.172 NA
HETATM    2  C1  UNL     1       2.673  38.525  70.889  1.00  0.00     0.182 C 
HETATM    3  N2  UNL     1       1.485  39.161  70.566  1.00  0.00    -0.290 N 
ATOM      4  H2  UNL     1       1.248  39.281  69.581  1.00  0.00     0.178 HD
HETATM    5  C2  UNL     1       0.663  39.612  71.460  1.00  0.00     0.186 C 
ENDROOT
BRANCH   5   6
HETATM    6  N3  UNL     1      -0.521  40.245  71.010  1.00  0.00    -0.385 N 
ATOM      7  H3  UNL     1      -0.774  41.172  71.351  1.00  0.00     0.160 HD
BRANCH   6   8
HETATM    8  C3  UNL     1      -1.356  39.560  70.068  1.00  0.00     0.130 C 
BRANCH   8   9
HETATM    9  C4  UNL     1      -1.855  40.500  68.974  1.00  0.00    -0.018 C 
HETATM   10  C5  UNL     1      -0.864  41.638  68.916  1.00  0.00     0.016 C 
HETATM   11  C6  UNL     1      -1.279  42.635  67.861  1.00  0.00    -0.008 C 
HETATM   12  C7  UNL     1      -1.426  41.888  66.565  1.00  0.00     0.048 C 
HETATM   13  C11 UNL     1      -2.615  43.230  68.301  1.00  0.00     0.048 C 
HETATM   14  C8  UNL     1      -2.516  40.873  66.672  1.00  0.00     0.107 C 
HETATM   15  F1  UNL     1      -2.741  40.248  65.459  1.00  0.00    -0.243 F 
HETATM   16  C9  UNL     1      -3.820  41.505  67.089  1.00  0.00     0.086 C 
HETATM   17  C13 UNL     1      -2.062  39.813  67.669  1.00  0.00     0.055 C 
HETATM   18  C10 UNL     1      -3.637  42.142  68.473  1.00  0.00     0.107 C 
HETATM   19  F2  UNL     1      -4.801  42.707  68.915  1.00  0.00    -0.243 F 
HETATM   20  C12 UNL     1      -3.225  41.050  69.397  1.00  0.00     0.055 C 
ENDBRANCH   8   9
ENDBRANCH   6   8
ENDBRANCH   5   6
TORSDOF 3
ENDMDL
MODEL 4
REMARK VINA RESULT: -7.066419708      3.517      6.213
REMARK  3 active torsions:
REMARK  status: ('A' for Active; 'I' for Inactive)
REMARK    1  A    between atoms: C2_5  and  N3_6 
REMARK    2  A    between atoms: N3_6  and  C3_8 
REMARK    3  A    between atoms: C3_8  and  C4_9 
ROOT
HETATM    1  N1  UNL     1      -4.822  41.339  64.541  1.00  0.00    -0.172 NA
HETATM    2  C1  UNL     1      -4.012  40.803  65.210  1.00  0.00     0.182 C 
HETATM    3  N2  UNL     1      -3.051  40.160  65.974  1.00  0.00    -0.290 N 
ATOM      4  H2  UNL     1      -2.576  39.349  65.580  1.00  0.00     0.178 HD
HETATM    5  C2  UNL     1      -2.729  40.546  67.168  1.00  0.00     0.186 C 
ENDROOT
BRANCH   5   6
HETATM    6  N3  UNL     1      -1.731  39.812  67.854  1.00  0.00    -0.385 N 
ATOM      7  H3  UNL     1      -1.871  38.825  68.070  1.00  0.00     0.160 HD
BRANCH   6   8
HETATM    8  C3  UNL     1      -0.523  40.480  68.238  1.00  0.00     0.130 C 
BRANCH   8   9
HETATM    9  C4  UNL     1       0.099  39.843  69.479  1.00  0.00    -0.018 C 
HETATM   10  C5  UNL     1      -1.056  39.373  70.332  1.00  0.00     0.016 C 
HETATM   11  C6  UNL     1      -0.539  38.732  71.597  1.00  0.00    -0.008 C 
HETATM   12  C7  UNL     1       0.409  37.636  71.197  1.00  0.00     0.048 C 
HETATM   13  C11 UNL     1       0.186  39.817  72.390  1.00  0.00     0.048 C 
HETATM   14  C8  UNL     1       1.585  38.207  70.475  1.00  0.00     0.107 C 
HETATM   15  F1  UNL     1       2.522  37.230  70.191  1.00  0.00    -0.243 F 
HETATM   16  C9  UNL     1       2.282  39.259  71.300  1.00  0.00     0.086 C 
HETATM   17  C13 UNL     1       1.083  38.774  69.152  1.00  0.00     0.055 C 
HETATM   18  C10 UNL     1       1.298  40.405  71.569  1.00  0.00     0.107 C 
HETATM   19  F2  UNL     1       1.889  41.404  72.292  1.00  0.00    -0.243 F 
HETATM   20  C12 UNL     1       0.875  40.928  70.241  1.00  0.00     0.055 C 
ENDBRANCH   8   9
ENDBRANCH   6   8
ENDBRANCH   5   6
TORSDOF 3
ENDMDL
MODEL 5
REMARK VINA RESULT: -6.926846626      4.096      5.339
REMARK  3 active torsions:
REMARK  status: ('A' for Active; 'I' for Inactive)
REMARK    1  A    between atoms: C2_5  and  N3_6 
REMARK    2  A    between atoms: N3_6  and  C3_8 
REMARK    3  A    between atoms: C3_8  and  C4_9 
ROOT
HETATM    1  N1  UNL     1       4.053  47.370  64.986  1.00  0.00    -0.172 NA
HETATM    2  C1  UNL     1       3.335  46.696  65.636  1.00  0.00     0.182 C 
HETATM    3  N2  UNL     1       2.472  45.921  66.393  1.00  0.00    -0.290 N 
ATOM      4  H2  UNL     1       1.589  46.330  66.699  1.00  0.00     0.178 HD
HETATM    5  C2  UNL     1       2.737  44.698  66.730  1.00  0.00     0.186 C 
ENDROOT
BRANCH   5   6
HETATM    6  N3  UNL     1       1.777  44.004  67.506  1.00  0.00    -0.385 N 
ATOM      7  H3  UNL     1       2.072  43.370  68.248  1.00  0.00     0.160 HD
BRANCH   6   8
HETATM    8  C3  UNL     1       0.386  44.207  67.229  1.00  0.00     0.130 C 
BRANCH   8   9
HETATM    9  C4  UNL     1      -0.435  42.957  67.537  1.00  0.00    -0.018 C 
HETATM   10  C5  UNL     1      -0.655  42.263  66.213  1.00  0.00     0.016 C 
HETATM   11  C6  UNL     1      -1.472  41.009  66.413  1.00  0.00    -0.008 C 
HETATM   12  C7  UNL     1      -0.764  40.164  67.435  1.00  0.00     0.048 C 
HETATM   13  C11 UNL     1      -2.845  41.442  66.921  1.00  0.00     0.048 C 
HETATM   14  C8  UNL     1      -0.709  40.874  68.747  1.00  0.00     0.107 C 
HETATM   15  F1  UNL     1      -0.158  40.072  69.730  1.00  0.00    -0.243 F 
HETATM   16  C9  UNL     1      -2.087  41.265  69.221  1.00  0.00     0.086 C 
HETATM   17  C13 UNL     1       0.191  42.092  68.575  1.00  0.00     0.055 C 
HETATM   18  C10 UNL     1      -2.706  42.225  68.195  1.00  0.00     0.107 C 
HETATM   19  F2  UNL     1      -3.948  42.636  68.591  1.00  0.00    -0.243 F 
HETATM   20  C12 UNL     1      -1.794  43.399  68.101  1.00  0.00     0.055 C 
ENDBRANCH   8   9
ENDBRANCH   6   8
ENDBRANCH   5   6
TORSDOF 3
ENDMDL
