MODEL 1
REMARK VINA RESULT: -7.066085424      0.000      0.000
REMARK  9 active torsions:
REMARK  status: ('A' for Active; 'I' for Inactive)
REMARK    1  A    between atoms: C2_2  and  C3_3 
REMARK    2  A    between atoms: C4_4  and  C5_5 
REMARK    3  A    between atoms: C8_9  and  O1_10 
REMARK    4  A    between atoms: C11_14  and  O2_15 
REMARK    5  A    between atoms: C14_19  and  C15_20 
REMARK    6  A    between atoms: C21_26  and  C22_27 
REMARK    7  A    between atoms: C22_27  and  C23_28 
REMARK    8  A    between atoms: C27_34  and  C28_35 
REMARK    9  A    between atoms: C28_35  and  O4_36 
ROOT
HETATM    1  C5  UNL     1      36.265  -6.014  36.175  1.00  0.00     0.051 C 
HETATM    2  C6  UNL     1      35.047  -5.222  36.351  1.00  0.00    -0.016 A 
HETATM    3  C7  UNL     1      35.454  -3.900  36.570  1.00  0.00     0.075 A 
HETATM    4 CL1  UNL     1      37.177  -3.482  36.602  1.00  0.00    -0.081 Cl
HETATM    5  C8  UNL     1      34.553  -2.878  36.768  1.00  0.00     0.096 A 
HETATM    6  C9  UNL     1      33.201  -3.115  36.758  1.00  0.00     0.007 A 
HETATM    7  C10 UNL     1      32.190  -2.052  36.967  1.00  0.00     0.054 C 
HETATM    8  C11 UNL     1      32.778  -4.422  36.543  1.00  0.00     0.081 A 
HETATM    9  C12 UNL     1      33.690  -5.462  36.342  1.00  0.00    -0.012 A 
HETATM   10  C13 UNL     1      33.024  -6.751  36.148  1.00  0.00     0.076 C 
HETATM   11  C14 UNL     1      33.828  -7.964  36.147  1.00  0.00    -0.075 C 
HETATM   12  C18 UNL     1      35.091  -8.157  35.806  1.00  0.00    -0.018 C 
HETATM   13  C19 UNL     1      36.122  -7.220  35.312  1.00  0.00     0.016 C 
HETATM   14  C20 UNL     1      35.889  -6.773  33.885  1.00  0.00     0.015 C 
ENDROOT
BRANCH   1  15
HETATM   15  C4  UNL     1      36.769  -6.420  37.511  1.00  0.00    -0.016 C 
HETATM   16  C3  UNL     1      37.972  -6.938  37.678  1.00  0.00     0.003 C 
BRANCH  16  17
HETATM   17  C2  UNL     1      38.504  -7.350  38.971  1.00  0.00    -0.066 C 
HETATM   18  C1  UNL     1      39.525  -8.409  38.947  1.00  0.00     0.048 C 
HETATM   19  C21 UNL     1      38.068  -6.782  40.073  1.00  0.00    -0.018 C 
BRANCH  19  20
HETATM   20  C22 UNL     1      38.495  -7.077  41.440  1.00  0.00     0.061 C 
BRANCH  20  21
HETATM   21  C23 UNL     1      37.304  -7.710  42.176  1.00  0.00     0.144 C 
HETATM   22  C24 UNL     1      37.562  -9.193  42.191  1.00  0.00     0.157 C 
HETATM   23  N1  UNL     1      36.444  -9.807  42.904  1.00  0.00    -0.352 N 
HETATM   24  C25 UNL     1      35.799 -11.016  42.489  1.00  0.00     0.152 C 
HETATM   25  C26 UNL     1      36.036  -9.079  44.083  1.00  0.00     0.250 C 
HETATM   26  O3  UNL     1      35.014  -9.411  44.699  1.00  0.00    -0.270 OA
HETATM   27  C27 UNL     1      36.929  -7.949  44.455  1.00  0.00     0.237 C 
HETATM   28  O5  UNL     1      37.243  -7.125  43.410  1.00  0.00    -0.367 OA
BRANCH  27  29
HETATM   29  C28 UNL     1      36.320  -7.187  45.620  1.00  0.00     0.205 C 
BRANCH  29  30
HETATM   30  O4  UNL     1      35.243  -6.428  45.184  1.00  0.00    -0.398 OA
ATOM     31  H4  UNL     1      35.421  -5.503  45.313  1.00  0.00     0.209 HD
ENDBRANCH  29  30
ENDBRANCH  27  29
ENDBRANCH  20  21
ENDBRANCH  19  20
ENDBRANCH  16  17
ENDBRANCH   1  15
BRANCH   5  32
HETATM   32  O1  UNL     1      34.988  -1.566  36.986  1.00  0.00    -0.358 OA
ATOM     33  H1  UNL     1      35.318  -1.293  37.834  1.00  0.00     0.217 HD
ENDBRANCH   5  32
BRANCH   8  34
HETATM   34  O2  UNL     1      31.437  -4.684  36.526  1.00  0.00    -0.359 OA
ATOM     35  H2  UNL     1      31.146  -5.586  36.606  1.00  0.00     0.217 HD
ENDBRANCH   8  34
BRANCH  11  36
HETATM   36  C15 UNL     1      33.076  -9.194  36.612  1.00  0.00     0.006 C 
HETATM   37  C16 UNL     1      34.000 -10.345  36.865  1.00  0.00     0.014 C 
HETATM   38  C17 UNL     1      32.446  -8.805  37.939  1.00  0.00     0.014 C 
ENDBRANCH  11  36
TORSDOF 9
ENDMDL
MODEL 2
REMARK VINA RESULT: -6.664125295      2.920      8.375
REMARK  9 active torsions:
REMARK  status: ('A' for Active; 'I' for Inactive)
REMARK    1  A    between atoms: C2_2  and  C3_3 
REMARK    2  A    between atoms: C4_4  and  C5_5 
REMARK    3  A    between atoms: C8_9  and  O1_10 
REMARK    4  A    between atoms: C11_14  and  O2_15 
REMARK    5  A    between atoms: C14_19  and  C15_20 
REMARK    6  A    between atoms: C21_26  and  C22_27 
REMARK    7  A    between atoms: C22_27  and  C23_28 
REMARK    8  A    between atoms: C27_34  and  C28_35 
REMARK    9  A    between atoms: C28_35  and  O4_36 
ROOT
HETATM    1  C5  UNL     1      37.169  -8.242  38.281  1.00  0.00     0.051 C 
HETATM    2  C6  UNL     1      37.474  -7.756  39.628  1.00  0.00    -0.016 A 
HETATM    3  C7  UNL     1      37.018  -8.733  40.521  1.00  0.00     0.075 A 
HETATM    4 CL1  UNL     1      36.234 -10.207  39.920  1.00  0.00    -0.081 Cl
HETATM    5  C8  UNL     1      37.154  -8.602  41.884  1.00  0.00     0.096 A 
HETATM    6  C9  UNL     1      37.749  -7.494  42.433  1.00  0.00     0.007 A 
HETATM    7  C10 UNL     1      37.919  -7.303  43.892  1.00  0.00     0.054 C 
HETATM    8  C11 UNL     1      38.207  -6.512  41.561  1.00  0.00     0.081 A 
HETATM    9  C12 UNL     1      38.070  -6.642  40.177  1.00  0.00    -0.012 A 
HETATM   10  C13 UNL     1      38.609  -5.486  39.457  1.00  0.00     0.076 C 
HETATM   11  C14 UNL     1      38.349  -5.362  38.031  1.00  0.00    -0.075 C 
HETATM   12  C18 UNL     1      38.137  -6.290  37.113  1.00  0.00    -0.018 C 
HETATM   13  C19 UNL     1      38.088  -7.764  37.209  1.00  0.00     0.016 C 
HETATM   14  C20 UNL     1      39.447  -8.396  37.416  1.00  0.00     0.015 C 
ENDROOT
BRANCH   1  15
HETATM   15  C4  UNL     1      35.774  -7.864  37.940  1.00  0.00    -0.016 C 
HETATM   16  C3  UNL     1      35.136  -8.396  36.914  1.00  0.00     0.003 C 
BRANCH  16  17
HETATM   17  C2  UNL     1      33.768  -8.052  36.546  1.00  0.00    -0.066 C 
HETATM   18  C1  UNL     1      32.707  -8.890  37.129  1.00  0.00     0.048 C 
HETATM   19  C21 UNL     1      33.538  -7.044  35.735  1.00  0.00    -0.018 C 
BRANCH  19  20
HETATM   20  C22 UNL     1      32.234  -6.572  35.269  1.00  0.00     0.061 C 
BRANCH  20  21
HETATM   21  C23 UNL     1      32.335  -5.053  35.061  1.00  0.00     0.144 C 
HETATM   22  C24 UNL     1      32.709  -4.472  36.398  1.00  0.00     0.157 C 
HETATM   23  N1  UNL     1      32.825  -3.027  36.211  1.00  0.00    -0.352 N 
HETATM   24  C25 UNL     1      32.328  -2.058  37.142  1.00  0.00     0.152 C 
HETATM   25  C26 UNL     1      33.495  -2.651  34.988  1.00  0.00     0.250 C 
HETATM   26  O3  UNL     1      33.536  -1.464  34.639  1.00  0.00    -0.270 OA
HETATM   27  C27 UNL     1      34.097  -3.785  34.236  1.00  0.00     0.237 C 
HETATM   28  O5  UNL     1      33.252  -4.847  34.069  1.00  0.00    -0.367 OA
BRANCH  27  29
HETATM   29  C28 UNL     1      34.646  -3.278  32.913  1.00  0.00     0.205 C 
BRANCH  29  30
HETATM   30  O4  UNL     1      33.613  -2.804  32.117  1.00  0.00    -0.398 OA
ATOM     31  H4  UNL     1      33.511  -1.867  32.237  1.00  0.00     0.209 HD
ENDBRANCH  29  30
ENDBRANCH  27  29
ENDBRANCH  20  21
ENDBRANCH  19  20
ENDBRANCH  16  17
ENDBRANCH   1  15
BRANCH   5  32
HETATM   32  O1  UNL     1      36.689  -9.596  42.754  1.00  0.00    -0.358 OA
ATOM     33  H1  UNL     1      35.883  -9.480  43.243  1.00  0.00     0.217 HD
ENDBRANCH   5  32
BRANCH   8  34
HETATM   34  O2  UNL     1      38.806  -5.399  42.081  1.00  0.00    -0.359 OA
ATOM     35  H2  UNL     1      39.752  -5.324  42.035  1.00  0.00     0.217 HD
ENDBRANCH   8  34
BRANCH  11  36
HETATM   36  C15 UNL     1      38.326  -3.930  37.537  1.00  0.00     0.006 C 
HETATM   37  C16 UNL     1      39.228  -3.736  36.358  1.00  0.00     0.014 C 
HETATM   38  C17 UNL     1      36.899  -3.686  37.074  1.00  0.00     0.014 C 
ENDBRANCH  11  36
TORSDOF 9
ENDMDL
MODEL 3
REMARK VINA RESULT: -6.589218117      5.391      8.937
REMARK  9 active torsions:
REMARK  status: ('A' for Active; 'I' for Inactive)
REMARK    1  A    between atoms: C2_2  and  C3_3 
REMARK    2  A    between atoms: C4_4  and  C5_5 
REMARK    3  A    between atoms: C8_9  and  O1_10 
REMARK    4  A    between atoms: C11_14  and  O2_15 
REMARK    5  A    between atoms: C14_19  and  C15_20 
REMARK    6  A    between atoms: C21_26  and  C22_27 
REMARK    7  A    between atoms: C22_27  and  C23_28 
REMARK    8  A    between atoms: C27_34  and  C28_35 
REMARK    9  A    between atoms: C28_35  and  O4_36 
ROOT
HETATM    1  C5  UNL     1      36.037 -11.511  34.689  1.00  0.00     0.051 C 
HETATM    2  C6  UNL     1      36.009 -11.885  33.274  1.00  0.00    -0.016 A 
HETATM    3  C7  UNL     1      36.709 -10.891  32.581  1.00  0.00     0.075 A 
HETATM    4 CL1  UNL     1      37.409  -9.511  33.448  1.00  0.00    -0.081 Cl
HETATM    5  C8  UNL     1      36.885 -10.933  31.216  1.00  0.00     0.096 A 
HETATM    6  C9  UNL     1      36.376 -11.965  30.469  1.00  0.00     0.007 A 
HETATM    7  C10 UNL     1      36.537 -12.059  28.999  1.00  0.00     0.054 C 
HETATM    8  C11 UNL     1      35.678 -12.963  31.141  1.00  0.00     0.081 A 
HETATM    9  C12 UNL     1      35.496 -12.922  32.526  1.00  0.00    -0.012 A 
HETATM   10  C13 UNL     1      34.722 -14.064  33.016  1.00  0.00     0.076 C 
HETATM   11  C14 UNL     1      34.257 -14.059  34.394  1.00  0.00    -0.075 C 
HETATM   12  C18 UNL     1      34.767 -13.482  35.470  1.00  0.00    -0.018 C 
HETATM   13  C19 UNL     1      35.974 -12.648  35.650  1.00  0.00     0.016 C 
HETATM   14  C20 UNL     1      37.263 -13.434  35.560  1.00  0.00     0.015 C 
ENDROOT
BRANCH   1  15
HETATM   15  C4  UNL     1      34.917 -10.574  34.959  1.00  0.00    -0.016 C 
HETATM   16  C3  UNL     1      34.746 -10.008  36.139  1.00  0.00     0.003 C 
BRANCH  16  17
HETATM   17  C2  UNL     1      33.661  -9.085  36.444  1.00  0.00    -0.066 C 
HETATM   18  C1  UNL     1      32.768  -9.472  37.548  1.00  0.00     0.048 C 
HETATM   19  C21 UNL     1      33.522  -7.979  35.748  1.00  0.00    -0.018 C 
BRANCH  19  20
HETATM   20  C22 UNL     1      32.494  -6.953  35.925  1.00  0.00     0.061 C 
BRANCH  20  21
HETATM   21  C23 UNL     1      33.107  -5.603  35.523  1.00  0.00     0.144 C 
HETATM   22  C24 UNL     1      32.688  -5.363  34.097  1.00  0.00     0.157 C 
HETATM   23  N1  UNL     1      33.250  -4.072  33.705  1.00  0.00    -0.352 N 
HETATM   24  C25 UNL     1      33.856  -3.817  32.433  1.00  0.00     0.152 C 
HETATM   25  C26 UNL     1      33.141  -3.056  34.727  1.00  0.00     0.250 C 
HETATM   26  O3  UNL     1      33.700  -1.961  34.580  1.00  0.00    -0.270 OA
HETATM   27  C27 UNL     1      32.328  -3.449  35.909  1.00  0.00     0.237 C 
HETATM   28  O5  UNL     1      32.651  -4.676  36.418  1.00  0.00    -0.367 OA
BRANCH  27  29
HETATM   29  C28 UNL     1      32.405  -2.356  36.961  1.00  0.00     0.205 C 
BRANCH  29  30
HETATM   30  O4  UNL     1      31.169  -1.742  37.103  1.00  0.00    -0.398 OA
ATOM     31  H4  UNL     1      30.497  -2.256  36.670  1.00  0.00     0.209 HD
ENDBRANCH  29  30
ENDBRANCH  27  29
ENDBRANCH  20  21
ENDBRANCH  19  20
ENDBRANCH  16  17
ENDBRANCH   1  15
BRANCH   5  32
HETATM   32  O1  UNL     1      37.589  -9.925  30.548  1.00  0.00    -0.358 OA
ATOM     33  H1  UNL     1      37.230  -9.049  30.466  1.00  0.00     0.217 HD
ENDBRANCH   5  32
BRANCH   8  34
HETATM   34  O2  UNL     1      35.162 -14.003  30.420  1.00  0.00    -0.359 OA
ATOM     35  H2  UNL     1      35.206 -13.969  29.471  1.00  0.00     0.217 HD
ENDBRANCH   8  34
BRANCH  11  36
HETATM   36  C15 UNL     1      32.985 -14.851  34.612  1.00  0.00     0.006 C 
HETATM   37  C16 UNL     1      32.257 -15.096  33.327  1.00  0.00     0.014 C 
HETATM   38  C17 UNL     1      33.436 -16.199  35.152  1.00  0.00     0.014 C 
ENDBRANCH  11  36
TORSDOF 9
ENDMDL
MODEL 4
REMARK VINA RESULT: -6.579252013      4.932      9.595
REMARK  9 active torsions:
REMARK  status: ('A' for Active; 'I' for Inactive)
REMARK    1  A    between atoms: C2_2  and  C3_3 
REMARK    2  A    between atoms: C4_4  and  C5_5 
REMARK    3  A    between atoms: C8_9  and  O1_10 
REMARK    4  A    between atoms: C11_14  and  O2_15 
REMARK    5  A    between atoms: C14_19  and  C15_20 
REMARK    6  A    between atoms: C21_26  and  C22_27 
REMARK    7  A    between atoms: C22_27  and  C23_28 
REMARK    8  A    between atoms: C27_34  and  C28_35 
REMARK    9  A    between atoms: C28_35  and  O4_36 
ROOT
HETATM    1  C5  UNL     1      36.016 -12.214  35.929  1.00  0.00     0.051 C 
HETATM    2  C6  UNL     1      35.722 -13.597  36.309  1.00  0.00    -0.016 A 
HETATM    3  C7  UNL     1      34.985 -14.155  35.258  1.00  0.00     0.075 A 
HETATM    4 CL1  UNL     1      34.580 -13.187  33.828  1.00  0.00    -0.081 Cl
HETATM    5  C8  UNL     1      34.546 -15.459  35.282  1.00  0.00     0.096 A 
HETATM    6  C9  UNL     1      34.816 -16.278  36.349  1.00  0.00     0.007 A 
HETATM    7  C10 UNL     1      34.367 -17.688  36.425  1.00  0.00     0.054 C 
HETATM    8  C11 UNL     1      35.547 -15.740  37.403  1.00  0.00     0.081 A 
HETATM    9  C12 UNL     1      35.993 -14.416  37.383  1.00  0.00    -0.012 A 
HETATM   10  C13 UNL     1      36.728 -14.062  38.598  1.00  0.00     0.076 C 
HETATM   11  C14 UNL     1      37.068 -12.666  38.833  1.00  0.00    -0.075 C 
HETATM   12  C18 UNL     1      37.290 -11.681  37.979  1.00  0.00    -0.018 C 
HETATM   13  C19 UNL     1      37.270 -11.649  36.502  1.00  0.00     0.016 C 
HETATM   14  C20 UNL     1      38.452 -12.352  35.872  1.00  0.00     0.015 C 
ENDROOT
BRANCH   1  15
HETATM   15  C4  UNL     1      34.867 -11.357  36.317  1.00  0.00    -0.016 C 
HETATM   16  C3  UNL     1      34.819 -10.072  36.017  1.00  0.00     0.003 C 
BRANCH  16  17
HETATM   17  C2  UNL     1      33.712  -9.197  36.378  1.00  0.00    -0.066 C 
HETATM   18  C1  UNL     1      32.834  -9.671  37.460  1.00  0.00     0.048 C 
HETATM   19  C21 UNL     1      33.541  -8.056  35.749  1.00  0.00    -0.018 C 
BRANCH  19  20
HETATM   20  C22 UNL     1      32.488  -7.070  35.988  1.00  0.00     0.061 C 
BRANCH  20  21
HETATM   21  C23 UNL     1      33.038  -5.692  35.591  1.00  0.00     0.144 C 
HETATM   22  C24 UNL     1      32.519  -5.419  34.204  1.00  0.00     0.157 C 
HETATM   23  N1  UNL     1      33.022  -4.102  33.819  1.00  0.00    -0.352 N 
HETATM   24  C25 UNL     1      33.535  -3.791  32.519  1.00  0.00     0.152 C 
HETATM   25  C26 UNL     1      32.955  -3.122  34.878  1.00  0.00     0.250 C 
HETATM   26  O3  UNL     1      33.476  -2.008  34.731  1.00  0.00    -0.270 OA
HETATM   27  C27 UNL     1      32.234  -3.573  36.098  1.00  0.00     0.237 C 
HETATM   28  O5  UNL     1      32.620  -4.806  36.545  1.00  0.00    -0.367 OA
BRANCH  27  29
HETATM   29  C28 UNL     1      32.353  -2.511  37.178  1.00  0.00     0.205 C 
BRANCH  29  30
HETATM   30  O4  UNL     1      31.263  -1.655  37.129  1.00  0.00    -0.398 OA
ATOM     31  H4  UNL     1      31.491  -0.812  37.505  1.00  0.00     0.209 HD
ENDBRANCH  29  30
ENDBRANCH  27  29
ENDBRANCH  20  21
ENDBRANCH  19  20
ENDBRANCH  16  17
ENDBRANCH   1  15
BRANCH   5  32
HETATM   32  O1  UNL     1      33.810 -15.992  34.217  1.00  0.00    -0.358 OA
ATOM     33  H1  UNL     1      32.905 -16.258  34.331  1.00  0.00     0.217 HD
ENDBRANCH   5  32
BRANCH   8  34
HETATM   34  O2  UNL     1      35.832 -16.534  38.478  1.00  0.00    -0.359 OA
ATOM     35  H2  UNL     1      36.351 -17.319  38.343  1.00  0.00     0.217 HD
ENDBRANCH   8  34
BRANCH  11  36
HETATM   36  C15 UNL     1      37.186 -12.306  40.300  1.00  0.00     0.006 C 
HETATM   37  C16 UNL     1      36.744 -13.430  41.184  1.00  0.00     0.014 C 
HETATM   38  C17 UNL     1      38.670 -12.082  40.542  1.00  0.00     0.014 C 
ENDBRANCH  11  36
TORSDOF 9
ENDMDL
MODEL 5
REMARK VINA RESULT: -6.557175892      4.983      8.145
REMARK  9 active torsions:
REMARK  status: ('A' for Active; 'I' for Inactive)
REMARK    1  A    between atoms: C2_2  and  C3_3 
REMARK    2  A    between atoms: C4_4  and  C5_5 
REMARK    3  A    between atoms: C8_9  and  O1_10 
REMARK    4  A    between atoms: C11_14  and  O2_15 
REMARK    5  A    between atoms: C14_19  and  C15_20 
REMARK    6  A    between atoms: C21_26  and  C22_27 
REMARK    7  A    between atoms: C22_27  and  C23_28 
REMARK    8  A    between atoms: C27_34  and  C28_35 
REMARK    9  A    between atoms: C28_35  and  O4_36 
ROOT
HETATM    1  C5  UNL     1      35.565  -0.450  33.947  1.00  0.00     0.051 C 
HETATM    2  C6  UNL     1      35.388  -0.009  32.563  1.00  0.00    -0.016 A 
HETATM    3  C7  UNL     1      34.564   1.121  32.603  1.00  0.00     0.075 A 
HETATM    4 CL1  UNL     1      33.947   1.732  34.150  1.00  0.00    -0.081 Cl
HETATM    5  C8  UNL     1      34.197   1.803  31.464  1.00  0.00     0.096 A 
HETATM    6  C9  UNL     1      34.630   1.398  30.227  1.00  0.00     0.007 A 
HETATM    7  C10 UNL     1      34.265   2.095  28.971  1.00  0.00     0.054 C 
HETATM    8  C11 UNL     1      35.449   0.276  30.168  1.00  0.00     0.081 A 
HETATM    9  C12 UNL     1      35.823  -0.419  31.321  1.00  0.00    -0.012 A 
HETATM   10  C13 UNL     1      36.674  -1.571  31.021  1.00  0.00     0.076 C 
HETATM   11  C14 UNL     1      36.967  -2.524  32.082  1.00  0.00    -0.075 C 
HETATM   12  C18 UNL     1      37.039  -2.355  33.392  1.00  0.00    -0.018 C 
HETATM   13  C19 UNL     1      36.847  -1.155  34.232  1.00  0.00     0.016 C 
HETATM   14  C20 UNL     1      37.983  -0.161  34.124  1.00  0.00     0.015 C 
ENDROOT
BRANCH   1  15
HETATM   15  C4  UNL     1      34.427  -1.328  34.320  1.00  0.00    -0.016 C 
HETATM   16  C3  UNL     1      34.218  -1.714  35.565  1.00  0.00     0.003 C 
BRANCH  16  17
HETATM   17  C2  UNL     1      33.114  -2.574  35.972  1.00  0.00    -0.066 C 
HETATM   18  C1  UNL     1      32.243  -2.054  37.038  1.00  0.00     0.048 C 
HETATM   19  C21 UNL     1      32.941  -3.741  35.394  1.00  0.00    -0.018 C 
BRANCH  19  20
HETATM   20  C22 UNL     1      31.891  -4.717  35.683  1.00  0.00     0.061 C 
BRANCH  20  21
HETATM   21  C23 UNL     1      32.426  -6.106  35.302  1.00  0.00     0.144 C 
HETATM   22  C24 UNL     1      33.613  -5.866  34.409  1.00  0.00     0.157 C 
HETATM   23  N1  UNL     1      34.143  -7.180  34.051  1.00  0.00    -0.352 N 
HETATM   24  C25 UNL     1      34.591  -7.531  32.737  1.00  0.00     0.152 C 
HETATM   25  C26 UNL     1      34.179  -8.112  35.155  1.00  0.00     0.250 C 
HETATM   26  O3  UNL     1      34.472  -9.299  34.959  1.00  0.00    -0.270 OA
HETATM   27  C27 UNL     1      33.842  -7.522  36.478  1.00  0.00     0.237 C 
HETATM   28  O5  UNL     1      32.708  -6.758  36.470  1.00  0.00    -0.367 OA
BRANCH  27  29
HETATM   29  C28 UNL     1      33.781  -8.623  37.522  1.00  0.00     0.205 C 
BRANCH  29  30
HETATM   30  O4  UNL     1      32.698  -9.455  37.276  1.00  0.00    -0.398 OA
ATOM     31  H4  UNL     1      32.997 -10.285  36.921  1.00  0.00     0.209 HD
ENDBRANCH  29  30
ENDBRANCH  27  29
ENDBRANCH  20  21
ENDBRANCH  19  20
ENDBRANCH  16  17
ENDBRANCH   1  15
BRANCH   5  32
HETATM   32  O1  UNL     1      33.371   2.931  31.534  1.00  0.00    -0.358 OA
ATOM     33  H1  UNL     1      32.429   2.855  31.441  1.00  0.00     0.217 HD
ENDBRANCH   5  32
BRANCH   8  34
HETATM   34  O2  UNL     1      35.896  -0.148  28.947  1.00  0.00    -0.359 OA
ATOM     35  H2  UNL     1      36.149   0.503  28.302  1.00  0.00     0.217 HD
ENDBRANCH   8  34
BRANCH  11  36
HETATM   36  C15 UNL     1      37.236  -3.928  31.583  1.00  0.00     0.006 C 
HETATM   37  C16 UNL     1      37.518  -4.872  32.710  1.00  0.00     0.014 C 
HETATM   38  C17 UNL     1      35.944  -4.374  30.918  1.00  0.00     0.014 C 
ENDBRANCH  11  36
TORSDOF 9
ENDMDL
