MODEL 1
REMARK VINA RESULT: -7.274537650      0.000      0.000
REMARK  8 active torsions:
REMARK  status: ('A' for Active; 'I' for Inactive)
REMARK    1  A    between atoms: C2_2  and  O1_3 
REMARK    2  A    between atoms: O1_3  and  C3_4 
REMARK    3  A    between atoms: C3_4  and  C4_6 
REMARK    4  A    between atoms: C19_22  and  C20_23 
REMARK    5  A    between atoms: C20_23  and  O3_25 
REMARK    6  A    between atoms: C20_23  and  C22_27 
REMARK    7  A    between atoms: C22_27  and  C23_28 
REMARK    8  A    between atoms: C23_28  and  C24_29 
ROOT
HETATM    1  C4  UNL     1      -3.874   8.222  -1.890  1.00  0.00     0.079 C 
HETATM    2  C5  UNL     1      -5.102   8.297  -0.963  1.00  0.00     0.029 C 
HETATM    3  C6  UNL     1      -2.902   9.227  -1.279  1.00  0.00     0.188 C 
HETATM    4  F1  UNL     1      -3.697  10.345  -0.978  1.00  0.00    -0.248 F 
HETATM    5  C7  UNL     1      -2.254   8.761  -0.029  1.00  0.00     0.039 C 
HETATM    6  C8  UNL     1      -2.316   7.280   0.226  1.00  0.00     0.012 C 
HETATM    7  C9  UNL     1      -2.197   6.527  -1.053  1.00  0.00    -0.035 C 
HETATM    8  C10 UNL     1      -0.835   6.846  -1.617  1.00  0.00     0.016 C 
HETATM    9  C11 UNL     1      -2.230   5.008  -0.802  1.00  0.00    -0.002 C 
HETATM   10  C12 UNL     1      -3.273   4.604   0.159  1.00  0.00     0.006 C 
HETATM   11  C13 UNL     1      -3.992   3.301  -0.102  1.00  0.00     0.010 C 
HETATM   12  C14 UNL     1      -3.067   2.287  -0.646  1.00  0.00    -0.034 C 
HETATM   13  C15 UNL     1      -2.025   1.953   0.342  1.00  0.00     0.016 C 
HETATM   14  C16 UNL     1      -2.591   2.833  -1.970  1.00  0.00    -0.001 C 
HETATM   15  C17 UNL     1      -1.636   1.749  -2.377  1.00  0.00     0.006 C 
HETATM   16  C18 UNL     1      -2.482   0.513  -2.018  1.00  0.00     0.009 C 
HETATM   17  C19 UNL     1      -3.652   1.034  -1.189  1.00  0.00     0.028 C 
HETATM   18  C27 UNL     1      -2.156   4.227  -2.073  1.00  0.00    -0.005 C 
HETATM   19  C28 UNL     1      -2.831   4.865  -3.264  1.00  0.00     0.006 C 
HETATM   20  C29 UNL     1      -3.019   6.308  -3.314  1.00  0.00     0.007 C 
HETATM   21  C30 UNL     1      -3.338   6.838  -1.935  1.00  0.00     0.015 C 
ENDROOT
BRANCH  17  22
HETATM   22  C20 UNL     1      -4.307   0.014  -0.416  1.00  0.00     0.059 C 
HETATM   23  C21 UNL     1      -3.620  -1.330  -0.537  1.00  0.00     0.046 C 
BRANCH  22  24
HETATM   24  O3  UNL     1      -4.000   0.343   0.952  1.00  0.00    -0.390 OA
ATOM     25  H3  UNL     1      -3.484  -0.391   1.264  1.00  0.00     0.210 HD
ENDBRANCH  22  24
BRANCH  22  26
HETATM   26  C22 UNL     1      -5.795  -0.078  -0.398  1.00  0.00     0.041 C 
BRANCH  26  27
HETATM   27  C23 UNL     1      -6.467   0.933  -1.305  1.00  0.00     0.045 C 
BRANCH  27  28
HETATM   28  C24 UNL     1      -7.653   1.582  -0.627  1.00  0.00     0.096 C 
HETATM   29  C25 UNL     1      -8.918   0.784  -0.790  1.00  0.00     0.051 C 
HETATM   30  C26 UNL     1      -7.376   1.904   0.817  1.00  0.00     0.051 C 
HETATM   31  F2  UNL     1      -7.859   2.800  -1.275  1.00  0.00    -0.244 F 
ENDBRANCH  27  28
ENDBRANCH  26  27
ENDBRANCH  22  26
ENDBRANCH  17  22
BRANCH   1  32
HETATM   32  C3  UNL     1      -4.296   8.774  -3.196  1.00  0.00     0.270 C 
HETATM   33  O2  UNL     1      -5.397   8.442  -3.706  1.00  0.00    -0.264 OA
BRANCH  32  34
HETATM   34  O1  UNL     1      -3.543   9.671  -3.941  1.00  0.00    -0.321 OA
BRANCH  34  35
HETATM   35  C2  UNL     1      -2.732   9.219  -5.031  1.00  0.00     0.174 C 
HETATM   36  C1  UNL     1      -1.271   9.310  -4.639  1.00  0.00     0.034 C 
ENDBRANCH  34  35
ENDBRANCH  32  34
ENDBRANCH   1  32
TORSDOF 8
ENDMDL
MODEL 2
REMARK VINA RESULT: -7.207919869      4.342      6.537
REMARK  8 active torsions:
REMARK  status: ('A' for Active; 'I' for Inactive)
REMARK    1  A    between atoms: C2_2  and  O1_3 
REMARK    2  A    between atoms: O1_3  and  C3_4 
REMARK    3  A    between atoms: C3_4  and  C4_6 
REMARK    4  A    between atoms: C19_22  and  C20_23 
REMARK    5  A    between atoms: C20_23  and  O3_25 
REMARK    6  A    between atoms: C20_23  and  C22_27 
REMARK    7  A    between atoms: C22_27  and  C23_28 
REMARK    8  A    between atoms: C23_28  and  C24_29 
ROOT
HETATM    1  C4  UNL     1      -0.662   5.904   4.715  1.00  0.00     0.079 C 
HETATM    2  C5  UNL     1      -0.137   4.460   4.821  1.00  0.00     0.029 C 
HETATM    3  C6  UNL     1       0.565   6.702   4.286  1.00  0.00     0.188 C 
HETATM    4  F1  UNL     1       1.602   6.212   5.095  1.00  0.00    -0.248 F 
HETATM    5  C7  UNL     1       0.946   6.509   2.865  1.00  0.00     0.039 C 
HETATM    6  C8  UNL     1      -0.115   5.917   1.978  1.00  0.00     0.012 C 
HETATM    7  C9  UNL     1      -1.460   6.418   2.373  1.00  0.00    -0.035 C 
HETATM    8  C10 UNL     1      -1.448   7.910   2.153  1.00  0.00     0.016 C 
HETATM    9  C11 UNL     1      -2.553   5.841   1.453  1.00  0.00    -0.002 C 
HETATM   10  C12 UNL     1      -2.387   4.400   1.191  1.00  0.00     0.006 C 
HETATM   11  C13 UNL     1      -3.639   3.561   1.099  1.00  0.00     0.010 C 
HETATM   12  C14 UNL     1      -4.725   4.304   0.430  1.00  0.00    -0.034 C 
HETATM   13  C15 UNL     1      -4.365   4.602  -0.969  1.00  0.00     0.016 C 
HETATM   14  C16 UNL     1      -5.019   5.489   1.317  1.00  0.00    -0.001 C 
HETATM   15  C17 UNL     1      -6.081   6.172   0.506  1.00  0.00     0.006 C 
HETATM   16  C18 UNL     1      -6.928   4.948   0.110  1.00  0.00     0.009 C 
HETATM   17  C19 UNL     1      -6.092   3.725   0.475  1.00  0.00     0.028 C 
HETATM   18  C27 UNL     1      -3.920   6.293   1.854  1.00  0.00    -0.005 C 
HETATM   19  C28 UNL     1      -4.129   6.483   3.338  1.00  0.00     0.006 C 
HETATM   20  C29 UNL     1      -2.994   6.758   4.208  1.00  0.00     0.007 C 
HETATM   21  C30 UNL     1      -1.784   5.981   3.744  1.00  0.00     0.015 C 
ENDROOT
BRANCH  17  22
HETATM   22  C20 UNL     1      -6.513   2.523  -0.191  1.00  0.00     0.059 C 
HETATM   23  C21 UNL     1      -7.360   1.638   0.699  1.00  0.00     0.046 C 
BRANCH  22  24
HETATM   24  O3  UNL     1      -7.503   2.963  -1.140  1.00  0.00    -0.390 OA
ATOM     25  H3  UNL     1      -7.014   3.473  -1.776  1.00  0.00     0.210 HD
ENDBRANCH  22  24
BRANCH  22  26
HETATM   26  C22 UNL     1      -5.559   1.764  -1.049  1.00  0.00     0.041 C 
BRANCH  26  27
HETATM   27  C23 UNL     1      -5.379   0.323  -0.614  1.00  0.00     0.045 C 
BRANCH  27  28
HETATM   28  C24 UNL     1      -3.916  -0.022  -0.437  1.00  0.00     0.096 C 
HETATM   29  C25 UNL     1      -3.660  -1.502  -0.512  1.00  0.00     0.051 C 
HETATM   30  C26 UNL     1      -3.033   0.749  -1.379  1.00  0.00     0.051 C 
HETATM   31  F2  UNL     1      -3.572   0.380   0.854  1.00  0.00    -0.244 F 
ENDBRANCH  27  28
ENDBRANCH  26  27
ENDBRANCH  22  26
ENDBRANCH  17  22
BRANCH   1  32
HETATM   32  C3  UNL     1      -0.993   6.335   6.091  1.00  0.00     0.270 C 
HETATM   33  O2  UNL     1      -1.376   5.500   6.950  1.00  0.00    -0.264 OA
BRANCH  32  34
HETATM   34  O1  UNL     1      -0.913   7.649   6.534  1.00  0.00    -0.321 OA
BRANCH  34  35
HETATM   35  C2  UNL     1      -1.561   8.055   7.744  1.00  0.00     0.174 C 
HETATM   36  C1  UNL     1      -2.937   8.599   7.417  1.00  0.00     0.034 C 
ENDBRANCH  34  35
ENDBRANCH  32  34
ENDBRANCH   1  32
TORSDOF 8
ENDMDL
MODEL 3
REMARK VINA RESULT: -7.002030372      4.498      6.665
REMARK  8 active torsions:
REMARK  status: ('A' for Active; 'I' for Inactive)
REMARK    1  A    between atoms: C2_2  and  O1_3 
REMARK    2  A    between atoms: O1_3  and  C3_4 
REMARK    3  A    between atoms: C3_4  and  C4_6 
REMARK    4  A    between atoms: C19_22  and  C20_23 
REMARK    5  A    between atoms: C20_23  and  O3_25 
REMARK    6  A    between atoms: C20_23  and  C22_27 
REMARK    7  A    between atoms: C22_27  and  C23_28 
REMARK    8  A    between atoms: C23_28  and  C24_29 
ROOT
HETATM    1  C4  UNL     1      -1.648   6.793   5.302  1.00  0.00     0.079 C 
HETATM    2  C5  UNL     1      -0.868   5.466   5.338  1.00  0.00     0.029 C 
HETATM    3  C6  UNL     1      -0.572   7.833   5.005  1.00  0.00     0.188 C 
HETATM    4  F1  UNL     1       0.500   7.477   5.838  1.00  0.00    -0.248 F 
HETATM    5  C7  UNL     1      -0.097   7.828   3.599  1.00  0.00     0.039 C 
HETATM    6  C8  UNL     1      -0.987   7.126   2.611  1.00  0.00     0.012 C 
HETATM    7  C9  UNL     1      -2.419   7.341   2.959  1.00  0.00    -0.035 C 
HETATM    8  C10 UNL     1      -2.674   8.823   2.846  1.00  0.00     0.016 C 
HETATM    9  C11 UNL     1      -3.342   6.651   1.937  1.00  0.00    -0.002 C 
HETATM   10  C12 UNL     1      -2.899   5.290   1.584  1.00  0.00     0.006 C 
HETATM   11  C13 UNL     1      -3.968   4.247   1.358  1.00  0.00     0.010 C 
HETATM   12  C14 UNL     1      -5.141   4.831   0.680  1.00  0.00    -0.034 C 
HETATM   13  C15 UNL     1      -4.779   5.301  -0.671  1.00  0.00     0.016 C 
HETATM   14  C16 UNL     1      -5.691   5.867   1.629  1.00  0.00    -0.001 C 
HETATM   15  C17 UNL     1      -6.822   6.409   0.806  1.00  0.00     0.006 C 
HETATM   16  C18 UNL     1      -7.409   5.088   0.274  1.00  0.00     0.009 C 
HETATM   17  C19 UNL     1      -6.377   4.012   0.601  1.00  0.00     0.028 C 
HETATM   18  C27 UNL     1      -4.786   6.812   2.285  1.00  0.00    -0.005 C 
HETATM   19  C28 UNL     1      -5.094   6.841   3.764  1.00  0.00     0.006 C 
HETATM   20  C29 UNL     1      -4.072   7.247   4.718  1.00  0.00     0.007 C 
HETATM   21  C30 UNL     1      -2.718   6.743   4.274  1.00  0.00     0.015 C 
ENDROOT
BRANCH  17  22
HETATM   22  C20 UNL     1      -6.536   2.810  -0.172  1.00  0.00     0.059 C 
HETATM   23  C21 UNL     1      -7.288   1.735   0.584  1.00  0.00     0.046 C 
BRANCH  22  24
HETATM   24  O3  UNL     1      -7.509   3.153  -1.177  1.00  0.00    -0.390 OA
ATOM     25  H3  UNL     1      -7.105   2.897  -1.998  1.00  0.00     0.210 HD
ENDBRANCH  22  24
BRANCH  22  26
HETATM   26  C22 UNL     1      -5.404   2.284  -0.987  1.00  0.00     0.041 C 
BRANCH  26  27
HETATM   27  C23 UNL     1      -5.255   0.778  -0.901  1.00  0.00     0.045 C 
BRANCH  27  28
HETATM   28  C24 UNL     1      -3.891   0.387  -0.374  1.00  0.00     0.096 C 
HETATM   29  C25 UNL     1      -3.723  -1.104  -0.260  1.00  0.00     0.051 C 
HETATM   30  C26 UNL     1      -2.776   1.018  -1.163  1.00  0.00     0.051 C 
HETATM   31  F2  UNL     1      -3.807   0.902   0.919  1.00  0.00    -0.244 F 
ENDBRANCH  27  28
ENDBRANCH  26  27
ENDBRANCH  22  26
ENDBRANCH  17  22
BRANCH   1  32
HETATM   32  C3  UNL     1      -2.116   7.046   6.683  1.00  0.00     0.270 C 
HETATM   33  O2  UNL     1      -1.620   6.416   7.653  1.00  0.00    -0.264 OA
BRANCH  32  34
HETATM   34  O1  UNL     1      -3.104   7.963   7.013  1.00  0.00    -0.321 OA
BRANCH  34  35
HETATM   35  C2  UNL     1      -2.773   9.191   7.671  1.00  0.00     0.174 C 
HETATM   36  C1  UNL     1      -2.764  10.316   6.657  1.00  0.00     0.034 C 
ENDBRANCH  34  35
ENDBRANCH  32  34
ENDBRANCH   1  32
TORSDOF 8
ENDMDL
MODEL 4
REMARK VINA RESULT: -6.995304417      4.808      6.956
REMARK  8 active torsions:
REMARK  status: ('A' for Active; 'I' for Inactive)
REMARK    1  A    between atoms: C2_2  and  O1_3 
REMARK    2  A    between atoms: O1_3  and  C3_4 
REMARK    3  A    between atoms: C3_4  and  C4_6 
REMARK    4  A    between atoms: C19_22  and  C20_23 
REMARK    5  A    between atoms: C20_23  and  O3_25 
REMARK    6  A    between atoms: C20_23  and  C22_27 
REMARK    7  A    between atoms: C22_27  and  C23_28 
REMARK    8  A    between atoms: C23_28  and  C24_29 
ROOT
HETATM    1  C4  UNL     1      -1.529   7.308   5.813  1.00  0.00     0.079 C 
HETATM    2  C5  UNL     1      -0.583   6.103   5.654  1.00  0.00     0.029 C 
HETATM    3  C6  UNL     1      -0.604   8.512   5.665  1.00  0.00     0.188 C 
HETATM    4  F1  UNL     1       0.524   8.185   6.435  1.00  0.00    -0.248 F 
HETATM    5  C7  UNL     1      -0.163   8.770   4.272  1.00  0.00     0.039 C 
HETATM    6  C8  UNL     1      -0.977   8.105   3.196  1.00  0.00     0.012 C 
HETATM    7  C9  UNL     1      -2.416   8.077   3.575  1.00  0.00    -0.035 C 
HETATM    8  C10 UNL     1      -2.864   9.514   3.678  1.00  0.00     0.016 C 
HETATM    9  C11 UNL     1      -3.264   7.424   2.468  1.00  0.00    -0.002 C 
HETATM   10  C12 UNL     1      -2.656   6.198   1.921  1.00  0.00     0.006 C 
HETATM   11  C13 UNL     1      -3.586   5.066   1.551  1.00  0.00     0.010 C 
HETATM   12  C14 UNL     1      -4.840   5.582   0.968  1.00  0.00    -0.034 C 
HETATM   13  C15 UNL     1      -4.571   6.282  -0.302  1.00  0.00     0.016 C 
HETATM   14  C16 UNL     1      -5.498   6.391   2.058  1.00  0.00    -0.001 C 
HETATM   15  C17 UNL     1      -6.708   6.890   1.325  1.00  0.00     0.006 C 
HETATM   16  C18 UNL     1      -7.130   5.593   0.610  1.00  0.00     0.009 C 
HETATM   17  C19 UNL     1      -5.960   4.626   0.776  1.00  0.00     0.028 C 
HETATM   18  C27 UNL     1      -4.709   7.343   2.841  1.00  0.00    -0.005 C 
HETATM   19  C28 UNL     1      -4.986   7.121   4.309  1.00  0.00     0.006 C 
HETATM   20  C29 UNL     1      -4.004   7.517   5.308  1.00  0.00     0.007 C 
HETATM   21  C30 UNL     1      -2.606   7.264   4.792  1.00  0.00     0.015 C 
ENDROOT
BRANCH  17  22
HETATM   22  C20 UNL     1      -5.980   3.536  -0.162  1.00  0.00     0.059 C 
HETATM   23  C21 UNL     1      -5.004   3.740  -1.301  1.00  0.00     0.046 C 
BRANCH  22  24
HETATM   24  O3  UNL     1      -5.344   2.448   0.536  1.00  0.00    -0.390 OA
ATOM     25  H3  UNL     1      -4.445   2.459   0.227  1.00  0.00     0.210 HD
ENDBRANCH  22  24
BRANCH  22  26
HETATM   26  C22 UNL     1      -7.275   2.933  -0.588  1.00  0.00     0.041 C 
BRANCH  26  27
HETATM   27  C23 UNL     1      -7.764   1.846   0.349  1.00  0.00     0.045 C 
BRANCH  27  28
HETATM   28  C24 UNL     1      -8.448   0.729  -0.409  1.00  0.00     0.096 C 
HETATM   29  C25 UNL     1      -9.838   1.099  -0.850  1.00  0.00     0.051 C 
HETATM   30  C26 UNL     1      -7.612   0.225  -1.554  1.00  0.00     0.051 C 
HETATM   31  F2  UNL     1      -8.579  -0.331   0.487  1.00  0.00    -0.244 F 
ENDBRANCH  27  28
ENDBRANCH  26  27
ENDBRANCH  22  26
ENDBRANCH  17  22
BRANCH   1  32
HETATM   32  C3  UNL     1      -1.995   7.297   7.218  1.00  0.00     0.270 C 
HETATM   33  O2  UNL     1      -1.468   6.527   8.061  1.00  0.00    -0.264 OA
BRANCH  32  34
HETATM   34  O1  UNL     1      -3.014   8.105   7.704  1.00  0.00    -0.321 OA
BRANCH  34  35
HETATM   35  C2  UNL     1      -2.733   9.159   8.632  1.00  0.00     0.174 C 
HETATM   36  C1  UNL     1      -2.520  10.451   7.871  1.00  0.00     0.034 C 
ENDBRANCH  34  35
ENDBRANCH  32  34
ENDBRANCH   1  32
TORSDOF 8
ENDMDL
MODEL 5
REMARK VINA RESULT: -6.949310446      2.905      4.146
REMARK  8 active torsions:
REMARK  status: ('A' for Active; 'I' for Inactive)
REMARK    1  A    between atoms: C2_2  and  O1_3 
REMARK    2  A    between atoms: O1_3  and  C3_4 
REMARK    3  A    between atoms: C3_4  and  C4_6 
REMARK    4  A    between atoms: C19_22  and  C20_23 
REMARK    5  A    between atoms: C20_23  and  O3_25 
REMARK    6  A    between atoms: C20_23  and  C22_27 
REMARK    7  A    between atoms: C22_27  and  C23_28 
REMARK    8  A    between atoms: C23_28  and  C24_29 
ROOT
HETATM    1  C4  UNL     1      -0.553   5.908  -5.522  1.00  0.00     0.079 C 
HETATM    2  C5  UNL     1      -1.483   5.248  -6.557  1.00  0.00     0.029 C 
HETATM    3  C6  UNL     1      -0.805   7.400  -5.714  1.00  0.00     0.188 C 
HETATM    4  F1  UNL     1      -0.821   7.577  -7.106  1.00  0.00    -0.248 F 
HETATM    5  C7  UNL     1      -2.101   7.871  -5.165  1.00  0.00     0.039 C 
HETATM    6  C8  UNL     1      -2.766   6.952  -4.178  1.00  0.00     0.012 C 
HETATM    7  C9  UNL     1      -1.746   6.281  -3.325  1.00  0.00    -0.035 C 
HETATM    8  C10 UNL     1      -1.046   7.370  -2.551  1.00  0.00     0.016 C 
HETATM    9  C11 UNL     1      -2.415   5.359  -2.290  1.00  0.00    -0.002 C 
HETATM   10  C12 UNL     1      -3.503   4.543  -2.860  1.00  0.00     0.006 C 
HETATM   11  C13 UNL     1      -3.656   3.131  -2.346  1.00  0.00     0.010 C 
HETATM   12  C14 UNL     1      -3.373   3.062  -0.899  1.00  0.00    -0.034 C 
HETATM   13  C15 UNL     1      -4.361   3.850  -0.139  1.00  0.00     0.016 C 
HETATM   14  C16 UNL     1      -1.927   3.462  -0.744  1.00  0.00    -0.001 C 
HETATM   15  C17 UNL     1      -1.792   3.402   0.749  1.00  0.00     0.006 C 
HETATM   16  C18 UNL     1      -2.527   2.076   1.020  1.00  0.00     0.009 C 
HETATM   17  C19 UNL     1      -3.235   1.717  -0.283  1.00  0.00     0.028 C 
HETATM   18  C27 UNL     1      -1.413   4.638  -1.448  1.00  0.00    -0.005 C 
HETATM   19  C28 UNL     1      -0.127   4.269  -2.149  1.00  0.00     0.006 C 
HETATM   20  C29 UNL     1       0.317   5.024  -3.312  1.00  0.00     0.007 C 
HETATM   21  C30 UNL     1      -0.872   5.428  -4.153  1.00  0.00     0.015 C 
ENDROOT
BRANCH  17  22
HETATM   22  C20 UNL     1      -4.297   0.762  -0.115  1.00  0.00     0.059 C 
HETATM   23  C21 UNL     1      -3.788  -0.664  -0.089  1.00  0.00     0.046 C 
BRANCH  22  24
HETATM   24  O3  UNL     1      -4.710   0.918   1.256  1.00  0.00    -0.390 OA
ATOM     25  H3  UNL     1      -4.313   0.184   1.710  1.00  0.00     0.210 HD
ENDBRANCH  22  24
BRANCH  22  26
HETATM   26  C22 UNL     1      -5.579   0.923  -0.858  1.00  0.00     0.041 C 
BRANCH  26  27
HETATM   27  C23 UNL     1      -6.791   0.487  -0.059  1.00  0.00     0.045 C 
BRANCH  27  28
HETATM   28  C24 UNL     1      -7.920   1.487  -0.177  1.00  0.00     0.096 C 
HETATM   29  C25 UNL     1      -7.590   2.621  -1.110  1.00  0.00     0.051 C 
HETATM   30  C26 UNL     1      -9.226   0.831  -0.533  1.00  0.00     0.051 C 
HETATM   31  F2  UNL     1      -8.085   2.046   1.090  1.00  0.00    -0.244 F 
ENDBRANCH  27  28
ENDBRANCH  26  27
ENDBRANCH  22  26
ENDBRANCH  17  22
BRANCH   1  32
HETATM   32  C3  UNL     1       0.832   5.647  -5.972  1.00  0.00     0.270 C 
HETATM   33  O2  UNL     1       1.765   6.432  -5.661  1.00  0.00    -0.264 OA
BRANCH  32  34
HETATM   34  O1  UNL     1       1.206   4.557  -6.746  1.00  0.00    -0.321 OA
BRANCH  34  35
HETATM   35  C2  UNL     1       1.841   3.419  -6.151  1.00  0.00     0.174 C 
HETATM   36  C1  UNL     1       0.809   2.334  -5.921  1.00  0.00     0.034 C 
ENDBRANCH  34  35
ENDBRANCH  32  34
ENDBRANCH   1  32
TORSDOF 8
ENDMDL
