MODEL 1
REMARK VINA RESULT: -8.454891094      0.000      0.000
REMARK  8 active torsions:
REMARK  status: ('A' for Active; 'I' for Inactive)
REMARK    1  A    between atoms: C6_7  and  C7_8 
REMARK    2  A    between atoms: C7_8  and  O2_10 
REMARK    3  A    between atoms: O2_10  and  C8_11 
REMARK    4  A    between atoms: C11_14  and  O3_15 
REMARK    5  A    between atoms: O3_15  and  C12_16 
REMARK    6  A    between atoms: C12_16  and  N2_25 
REMARK    7  A    between atoms: N1_17  and  C13_19 
REMARK    8  A    between atoms: N2_25  and  C19_27 
ROOT
HETATM    1  C8  UNL     1      -2.999   6.716  -1.761  1.00  0.00     0.132 C 
HETATM    2  C9  UNL     1      -2.260   5.647  -1.032  1.00  0.00     0.035 C 
HETATM    3  C10 UNL     1      -2.027   4.474  -1.854  1.00  0.00     0.035 C 
HETATM    4  C11 UNL     1      -3.011   4.023  -2.878  1.00  0.00     0.132 C 
HETATM    5  C25 UNL     1      -3.918   5.154  -3.334  1.00  0.00     0.035 C 
HETATM    6  C26 UNL     1      -4.308   6.090  -2.201  1.00  0.00     0.035 C 
ENDROOT
BRANCH   4   7
HETATM    7  O3  UNL     1      -3.780   2.954  -2.420  1.00  0.00    -0.317 OA
BRANCH   7   8
HETATM    8  C12 UNL     1      -3.761   2.245  -1.283  1.00  0.00     0.220 C 
HETATM    9  N1  UNL     1      -5.023   2.163  -0.811  1.00  0.00    -0.352 N 
ATOM     10  H1  UNL     1      -5.158   1.648   0.059  1.00  0.00     0.163 HD
BRANCH   9  11
HETATM   11  C13 UNL     1      -6.177   2.721  -1.408  1.00  0.00     0.085 C 
HETATM   12  C14 UNL     1      -6.956   3.407  -0.288  1.00  0.00     0.025 C 
HETATM   13  C15 UNL     1      -7.030   2.367   0.818  1.00  0.00     0.002 C 
HETATM   14  C16 UNL     1      -7.659   1.106   0.314  1.00  0.00     0.000 C 
HETATM   15  C17 UNL     1      -8.074   1.122  -1.117  1.00  0.00     0.002 C 
HETATM   16  C18 UNL     1      -7.059   1.676  -2.075  1.00  0.00     0.025 C 
ENDBRANCH   9  11
BRANCH   8  17
HETATM   17  N2  UNL     1      -2.818   1.580  -0.469  1.00  0.00    -0.322 N 
ATOM     18  H2  UNL     1      -2.182   2.064   0.164  1.00  0.00     0.169 HD
BRANCH  17  19
HETATM   19  C19 UNL     1      -2.847   0.137  -0.627  1.00  0.00     0.035 A 
HETATM   20  C20 UNL     1      -3.801  -0.597   0.075  1.00  0.00     0.029 A 
HETATM   21  C21 UNL     1      -3.888  -1.961  -0.077  1.00  0.00     0.002 A 
HETATM   22  C22 UNL     1      -3.037  -2.605  -0.924  1.00  0.00     0.000 A 
HETATM   23  C23 UNL     1      -2.068  -1.908  -1.647  1.00  0.00     0.002 A 
HETATM   24  C24 UNL     1      -2.012  -0.546  -1.465  1.00  0.00     0.029 A 
ENDBRANCH  17  19
ENDBRANCH   8  17
ENDBRANCH   7   8
ENDBRANCH   4   7
BRANCH   1  25
HETATM   25  O2  UNL     1      -3.130   7.934  -1.072  1.00  0.00    -0.312 OA
BRANCH  25  26
HETATM   26  C7  UNL     1      -4.350   8.524  -0.792  1.00  0.00     0.295 C 
HETATM   27  O1  UNL     1      -4.738   9.449  -1.583  1.00  0.00    -0.259 OA
BRANCH  26  28
HETATM   28  C6  UNL     1      -5.122   8.094   0.350  1.00  0.00     0.061 A 
HETATM   29  C5  UNL     1      -6.330   7.465   0.175  1.00  0.00     0.021 A 
HETATM   30  C4  UNL     1      -7.140   7.024   1.208  1.00  0.00     0.025 A 
HETATM   31  C3  UNL     1      -6.722   7.225   2.491  1.00  0.00     0.041 A 
HETATM   32  C2  UNL     1      -5.496   7.864   2.718  1.00  0.00    -0.018 A 
HETATM   33 CL1  UNL     1      -7.724   6.684   3.821  1.00  0.00    -0.084 Cl
HETATM   34  C1  UNL     1      -5.100   8.047   4.129  1.00  0.00     0.052 C 
HETATM   35  C27 UNL     1      -4.733   8.280   1.660  1.00  0.00     0.058 A 
HETATM   36 CL2  UNL     1      -3.210   9.075   2.024  1.00  0.00    -0.083 Cl
ENDBRANCH  26  28
ENDBRANCH  25  26
ENDBRANCH   1  25
TORSDOF 8
ENDMDL
MODEL 2
REMARK VINA RESULT: -8.367431119      2.370      4.761
REMARK  8 active torsions:
REMARK  status: ('A' for Active; 'I' for Inactive)
REMARK    1  A    between atoms: C6_7  and  C7_8 
REMARK    2  A    between atoms: C7_8  and  O2_10 
REMARK    3  A    between atoms: O2_10  and  C8_11 
REMARK    4  A    between atoms: C11_14  and  O3_15 
REMARK    5  A    between atoms: O3_15  and  C12_16 
REMARK    6  A    between atoms: C12_16  and  N2_25 
REMARK    7  A    between atoms: N1_17  and  C13_19 
REMARK    8  A    between atoms: N2_25  and  C19_27 
ROOT
HETATM    1  C8  UNL     1      -2.111   3.377   1.422  1.00  0.00     0.132 C 
HETATM    2  C9  UNL     1      -3.495   2.865   1.222  1.00  0.00     0.035 C 
HETATM    3  C10 UNL     1      -3.532   1.681   0.383  1.00  0.00     0.035 C 
HETATM    4  C11 UNL     1      -2.581   1.489  -0.748  1.00  0.00     0.132 C 
HETATM    5  C25 UNL     1      -1.312   2.306  -0.571  1.00  0.00     0.035 C 
HETATM    6  C26 UNL     1      -1.573   3.675   0.035  1.00  0.00     0.035 C 
ENDROOT
BRANCH   4   7
HETATM    7  O3  UNL     1      -3.170   1.787  -1.976  1.00  0.00    -0.317 OA
BRANCH   7   8
HETATM    8  C12 UNL     1      -3.921   2.815  -2.396  1.00  0.00     0.220 C 
HETATM    9  N1  UNL     1      -3.276   3.429  -3.410  1.00  0.00    -0.352 N 
ATOM     10  H1  UNL     1      -3.736   4.238  -3.827  1.00  0.00     0.163 HD
BRANCH   9  11
HETATM   11  C13 UNL     1      -2.022   3.058  -3.949  1.00  0.00     0.085 C 
HETATM   12  C14 UNL     1      -1.036   4.151  -3.543  1.00  0.00     0.025 C 
HETATM   13  C15 UNL     1      -1.731   5.450  -3.911  1.00  0.00     0.002 C 
HETATM   14  C16 UNL     1      -2.096   5.460  -5.363  1.00  0.00     0.000 C 
HETATM   15  C17 UNL     1      -1.717   4.240  -6.129  1.00  0.00     0.002 C 
HETATM   16  C18 UNL     1      -2.048   2.935  -5.466  1.00  0.00     0.025 C 
ENDBRANCH   9  11
BRANCH   8  17
HETATM   17  N2  UNL     1      -5.161   3.413  -2.082  1.00  0.00    -0.322 N 
ATOM     18  H2  UNL     1      -5.365   4.400  -2.234  1.00  0.00     0.169 HD
BRANCH  17  19
HETATM   19  C19 UNL     1      -6.118   2.476  -1.519  1.00  0.00     0.035 A 
HETATM   20  C20 UNL     1      -6.755   2.801  -0.323  1.00  0.00     0.029 A 
HETATM   21  C21 UNL     1      -7.696   1.961   0.222  1.00  0.00     0.002 A 
HETATM   22  C22 UNL     1      -8.015   0.797  -0.412  1.00  0.00     0.000 A 
HETATM   23  C23 UNL     1      -7.403   0.434  -1.612  1.00  0.00     0.002 A 
HETATM   24  C24 UNL     1      -6.465   1.301  -2.123  1.00  0.00     0.029 A 
ENDBRANCH  17  19
ENDBRANCH   8  17
ENDBRANCH   7   8
ENDBRANCH   4   7
BRANCH   1  25
HETATM   25  O2  UNL     1      -1.987   4.433   2.342  1.00  0.00    -0.312 OA
BRANCH  25  26
HETATM   26  C7  UNL     1      -2.313   5.745   2.046  1.00  0.00     0.295 C 
HETATM   27  O1  UNL     1      -1.400   6.460   1.510  1.00  0.00    -0.259 OA
BRANCH  26  28
HETATM   28  C6  UNL     1      -3.632   6.252   2.343  1.00  0.00     0.061 A 
HETATM   29  C5  UNL     1      -3.970   6.602   3.627  1.00  0.00     0.021 A 
HETATM   30  C4  UNL     1      -5.209   7.090   4.006  1.00  0.00     0.025 A 
HETATM   31  C3  UNL     1      -6.169   7.236   3.047  1.00  0.00     0.041 A 
HETATM   32  C2  UNL     1      -5.871   6.891   1.723  1.00  0.00    -0.018 A 
HETATM   33 CL1  UNL     1      -7.749   7.846   3.493  1.00  0.00    -0.084 Cl
HETATM   34  C1  UNL     1      -6.952   7.077   0.734  1.00  0.00     0.052 C 
HETATM   35  C27 UNL     1      -4.628   6.413   1.402  1.00  0.00     0.058 A 
HETATM   36 CL2  UNL     1      -4.329   6.000  -0.279  1.00  0.00    -0.083 Cl
ENDBRANCH  26  28
ENDBRANCH  25  26
ENDBRANCH   1  25
TORSDOF 8
ENDMDL
MODEL 3
REMARK VINA RESULT: -8.298502898      3.738      6.413
REMARK  8 active torsions:
REMARK  status: ('A' for Active; 'I' for Inactive)
REMARK    1  A    between atoms: C6_7  and  C7_8 
REMARK    2  A    between atoms: C7_8  and  O2_10 
REMARK    3  A    between atoms: O2_10  and  C8_11 
REMARK    4  A    between atoms: C11_14  and  O3_15 
REMARK    5  A    between atoms: O3_15  and  C12_16 
REMARK    6  A    between atoms: C12_16  and  N2_25 
REMARK    7  A    between atoms: N1_17  and  C13_19 
REMARK    8  A    between atoms: N2_25  and  C19_27 
ROOT
HETATM    1  C8  UNL     1      -2.837   4.316  -3.652  1.00  0.00     0.132 C 
HETATM    2  C9  UNL     1      -4.007   5.029  -3.068  1.00  0.00     0.035 C 
HETATM    3  C10 UNL     1      -3.859   5.265  -1.644  1.00  0.00     0.035 C 
HETATM    4  C11 UNL     1      -3.160   4.295  -0.754  1.00  0.00     0.132 C 
HETATM    5  C25 UNL     1      -2.194   3.409  -1.524  1.00  0.00     0.035 C 
HETATM    6  C26 UNL     1      -2.726   3.008  -2.891  1.00  0.00     0.035 C 
ENDROOT
BRANCH   4   7
HETATM    7  O3  UNL     1      -4.060   3.507  -0.040  1.00  0.00    -0.317 OA
BRANCH   7   8
HETATM    8  C12 UNL     1      -4.106   2.194   0.223  1.00  0.00     0.220 C 
HETATM    9  N1  UNL     1      -5.267   1.701  -0.260  1.00  0.00    -0.352 N 
ATOM     10  H1  UNL     1      -5.437   0.705  -0.126  1.00  0.00     0.163 HD
BRANCH   9  11
HETATM   11  C13 UNL     1      -6.269   2.436  -0.935  1.00  0.00     0.085 C 
HETATM   12  C14 UNL     1      -7.198   2.992   0.142  1.00  0.00     0.025 C 
HETATM   13  C15 UNL     1      -7.515   1.799   1.027  1.00  0.00     0.002 C 
HETATM   14  C16 UNL     1      -8.107   0.686   0.219  1.00  0.00     0.000 C 
HETATM   15  C17 UNL     1      -8.263   0.962  -1.237  1.00  0.00     0.002 C 
HETATM   16  C18 UNL     1      -7.071   1.581  -1.906  1.00  0.00     0.025 C 
ENDBRANCH   9  11
BRANCH   8  17
HETATM   17  N2  UNL     1      -3.302   1.213   0.845  1.00  0.00    -0.322 N 
ATOM     18  H2  UNL     1      -2.882   1.332   1.767  1.00  0.00     0.169 HD
BRANCH  17  19
HETATM   19  C19 UNL     1      -3.135   0.018   0.037  1.00  0.00     0.035 A 
HETATM   20  C20 UNL     1      -2.170   0.014  -0.967  1.00  0.00     0.029 A 
HETATM   21  C21 UNL     1      -1.953  -1.110  -1.728  1.00  0.00     0.002 A 
HETATM   22  C22 UNL     1      -2.686  -2.237  -1.499  1.00  0.00     0.000 A 
HETATM   23  C23 UNL     1      -3.662  -2.276  -0.502  1.00  0.00     0.002 A 
HETATM   24  C24 UNL     1      -3.849  -1.130   0.236  1.00  0.00     0.029 A 
ENDBRANCH  17  19
ENDBRANCH   8  17
ENDBRANCH   7   8
ENDBRANCH   4   7
BRANCH   1  25
HETATM   25  O2  UNL     1      -2.848   4.185  -5.051  1.00  0.00    -0.312 OA
BRANCH  25  26
HETATM   26  C7  UNL     1      -1.701   4.163  -5.824  1.00  0.00     0.295 C 
HETATM   27  O1  UNL     1      -1.557   5.110  -6.670  1.00  0.00    -0.259 OA
BRANCH  26  28
HETATM   28  C6  UNL     1      -0.732   3.104  -5.661  1.00  0.00     0.061 A 
HETATM   29  C5  UNL     1      -0.941   1.876  -6.240  1.00  0.00     0.021 A 
HETATM   30  C4  UNL     1      -0.073   0.803  -6.132  1.00  0.00     0.025 A 
HETATM   31  C3  UNL     1       1.069   0.963  -5.404  1.00  0.00     0.041 A 
HETATM   32  C2  UNL     1       1.324   2.198  -4.795  1.00  0.00    -0.018 A 
HETATM   33 CL1  UNL     1       2.186  -0.376  -5.245  1.00  0.00    -0.084 Cl
HETATM   34  C1  UNL     1       2.580   2.306  -4.025  1.00  0.00     0.052 C 
HETATM   35  C27 UNL     1       0.433   3.228  -4.933  1.00  0.00     0.058 A 
HETATM   36 CL2  UNL     1       0.820   4.746  -4.139  1.00  0.00    -0.083 Cl
ENDBRANCH  26  28
ENDBRANCH  25  26
ENDBRANCH   1  25
TORSDOF 8
ENDMDL
MODEL 4
REMARK VINA RESULT: -8.118218339      2.849      6.435
REMARK  8 active torsions:
REMARK  status: ('A' for Active; 'I' for Inactive)
REMARK    1  A    between atoms: C6_7  and  C7_8 
REMARK    2  A    between atoms: C7_8  and  O2_10 
REMARK    3  A    between atoms: O2_10  and  C8_11 
REMARK    4  A    between atoms: C11_14  and  O3_15 
REMARK    5  A    between atoms: O3_15  and  C12_16 
REMARK    6  A    between atoms: C12_16  and  N2_25 
REMARK    7  A    between atoms: N1_17  and  C13_19 
REMARK    8  A    between atoms: N2_25  and  C19_27 
ROOT
HETATM    1  C8  UNL     1      -1.567   3.999  -2.354  1.00  0.00     0.132 C 
HETATM    2  C9  UNL     1      -2.816   3.414  -2.917  1.00  0.00     0.035 C 
HETATM    3  C10 UNL     1      -3.844   4.413  -3.144  1.00  0.00     0.035 C 
HETATM    4  C11 UNL     1      -4.007   5.591  -2.245  1.00  0.00     0.132 C 
HETATM    5  C25 UNL     1      -2.729   5.914  -1.490  1.00  0.00     0.035 C 
HETATM    6  C26 UNL     1      -1.972   4.669  -1.054  1.00  0.00     0.035 C 
ENDROOT
BRANCH   4   7
HETATM    7  O3  UNL     1      -5.058   5.414  -1.346  1.00  0.00    -0.317 OA
BRANCH   7   8
HETATM    8  C12 UNL     1      -5.186   4.677  -0.235  1.00  0.00     0.220 C 
HETATM    9  N1  UNL     1      -5.702   5.457   0.738  1.00  0.00    -0.352 N 
ATOM     10  H1  UNL     1      -5.851   5.021   1.648  1.00  0.00     0.163 HD
BRANCH   9  11
HETATM   11  C13 UNL     1      -6.056   6.821   0.616  1.00  0.00     0.085 C 
HETATM   12  C14 UNL     1      -4.952   7.617   1.308  1.00  0.00     0.025 C 
HETATM   13  C15 UNL     1      -4.775   6.937   2.654  1.00  0.00     0.002 C 
HETATM   14  C16 UNL     1      -6.072   6.904   3.403  1.00  0.00     0.000 C 
HETATM   15  C17 UNL     1      -7.232   7.524   2.704  1.00  0.00     0.002 C 
HETATM   16  C18 UNL     1      -7.396   7.140   1.262  1.00  0.00     0.025 C 
ENDBRANCH   9  11
BRANCH   8  17
HETATM   17  N2  UNL     1      -4.939   3.351   0.186  1.00  0.00    -0.322 N 
ATOM     18  H2  UNL     1      -4.133   3.081   0.749  1.00  0.00     0.169 HD
BRANCH  17  19
HETATM   19  C19 UNL     1      -5.953   2.413  -0.264  1.00  0.00     0.035 A 
HETATM   20  C20 UNL     1      -6.943   2.013   0.630  1.00  0.00     0.029 A 
HETATM   21  C21 UNL     1      -7.943   1.158   0.232  1.00  0.00     0.002 A 
HETATM   22  C22 UNL     1      -7.972   0.697  -1.051  1.00  0.00     0.000 A 
HETATM   23  C23 UNL     1      -7.001   1.075  -1.979  1.00  0.00     0.002 A 
HETATM   24  C24 UNL     1      -6.016   1.930  -1.540  1.00  0.00     0.029 A 
ENDBRANCH  17  19
ENDBRANCH   8  17
ENDBRANCH   7   8
ENDBRANCH   4   7
BRANCH   1  25
HETATM   25  O2  UNL     1      -0.482   3.113  -2.247  1.00  0.00    -0.312 OA
BRANCH  25  26
HETATM   26  C7  UNL     1      -0.348   2.191  -1.222  1.00  0.00     0.295 C 
HETATM   27  O1  UNL     1       0.521   2.452  -0.323  1.00  0.00    -0.259 OA
BRANCH  26  28
HETATM   28  C6  UNL     1      -1.164   1.001  -1.202  1.00  0.00     0.061 A 
HETATM   29  C5  UNL     1      -0.920  -0.025  -2.082  1.00  0.00     0.021 A 
HETATM   30  C4  UNL     1      -1.652  -1.198  -2.140  1.00  0.00     0.025 A 
HETATM   31  C3  UNL     1      -2.691  -1.358  -1.270  1.00  0.00     0.041 A 
HETATM   32  C2  UNL     1      -2.978  -0.338  -0.354  1.00  0.00    -0.018 A 
HETATM   33 CL1  UNL     1      -3.641  -2.828  -1.318  1.00  0.00    -0.084 Cl
HETATM   34  C1  UNL     1      -4.112  -0.575   0.562  1.00  0.00     0.052 C 
HETATM   35  C27 UNL     1      -2.222   0.803  -0.338  1.00  0.00     0.058 A 
HETATM   36 CL2  UNL     1      -2.644   2.039   0.836  1.00  0.00    -0.083 Cl
ENDBRANCH  26  28
ENDBRANCH  25  26
ENDBRANCH   1  25
TORSDOF 8
ENDMDL
MODEL 5
REMARK VINA RESULT: -8.009764853      2.201      3.467
REMARK  8 active torsions:
REMARK  status: ('A' for Active; 'I' for Inactive)
REMARK    1  A    between atoms: C6_7  and  C7_8 
REMARK    2  A    between atoms: C7_8  and  O2_10 
REMARK    3  A    between atoms: O2_10  and  C8_11 
REMARK    4  A    between atoms: C11_14  and  O3_15 
REMARK    5  A    between atoms: O3_15  and  C12_16 
REMARK    6  A    between atoms: C12_16  and  N2_25 
REMARK    7  A    between atoms: N1_17  and  C13_19 
REMARK    8  A    between atoms: N2_25  and  C19_27 
ROOT
HETATM    1  C8  UNL     1      -1.268   5.220   1.582  1.00  0.00     0.132 C 
HETATM    2  C9  UNL     1      -1.723   4.334   2.690  1.00  0.00     0.035 C 
HETATM    3  C10 UNL     1      -1.454   2.933   2.425  1.00  0.00     0.035 C 
HETATM    4  C11 UNL     1      -1.521   2.366   1.048  1.00  0.00     0.132 C 
HETATM    5  C25 UNL     1      -1.335   3.432  -0.017  1.00  0.00     0.035 C 
HETATM    6  C26 UNL     1      -2.005   4.748   0.343  1.00  0.00     0.035 C 
ENDROOT
BRANCH   4   7
HETATM    7  O3  UNL     1      -2.715   1.679   0.830  1.00  0.00    -0.317 OA
BRANCH   7   8
HETATM    8  C12 UNL     1      -3.243   1.103  -0.259  1.00  0.00     0.220 C 
HETATM    9  N1  UNL     1      -4.582   1.277  -0.226  1.00  0.00    -0.352 N 
ATOM     10  H1  UNL     1      -5.117   0.883  -1.000  1.00  0.00     0.163 HD
BRANCH   9  11
HETATM   11  C13 UNL     1      -5.313   1.954   0.778  1.00  0.00     0.085 C 
HETATM   12  C14 UNL     1      -6.677   1.273   0.854  1.00  0.00     0.025 C 
HETATM   13  C15 UNL     1      -7.148   1.198  -0.589  1.00  0.00     0.002 C 
HETATM   14  C16 UNL     1      -7.174   2.561  -1.206  1.00  0.00     0.000 C 
HETATM   15  C17 UNL     1      -6.752   3.678  -0.315  1.00  0.00     0.002 C 
HETATM   16  C18 UNL     1      -5.498   3.433   0.474  1.00  0.00     0.025 C 
ENDBRANCH   9  11
BRANCH   8  17
HETATM   17  N2  UNL     1      -2.802   0.389  -1.394  1.00  0.00    -0.322 N 
ATOM     18  H2  UNL     1      -2.801  -0.629  -1.453  1.00  0.00     0.169 HD
BRANCH  17  19
HETATM   19  C19 UNL     1      -2.351   1.254  -2.470  1.00  0.00     0.035 A 
HETATM   20  C20 UNL     1      -3.148   2.335  -2.843  1.00  0.00     0.029 A 
HETATM   21  C21 UNL     1      -2.739   3.200  -3.830  1.00  0.00     0.002 A 
HETATM   22  C22 UNL     1      -1.540   3.005  -4.450  1.00  0.00     0.000 A 
HETATM   23  C23 UNL     1      -0.712   1.936  -4.106  1.00  0.00     0.002 A 
HETATM   24  C24 UNL     1      -1.159   1.092  -3.116  1.00  0.00     0.029 A 
ENDBRANCH  17  19
ENDBRANCH   8  17
ENDBRANCH   7   8
ENDBRANCH   4   7
BRANCH   1  25
HETATM   25  O2  UNL     1      -1.365   6.599   1.836  1.00  0.00    -0.312 OA
BRANCH  25  26
HETATM   26  C7  UNL     1      -2.372   7.400   1.327  1.00  0.00     0.295 C 
HETATM   27  O1  UNL     1      -2.052   8.200   0.384  1.00  0.00    -0.259 OA
BRANCH  26  28
HETATM   28  C6  UNL     1      -3.712   7.313   1.860  1.00  0.00     0.061 A 
HETATM   29  C5  UNL     1      -3.922   7.330   3.217  1.00  0.00     0.021 A 
HETATM   30  C4  UNL     1      -5.167   7.245   3.817  1.00  0.00     0.025 A 
HETATM   31  C3  UNL     1      -6.266   7.135   3.017  1.00  0.00     0.041 A 
HETATM   32  C2  UNL     1      -6.100   7.113   1.627  1.00  0.00    -0.018 A 
HETATM   33 CL1  UNL     1      -7.856   7.022   3.744  1.00  0.00    -0.084 Cl
HETATM   34  C1  UNL     1      -7.331   6.997   0.818  1.00  0.00     0.052 C 
HETATM   35  C27 UNL     1      -4.846   7.201   1.084  1.00  0.00     0.058 A 
HETATM   36 CL2  UNL     1      -4.717   7.164  -0.667  1.00  0.00    -0.083 Cl
ENDBRANCH  26  28
ENDBRANCH  25  26
ENDBRANCH   1  25
TORSDOF 8
ENDMDL
