MODEL 1
REMARK VINA RESULT: -5.832713376      0.000      0.000
REMARK  3 active torsions:
REMARK  status: ('A' for Active; 'I' for Inactive)
REMARK    1  A    between atoms: C2_2  and  C3_3 
REMARK    2  A    between atoms: N2_6  and  N3_8 
REMARK       I    between atoms: N3_8  and  C5_10 
REMARK       I    between atoms: C5_10  and  N4_12 
REMARK    3  A    between atoms: N4_12  and  C6_14 
ROOT
HETATM    1  C3  UNL     1      -1.471  -1.879  11.393  1.00  0.00     0.105 C 
HETATM    2  C4  UNL     1      -0.627  -3.064  11.433  1.00  0.00     0.114 C 
HETATM    3  N1  UNL     1       0.029  -4.013  11.469  1.00  0.00    -0.190 NA
HETATM    4  N2  UNL     1      -2.052  -1.519  10.309  1.00  0.00    -0.290 N 
ATOM      5  H2  UNL     1      -1.930  -2.059   9.452  1.00  0.00     0.187 HD
ENDROOT
BRANCH   1   6
HETATM    6  C2  UNL     1      -1.671  -1.071  12.619  1.00  0.00     0.066 C 
HETATM    7  C1  UNL     1      -0.475  -1.278  13.529  1.00  0.00     0.012 C 
ENDBRANCH   1   6
BRANCH   4   8
HETATM    8  N3  UNL     1      -2.851  -0.378  10.318  1.00  0.00    -0.251 N 
HETATM    9  C5  UNL     1      -2.801   0.493   9.203  1.00  0.00     0.335 C 
HETATM   10  O1  UNL     1      -2.044   0.205   8.254  1.00  0.00    -0.246 OA
HETATM   11  N4  UNL     1      -3.634   1.672   9.223  1.00  0.00    -0.333 N 
ATOM     12  H4  UNL     1      -4.223   1.832  10.039  1.00  0.00     0.165 HD
ATOM     13  H3  UNL     1      -3.458  -0.174  11.112  1.00  0.00     0.191 HD
BRANCH  11  14
HETATM   14  C6  UNL     1      -3.676   2.632   8.156  1.00  0.00     0.035 C 
HETATM   15  C7  UNL     1      -4.664   2.150   7.117  1.00  0.00     0.035 C 
HETATM   16  C8  UNL     1      -4.804   3.121   5.994  1.00  0.00    -0.012 C 
HETATM   17  C9  UNL     1      -5.286   4.442   6.499  1.00  0.00     0.009 C 
HETATM   18  C13 UNL     1      -3.445   3.238   5.330  1.00  0.00     0.009 C 
HETATM   19  C10 UNL     1      -4.293   4.940   7.529  1.00  0.00    -0.012 C 
HETATM   20  C11 UNL     1      -2.964   5.156   6.858  1.00  0.00     0.009 C 
HETATM   21  C15 UNL     1      -4.222   3.972   8.667  1.00  0.00     0.035 C 
HETATM   22  C12 UNL     1      -2.501   3.804   6.340  1.00  0.00    -0.012 C 
HETATM   23  C14 UNL     1      -2.321   2.914   7.547  1.00  0.00     0.035 C 
ENDBRANCH  11  14
ENDBRANCH   4   8
TORSDOF 3
ENDMDL
MODEL 2
REMARK VINA RESULT: -5.817845813      1.461      2.346
REMARK  3 active torsions:
REMARK  status: ('A' for Active; 'I' for Inactive)
REMARK    1  A    between atoms: C2_2  and  C3_3 
REMARK    2  A    between atoms: N2_6  and  N3_8 
REMARK       I    between atoms: N3_8  and  C5_10 
REMARK       I    between atoms: C5_10  and  N4_12 
REMARK    3  A    between atoms: N4_12  and  C6_14 
ROOT
HETATM    1  C3  UNL     1      -1.843  -2.475  11.240  1.00  0.00     0.105 C 
HETATM    2  C4  UNL     1      -2.269  -3.459  12.224  1.00  0.00     0.114 C 
HETATM    3  N1  UNL     1      -2.613  -4.227  13.014  1.00  0.00    -0.190 NA
HETATM    4  N2  UNL     1      -2.633  -2.087  10.308  1.00  0.00    -0.290 N 
ATOM      5  H2  UNL     1      -3.579  -2.465  10.242  1.00  0.00     0.187 HD
ENDROOT
BRANCH   1   6
HETATM    6  C2  UNL     1      -0.477  -1.904  11.307  1.00  0.00     0.066 C 
HETATM    7  C1  UNL     1       0.521  -3.044  11.234  1.00  0.00     0.012 C 
ENDBRANCH   1   6
BRANCH   4   8
HETATM    8  N3  UNL     1      -2.182  -1.144   9.389  1.00  0.00    -0.251 N 
HETATM    9  C5  UNL     1      -2.914   0.058   9.235  1.00  0.00     0.335 C 
HETATM   10  O1  UNL     1      -3.937   0.226   9.930  1.00  0.00    -0.246 OA
HETATM   11  N4  UNL     1      -2.437   1.029   8.280  1.00  0.00    -0.333 N 
ATOM     12  H4  UNL     1      -1.592   0.811   7.753  1.00  0.00     0.165 HD
ATOM     13  H3  UNL     1      -1.341  -1.315   8.837  1.00  0.00     0.191 HD
BRANCH  11  14
HETATM   14  C6  UNL     1      -3.088   2.285   8.032  1.00  0.00     0.035 C 
HETATM   15  C7  UNL     1      -3.086   3.086   9.314  1.00  0.00     0.035 C 
HETATM   16  C8  UNL     1      -3.703   4.431   9.127  1.00  0.00    -0.012 C 
HETATM   17  C9  UNL     1      -2.950   5.215   8.102  1.00  0.00     0.009 C 
HETATM   18  C13 UNL     1      -5.145   4.210   8.714  1.00  0.00     0.009 C 
HETATM   19  C10 UNL     1      -2.960   4.427   6.809  1.00  0.00    -0.012 C 
HETATM   20  C11 UNL     1      -4.382   4.287   6.336  1.00  0.00     0.009 C 
HETATM   21  C15 UNL     1      -2.284   3.109   7.019  1.00  0.00     0.035 C 
HETATM   22  C12 UNL     1      -5.131   3.500   7.400  1.00  0.00    -0.012 C 
HETATM   23  C14 UNL     1      -4.484   2.137   7.469  1.00  0.00     0.035 C 
ENDBRANCH  11  14
ENDBRANCH   4   8
TORSDOF 3
ENDMDL
MODEL 3
REMARK VINA RESULT: -5.708555259      1.399      2.131
REMARK  3 active torsions:
REMARK  status: ('A' for Active; 'I' for Inactive)
REMARK    1  A    between atoms: C2_2  and  C3_3 
REMARK    2  A    between atoms: N2_6  and  N3_8 
REMARK       I    between atoms: N3_8  and  C5_10 
REMARK       I    between atoms: C5_10  and  N4_12 
REMARK    3  A    between atoms: N4_12  and  C6_14 
ROOT
HETATM    1  C3  UNL     1      -1.825  -2.413  11.254  1.00  0.00     0.105 C 
HETATM    2  C4  UNL     1      -2.309  -3.419  12.188  1.00  0.00     0.114 C 
HETATM    3  N1  UNL     1      -2.700  -4.204  12.939  1.00  0.00    -0.190 NA
HETATM    4  N2  UNL     1      -2.548  -2.025  10.270  1.00  0.00    -0.290 N 
ATOM      5  H2  UNL     1      -3.479  -2.416  10.125  1.00  0.00     0.187 HD
ENDROOT
BRANCH   1   6
HETATM    6  C2  UNL     1      -0.479  -1.822  11.435  1.00  0.00     0.066 C 
HETATM    7  C1  UNL     1       0.553  -2.919  11.254  1.00  0.00     0.012 C 
ENDBRANCH   1   6
BRANCH   4   8
HETATM    8  N3  UNL     1      -2.043  -1.060   9.401  1.00  0.00    -0.251 N 
HETATM    9  C5  UNL     1      -2.814   0.101   9.155  1.00  0.00     0.335 C 
HETATM   10  O1  UNL     1      -3.918   0.217   9.728  1.00  0.00    -0.246 OA
HETATM   11  N4  UNL     1      -2.282   1.095   8.254  1.00  0.00    -0.333 N 
ATOM     12  H4  UNL     1      -1.372   0.920   7.828  1.00  0.00     0.165 HD
ATOM     13  H3  UNL     1      -1.137  -1.188   8.950  1.00  0.00     0.191 HD
BRANCH  11  14
HETATM   14  C6  UNL     1      -2.964   2.314   7.923  1.00  0.00     0.035 C 
HETATM   15  C7  UNL     1      -2.130   3.070   6.914  1.00  0.00     0.035 C 
HETATM   16  C8  UNL     1      -2.795   4.331   6.479  1.00  0.00    -0.012 C 
HETATM   17  C9  UNL     1      -4.117   4.036   5.846  1.00  0.00     0.009 C 
HETATM   18  C13 UNL     1      -2.947   5.206   7.709  1.00  0.00     0.009 C 
HETATM   19  C10 UNL     1      -4.965   3.294   6.857  1.00  0.00    -0.012 C 
HETATM   20  C11 UNL     1      -5.206   4.190   8.042  1.00  0.00     0.009 C 
HETATM   21  C15 UNL     1      -4.295   2.008   7.226  1.00  0.00     0.035 C 
HETATM   22  C12 UNL     1      -3.849   4.488   8.659  1.00  0.00    -0.012 C 
HETATM   23  C14 UNL     1      -3.285   3.168   9.129  1.00  0.00     0.035 C 
ENDBRANCH  11  14
ENDBRANCH   4   8
TORSDOF 3
ENDMDL
MODEL 4
REMARK VINA RESULT: -5.702004282      0.136      1.628
REMARK  3 active torsions:
REMARK  status: ('A' for Active; 'I' for Inactive)
REMARK    1  A    between atoms: C2_2  and  C3_3 
REMARK    2  A    between atoms: N2_6  and  N3_8 
REMARK       I    between atoms: N3_8  and  C5_10 
REMARK       I    between atoms: C5_10  and  N4_12 
REMARK    3  A    between atoms: N4_12  and  C6_14 
ROOT
HETATM    1  C3  UNL     1      -1.422  -1.868  11.458  1.00  0.00     0.105 C 
HETATM    2  C4  UNL     1      -0.525  -3.014  11.515  1.00  0.00     0.114 C 
HETATM    3  N1  UNL     1       0.172  -3.932  11.562  1.00  0.00    -0.190 NA
HETATM    4  N2  UNL     1      -1.963  -1.508  10.354  1.00  0.00    -0.290 N 
ATOM      5  H2  UNL     1      -1.774  -2.020   9.493  1.00  0.00     0.187 HD
ENDROOT
BRANCH   1   6
HETATM    6  C2  UNL     1      -1.721  -1.102  12.690  1.00  0.00     0.066 C 
HETATM    7  C1  UNL     1      -0.516  -1.181  13.608  1.00  0.00     0.012 C 
ENDBRANCH   1   6
BRANCH   4   8
HETATM    8  N3  UNL     1      -2.815  -0.405  10.348  1.00  0.00    -0.251 N 
HETATM    9  C5  UNL     1      -2.820   0.441   9.213  1.00  0.00     0.335 C 
HETATM   10  O1  UNL     1      -2.061   0.167   8.261  1.00  0.00    -0.246 OA
HETATM   11  N4  UNL     1      -3.706   1.580   9.217  1.00  0.00    -0.333 N 
ATOM     12  H4  UNL     1      -4.293   1.731  10.037  1.00  0.00     0.165 HD
ATOM     13  H3  UNL     1      -3.422  -0.211  11.145  1.00  0.00     0.191 HD
BRANCH  11  14
HETATM   14  C6  UNL     1      -3.807   2.513   8.130  1.00  0.00     0.035 C 
HETATM   15  C7  UNL     1      -4.335   3.822   8.670  1.00  0.00     0.035 C 
HETATM   16  C8  UNL     1      -4.422   4.864   7.607  1.00  0.00    -0.012 C 
HETATM   17  C9  UNL     1      -3.074   5.127   7.018  1.00  0.00     0.009 C 
HETATM   18  C13 UNL     1      -5.399   4.360   6.562  1.00  0.00     0.009 C 
HETATM   19  C10 UNL     1      -2.544   3.823   6.460  1.00  0.00    -0.012 C 
HETATM   20  C11 UNL     1      -3.453   3.363   5.353  1.00  0.00     0.009 C 
HETATM   21  C15 UNL     1      -2.415   2.821   7.563  1.00  0.00     0.035 C 
HETATM   22  C12 UNL     1      -4.820   3.116   5.971  1.00  0.00    -0.012 C 
HETATM   23  C14 UNL     1      -4.647   2.005   6.979  1.00  0.00     0.035 C 
ENDBRANCH  11  14
ENDBRANCH   4   8
TORSDOF 3
ENDMDL
MODEL 5
REMARK VINA RESULT: -5.574906316      1.400      1.589
REMARK  3 active torsions:
REMARK  status: ('A' for Active; 'I' for Inactive)
REMARK    1  A    between atoms: C2_2  and  C3_3 
REMARK    2  A    between atoms: N2_6  and  N3_8 
REMARK       I    between atoms: N3_8  and  C5_10 
REMARK       I    between atoms: C5_10  and  N4_12 
REMARK    3  A    between atoms: N4_12  and  C6_14 
ROOT
HETATM    1  C3  UNL     1      -2.026  -2.563  11.325  1.00  0.00     0.105 C 
HETATM    2  C4  UNL     1      -2.499  -3.493  12.341  1.00  0.00     0.114 C 
HETATM    3  N1  UNL     1      -2.878  -4.216  13.157  1.00  0.00    -0.190 NA
HETATM    4  N2  UNL     1      -2.813  -2.128  10.411  1.00  0.00    -0.290 N 
ATOM      5  H2  UNL     1      -3.788  -2.428  10.382  1.00  0.00     0.187 HD
ENDROOT
BRANCH   1   6
HETATM    6  C2  UNL     1      -0.617  -2.106  11.338  1.00  0.00     0.066 C 
HETATM    7  C1  UNL     1      -0.269  -1.670  12.749  1.00  0.00     0.012 C 
ENDBRANCH   1   6
BRANCH   4   8
HETATM    8  N3  UNL     1      -2.317  -1.241   9.459  1.00  0.00    -0.251 N 
HETATM    9  C5  UNL     1      -2.962   0.009   9.295  1.00  0.00     0.335 C 
HETATM   10  O1  UNL     1      -3.952   0.267  10.011  1.00  0.00    -0.246 OA
HETATM   11  N4  UNL     1      -2.439   0.921   8.307  1.00  0.00    -0.333 N 
ATOM     12  H4  UNL     1      -1.626   0.629   7.765  1.00  0.00     0.165 HD
ATOM     13  H3  UNL     1      -1.505  -1.486   8.892  1.00  0.00     0.191 HD
BRANCH  11  14
HETATM   14  C6  UNL     1      -3.001   2.216   8.045  1.00  0.00     0.035 C 
HETATM   15  C7  UNL     1      -4.401   2.029   7.504  1.00  0.00     0.035 C 
HETATM   16  C8  UNL     1      -5.075   3.335   7.252  1.00  0.00    -0.012 C 
HETATM   17  C9  UNL     1      -5.179   4.125   8.516  1.00  0.00     0.009 C 
HETATM   18  C13 UNL     1      -4.260   4.066   6.202  1.00  0.00     0.009 C 
HETATM   19  C10 UNL     1      -3.780   4.330   9.057  1.00  0.00    -0.012 C 
HETATM   20  C11 UNL     1      -2.990   5.142   8.066  1.00  0.00     0.009 C 
HETATM   21  C15 UNL     1      -3.156   3.003   9.352  1.00  0.00     0.035 C 
HETATM   22  C12 UNL     1      -2.910   4.326   6.785  1.00  0.00    -0.012 C 
HETATM   23  C14 UNL     1      -2.155   3.062   7.120  1.00  0.00     0.035 C 
ENDBRANCH  11  14
ENDBRANCH   4   8
TORSDOF 3
ENDMDL
