MODEL 1
REMARK VINA RESULT: -6.821978406      0.000      0.000
REMARK  3 active torsions:
REMARK  status: ('A' for Active; 'I' for Inactive)
REMARK    1  A    between atoms: O1_1  and  C1_3 
REMARK    2  A    between atoms: C1_3  and  C2_4 
REMARK    3  A    between atoms: N1_8  and  C6_9 
ROOT
HETATM    1  C1  UNL     1      -3.319   4.779   8.649  1.00  0.00     0.065 C 
HETATM    2  C11 UNL     1      -4.326   3.690   8.806  1.00  0.00     0.040 C 
HETATM    3  C12 UNL     1      -5.304   3.613   7.626  1.00  0.00     0.036 C 
HETATM    4  C13 UNL     1      -4.624   2.977   6.427  1.00  0.00     0.186 C 
HETATM    5  C14 UNL     1      -4.780   3.890   5.232  1.00  0.00     0.035 C 
HETATM    6  C15 UNL     1      -3.357   4.287   4.916  1.00  0.00     0.035 C 
HETATM    7  C16 UNL     1      -2.707   4.152   6.291  1.00  0.00     0.189 C 
HETATM    8  C17 UNL     1      -3.183   5.248   7.207  1.00  0.00     0.071 C 
HETATM    9  N2  UNL     1      -3.214   2.849   6.695  1.00  0.00    -0.067 N 
ATOM     10  H21 UNL     1      -2.761   2.052   6.249  1.00  0.00     0.278 HD
ATOM     11  H22 UNL     1      -2.980   2.571   7.649  1.00  0.00     0.278 HD
ENDROOT
BRANCH   1  12
HETATM   12  O1  UNL     1      -2.041   4.264   8.977  1.00  0.00    -0.389 OA
ATOM     13  H1  UNL     1      -2.184   3.624   9.664  1.00  0.00     0.210 HD
ENDBRANCH   1  12
BRANCH   1  14
HETATM   14  C2  UNL     1      -3.523   5.964   9.526  1.00  0.00     0.038 C 
HETATM   15  C3  UNL     1      -2.444   6.990   9.225  1.00  0.00     0.014 C 
HETATM   16  C4  UNL     1      -2.897   8.265   9.917  1.00  0.00     0.045 C 
HETATM   17  C5  UNL     1      -2.986   7.963  11.390  1.00  0.00     0.058 C 
HETATM   18  N1  UNL     1      -3.745   6.837  11.752  1.00  0.00    -0.388 N 
HETATM   19  C10 UNL     1      -3.597   5.648  10.996  1.00  0.00     0.130 C 
BRANCH  18  20
HETATM   20  C6  UNL     1      -4.963   7.012  12.406  1.00  0.00     0.083 C 
HETATM   21  C7  UNL     1      -5.732   5.739  12.785  1.00  0.00     0.025 C 
HETATM   22  C8  UNL     1      -6.332   6.587  13.918  1.00  0.00     0.004 C 
HETATM   23  C9  UNL     1      -5.004   7.362  13.860  1.00  0.00     0.025 C 
ENDBRANCH  18  20
ENDBRANCH   1  14
TORSDOF 3
ENDMDL
MODEL 2
REMARK VINA RESULT: -6.296749025      1.012      1.445
REMARK  3 active torsions:
REMARK  status: ('A' for Active; 'I' for Inactive)
REMARK    1  A    between atoms: O1_1  and  C1_3 
REMARK    2  A    between atoms: C1_3  and  C2_4 
REMARK    3  A    between atoms: N1_8  and  C6_9 
ROOT
HETATM    1  C1  UNL     1      -3.311   4.304   9.032  1.00  0.00     0.065 C 
HETATM    2  C11 UNL     1      -3.341   3.061   9.857  1.00  0.00     0.040 C 
HETATM    3  C12 UNL     1      -4.608   2.226   9.623  1.00  0.00     0.036 C 
HETATM    4  C13 UNL     1      -4.508   1.490   8.299  1.00  0.00     0.186 C 
HETATM    5  C14 UNL     1      -5.736   1.795   7.473  1.00  0.00     0.035 C 
HETATM    6  C15 UNL     1      -5.172   2.532   6.280  1.00  0.00     0.035 C 
HETATM    7  C16 UNL     1      -3.908   3.137   6.885  1.00  0.00     0.189 C 
HETATM    8  C17 UNL     1      -4.261   4.242   7.844  1.00  0.00     0.071 C 
HETATM    9  N2  UNL     1      -3.362   1.975   7.572  1.00  0.00    -0.067 N 
ATOM     10  H21 UNL     1      -2.912   1.288   6.968  1.00  0.00     0.278 HD
ATOM     11  H22 UNL     1      -2.536   2.159   8.141  1.00  0.00     0.278 HD
ENDROOT
BRANCH   1  12
HETATM   12  O1  UNL     1      -2.025   4.429   8.451  1.00  0.00    -0.389 OA
ATOM     13  H1  UNL     1      -2.002   3.812   7.730  1.00  0.00     0.210 HD
ENDBRANCH   1  12
BRANCH   1  14
HETATM   14  C2  UNL     1      -3.551   5.568   9.779  1.00  0.00     0.038 C 
HETATM   15  C3  UNL     1      -2.482   6.576   9.395  1.00  0.00     0.014 C 
HETATM   16  C4  UNL     1      -2.968   7.907   9.944  1.00  0.00     0.045 C 
HETATM   17  C5  UNL     1      -3.084   7.755  11.438  1.00  0.00     0.058 C 
HETATM   18  N1  UNL     1      -3.834   6.659  11.899  1.00  0.00    -0.388 N 
HETATM   19  C10 UNL     1      -3.652   5.402  11.272  1.00  0.00     0.130 C 
BRANCH  18  20
HETATM   20  C6  UNL     1      -5.068   6.879  12.507  1.00  0.00     0.083 C 
HETATM   21  C7  UNL     1      -5.893   5.635  12.864  1.00  0.00     0.025 C 
HETATM   22  C8  UNL     1      -6.504   6.509  13.970  1.00  0.00     0.004 C 
HETATM   23  C9  UNL     1      -5.149   7.238  13.958  1.00  0.00     0.025 C 
ENDBRANCH  18  20
ENDBRANCH   1  14
TORSDOF 3
ENDMDL
MODEL 3
REMARK VINA RESULT: -6.183470554      1.952      6.175
REMARK  3 active torsions:
REMARK  status: ('A' for Active; 'I' for Inactive)
REMARK    1  A    between atoms: O1_1  and  C1_3 
REMARK    2  A    between atoms: C1_3  and  C2_4 
REMARK    3  A    between atoms: N1_8  and  C6_9 
ROOT
HETATM    1  C1  UNL     1      -3.477   3.859   8.358  1.00  0.00     0.065 C 
HETATM    2  C11 UNL     1      -2.636   4.858   7.637  1.00  0.00     0.040 C 
HETATM    3  C12 UNL     1      -2.858   6.292   8.137  1.00  0.00     0.036 C 
HETATM    4  C13 UNL     1      -2.164   6.490   9.472  1.00  0.00     0.186 C 
HETATM    5  C14 UNL     1      -3.163   7.029  10.471  1.00  0.00     0.035 C 
HETATM    6  C15 UNL     1      -3.249   5.924  11.499  1.00  0.00     0.035 C 
HETATM    7  C16 UNL     1      -2.882   4.710  10.650  1.00  0.00     0.189 C 
HETATM    8  C17 UNL     1      -3.995   4.383   9.691  1.00  0.00     0.071 C 
HETATM    9  N2  UNL     1      -1.703   5.216   9.961  1.00  0.00    -0.067 N 
ATOM     10  H21 UNL     1      -0.855   5.251  10.526  1.00  0.00     0.278 HD
ATOM     11  H22 UNL     1      -1.318   4.594   9.249  1.00  0.00     0.278 HD
ENDROOT
BRANCH   1  12
HETATM   12  O1  UNL     1      -2.667   2.751   8.704  1.00  0.00    -0.389 OA
ATOM     13  H1  UNL     1      -3.215   1.982   8.600  1.00  0.00     0.210 HD
ENDBRANCH   1  12
BRANCH   1  14
HETATM   14  C2  UNL     1      -4.619   3.308   7.579  1.00  0.00     0.038 C 
HETATM   15  C3  UNL     1      -4.793   1.841   7.932  1.00  0.00     0.014 C 
HETATM   16  C4  UNL     1      -6.138   1.444   7.348  1.00  0.00     0.045 C 
HETATM   17  C5  UNL     1      -6.056   1.655   5.860  1.00  0.00     0.058 C 
HETATM   18  N1  UNL     1      -5.620   2.920   5.431  1.00  0.00    -0.388 N 
HETATM   19  C10 UNL     1      -4.517   3.516   6.091  1.00  0.00     0.130 C 
BRANCH  18  20
HETATM   20  C6  UNL     1      -6.524   3.788   4.821  1.00  0.00     0.083 C 
HETATM   21  C7  UNL     1      -7.789   4.136   5.616  1.00  0.00     0.025 C 
HETATM   22  C8  UNL     1      -7.781   5.448   4.815  1.00  0.00     0.004 C 
HETATM   23  C9  UNL     1      -6.255   5.259   4.776  1.00  0.00     0.025 C 
ENDBRANCH  18  20
ENDBRANCH   1  14
TORSDOF 3
ENDMDL
MODEL 4
REMARK VINA RESULT: -5.995831402      1.604      2.929
REMARK  3 active torsions:
REMARK  status: ('A' for Active; 'I' for Inactive)
REMARK    1  A    between atoms: O1_1  and  C1_3 
REMARK    2  A    between atoms: C1_3  and  C2_4 
REMARK    3  A    between atoms: N1_8  and  C6_9 
ROOT
HETATM    1  C1  UNL     1      -3.240   3.055   7.588  1.00  0.00     0.065 C 
HETATM    2  C11 UNL     1      -4.244   2.078   7.076  1.00  0.00     0.040 C 
HETATM    3  C12 UNL     1      -5.421   2.756   6.363  1.00  0.00     0.036 C 
HETATM    4  C13 UNL     1      -4.993   3.224   4.983  1.00  0.00     0.186 C 
HETATM    5  C14 UNL     1      -5.327   4.691   4.836  1.00  0.00     0.035 C 
HETATM    6  C15 UNL     1      -3.969   5.337   4.683  1.00  0.00     0.035 C 
HETATM    7  C16 UNL     1      -3.088   4.339   5.430  1.00  0.00     0.189 C 
HETATM    8  C17 UNL     1      -3.347   4.414   6.911  1.00  0.00     0.071 C 
HETATM    9  N2  UNL     1      -3.564   3.088   4.858  1.00  0.00    -0.067 N 
ATOM     10  H21 UNL     1      -3.231   2.889   3.916  1.00  0.00     0.278 HD
ATOM     11  H22 UNL     1      -3.173   2.244   5.279  1.00  0.00     0.278 HD
ENDROOT
BRANCH   1  12
HETATM   12  O1  UNL     1      -1.945   2.592   7.249  1.00  0.00    -0.389 OA
ATOM     13  H1  UNL     1      -2.046   1.678   7.012  1.00  0.00     0.210 HD
ENDBRANCH   1  12
BRANCH   1  14
HETATM   14  C2  UNL     1      -3.235   3.248   9.063  1.00  0.00     0.038 C 
HETATM   15  C3  UNL     1      -3.520   1.916   9.735  1.00  0.00     0.014 C 
HETATM   16  C4  UNL     1      -3.193   2.128  11.204  1.00  0.00     0.045 C 
HETATM   17  C5  UNL     1      -4.105   3.215  11.709  1.00  0.00     0.058 C 
HETATM   18  N1  UNL     1      -4.123   4.409  10.968  1.00  0.00    -0.388 N 
HETATM   19  C10 UNL     1      -4.160   4.330   9.555  1.00  0.00     0.130 C 
BRANCH  18  20
HETATM   20  C6  UNL     1      -3.562   5.563  11.513  1.00  0.00     0.083 C 
HETATM   21  C7  UNL     1      -3.263   6.710  10.538  1.00  0.00     0.025 C 
HETATM   22  C8  UNL     1      -3.446   7.628  11.758  1.00  0.00     0.004 C 
HETATM   23  C9  UNL     1      -4.410   6.541  12.263  1.00  0.00     0.025 C 
ENDBRANCH  18  20
ENDBRANCH   1  14
TORSDOF 3
ENDMDL
MODEL 5
REMARK VINA RESULT: -5.982150783      1.804      6.246
REMARK  3 active torsions:
REMARK  status: ('A' for Active; 'I' for Inactive)
REMARK    1  A    between atoms: O1_1  and  C1_3 
REMARK    2  A    between atoms: C1_3  and  C2_4 
REMARK    3  A    between atoms: N1_8  and  C6_9 
ROOT
HETATM    1  C1  UNL     1      -3.068   4.390   8.303  1.00  0.00     0.065 C 
HETATM    2  C11 UNL     1      -2.280   5.639   8.516  1.00  0.00     0.040 C 
HETATM    3  C12 UNL     1      -2.946   6.596   9.514  1.00  0.00     0.036 C 
HETATM    4  C13 UNL     1      -2.753   6.088  10.931  1.00  0.00     0.186 C 
HETATM    5  C14 UNL     1      -4.101   6.002  11.611  1.00  0.00     0.035 C 
HETATM    6  C15 UNL     1      -4.258   4.522  11.873  1.00  0.00     0.035 C 
HETATM    7  C16 UNL     1      -3.397   3.937  10.756  1.00  0.00     0.189 C 
HETATM    8  C17 UNL     1      -4.068   4.130   9.422  1.00  0.00     0.071 C 
HETATM    9  N2  UNL     1      -2.202   4.757  10.887  1.00  0.00    -0.067 N 
ATOM     10  H21 UNL     1      -1.596   4.515  11.670  1.00  0.00     0.278 HD
ATOM     11  H22 UNL     1      -1.494   4.607  10.167  1.00  0.00     0.278 HD
ENDROOT
BRANCH   1  12
HETATM   12  O1  UNL     1      -2.184   3.284   8.354  1.00  0.00    -0.389 OA
ATOM     13  H1  UNL     1      -2.733   2.510   8.379  1.00  0.00     0.210 HD
ENDBRANCH   1  12
BRANCH   1  14
HETATM   14  C2  UNL     1      -3.770   4.296   6.995  1.00  0.00     0.038 C 
HETATM   15  C3  UNL     1      -3.361   5.477   6.132  1.00  0.00     0.014 C 
HETATM   16  C4  UNL     1      -3.862   5.147   4.736  1.00  0.00     0.045 C 
HETATM   17  C5  UNL     1      -5.359   5.009   4.822  1.00  0.00     0.058 C 
HETATM   18  N1  UNL     1      -5.850   4.135   5.806  1.00  0.00    -0.388 N 
HETATM   19  C10 UNL     1      -5.267   4.171   7.097  1.00  0.00     0.130 C 
BRANCH  18  20
HETATM   20  C6  UNL     1      -6.441   2.932   5.424  1.00  0.00     0.083 C 
HETATM   21  C7  UNL     1      -7.581   3.019   4.400  1.00  0.00     0.025 C 
HETATM   22  C8  UNL     1      -7.165   1.595   4.000  1.00  0.00     0.004 C 
HETATM   23  C9  UNL     1      -5.758   2.024   4.450  1.00  0.00     0.025 C 
ENDBRANCH  18  20
ENDBRANCH   1  14
TORSDOF 3
ENDMDL
