MODEL 1
REMARK VINA RESULT: -5.250926843      0.000      0.000
REMARK  5 active torsions:
REMARK  status: ('A' for Active; 'I' for Inactive)
REMARK    1  A    between atoms: C2_2  and  C5_5 
REMARK    2  A    between atoms: C6_6  and  C7_7 
REMARK    3  A    between atoms: N1_8  and  N2_10 
REMARK    4  A    between atoms: N2_10  and  C8_12 
REMARK    5  A    between atoms: C8_12  and  N3_14 
ROOT
HETATM    1  N2  UNL     1      -2.060   4.384   8.582  1.00  0.00    -0.277 N 
ATOM      2  H2  UNL     1      -1.376   5.083   8.291  1.00  0.00     0.189 HD
ENDROOT
BRANCH   1   3
HETATM    3  N1  UNL     1      -2.236   3.239   7.819  1.00  0.00    -0.310 N 
HETATM    4  C7  UNL     1      -2.588   3.385   6.560  1.00  0.00     0.107 C 
ATOM      5  H1  UNL     1      -2.098   2.313   8.222  1.00  0.00     0.186 HD
BRANCH   4   6
HETATM    6  C6  UNL     1      -2.764   4.727   6.070  1.00  0.00     0.015 C 
HETATM    7  C5  UNL     1      -3.897   5.165   5.591  1.00  0.00    -0.017 C 
BRANCH   7   8
HETATM    8  C2  UNL     1      -5.100   4.332   5.506  1.00  0.00    -0.034 C 
HETATM    9  C1  UNL     1      -6.198   5.183   4.835  1.00  0.00     0.018 C 
HETATM   10  C3  UNL     1      -4.835   3.104   4.656  1.00  0.00     0.018 C 
HETATM   11  C4  UNL     1      -5.683   3.935   6.842  1.00  0.00     0.018 C 
ENDBRANCH   7   8
ENDBRANCH   4   6
ENDBRANCH   1   3
BRANCH   1  12
HETATM   12  C8  UNL     1      -2.815   4.593   9.753  1.00  0.00     0.188 C 
HETATM   13  S1  UNL     1      -3.737   3.401  10.396  1.00  0.00    -0.039 SA
BRANCH  12  14
HETATM   14  N3  UNL     1      -2.784   5.854  10.395  1.00  0.00    -0.356 N 
HETATM   15  C9  UNL     1      -2.855   5.949  11.849  1.00  0.00     0.135 C 
HETATM   16  C10 UNL     1      -4.278   6.401  12.198  1.00  0.00     0.093 C 
HETATM   17  S2  UNL     1      -4.500   8.002  11.328  1.00  0.00    -0.166 SA
HETATM   18  C11 UNL     1      -2.925   8.273  10.427  1.00  0.00     0.093 C 
HETATM   19  C12 UNL     1      -2.680   7.039   9.567  1.00  0.00     0.135 C 
ENDBRANCH  12  14
ENDBRANCH   1  12
TORSDOF 5
ENDMDL
MODEL 2
REMARK VINA RESULT: -5.136388592      2.043      3.348
REMARK  5 active torsions:
REMARK  status: ('A' for Active; 'I' for Inactive)
REMARK    1  A    between atoms: C2_2  and  C5_5 
REMARK    2  A    between atoms: C6_6  and  C7_7 
REMARK    3  A    between atoms: N1_8  and  N2_10 
REMARK    4  A    between atoms: N2_10  and  C8_12 
REMARK    5  A    between atoms: C8_12  and  N3_14 
ROOT
HETATM    1  N2  UNL     1      -2.351   4.368   8.912  1.00  0.00    -0.277 N 
ATOM      2  H2  UNL     1      -2.036   5.281   8.584  1.00  0.00     0.189 HD
ENDROOT
BRANCH   1   3
HETATM    3  N1  UNL     1      -2.309   3.279   8.055  1.00  0.00    -0.310 N 
HETATM    4  C7  UNL     1      -2.513   3.496   6.773  1.00  0.00     0.107 C 
ATOM      5  H1  UNL     1      -2.126   2.340   8.407  1.00  0.00     0.186 HD
BRANCH   4   6
HETATM    6  C6  UNL     1      -2.765   4.851   6.360  1.00  0.00     0.015 C 
HETATM    7  C5  UNL     1      -3.855   5.212   5.738  1.00  0.00    -0.017 C 
BRANCH   7   8
HETATM    8  C2  UNL     1      -4.928   4.272   5.401  1.00  0.00    -0.034 C 
HETATM    9  C1  UNL     1      -6.068   5.091   4.762  1.00  0.00     0.018 C 
HETATM   10  C3  UNL     1      -4.436   3.242   4.402  1.00  0.00     0.018 C 
HETATM   11  C4  UNL     1      -5.563   3.593   6.592  1.00  0.00     0.018 C 
ENDBRANCH   7   8
ENDBRANCH   4   6
ENDBRANCH   1   3
BRANCH   1  12
HETATM   12  C8  UNL     1      -2.824   4.228  10.233  1.00  0.00     0.188 C 
HETATM   13  S1  UNL     1      -2.326   5.235  11.425  1.00  0.00    -0.039 SA
BRANCH  12  14
HETATM   14  N3  UNL     1      -3.746   3.202  10.545  1.00  0.00    -0.356 N 
HETATM   15  C9  UNL     1      -3.318   2.017  11.280  1.00  0.00     0.135 C 
HETATM   16  C10 UNL     1      -3.205   0.876  10.262  1.00  0.00     0.093 C 
HETATM   17  S2  UNL     1      -4.875   0.733   9.514  1.00  0.00    -0.166 SA
HETATM   18  C11 UNL     1      -5.867   2.051  10.317  1.00  0.00     0.093 C 
HETATM   19  C12 UNL     1      -5.121   3.364  10.114  1.00  0.00     0.135 C 
ENDBRANCH  12  14
ENDBRANCH   1  12
TORSDOF 5
ENDMDL
MODEL 3
REMARK VINA RESULT: -5.089593704      2.125      3.155
REMARK  5 active torsions:
REMARK  status: ('A' for Active; 'I' for Inactive)
REMARK    1  A    between atoms: C2_2  and  C5_5 
REMARK    2  A    between atoms: C6_6  and  C7_7 
REMARK    3  A    between atoms: N1_8  and  N2_10 
REMARK    4  A    between atoms: N2_10  and  C8_12 
REMARK    5  A    between atoms: C8_12  and  N3_14 
ROOT
HETATM    1  N2  UNL     1      -2.303   4.307   9.055  1.00  0.00    -0.277 N 
ATOM      2  H2  UNL     1      -1.715   5.118   8.863  1.00  0.00     0.189 HD
ENDROOT
BRANCH   1   3
HETATM    3  N1  UNL     1      -2.295   3.232   8.179  1.00  0.00    -0.310 N 
HETATM    4  C7  UNL     1      -2.493   3.476   6.902  1.00  0.00     0.107 C 
ATOM      5  H1  UNL     1      -2.140   2.282   8.516  1.00  0.00     0.186 HD
BRANCH   4   6
HETATM    6  C6  UNL     1      -2.705   4.845   6.512  1.00  0.00     0.015 C 
HETATM    7  C5  UNL     1      -3.751   5.237   5.837  1.00  0.00    -0.017 C 
BRANCH   7   8
HETATM    8  C2  UNL     1      -4.813   4.321   5.412  1.00  0.00    -0.034 C 
HETATM    9  C1  UNL     1      -5.913   5.173   4.745  1.00  0.00     0.018 C 
HETATM   10  C3  UNL     1      -4.279   3.323   4.401  1.00  0.00     0.018 C 
HETATM   11  C4  UNL     1      -5.514   3.605   6.543  1.00  0.00     0.018 C 
ENDBRANCH   7   8
ENDBRANCH   4   6
ENDBRANCH   1   3
BRANCH   1  12
HETATM   12  C8  UNL     1      -3.113   4.292  10.208  1.00  0.00     0.188 C 
HETATM   13  S1  UNL     1      -3.190   5.586  11.210  1.00  0.00    -0.039 SA
BRANCH  12  14
HETATM   14  N3  UNL     1      -3.878   3.143  10.516  1.00  0.00    -0.356 N 
HETATM   15  C9  UNL     1      -5.228   2.985   9.985  1.00  0.00     0.135 C 
HETATM   16  C10 UNL     1      -6.198   3.287  11.134  1.00  0.00     0.093 C 
HETATM   17  S2  UNL     1      -5.765   2.088  12.455  1.00  0.00    -0.166 SA
HETATM   18  C11 UNL     1      -4.353   1.130  11.780  1.00  0.00     0.093 C 
HETATM   19  C12 UNL     1      -3.282   2.133  11.370  1.00  0.00     0.135 C 
ENDBRANCH  12  14
ENDBRANCH   1  12
TORSDOF 5
ENDMDL
MODEL 4
REMARK VINA RESULT: -5.052389829      2.802      3.078
REMARK  5 active torsions:
REMARK  status: ('A' for Active; 'I' for Inactive)
REMARK    1  A    between atoms: C2_2  and  C5_5 
REMARK    2  A    between atoms: C6_6  and  C7_7 
REMARK    3  A    between atoms: N1_8  and  N2_10 
REMARK    4  A    between atoms: N2_10  and  C8_12 
REMARK    5  A    between atoms: C8_12  and  N3_14 
ROOT
HETATM    1  N2  UNL     1      -2.207   3.012   8.344  1.00  0.00    -0.277 N 
ATOM      2  H2  UNL     1      -1.892   3.890   8.758  1.00  0.00     0.189 HD
ENDROOT
BRANCH   1   3
HETATM    3  N1  UNL     1      -1.827   2.690   7.050  1.00  0.00    -0.310 N 
HETATM    4  C7  UNL     1      -2.081   3.560   6.097  1.00  0.00     0.107 C 
ATOM      5  H1  UNL     1      -1.365   1.804   6.844  1.00  0.00     0.186 HD
BRANCH   4   6
HETATM    6  C6  UNL     1      -2.738   4.785   6.474  1.00  0.00     0.015 C 
HETATM    7  C5  UNL     1      -3.986   5.039   6.188  1.00  0.00    -0.017 C 
BRANCH   7   8
HETATM    8  C2  UNL     1      -4.841   4.100   5.455  1.00  0.00    -0.034 C 
HETATM    9  C1  UNL     1      -6.056   4.897   4.937  1.00  0.00     0.018 C 
HETATM   10  C3  UNL     1      -4.092   3.513   4.272  1.00  0.00     0.018 C 
HETATM   11  C4  UNL     1      -5.435   3.000   6.303  1.00  0.00     0.018 C 
ENDBRANCH   7   8
ENDBRANCH   4   6
ENDBRANCH   1   3
BRANCH   1  12
HETATM   12  C8  UNL     1      -3.023   2.142   9.095  1.00  0.00     0.188 C 
HETATM   13  S1  UNL     1      -3.203   0.570   8.673  1.00  0.00    -0.039 SA
BRANCH  12  14
HETATM   14  N3  UNL     1      -3.703   2.626  10.237  1.00  0.00    -0.356 N 
HETATM   15  C9  UNL     1      -3.270   2.242  11.577  1.00  0.00     0.135 C 
HETATM   16  C10 UNL     1      -4.266   1.192  12.084  1.00  0.00     0.093 C 
HETATM   17  S2  UNL     1      -5.904   2.018  12.031  1.00  0.00    -0.166 SA
HETATM   18  C11 UNL     1      -5.569   3.692  11.359  1.00  0.00     0.093 C 
HETATM   19  C12 UNL     1      -4.836   3.508  10.035  1.00  0.00     0.135 C 
ENDBRANCH  12  14
ENDBRANCH   1  12
TORSDOF 5
ENDMDL
MODEL 5
REMARK VINA RESULT: -4.999248816      2.707      4.387
REMARK  5 active torsions:
REMARK  status: ('A' for Active; 'I' for Inactive)
REMARK    1  A    between atoms: C2_2  and  C5_5 
REMARK    2  A    between atoms: C6_6  and  C7_7 
REMARK    3  A    between atoms: N1_8  and  N2_10 
REMARK    4  A    between atoms: N2_10  and  C8_12 
REMARK    5  A    between atoms: C8_12  and  N3_14 
ROOT
HETATM    1  N2  UNL     1      -2.224   3.297   8.627  1.00  0.00    -0.277 N 
ATOM      2  H2  UNL     1      -1.743   4.121   8.987  1.00  0.00     0.189 HD
ENDROOT
BRANCH   1   3
HETATM    3  N1  UNL     1      -1.855   2.770   7.398  1.00  0.00    -0.310 N 
HETATM    4  C7  UNL     1      -2.102   3.485   6.322  1.00  0.00     0.107 C 
ATOM      5  H1  UNL     1      -1.407   1.857   7.332  1.00  0.00     0.186 HD
BRANCH   4   6
HETATM    6  C6  UNL     1      -2.739   4.763   6.504  1.00  0.00     0.015 C 
HETATM    7  C5  UNL     1      -3.939   5.027   6.062  1.00  0.00    -0.017 C 
BRANCH   7   8
HETATM    8  C2  UNL     1      -4.754   4.046   5.339  1.00  0.00    -0.034 C 
HETATM    9  C1  UNL     1      -6.009   4.784   4.826  1.00  0.00     0.018 C 
HETATM   10  C3  UNL     1      -3.988   3.490   4.154  1.00  0.00     0.018 C 
HETATM   11  C4  UNL     1      -5.292   2.924   6.196  1.00  0.00     0.018 C 
ENDBRANCH   7   8
ENDBRANCH   4   6
ENDBRANCH   1   3
BRANCH   1  12
HETATM   12  C8  UNL     1      -3.257   2.707   9.384  1.00  0.00     0.188 C 
HETATM   13  S1  UNL     1      -4.606   3.546   9.780  1.00  0.00    -0.039 SA
BRANCH  12  14
HETATM   14  N3  UNL     1      -3.135   1.365   9.815  1.00  0.00    -0.356 N 
HETATM   15  C9  UNL     1      -2.993   0.284   8.846  1.00  0.00     0.135 C 
HETATM   16  C10 UNL     1      -4.351  -0.424   8.765  1.00  0.00     0.093 C 
HETATM   17  S2  UNL     1      -4.701  -0.989  10.475  1.00  0.00    -0.166 SA
HETATM   18  C11 UNL     1      -3.275  -0.401  11.469  1.00  0.00     0.093 C 
HETATM   19  C12 UNL     1      -3.155   1.101  11.240  1.00  0.00     0.135 C 
ENDBRANCH  12  14
ENDBRANCH   1  12
TORSDOF 5
ENDMDL
