MODEL 1
REMARK VINA RESULT: -7.375951879      0.000      0.000
REMARK  11 active torsions:
REMARK  status: ('A' for Active; 'I' for Inactive)
REMARK    1  A    between atoms: N2_5  and  C4_6 
REMARK    2  A    between atoms: C4_6  and  O1_7 
REMARK    3  A    between atoms: C4_6  and  C5_9 
REMARK    4  A    between atoms: C5_9  and  N3_10 
REMARK    5  A    between atoms: C5_9  and  C22_38 
REMARK    6  A    between atoms: N3_10  and  N4_12 
REMARK       I    between atoms: N4_12  and  C6_14 
REMARK       I    between atoms: C6_14  and  N5_16 
REMARK    7  A    between atoms: N5_16  and  C7_17 
REMARK    8  A    between atoms: N5_16  and  C16_32 
REMARK    9  A    between atoms: C7_17  and  C8_18 
REMARK   10  A    between atoms: C11_22  and  O4_23 
REMARK   11  A    between atoms: O4_23  and  C12_24 
ROOT
HETATM    1  N4  UNL     1      13.514 -15.695 -19.217  1.00  0.00    -0.251 N 
ATOM      2  H4  UNL     1      14.001 -16.443 -19.711  1.00  0.00     0.191 HD
HETATM    3  C6  UNL     1      13.968 -14.367 -19.393  1.00  0.00     0.337 C 
HETATM    4  O2  UNL     1      13.309 -13.470 -18.757  1.00  0.00    -0.245 OA
HETATM    5  N5  UNL     1      15.099 -13.985 -20.217  1.00  0.00    -0.326 N 
ENDROOT
BRANCH   1   6
HETATM    6  N3  UNL     1      12.474 -16.023 -18.429  1.00  0.00    -0.296 N 
ATOM      7  H3  UNL     1      12.733 -16.094 -17.445  1.00  0.00     0.187 HD
BRANCH   6   8
HETATM    8  C5  UNL     1      11.221 -16.270 -18.630  1.00  0.00     0.080 C 
BRANCH   8   9
HETATM    9  C4  UNL     1      10.709 -16.889 -19.806  1.00  0.00     0.163 C 
BRANCH   9  10
HETATM   10  N2  UNL     1       9.784 -16.571 -20.777  1.00  0.00    -0.357 N 
HETATM   11  C3  UNL     1       8.788 -17.322 -21.466  1.00  0.00     0.144 C 
HETATM   12  C2  UNL     1       7.424 -16.732 -21.079  1.00  0.00     0.136 C 
HETATM   13  N1  UNL     1       7.351 -15.361 -21.430  1.00  0.00    -0.414 N 
HETATM   14  C1  UNL     1       6.977 -15.062 -22.773  1.00  0.00     0.143 C 
HETATM   15  C29 UNL     1       8.449 -14.564 -20.943  1.00  0.00     0.136 C 
HETATM   16  C28 UNL     1       9.785 -15.138 -21.265  1.00  0.00     0.144 C 
ENDBRANCH   9  10
BRANCH   9  17
HETATM   17  O1  UNL     1      11.265 -18.077 -20.012  1.00  0.00    -0.345 OA
ATOM     18  H1  UNL     1      11.788 -18.361 -19.272  1.00  0.00     0.219 HD
ENDBRANCH   9  17
ENDBRANCH   8   9
BRANCH   8  19
HETATM   19  C22 UNL     1      10.352 -15.777 -17.534  1.00  0.00     0.041 C 
HETATM   20  C23 UNL     1       8.926 -16.262 -17.610  1.00  0.00     0.011 C 
HETATM   21  C24 UNL     1       8.345 -15.986 -16.211  1.00  0.00     0.001 C 
HETATM   22  C25 UNL     1       8.362 -14.489 -15.963  1.00  0.00     0.000 C 
HETATM   23  C26 UNL     1       9.689 -13.849 -16.198  1.00  0.00     0.001 C 
HETATM   24  C27 UNL     1      10.222 -14.235 -17.564  1.00  0.00     0.011 C 
ENDBRANCH   8  19
ENDBRANCH   6   8
ENDBRANCH   1   6
BRANCH   5  25
HETATM   25  C7  UNL     1      15.840 -14.990 -20.918  1.00  0.00     0.162 C 
BRANCH  25  26
HETATM   26  C8  UNL     1      15.442 -15.364 -22.288  1.00  0.00     0.169 C 
HETATM   27  O3  UNL     1      14.228 -14.932 -22.742  1.00  0.00    -0.382 OA
HETATM   28  C9  UNL     1      13.799 -15.722 -23.770  1.00  0.00     0.171 C 
HETATM   29  C10 UNL     1      14.631 -16.982 -23.778  1.00  0.00     0.061 C 
HETATM   30  C11 UNL     1      15.313 -16.894 -22.428  1.00  0.00     0.163 C 
BRANCH  30  31
HETATM   31  O4  UNL     1      14.610 -17.463 -21.405  1.00  0.00    -0.328 OA
BRANCH  31  32
HETATM   32  C12 UNL     1      14.964 -18.582 -20.720  1.00  0.00     0.144 A 
HETATM   33  C13 UNL     1      16.220 -19.119 -20.668  1.00  0.00     0.073 A 
HETATM   34  C14 UNL     1      16.476 -20.262 -19.944  1.00  0.00     0.093 A 
HETATM   35  N6  UNL     1      15.481 -20.849 -19.285  1.00  0.00    -0.362 N 
HETATM   36  C15 UNL     1      14.251 -20.346 -19.320  1.00  0.00     0.182 A 
ATOM     37  H6  UNL     1      15.664 -21.695 -18.745  1.00  0.00     0.165 HD
HETATM   38  N7  UNL     1      13.998 -19.235 -20.024  1.00  0.00    -0.333 N 
ATOM     39  H7  UNL     1      13.047 -18.867 -20.039  1.00  0.00     0.168 HD
ENDBRANCH  31  32
ENDBRANCH  30  31
ENDBRANCH  25  26
ENDBRANCH   5  25
BRANCH   5  40
HETATM   40  C16 UNL     1      15.401 -12.578 -20.195  1.00  0.00     0.089 C 
HETATM   41  C17 UNL     1      16.641 -12.380 -19.296  1.00  0.00     0.025 C 
HETATM   42  C18 UNL     1      16.638 -10.933 -18.791  1.00  0.00     0.002 C 
HETATM   43  C19 UNL     1      16.119 -10.063 -19.934  1.00  0.00     0.000 C 
HETATM   44  C20 UNL     1      16.589 -10.710 -21.218  1.00  0.00     0.002 C 
HETATM   45  C21 UNL     1      15.607 -11.878 -21.479  1.00  0.00     0.025 C 
ENDBRANCH   5  40
TORSDOF 11
ENDMDL
MODEL 2
REMARK VINA RESULT: -7.266866541      3.207      5.637
REMARK  11 active torsions:
REMARK  status: ('A' for Active; 'I' for Inactive)
REMARK    1  A    between atoms: N2_5  and  C4_6 
REMARK    2  A    between atoms: C4_6  and  O1_7 
REMARK    3  A    between atoms: C4_6  and  C5_9 
REMARK    4  A    between atoms: C5_9  and  N3_10 
REMARK    5  A    between atoms: C5_9  and  C22_38 
REMARK    6  A    between atoms: N3_10  and  N4_12 
REMARK       I    between atoms: N4_12  and  C6_14 
REMARK       I    between atoms: C6_14  and  N5_16 
REMARK    7  A    between atoms: N5_16  and  C7_17 
REMARK    8  A    between atoms: N5_16  and  C16_32 
REMARK    9  A    between atoms: C7_17  and  C8_18 
REMARK   10  A    between atoms: C11_22  and  O4_23 
REMARK   11  A    between atoms: O4_23  and  C12_24 
ROOT
HETATM    1  N4  UNL     1       9.147 -15.633 -21.564  1.00  0.00    -0.251 N 
ATOM      2  H4  UNL     1       9.706 -16.464 -21.759  1.00  0.00     0.191 HD
HETATM    3  C6  UNL     1       9.312 -14.991 -20.314  1.00  0.00     0.337 C 
HETATM    4  O2  UNL     1       8.594 -13.945 -20.132  1.00  0.00    -0.245 OA
HETATM    5  N5  UNL     1      10.209 -15.443 -19.268  1.00  0.00    -0.326 N 
ENDROOT
BRANCH   1   6
HETATM    6  N3  UNL     1       8.291 -15.203 -22.510  1.00  0.00    -0.296 N 
ATOM      7  H3  UNL     1       8.767 -14.872 -23.349  1.00  0.00     0.187 HD
BRANCH   6   8
HETATM    8  C5  UNL     1       7.005 -15.113 -22.600  1.00  0.00     0.080 C 
BRANCH   8   9
HETATM    9  C4  UNL     1       6.109 -16.185 -22.327  1.00  0.00     0.163 C 
BRANCH   9  10
HETATM   10  N2  UNL     1       6.215 -17.541 -22.099  1.00  0.00    -0.357 N 
HETATM   11  C3  UNL     1       6.588 -18.646 -22.917  1.00  0.00     0.144 C 
HETATM   12  C2  UNL     1       7.875 -19.237 -22.325  1.00  0.00     0.136 C 
HETATM   13  N1  UNL     1       7.670 -19.651 -20.985  1.00  0.00    -0.414 N 
HETATM   14  C1  UNL     1       7.116 -20.950 -20.792  1.00  0.00     0.143 C 
HETATM   15  C29 UNL     1       7.091 -18.641 -20.134  1.00  0.00     0.136 C 
HETATM   16  C28 UNL     1       5.865 -18.018 -20.706  1.00  0.00     0.144 C 
ENDBRANCH   9  10
BRANCH   9  17
HETATM   17  O1  UNL     1       4.849 -15.767 -22.287  1.00  0.00    -0.345 OA
ATOM     18  H1  UNL     1       4.780 -14.826 -22.391  1.00  0.00     0.219 HD
ENDBRANCH   9  17
ENDBRANCH   8   9
BRANCH   8  19
HETATM   19  C22 UNL     1       6.552 -13.787 -23.089  1.00  0.00     0.041 C 
HETATM   20  C23 UNL     1       7.508 -13.121 -24.046  1.00  0.00     0.011 C 
HETATM   21  C24 UNL     1       6.679 -12.012 -24.717  1.00  0.00     0.001 C 
HETATM   22  C25 UNL     1       6.245 -11.018 -23.655  1.00  0.00     0.000 C 
HETATM   23  C26 UNL     1       5.572 -11.642 -22.479  1.00  0.00     0.001 C 
HETATM   24  C27 UNL     1       6.419 -12.772 -21.929  1.00  0.00     0.011 C 
ENDBRANCH   8  19
ENDBRANCH   6   8
ENDBRANCH   1   6
BRANCH   5  25
HETATM   25  C7  UNL     1      11.002 -16.617 -19.469  1.00  0.00     0.162 C 
BRANCH  25  26
HETATM   26  C8  UNL     1      12.198 -16.549 -20.330  1.00  0.00     0.169 C 
HETATM   27  O3  UNL     1      12.012 -16.525 -21.682  1.00  0.00    -0.382 OA
HETATM   28  C9  UNL     1      13.143 -16.945 -22.323  1.00  0.00     0.171 C 
HETATM   29  C10 UNL     1      14.035 -17.625 -21.313  1.00  0.00     0.061 C 
HETATM   30  C11 UNL     1      13.082 -17.800 -20.148  1.00  0.00     0.163 C 
BRANCH  30  31
HETATM   31  O4  UNL     1      12.368 -18.963 -20.176  1.00  0.00    -0.328 OA
BRANCH  31  32
HETATM   32  C12 UNL     1      12.600 -20.060 -19.409  1.00  0.00     0.144 A 
HETATM   33  C13 UNL     1      11.968 -21.266 -19.535  1.00  0.00     0.073 A 
HETATM   34  C14 UNL     1      12.275 -22.320 -18.703  1.00  0.00     0.093 A 
HETATM   35  N6  UNL     1      13.204 -22.157 -17.764  1.00  0.00    -0.362 N 
HETATM   36  C15 UNL     1      13.832 -20.994 -17.623  1.00  0.00     0.182 A 
ATOM     37  H6  UNL     1      13.437 -22.934 -17.146  1.00  0.00     0.165 HD
HETATM   38  N7  UNL     1      13.535 -19.966 -18.429  1.00  0.00    -0.333 N 
ATOM     39  H7  UNL     1      14.028 -19.082 -18.302  1.00  0.00     0.168 HD
ENDBRANCH  31  32
ENDBRANCH  30  31
ENDBRANCH  25  26
ENDBRANCH   5  25
BRANCH   5  40
HETATM   40  C16 UNL     1      10.161 -14.655 -18.065  1.00  0.00     0.089 C 
HETATM   41  C17 UNL     1       9.140 -15.316 -17.114  1.00  0.00     0.025 C 
HETATM   42  C18 UNL     1       8.643 -14.250 -16.131  1.00  0.00     0.002 C 
HETATM   43  C19 UNL     1       9.837 -13.356 -15.803  1.00  0.00     0.000 C 
HETATM   44  C20 UNL     1      11.062 -14.241 -15.836  1.00  0.00     0.002 C 
HETATM   45  C21 UNL     1      11.420 -14.401 -17.334  1.00  0.00     0.025 C 
ENDBRANCH   5  40
TORSDOF 11
ENDMDL
MODEL 3
REMARK VINA RESULT: -7.237037824      1.072      1.388
REMARK  11 active torsions:
REMARK  status: ('A' for Active; 'I' for Inactive)
REMARK    1  A    between atoms: N2_5  and  C4_6 
REMARK    2  A    between atoms: C4_6  and  O1_7 
REMARK    3  A    between atoms: C4_6  and  C5_9 
REMARK    4  A    between atoms: C5_9  and  N3_10 
REMARK    5  A    between atoms: C5_9  and  C22_38 
REMARK    6  A    between atoms: N3_10  and  N4_12 
REMARK       I    between atoms: N4_12  and  C6_14 
REMARK       I    between atoms: C6_14  and  N5_16 
REMARK    7  A    between atoms: N5_16  and  C7_17 
REMARK    8  A    between atoms: N5_16  and  C16_32 
REMARK    9  A    between atoms: C7_17  and  C8_18 
REMARK   10  A    between atoms: C11_22  and  O4_23 
REMARK   11  A    between atoms: O4_23  and  C12_24 
ROOT
HETATM    1  N4  UNL     1      13.176 -15.645 -19.273  1.00  0.00    -0.251 N 
ATOM      2  H4  UNL     1      13.669 -16.422 -19.712  1.00  0.00     0.191 HD
HETATM    3  C6  UNL     1      13.837 -14.398 -19.176  1.00  0.00     0.337 C 
HETATM    4  O2  UNL     1      13.162 -13.456 -18.628  1.00  0.00    -0.245 OA
HETATM    5  N5  UNL     1      15.188 -14.144 -19.638  1.00  0.00    -0.326 N 
ENDROOT
BRANCH   1   6
HETATM    6  N3  UNL     1      11.928 -15.858 -18.816  1.00  0.00    -0.296 N 
ATOM      7  H3  UNL     1      11.906 -16.067 -17.818  1.00  0.00     0.187 HD
BRANCH   6   8
HETATM    8  C5  UNL     1      10.751 -15.860 -19.350  1.00  0.00     0.080 C 
BRANCH   8   9
HETATM    9  C4  UNL     1      10.508 -15.987 -20.747  1.00  0.00     0.163 C 
BRANCH   9  10
HETATM   10  N2  UNL     1       9.500 -15.636 -21.619  1.00  0.00    -0.357 N 
HETATM   11  C3  UNL     1       8.193 -16.147 -21.864  1.00  0.00     0.144 C 
HETATM   12  C2  UNL     1       7.195 -15.041 -21.496  1.00  0.00     0.136 C 
HETATM   13  N1  UNL     1       7.429 -13.874 -22.266  1.00  0.00    -0.414 N 
HETATM   14  C1  UNL     1       6.834 -13.829 -23.560  1.00  0.00     0.143 C 
HETATM   15  C29 UNL     1       8.794 -13.410 -22.239  1.00  0.00     0.136 C 
HETATM   16  C28 UNL     1       9.788 -14.475 -22.548  1.00  0.00     0.144 C 
ENDBRANCH   9  10
BRANCH   9  17
HETATM   17  O1  UNL     1      11.510 -16.606 -21.360  1.00  0.00    -0.345 OA
ATOM     18  H1  UNL     1      11.969 -17.204 -20.782  1.00  0.00     0.219 HD
ENDBRANCH   9  17
ENDBRANCH   8   9
BRANCH   8  19
HETATM   19  C22 UNL     1       9.668 -15.644 -18.359  1.00  0.00     0.041 C 
HETATM   20  C23 UNL     1       9.035 -14.276 -18.422  1.00  0.00     0.011 C 
HETATM   21  C24 UNL     1       7.721 -14.417 -17.633  1.00  0.00     0.001 C 
HETATM   22  C25 UNL     1       8.052 -14.760 -16.192  1.00  0.00     0.000 C 
HETATM   23  C26 UNL     1       8.970 -15.926 -16.041  1.00  0.00     0.001 C 
HETATM   24  C27 UNL     1      10.199 -15.741 -16.909  1.00  0.00     0.011 C 
ENDBRANCH   8  19
ENDBRANCH   6   8
ENDBRANCH   1   6
BRANCH   5  25
HETATM   25  C7  UNL     1      15.944 -15.200 -20.241  1.00  0.00     0.162 C 
BRANCH  25  26
HETATM   26  C8  UNL     1      15.837 -15.435 -21.693  1.00  0.00     0.169 C 
HETATM   27  O3  UNL     1      14.853 -14.779 -22.375  1.00  0.00    -0.382 OA
HETATM   28  C9  UNL     1      14.567 -15.434 -23.540  1.00  0.00     0.171 C 
HETATM   29  C10 UNL     1      15.167 -16.817 -23.464  1.00  0.00     0.061 C 
HETATM   30  C11 UNL     1      15.507 -16.912 -21.991  1.00  0.00     0.163 C 
BRANCH  30  31
HETATM   31  O4  UNL     1      14.497 -17.397 -21.211  1.00  0.00    -0.328 OA
BRANCH  31  32
HETATM   32  C12 UNL     1      14.490 -18.596 -20.572  1.00  0.00     0.144 A 
HETATM   33  C13 UNL     1      13.373 -19.290 -20.196  1.00  0.00     0.073 A 
HETATM   34  C14 UNL     1      13.473 -20.501 -19.548  1.00  0.00     0.093 A 
HETATM   35  N6  UNL     1      14.678 -21.001 -19.287  1.00  0.00    -0.362 N 
HETATM   36  C15 UNL     1      15.778 -20.345 -19.643  1.00  0.00     0.182 A 
ATOM     37  H6  UNL     1      14.758 -21.899 -18.809  1.00  0.00     0.165 HD
HETATM   38  N7  UNL     1      15.685 -19.166 -20.272  1.00  0.00    -0.333 N 
ATOM     39  H7  UNL     1      16.543 -18.679 -20.535  1.00  0.00     0.168 HD
ENDBRANCH  31  32
ENDBRANCH  30  31
ENDBRANCH  25  26
ENDBRANCH   5  25
BRANCH   5  40
HETATM   40  C16 UNL     1      15.663 -12.810 -19.379  1.00  0.00     0.089 C 
HETATM   41  C17 UNL     1      17.145 -12.916 -18.958  1.00  0.00     0.025 C 
HETATM   42  C18 UNL     1      17.500 -11.665 -18.145  1.00  0.00     0.002 C 
HETATM   43  C19 UNL     1      16.752 -10.494 -18.780  1.00  0.00     0.000 C 
HETATM   44  C20 UNL     1      16.682 -10.778 -20.263  1.00  0.00     0.002 C 
HETATM   45  C21 UNL     1      15.524 -11.791 -20.439  1.00  0.00     0.025 C 
ENDBRANCH   5  40
TORSDOF 11
ENDMDL
MODEL 4
REMARK VINA RESULT: -7.225376893      1.075      1.317
REMARK  11 active torsions:
REMARK  status: ('A' for Active; 'I' for Inactive)
REMARK    1  A    between atoms: N2_5  and  C4_6 
REMARK    2  A    between atoms: C4_6  and  O1_7 
REMARK    3  A    between atoms: C4_6  and  C5_9 
REMARK    4  A    between atoms: C5_9  and  N3_10 
REMARK    5  A    between atoms: C5_9  and  C22_38 
REMARK    6  A    between atoms: N3_10  and  N4_12 
REMARK       I    between atoms: N4_12  and  C6_14 
REMARK       I    between atoms: C6_14  and  N5_16 
REMARK    7  A    between atoms: N5_16  and  C7_17 
REMARK    8  A    between atoms: N5_16  and  C16_32 
REMARK    9  A    between atoms: C7_17  and  C8_18 
REMARK   10  A    between atoms: C11_22  and  O4_23 
REMARK   11  A    between atoms: O4_23  and  C12_24 
ROOT
HETATM    1  N4  UNL     1      12.929 -15.959 -19.187  1.00  0.00    -0.251 N 
ATOM      2  H4  UNL     1      13.381 -16.729 -19.680  1.00  0.00     0.191 HD
HETATM    3  C6  UNL     1      13.568 -14.697 -19.183  1.00  0.00     0.337 C 
HETATM    4  O2  UNL     1      12.946 -13.765 -18.560  1.00  0.00    -0.245 OA
HETATM    5  N5  UNL     1      14.843 -14.417 -19.816  1.00  0.00    -0.326 N 
ENDROOT
BRANCH   1   6
HETATM    6  N3  UNL     1      11.755 -16.196 -18.573  1.00  0.00    -0.296 N 
ATOM      7  H3  UNL     1      11.811 -16.081 -17.561  1.00  0.00     0.187 HD
BRANCH   6   8
HETATM    8  C5  UNL     1      10.573 -16.535 -18.970  1.00  0.00     0.080 C 
BRANCH   8   9
HETATM    9  C4  UNL     1      10.316 -17.339 -20.116  1.00  0.00     0.163 C 
BRANCH   9  10
HETATM   10  N2  UNL     1       9.202 -17.742 -20.822  1.00  0.00    -0.357 N 
HETATM   11  C3  UNL     1       8.463 -18.958 -20.876  1.00  0.00     0.144 C 
HETATM   12  C2  UNL     1       7.054 -18.659 -20.345  1.00  0.00     0.136 C 
HETATM   13  N1  UNL     1       6.425 -17.654 -21.123  1.00  0.00    -0.414 N 
HETATM   14  C1  UNL     1       5.767 -18.082 -22.313  1.00  0.00     0.143 C 
HETATM   15  C29 UNL     1       7.211 -16.458 -21.293  1.00  0.00     0.136 C 
HETATM   16  C28 UNL     1       8.599 -16.723 -21.765  1.00  0.00     0.144 C 
ENDBRANCH   9  10
BRANCH   9  17
HETATM   17  O1  UNL     1      11.439 -17.827 -20.630  1.00  0.00    -0.345 OA
ATOM     18  H1  UNL     1      12.200 -17.318 -20.376  1.00  0.00     0.219 HD
ENDBRANCH   9  17
ENDBRANCH   8   9
BRANCH   8  19
HETATM   19  C22 UNL     1       9.494 -15.940 -18.143  1.00  0.00     0.041 C 
HETATM   20  C23 UNL     1       9.024 -14.588 -18.618  1.00  0.00     0.011 C 
HETATM   21  C24 UNL     1       7.680 -14.368 -17.901  1.00  0.00     0.001 C 
HETATM   22  C25 UNL     1       7.928 -14.325 -16.403  1.00  0.00     0.000 C 
HETATM   23  C26 UNL     1       8.702 -15.489 -15.882  1.00  0.00     0.001 C 
HETATM   24  C27 UNL     1       9.969 -15.681 -16.693  1.00  0.00     0.011 C 
ENDBRANCH   8  19
ENDBRANCH   6   8
ENDBRANCH   1   6
BRANCH   5  25
HETATM   25  C7  UNL     1      15.541 -15.461 -20.502  1.00  0.00     0.162 C 
BRANCH  25  26
HETATM   26  C8  UNL     1      15.118 -15.848 -21.861  1.00  0.00     0.169 C 
HETATM   27  O3  UNL     1      13.903 -15.408 -22.302  1.00  0.00    -0.382 OA
HETATM   28  C9  UNL     1      13.448 -16.206 -23.313  1.00  0.00     0.171 C 
HETATM   29  C10 UNL     1      14.264 -17.476 -23.316  1.00  0.00     0.061 C 
HETATM   30  C11 UNL     1      14.968 -17.379 -21.978  1.00  0.00     0.163 C 
BRANCH  30  31
HETATM   31  O4  UNL     1      14.274 -17.925 -20.937  1.00  0.00    -0.328 OA
BRANCH  31  32
HETATM   32  C12 UNL     1      14.618 -19.047 -20.252  1.00  0.00     0.144 A 
HETATM   33  C13 UNL     1      15.804 -19.717 -20.366  1.00  0.00     0.073 A 
HETATM   34  C14 UNL     1      16.055 -20.850 -19.625  1.00  0.00     0.093 A 
HETATM   35  N6  UNL     1      15.126 -21.296 -18.784  1.00  0.00    -0.362 N 
HETATM   36  C15 UNL     1      13.964 -20.662 -18.656  1.00  0.00     0.182 A 
ATOM     37  H6  UNL     1      15.306 -22.134 -18.232  1.00  0.00     0.165 HD
HETATM   38  N7  UNL     1      13.716 -19.561 -19.376  1.00  0.00    -0.333 N 
ATOM     39  H7  UNL     1      12.817 -19.090 -19.263  1.00  0.00     0.168 HD
ENDBRANCH  31  32
ENDBRANCH  30  31
ENDBRANCH  25  26
ENDBRANCH   5  25
BRANCH   5  40
HETATM   40  C16 UNL     1      15.315 -13.070 -19.629  1.00  0.00     0.089 C 
HETATM   41  C17 UNL     1      16.785 -13.151 -19.163  1.00  0.00     0.025 C 
HETATM   42  C18 UNL     1      17.124 -11.853 -18.421  1.00  0.00     0.002 C 
HETATM   43  C19 UNL     1      16.396 -10.723 -19.147  1.00  0.00     0.000 C 
HETATM   44  C20 UNL     1      16.364 -11.099 -20.611  1.00  0.00     0.002 C 
HETATM   45  C21 UNL     1      15.207 -12.119 -20.753  1.00  0.00     0.025 C 
ENDBRANCH   5  40
TORSDOF 11
ENDMDL
MODEL 5
REMARK VINA RESULT: -7.207253697      3.291      7.412
REMARK  11 active torsions:
REMARK  status: ('A' for Active; 'I' for Inactive)
REMARK    1  A    between atoms: N2_5  and  C4_6 
REMARK    2  A    between atoms: C4_6  and  O1_7 
REMARK    3  A    between atoms: C4_6  and  C5_9 
REMARK    4  A    between atoms: C5_9  and  N3_10 
REMARK    5  A    between atoms: C5_9  and  C22_38 
REMARK    6  A    between atoms: N3_10  and  N4_12 
REMARK       I    between atoms: N4_12  and  C6_14 
REMARK       I    between atoms: C6_14  and  N5_16 
REMARK    7  A    between atoms: N5_16  and  C7_17 
REMARK    8  A    between atoms: N5_16  and  C16_32 
REMARK    9  A    between atoms: C7_17  and  C8_18 
REMARK   10  A    between atoms: C11_22  and  O4_23 
REMARK   11  A    between atoms: O4_23  and  C12_24 
ROOT
HETATM    1  N4  UNL     1       7.951 -16.969 -19.931  1.00  0.00    -0.251 N 
ATOM      2  H4  UNL     1       8.754 -16.717 -20.507  1.00  0.00     0.191 HD
HETATM    3  C6  UNL     1       7.237 -18.147 -20.254  1.00  0.00     0.337 C 
HETATM    4  O2  UNL     1       6.247 -18.419 -19.486  1.00  0.00    -0.245 OA
HETATM    5  N5  UNL     1       7.549 -19.021 -21.368  1.00  0.00    -0.326 N 
ENDROOT
BRANCH   1   6
HETATM    6  N3  UNL     1       7.626 -16.165 -18.903  1.00  0.00    -0.296 N 
ATOM      7  H3  UNL     1       7.170 -16.666 -18.140  1.00  0.00     0.187 HD
BRANCH   6   8
HETATM    8  C5  UNL     1       7.757 -14.903 -18.658  1.00  0.00     0.080 C 
BRANCH   8   9
HETATM    9  C4  UNL     1       7.225 -13.870 -19.481  1.00  0.00     0.163 C 
BRANCH   9  10
HETATM   10  N2  UNL     1       7.455 -13.392 -20.754  1.00  0.00    -0.357 N 
HETATM   11  C3  UNL     1       8.474 -13.628 -21.720  1.00  0.00     0.144 C 
HETATM   12  C2  UNL     1       7.806 -14.291 -22.934  1.00  0.00     0.136 C 
HETATM   13  N1  UNL     1       6.792 -13.456 -23.468  1.00  0.00    -0.414 N 
HETATM   14  C1  UNL     1       7.207 -12.447 -24.385  1.00  0.00     0.143 C 
HETATM   15  C29 UNL     1       5.830 -12.997 -22.497  1.00  0.00     0.136 C 
HETATM   16  C28 UNL     1       6.453 -12.391 -21.288  1.00  0.00     0.144 C 
ENDBRANCH   9  10
BRANCH   9  17
HETATM   17  O1  UNL     1       6.265 -13.197 -18.858  1.00  0.00    -0.345 OA
ATOM     18  H1  UNL     1       5.927 -13.668 -18.105  1.00  0.00     0.219 HD
ENDBRANCH   9  17
ENDBRANCH   8   9
BRANCH   8  19
HETATM   19  C22 UNL     1       8.585 -14.630 -17.457  1.00  0.00     0.041 C 
HETATM   20  C23 UNL     1       9.441 -13.393 -17.563  1.00  0.00     0.011 C 
HETATM   21  C24 UNL     1       9.869 -13.089 -16.116  1.00  0.00     0.001 C 
HETATM   22  C25 UNL     1      10.706 -14.247 -15.602  1.00  0.00     0.000 C 
HETATM   23  C26 UNL     1      10.063 -15.583 -15.769  1.00  0.00     0.001 C 
HETATM   24  C27 UNL     1       9.603 -15.767 -17.202  1.00  0.00     0.011 C 
ENDBRANCH   8  19
ENDBRANCH   6   8
ENDBRANCH   1   6
BRANCH   5  25
HETATM   25  C7  UNL     1       8.649 -18.709 -22.230  1.00  0.00     0.162 C 
BRANCH  25  26
HETATM   26  C8  UNL     1       9.974 -19.299 -21.961  1.00  0.00     0.169 C 
HETATM   27  O3  UNL     1      10.167 -19.918 -20.760  1.00  0.00    -0.382 OA
HETATM   28  C9  UNL     1      11.499 -19.969 -20.461  1.00  0.00     0.171 C 
HETATM   29  C10 UNL     1      12.225 -19.008 -21.372  1.00  0.00     0.061 C 
HETATM   30  C11 UNL     1      11.069 -18.213 -21.944  1.00  0.00     0.163 C 
BRANCH  30  31
HETATM   31  O4  UNL     1      10.719 -17.120 -21.205  1.00  0.00    -0.328 OA
BRANCH  31  32
HETATM   32  C12 UNL     1      11.547 -16.106 -20.841  1.00  0.00     0.144 A 
HETATM   33  C13 UNL     1      12.011 -15.873 -19.576  1.00  0.00     0.073 A 
HETATM   34  C14 UNL     1      12.848 -14.813 -19.309  1.00  0.00     0.093 A 
HETATM   35  N6  UNL     1      13.211 -14.005 -20.302  1.00  0.00    -0.362 N 
HETATM   36  C15 UNL     1      12.773 -14.211 -21.540  1.00  0.00     0.182 A 
ATOM     37  H6  UNL     1      13.832 -13.219 -20.111  1.00  0.00     0.165 HD
HETATM   38  N7  UNL     1      11.958 -15.240 -21.804  1.00  0.00    -0.333 N 
ATOM     39  H7  UNL     1      11.633 -15.379 -22.761  1.00  0.00     0.168 HD
ENDBRANCH  31  32
ENDBRANCH  30  31
ENDBRANCH  25  26
ENDBRANCH   5  25
BRANCH   5  40
HETATM   40  C16 UNL     1       6.644 -20.129 -21.525  1.00  0.00     0.089 C 
HETATM   41  C17 UNL     1       5.679 -19.783 -22.680  1.00  0.00     0.025 C 
HETATM   42  C18 UNL     1       4.403 -20.613 -22.501  1.00  0.00     0.002 C 
HETATM   43  C19 UNL     1       4.832 -21.980 -21.970  1.00  0.00     0.000 C 
HETATM   44  C20 UNL     1       6.182 -22.278 -22.582  1.00  0.00     0.002 C 
HETATM   45  C21 UNL     1       7.206 -21.478 -21.741  1.00  0.00     0.025 C 
ENDBRANCH   5  40
TORSDOF 11
ENDMDL
