MODEL 1
REMARK VINA RESULT: -5.932693037      0.000      0.000
REMARK  7 active torsions:
REMARK  status: ('A' for Active; 'I' for Inactive)
REMARK    1  A    between atoms: N1_2  and  C2_4 
REMARK    2  A    between atoms: C2_4  and  O1_5 
REMARK    3  A    between atoms: C2_4  and  C3_7 
REMARK    4  A    between atoms: C3_7  and  C4_8 
REMARK    5  A    between atoms: C4_8  and  C5_9 
REMARK    6  A    between atoms: C5_9  and  C6_10 
REMARK    7  A    between atoms: C7_11  and  C8_12 
REMARK       I    between atoms: C8_12  and  N2_14 
ROOT
HETATM    1  C6  UNL     1     -17.837  10.356  33.034  1.00  0.00    -0.093 C 
HETATM    2  C7  UNL     1     -17.611  11.489  33.358  1.00  0.00    -0.005 C 
ENDROOT
BRANCH   2   3
HETATM    3  C8  UNL     1     -17.319  12.840  33.761  1.00  0.00     0.298 C 
HETATM    4  O2  UNL     1     -18.159  13.717  33.439  1.00  0.00    -0.258 OA
HETATM    5  N2  UNL     1     -16.148  13.139  34.480  1.00  0.00    -0.338 N 
HETATM    6  C9  UNL     1     -15.224  12.097  34.821  1.00  0.00     0.154 C 
HETATM    7  C12 UNL     1     -15.871  14.490  34.876  1.00  0.00     0.154 C 
HETATM    8  C10 UNL     1     -13.790  12.452  34.547  1.00  0.00     0.252 C 
HETATM    9  N3  UNL     1     -13.563  13.851  34.348  1.00  0.00    -0.072 N 
HETATM   10  C11 UNL     1     -14.399  14.702  35.161  1.00  0.00     0.252 C 
ATOM     11  H32 UNL     1     -12.578  14.077  34.486  1.00  0.00     0.277 HD
ATOM     12  H31 UNL     1     -13.659  14.092  33.361  1.00  0.00     0.277 HD
ENDBRANCH   2   3
BRANCH   1  13
HETATM   13  C5  UNL     1     -18.102   8.947  32.612  1.00  0.00     0.121 C 
BRANCH  13  14
HETATM   14  C4  UNL     1     -16.804   8.283  32.605  1.00  0.00    -0.010 C 
BRANCH  14  15
HETATM   15  C3  UNL     1     -15.814   8.361  31.787  1.00  0.00     0.052 C 
BRANCH  15  16
HETATM   16  C2  UNL     1     -15.270   9.360  30.940  1.00  0.00     0.134 C 
BRANCH  16  17
HETATM   17  N1  UNL     1     -14.378  10.397  31.221  1.00  0.00    -0.375 N 
HETATM   18  C1  UNL     1     -14.856  11.798  31.146  1.00  0.00     0.148 C 
ATOM     19  H1  UNL     1     -13.411  10.193  31.474  1.00  0.00     0.161 HD
ENDBRANCH  16  17
BRANCH  16  20
HETATM   20  O1  UNL     1     -15.658   9.316  29.683  1.00  0.00    -0.346 OA
ATOM     21  H1  UNL     1     -16.587   9.155  29.573  1.00  0.00     0.219 HD
ENDBRANCH  16  20
ENDBRANCH  15  16
ENDBRANCH  14  15
ENDBRANCH  13  14
ENDBRANCH   1  13
TORSDOF 7
ENDMDL
MODEL 2
REMARK VINA RESULT: -5.871354069      2.507      3.513
REMARK  7 active torsions:
REMARK  status: ('A' for Active; 'I' for Inactive)
REMARK    1  A    between atoms: N1_2  and  C2_4 
REMARK    2  A    between atoms: C2_4  and  O1_5 
REMARK    3  A    between atoms: C2_4  and  C3_7 
REMARK    4  A    between atoms: C3_7  and  C4_8 
REMARK    5  A    between atoms: C4_8  and  C5_9 
REMARK    6  A    between atoms: C5_9  and  C6_10 
REMARK    7  A    between atoms: C7_11  and  C8_12 
REMARK       I    between atoms: C8_12  and  N2_14 
ROOT
HETATM    1  C6  UNL     1     -18.000  10.383  32.943  1.00  0.00    -0.093 C 
HETATM    2  C7  UNL     1     -18.164  11.536  33.232  1.00  0.00    -0.005 C 
ENDROOT
BRANCH   2   3
HETATM    3  C8  UNL     1     -18.382  12.914  33.592  1.00  0.00     0.298 C 
HETATM    4  O2  UNL     1     -17.552  13.747  33.153  1.00  0.00    -0.258 OA
HETATM    5  N2  UNL     1     -19.477  13.282  34.393  1.00  0.00    -0.338 N 
HETATM    6  C9  UNL     1     -20.394  12.288  34.867  1.00  0.00     0.154 C 
HETATM    7  C12 UNL     1     -19.681  14.659  34.743  1.00  0.00     0.154 C 
HETATM    8  C10 UNL     1     -20.731  12.424  36.325  1.00  0.00     0.252 C 
HETATM    9  N3  UNL     1     -20.385  13.695  36.886  1.00  0.00    -0.072 N 
HETATM   10  C11 UNL     1     -20.550  14.802  35.975  1.00  0.00     0.252 C 
ATOM     11  H32 UNL     1     -20.904  13.859  37.749  1.00  0.00     0.277 HD
ATOM     12  H31 UNL     1     -19.435  13.676  37.257  1.00  0.00     0.277 HD
ENDBRANCH   2   3
BRANCH   1  13
HETATM   13  C5  UNL     1     -17.786   8.944  32.605  1.00  0.00     0.121 C 
BRANCH  13  14
HETATM   14  C4  UNL     1     -16.342   8.765  32.522  1.00  0.00    -0.010 C 
BRANCH  14  15
HETATM   15  C3  UNL     1     -15.499   9.070  31.598  1.00  0.00     0.052 C 
BRANCH  15  16
HETATM   16  C2  UNL     1     -14.738  10.214  31.254  1.00  0.00     0.134 C 
BRANCH  16  17
HETATM   17  N1  UNL     1     -14.860  11.542  31.669  1.00  0.00    -0.375 N 
HETATM   18  C1  UNL     1     -14.556  11.886  33.079  1.00  0.00     0.148 C 
ATOM     19  H1  UNL     1     -15.154  12.264  31.012  1.00  0.00     0.161 HD
ENDBRANCH  16  17
BRANCH  16  20
HETATM   20  O1  UNL     1     -13.752  10.010  30.406  1.00  0.00    -0.346 OA
ATOM     21  H1  UNL     1     -13.855  10.466  29.580  1.00  0.00     0.219 HD
ENDBRANCH  16  20
ENDBRANCH  15  16
ENDBRANCH  14  15
ENDBRANCH  13  14
ENDBRANCH   1  13
TORSDOF 7
ENDMDL
MODEL 3
REMARK VINA RESULT: -5.807718769      4.248      6.584
REMARK  7 active torsions:
REMARK  status: ('A' for Active; 'I' for Inactive)
REMARK    1  A    between atoms: N1_2  and  C2_4 
REMARK    2  A    between atoms: C2_4  and  O1_5 
REMARK    3  A    between atoms: C2_4  and  C3_7 
REMARK    4  A    between atoms: C3_7  and  C4_8 
REMARK    5  A    between atoms: C4_8  and  C5_9 
REMARK    6  A    between atoms: C5_9  and  C6_10 
REMARK    7  A    between atoms: C7_11  and  C8_12 
REMARK       I    between atoms: C8_12  and  N2_14 
ROOT
HETATM    1  C6  UNL     1     -19.540  12.384  33.922  1.00  0.00    -0.093 C 
HETATM    2  C7  UNL     1     -18.587  12.391  33.193  1.00  0.00    -0.005 C 
ENDROOT
BRANCH   2   3
HETATM    3  C8  UNL     1     -17.429  12.404  32.338  1.00  0.00     0.298 C 
HETATM    4  O2  UNL     1     -17.233  13.450  31.671  1.00  0.00    -0.258 OA
HETATM    5  N2  UNL     1     -16.573  11.291  32.270  1.00  0.00    -0.338 N 
HETATM    6  C9  UNL     1     -16.845  10.121  33.054  1.00  0.00     0.154 C 
HETATM    7  C12 UNL     1     -15.422  11.318  31.414  1.00  0.00     0.154 C 
HETATM    8  C10 UNL     1     -16.720   8.837  32.283  1.00  0.00     0.252 C 
HETATM    9  N3  UNL     1     -16.017   8.968  31.043  1.00  0.00    -0.072 N 
HETATM   10  C11 UNL     1     -14.936   9.923  31.081  1.00  0.00     0.252 C 
ATOM     11  H32 UNL     1     -15.682   8.059  30.724  1.00  0.00     0.277 HD
ATOM     12  H31 UNL     1     -16.664   9.189  30.287  1.00  0.00     0.277 HD
ENDBRANCH   2   3
BRANCH   1  13
HETATM   13  C5  UNL     1     -20.722  12.352  34.836  1.00  0.00     0.121 C 
BRANCH  13  14
HETATM   14  C4  UNL     1     -21.858  11.971  34.006  1.00  0.00    -0.010 C 
BRANCH  14  15
HETATM   15  C3  UNL     1     -23.063  11.642  34.314  1.00  0.00     0.052 C 
BRANCH  15  16
HETATM   16  C2  UNL     1     -23.706  11.079  35.444  1.00  0.00     0.134 C 
BRANCH  16  17
HETATM   17  N1  UNL     1     -24.258  11.692  36.570  1.00  0.00    -0.375 N 
HETATM   18  C1  UNL     1     -23.967  13.122  36.828  1.00  0.00     0.148 C 
ATOM     19  H1  UNL     1     -24.855  11.163  37.207  1.00  0.00     0.161 HD
ENDBRANCH  16  17
BRANCH  16  20
HETATM   20  O1  UNL     1     -23.808   9.766  35.449  1.00  0.00    -0.346 OA
ATOM     21  H1  UNL     1     -23.270   9.337  34.794  1.00  0.00     0.219 HD
ENDBRANCH  16  20
ENDBRANCH  15  16
ENDBRANCH  14  15
ENDBRANCH  13  14
ENDBRANCH   1  13
TORSDOF 7
ENDMDL
MODEL 4
REMARK VINA RESULT: -5.761380079      2.822      5.974
REMARK  7 active torsions:
REMARK  status: ('A' for Active; 'I' for Inactive)
REMARK    1  A    between atoms: N1_2  and  C2_4 
REMARK    2  A    between atoms: C2_4  and  O1_5 
REMARK    3  A    between atoms: C2_4  and  C3_7 
REMARK    4  A    between atoms: C3_7  and  C4_8 
REMARK    5  A    between atoms: C4_8  and  C5_9 
REMARK    6  A    between atoms: C5_9  and  C6_10 
REMARK    7  A    between atoms: C7_11  and  C8_12 
REMARK       I    between atoms: C8_12  and  N2_14 
ROOT
HETATM    1  C6  UNL     1     -17.465  13.671  32.995  1.00  0.00    -0.093 C 
HETATM    2  C7  UNL     1     -16.816  12.874  32.376  1.00  0.00    -0.005 C 
ENDROOT
BRANCH   2   3
HETATM    3  C8  UNL     1     -16.017  11.933  31.635  1.00  0.00     0.298 C 
HETATM    4  O2  UNL     1     -15.294  12.404  30.723  1.00  0.00    -0.258 OA
HETATM    5  N2  UNL     1     -16.059  10.560  31.937  1.00  0.00    -0.338 N 
HETATM    6  C9  UNL     1     -16.903  10.077  32.990  1.00  0.00     0.154 C 
HETATM    7  C12 UNL     1     -15.257   9.634  31.190  1.00  0.00     0.154 C 
HETATM    8  C10 UNL     1     -17.701   8.861  32.612  1.00  0.00     0.252 C 
HETATM    9  N3  UNL     1     -17.227   8.195  31.437  1.00  0.00    -0.072 N 
HETATM   10  C11 UNL     1     -15.792   8.220  31.288  1.00  0.00     0.252 C 
ATOM     11  H32 UNL     1     -17.574   7.236  31.404  1.00  0.00     0.277 HD
ATOM     12  H31 UNL     1     -17.680   8.571  30.605  1.00  0.00     0.277 HD
ENDBRANCH   2   3
BRANCH   1  13
HETATM   13  C5  UNL     1     -18.263  14.655  33.786  1.00  0.00     0.121 C 
BRANCH  13  14
HETATM   14  C4  UNL     1     -18.817  13.909  34.909  1.00  0.00    -0.010 C 
BRANCH  14  15
HETATM   15  C3  UNL     1     -19.463  12.797  34.954  1.00  0.00     0.052 C 
BRANCH  15  16
HETATM   16  C2  UNL     1     -20.673  12.300  34.409  1.00  0.00     0.134 C 
BRANCH  16  17
HETATM   17  N1  UNL     1     -21.994  12.478  34.825  1.00  0.00    -0.375 N 
HETATM   18  C1  UNL     1     -23.066  11.683  34.180  1.00  0.00     0.148 C 
ATOM     19  H1  UNL     1     -22.218  13.145  35.564  1.00  0.00     0.161 HD
ENDBRANCH  16  17
BRANCH  16  20
HETATM   20  O1  UNL     1     -20.550  11.549  33.335  1.00  0.00    -0.346 OA
ATOM     21  H1  UNL     1     -19.896  11.862  32.720  1.00  0.00     0.219 HD
ENDBRANCH  16  20
ENDBRANCH  15  16
ENDBRANCH  14  15
ENDBRANCH  13  14
ENDBRANCH   1  13
TORSDOF 7
ENDMDL
MODEL 5
REMARK VINA RESULT: -5.733501864      2.474      5.694
REMARK  7 active torsions:
REMARK  status: ('A' for Active; 'I' for Inactive)
REMARK    1  A    between atoms: N1_2  and  C2_4 
REMARK    2  A    between atoms: C2_4  and  O1_5 
REMARK    3  A    between atoms: C2_4  and  C3_7 
REMARK    4  A    between atoms: C3_7  and  C4_8 
REMARK    5  A    between atoms: C4_8  and  C5_9 
REMARK    6  A    between atoms: C5_9  and  C6_10 
REMARK    7  A    between atoms: C7_11  and  C8_12 
REMARK       I    between atoms: C8_12  and  N2_14 
ROOT
HETATM    1  C6  UNL     1     -17.331  13.709  33.019  1.00  0.00    -0.093 C 
HETATM    2  C7  UNL     1     -16.709  12.892  32.398  1.00  0.00    -0.005 C 
ENDROOT
BRANCH   2   3
HETATM    3  C8  UNL     1     -15.949  11.930  31.642  1.00  0.00     0.298 C 
HETATM    4  O2  UNL     1     -15.226  12.384  30.722  1.00  0.00    -0.258 OA
HETATM    5  N2  UNL     1     -16.027  10.558  31.940  1.00  0.00    -0.338 N 
HETATM    6  C9  UNL     1     -16.870  10.096  33.003  1.00  0.00     0.154 C 
HETATM    7  C12 UNL     1     -15.264   9.612  31.179  1.00  0.00     0.154 C 
HETATM    8  C10 UNL     1     -17.710   8.906  32.632  1.00  0.00     0.252 C 
HETATM    9  N3  UNL     1     -17.273   8.231  31.448  1.00  0.00    -0.072 N 
HETATM   10  C11 UNL     1     -15.840   8.214  31.278  1.00  0.00     0.252 C 
ATOM     11  H32 UNL     1     -17.649   7.283  31.416  1.00  0.00     0.277 HD
ATOM     12  H31 UNL     1     -17.727   8.624  30.624  1.00  0.00     0.277 HD
ENDBRANCH   2   3
BRANCH   1  13
HETATM   13  C5  UNL     1     -18.088  14.727  33.808  1.00  0.00     0.121 C 
BRANCH  13  14
HETATM   14  C4  UNL     1     -19.263  14.038  34.327  1.00  0.00    -0.010 C 
BRANCH  14  15
HETATM   15  C3  UNL     1     -19.435  13.334  35.390  1.00  0.00     0.052 C 
BRANCH  15  16
HETATM   16  C2  UNL     1     -18.883  12.141  35.921  1.00  0.00     0.134 C 
BRANCH  16  17
HETATM   17  N1  UNL     1     -17.851  11.953  36.843  1.00  0.00    -0.375 N 
HETATM   18  C1  UNL     1     -16.629  12.785  36.737  1.00  0.00     0.148 C 
ATOM     19  H1  UNL     1     -17.938  11.252  37.579  1.00  0.00     0.161 HD
ENDBRANCH  16  17
BRANCH  16  20
HETATM   20  O1  UNL     1     -19.419  11.021  35.485  1.00  0.00    -0.346 OA
ATOM     21  H1  UNL     1     -19.506  10.979  34.540  1.00  0.00     0.219 HD
ENDBRANCH  16  20
ENDBRANCH  15  16
ENDBRANCH  14  15
ENDBRANCH  13  14
ENDBRANCH   1  13
TORSDOF 7
ENDMDL
