MODEL 1
REMARK VINA RESULT: -7.297213949      0.000      0.000
REMARK  4 active torsions:
REMARK  status: ('A' for Active; 'I' for Inactive)
REMARK    1  A    between atoms: C2_2  and  C4_4 
REMARK       I    between atoms: N3_10  and  C6_12 
REMARK    2  A    between atoms: C6_12  and  C7_14 
REMARK    3  A    between atoms: C7_14  and  N4_15 
REMARK    4  A    between atoms: N4_15  and  C8_18 
ROOT
HETATM    1  C4  UNL     1      32.251  17.479  55.361  1.00  0.00     0.073 A 
HETATM    2  N1  UNL     1      31.536  17.230  54.275  1.00  0.00    -0.296 N 
ATOM      3  H1  UNL     1      31.273  17.997  53.657  1.00  0.00     0.187 HD
HETATM    4  N2  UNL     1      31.177  16.046  53.995  1.00  0.00    -0.279 N 
ATOM      5  H2  UNL     1      30.627  15.861  53.157  1.00  0.00     0.189 HD
HETATM    6  C5  UNL     1      31.524  15.045  54.804  1.00  0.00     0.167 A 
HETATM    7  N3  UNL     1      31.300  13.777  54.759  1.00  0.00    -0.305 N 
ATOM      8  H3  UNL     1      31.698  13.244  55.532  1.00  0.00     0.171 HD
HETATM    9  C6  UNL     1      30.610  13.031  53.835  1.00  0.00     0.249 C 
HETATM   10  O1  UNL     1      30.286  13.483  52.713  1.00  0.00    -0.271 OA
HETATM   11  S1  UNL     1      32.414  15.911  56.018  1.00  0.00    -0.037 SA
ENDROOT
BRANCH   9  12
HETATM   12  C7  UNL     1      30.226  11.625  54.165  1.00  0.00     0.335 C 
BRANCH  12  13
HETATM   13  N4  UNL     1      29.020  11.259  53.461  1.00  0.00    -0.063 N 
ATOM     14  H42 UNL     1      28.696  12.020  52.866  1.00  0.00     0.278 HD
ATOM     15  H41 UNL     1      29.211  10.560  52.743  1.00  0.00     0.278 HD
BRANCH  13  16
HETATM   16  C8  UNL     1      27.975  10.814  54.357  1.00  0.00     0.186 C 
HETATM   17  C9  UNL     1      26.826  11.746  54.303  1.00  0.00     0.033 C 
HETATM   18  C10 UNL     1      27.081  13.150  54.726  1.00  0.00     0.002 C 
HETATM   19  C11 UNL     1      27.217  13.401  56.180  1.00  0.00     0.000 C 
HETATM   20  C12 UNL     1      26.452  12.499  57.087  1.00  0.00     0.000 C 
HETATM   21  C13 UNL     1      27.410  11.466  57.642  1.00  0.00     0.000 C 
HETATM   22  C14 UNL     1      27.553  10.258  56.773  1.00  0.00     0.002 C 
HETATM   23  C15 UNL     1      28.546  10.518  55.693  1.00  0.00     0.033 C 
ENDBRANCH  13  16
ENDBRANCH  12  13
ENDBRANCH   9  12
BRANCH   1  24
HETATM   24  C2  UNL     1      32.776  18.791  55.871  1.00  0.00     0.036 C 
HETATM   25  C1  UNL     1      31.847  19.237  56.971  1.00  0.00     0.016 C 
HETATM   26  C3  UNL     1      34.204  18.732  56.279  1.00  0.00     0.016 C 
ENDBRANCH   1  24
TORSDOF 4
ENDMDL
MODEL 2
REMARK VINA RESULT: -7.294588428      1.018      1.842
REMARK  4 active torsions:
REMARK  status: ('A' for Active; 'I' for Inactive)
REMARK    1  A    between atoms: C2_2  and  C4_4 
REMARK       I    between atoms: N3_10  and  C6_12 
REMARK    2  A    between atoms: C6_12  and  C7_14 
REMARK    3  A    between atoms: C7_14  and  N4_15 
REMARK    4  A    between atoms: N4_15  and  C8_18 
ROOT
HETATM    1  C4  UNL     1      32.818  17.564  55.267  1.00  0.00     0.073 A 
HETATM    2  N1  UNL     1      31.737  17.561  54.503  1.00  0.00    -0.296 N 
ATOM      3  H1  UNL     1      31.320  18.445  54.213  1.00  0.00     0.187 HD
HETATM    4  N2  UNL     1      31.214  16.468  54.128  1.00  0.00    -0.279 N 
ATOM      5  H2  UNL     1      30.381  16.472  53.539  1.00  0.00     0.189 HD
HETATM    6  C5  UNL     1      31.760  15.313  54.507  1.00  0.00     0.167 A 
HETATM    7  N3  UNL     1      31.443  14.086  54.275  1.00  0.00    -0.305 N 
ATOM      8  H3  UNL     1      32.057  13.395  54.704  1.00  0.00     0.171 HD
HETATM    9  C6  UNL     1      30.408  13.563  53.538  1.00  0.00     0.249 C 
HETATM   10  O1  UNL     1      29.727  14.255  52.749  1.00  0.00    -0.271 OA
HETATM   11  S1  UNL     1      33.096  15.890  55.455  1.00  0.00    -0.037 SA
ENDROOT
BRANCH   9  12
HETATM   12  C7  UNL     1      30.071  12.112  53.673  1.00  0.00     0.335 C 
BRANCH  12  13
HETATM   13  N4  UNL     1      28.759  11.958  54.254  1.00  0.00    -0.063 N 
ATOM     14  H42 UNL     1      28.048  12.418  53.687  1.00  0.00     0.278 HD
ATOM     15  H41 UNL     1      28.432  10.995  54.174  1.00  0.00     0.278 HD
BRANCH  13  16
HETATM   16  C8  UNL     1      28.709  12.413  55.626  1.00  0.00     0.186 C 
HETATM   17  C9  UNL     1      28.970  11.286  56.549  1.00  0.00     0.033 C 
HETATM   18  C10 UNL     1      28.003  10.155  56.516  1.00  0.00     0.002 C 
HETATM   19  C11 UNL     1      26.686  10.377  57.159  1.00  0.00     0.000 C 
HETATM   20  C12 UNL     1      26.657  11.322  58.310  1.00  0.00     0.000 C 
HETATM   21  C13 UNL     1      26.124  12.650  57.817  1.00  0.00     0.000 C 
HETATM   22  C14 UNL     1      27.185  13.552  57.272  1.00  0.00     0.002 C 
HETATM   23  C15 UNL     1      27.473  13.203  55.852  1.00  0.00     0.033 C 
ENDBRANCH  13  16
ENDBRANCH  12  13
ENDBRANCH   9  12
BRANCH   1  24
HETATM   24  C2  UNL     1      33.588  18.731  55.815  1.00  0.00     0.036 C 
HETATM   25  C1  UNL     1      32.871  19.184  57.061  1.00  0.00     0.016 C 
HETATM   26  C3  UNL     1      35.029  18.435  56.027  1.00  0.00     0.016 C 
ENDBRANCH   1  24
TORSDOF 4
ENDMDL
MODEL 3
REMARK VINA RESULT: -7.212106694      0.981      1.314
REMARK  4 active torsions:
REMARK  status: ('A' for Active; 'I' for Inactive)
REMARK    1  A    between atoms: C2_2  and  C4_4 
REMARK       I    between atoms: N3_10  and  C6_12 
REMARK    2  A    between atoms: C6_12  and  C7_14 
REMARK    3  A    between atoms: C7_14  and  N4_15 
REMARK    4  A    between atoms: N4_15  and  C8_18 
ROOT
HETATM    1  C4  UNL     1      32.613  17.641  55.456  1.00  0.00     0.073 A 
HETATM    2  N1  UNL     1      31.711  17.591  54.487  1.00  0.00    -0.296 N 
ATOM      3  H1  UNL     1      31.421  18.452  54.023  1.00  0.00     0.187 HD
HETATM    4  N2  UNL     1      31.206  16.484  54.130  1.00  0.00    -0.279 N 
ATOM      5  H2  UNL     1      30.512  16.453  53.384  1.00  0.00     0.189 HD
HETATM    6  C5  UNL     1      31.587  15.361  54.737  1.00  0.00     0.167 A 
HETATM    7  N3  UNL     1      31.245  14.130  54.577  1.00  0.00    -0.305 N 
ATOM      8  H3  UNL     1      31.714  13.469  55.198  1.00  0.00     0.171 HD
HETATM    9  C6  UNL     1      30.350  13.565  53.701  1.00  0.00     0.249 C 
HETATM   10  O1  UNL     1      29.890  14.187  52.717  1.00  0.00    -0.271 OA
HETATM   11  S1  UNL     1      32.738  15.991  55.876  1.00  0.00    -0.037 SA
ENDROOT
BRANCH   9  12
HETATM   12  C7  UNL     1      29.898  12.157  53.918  1.00  0.00     0.335 C 
BRANCH  12  13
HETATM   13  N4  UNL     1      29.569  11.946  55.307  1.00  0.00    -0.063 N 
ATOM     14  H42 UNL     1      30.408  11.784  55.864  1.00  0.00     0.278 HD
ATOM     15  H41 UNL     1      29.249  12.810  55.745  1.00  0.00     0.278 HD
BRANCH  13  16
HETATM   16  C8  UNL     1      28.607  10.882  55.488  1.00  0.00     0.186 C 
HETATM   17  C9  UNL     1      27.239  11.440  55.584  1.00  0.00     0.033 C 
HETATM   18  C10 UNL     1      26.969  12.358  56.724  1.00  0.00     0.002 C 
HETATM   19  C11 UNL     1      26.813  11.742  58.063  1.00  0.00     0.000 C 
HETATM   20  C12 UNL     1      26.259  10.359  58.100  1.00  0.00     0.000 C 
HETATM   21  C13 UNL     1      27.409   9.395  58.298  1.00  0.00     0.000 C 
HETATM   22  C14 UNL     1      28.052   8.964  57.018  1.00  0.00     0.002 C 
HETATM   23  C15 UNL     1      29.050   9.979  56.579  1.00  0.00     0.033 C 
ENDBRANCH  13  16
ENDBRANCH  12  13
ENDBRANCH   9  12
BRANCH   1  24
HETATM   24  C2  UNL     1      33.330  18.832  56.024  1.00  0.00     0.036 C 
HETATM   25  C1  UNL     1      32.573  19.251  57.258  1.00  0.00     0.016 C 
HETATM   26  C3  UNL     1      34.776  18.586  56.262  1.00  0.00     0.016 C 
ENDBRANCH   1  24
TORSDOF 4
ENDMDL
MODEL 4
REMARK VINA RESULT: -6.934816930      1.014      1.032
REMARK  4 active torsions:
REMARK  status: ('A' for Active; 'I' for Inactive)
REMARK    1  A    between atoms: C2_2  and  C4_4 
REMARK       I    between atoms: N3_10  and  C6_12 
REMARK    2  A    between atoms: C6_12  and  C7_14 
REMARK    3  A    between atoms: C7_14  and  N4_15 
REMARK    4  A    between atoms: N4_15  and  C8_18 
ROOT
HETATM    1  C4  UNL     1      32.165  16.812  55.039  1.00  0.00     0.073 A 
HETATM    2  N1  UNL     1      32.577  16.000  54.077  1.00  0.00    -0.296 N 
ATOM      3  H1  UNL     1      33.214  16.349  53.361  1.00  0.00     0.187 HD
HETATM    4  N2  UNL     1      32.189  14.793  54.039  1.00  0.00    -0.279 N 
ATOM      5  H2  UNL     1      32.510  14.174  53.295  1.00  0.00     0.189 HD
HETATM    6  C5  UNL     1      31.358  14.340  54.977  1.00  0.00     0.167 A 
HETATM    7  N3  UNL     1      30.821  13.186  55.174  1.00  0.00    -0.305 N 
ATOM      8  H3  UNL     1      30.214  13.129  55.992  1.00  0.00     0.171 HD
HETATM    9  C6  UNL     1      30.936  12.020  54.458  1.00  0.00     0.249 C 
HETATM   10  O1  UNL     1      31.825  11.848  53.593  1.00  0.00    -0.271 OA
HETATM   11  S1  UNL     1      31.157  15.770  55.941  1.00  0.00    -0.037 SA
ENDROOT
BRANCH   9  12
HETATM   12  C7  UNL     1      29.973  10.904  54.709  1.00  0.00     0.335 C 
BRANCH  12  13
HETATM   13  N4  UNL     1      28.781  11.087  53.916  1.00  0.00    -0.063 N 
ATOM     14  H42 UNL     1      28.802  11.977  53.418  1.00  0.00     0.278 HD
ATOM     15  H41 UNL     1      28.770  10.454  53.116  1.00  0.00     0.278 HD
BRANCH  13  16
HETATM   16  C8  UNL     1      27.574  10.957  54.702  1.00  0.00     0.186 C 
HETATM   17  C9  UNL     1      26.763  12.191  54.601  1.00  0.00     0.033 C 
HETATM   18  C10 UNL     1      27.383  13.444  55.111  1.00  0.00     0.002 C 
HETATM   19  C11 UNL     1      27.455  13.610  56.582  1.00  0.00     0.000 C 
HETATM   20  C12 UNL     1      26.377  12.959  57.379  1.00  0.00     0.000 C 
HETATM   21  C13 UNL     1      26.931  11.675  57.959  1.00  0.00     0.000 C 
HETATM   22  C14 UNL     1      26.787  10.499  57.047  1.00  0.00     0.002 C 
HETATM   23  C15 UNL     1      27.907  10.473  56.064  1.00  0.00     0.033 C 
ENDBRANCH  13  16
ENDBRANCH  12  13
ENDBRANCH   9  12
BRANCH   1  24
HETATM   24  C2  UNL     1      32.501  18.257  55.269  1.00  0.00     0.036 C 
HETATM   25  C1  UNL     1      31.542  18.768  56.314  1.00  0.00     0.016 C 
HETATM   26  C3  UNL     1      33.931  18.481  55.606  1.00  0.00     0.016 C 
ENDBRANCH   1  24
TORSDOF 4
ENDMDL
MODEL 5
REMARK VINA RESULT: -6.868586543      1.484      2.296
REMARK  4 active torsions:
REMARK  status: ('A' for Active; 'I' for Inactive)
REMARK    1  A    between atoms: C2_2  and  C4_4 
REMARK       I    between atoms: N3_10  and  C6_12 
REMARK    2  A    between atoms: C6_12  and  C7_14 
REMARK    3  A    between atoms: C7_14  and  N4_15 
REMARK    4  A    between atoms: N4_15  and  C8_18 
ROOT
HETATM    1  C4  UNL     1      33.382  17.472  55.449  1.00  0.00     0.073 A 
HETATM    2  N1  UNL     1      33.313  16.831  54.292  1.00  0.00    -0.296 N 
ATOM      3  H1  UNL     1      34.038  16.978  53.590  1.00  0.00     0.187 HD
HETATM    4  N2  UNL     1      32.355  16.036  54.049  1.00  0.00    -0.279 N 
ATOM      5  H2  UNL     1      32.308  15.546  53.156  1.00  0.00     0.189 HD
HETATM    6  C5  UNL     1      31.410  15.845  54.968  1.00  0.00     0.167 A 
HETATM    7  N3  UNL     1      30.351  15.111  54.984  1.00  0.00    -0.305 N 
ATOM      8  H3  UNL     1      29.803  15.166  55.842  1.00  0.00     0.171 HD
HETATM    9  C6  UNL     1      29.846  14.265  54.027  1.00  0.00     0.249 C 
HETATM   10  O1  UNL     1      30.516  13.891  53.038  1.00  0.00    -0.271 OA
HETATM   11  S1  UNL     1      31.979  16.892  56.232  1.00  0.00    -0.037 SA
ENDROOT
BRANCH   9  12
HETATM   12  C7  UNL     1      28.443  13.763  54.157  1.00  0.00     0.335 C 
BRANCH  12  13
HETATM   13  N4  UNL     1      28.443  12.400  54.630  1.00  0.00    -0.063 N 
ATOM     14  H42 UNL     1      27.689  11.862  54.204  1.00  0.00     0.278 HD
ATOM     15  H41 UNL     1      29.241  11.882  54.261  1.00  0.00     0.278 HD
BRANCH  13  16
HETATM   16  C8  UNL     1      28.392  12.319  56.073  1.00  0.00     0.186 C 
HETATM   17  C9  UNL     1      29.353  11.305  56.563  1.00  0.00     0.033 C 
HETATM   18  C10 UNL     1      29.129   9.902  56.122  1.00  0.00     0.002 C 
HETATM   19  C11 UNL     1      28.018   9.162  56.768  1.00  0.00     0.000 C 
HETATM   20  C12 UNL     1      27.692   9.541  58.171  1.00  0.00     0.000 C 
HETATM   21  C13 UNL     1      26.471  10.435  58.146  1.00  0.00     0.000 C 
HETATM   22  C14 UNL     1      26.796  11.883  57.969  1.00  0.00     0.002 C 
HETATM   23  C15 UNL     1      26.984  12.192  56.523  1.00  0.00     0.033 C 
ENDBRANCH  13  16
ENDBRANCH  12  13
ENDBRANCH   9  12
BRANCH   1  24
HETATM   24  C2  UNL     1      34.419  18.443  55.936  1.00  0.00     0.036 C 
HETATM   25  C1  UNL     1      33.821  19.168  57.114  1.00  0.00     0.016 C 
HETATM   26  C3  UNL     1      35.729  17.805  56.226  1.00  0.00     0.016 C 
ENDBRANCH   1  24
TORSDOF 4
ENDMDL
