MODEL 1
REMARK VINA RESULT: -6.566413543      0.000      0.000
REMARK  6 active torsions:
REMARK  status: ('A' for Active; 'I' for Inactive)
REMARK    1  A    between atoms: C2_2  and  N1_3 
REMARK    2  A    between atoms: N1_3  and  C3_5 
REMARK    3  A    between atoms: C7_13  and  C8_14 
REMARK    4  A    between atoms: C8_14  and  O1_15 
REMARK    5  A    between atoms: N4_18  and  C10_19 
REMARK    6  A    between atoms: C10_19  and  C11_20 
ROOT
HETATM    1  C3  UNL     1      32.645  16.974  56.379  1.00  0.00     0.116 A 
HETATM    2  N2  UNL     1      32.013  17.701  57.305  1.00  0.00    -0.338 N 
ATOM      3  H2  UNL     1      32.502  18.438  57.815  1.00  0.00     0.168 HD
HETATM    4  C4  UNL     1      30.721  17.439  57.550  1.00  0.00     0.183 A 
HETATM    5  N3  UNL     1      30.068  16.474  56.887  1.00  0.00    -0.338 N 
ATOM      6  H3  UNL     1      29.086  16.316  57.113  1.00  0.00     0.168 HD
HETATM    7  C5  UNL     1      30.640  15.697  55.935  1.00  0.00     0.123 A 
HETATM    8  C6  UNL     1      31.991  15.987  55.696  1.00  0.00     0.062 A 
HETATM    9  C7  UNL     1      32.426  15.119  54.718  1.00  0.00    -0.002 A 
HETATM   10  C9  UNL     1      31.339  14.339  54.400  1.00  0.00     0.103 A 
HETATM   11  N4  UNL     1      30.259  14.690  55.135  1.00  0.00    -0.341 N 
ENDROOT
BRANCH  11  12
HETATM   12  C10 UNL     1      28.932  14.117  55.092  1.00  0.00     0.134 C 
BRANCH  12  13
HETATM   13  C11 UNL     1      28.594  13.189  56.201  1.00  0.00     0.004 C 
HETATM   14  C12 UNL     1      28.976  11.768  55.905  1.00  0.00     0.006 C 
HETATM   15  C13 UNL     1      28.619  10.833  57.036  1.00  0.00     0.000 C 
HETATM   16  C14 UNL     1      27.158  10.577  57.162  1.00  0.00     0.000 C 
HETATM   17  C15 UNL     1      26.467  11.533  58.101  1.00  0.00     0.000 C 
HETATM   18  C16 UNL     1      26.625  12.965  57.730  1.00  0.00     0.000 C 
HETATM   19  C17 UNL     1      27.061  13.200  56.317  1.00  0.00     0.006 C 
ENDBRANCH  12  13
ENDBRANCH  11  12
BRANCH   9  20
HETATM   20  C8  UNL     1      33.809  15.059  54.139  1.00  0.00     0.205 C 
BRANCH  20  21
HETATM   21  O1  UNL     1      34.054  16.108  53.289  1.00  0.00    -0.396 OA
ATOM     22  H1  UNL     1      34.877  16.540  53.488  1.00  0.00     0.209 HD
ENDBRANCH  20  21
ENDBRANCH   9  20
BRANCH   1  23
HETATM   23  N1  UNL     1      33.893  17.180  56.099  1.00  0.00    -0.376 N 
ATOM     24  H1  UNL     1      34.522  16.380  56.031  1.00  0.00     0.161 HD
BRANCH  23  25
HETATM   25  C2  UNL     1      34.419  18.507  55.878  1.00  0.00     0.116 C 
HETATM   26  C1  UNL     1      35.885  18.612  56.198  1.00  0.00     0.026 C 
ENDBRANCH  23  25
ENDBRANCH   1  23
TORSDOF 6
ENDMDL
MODEL 2
REMARK VINA RESULT: -6.344401439      1.204      1.414
REMARK  6 active torsions:
REMARK  status: ('A' for Active; 'I' for Inactive)
REMARK    1  A    between atoms: C2_2  and  N1_3 
REMARK    2  A    between atoms: N1_3  and  C3_5 
REMARK    3  A    between atoms: C7_13  and  C8_14 
REMARK    4  A    between atoms: C8_14  and  O1_15 
REMARK    5  A    between atoms: N4_18  and  C10_19 
REMARK    6  A    between atoms: C10_19  and  C11_20 
ROOT
HETATM    1  C3  UNL     1      31.783  16.317  56.124  1.00  0.00     0.116 A 
HETATM    2  N2  UNL     1      30.877  16.960  56.867  1.00  0.00    -0.338 N 
ATOM      3  H2  UNL     1      31.119  17.822  57.356  1.00  0.00     0.168 HD
HETATM    4  C4  UNL     1      29.642  16.446  56.954  1.00  0.00     0.183 A 
HETATM    5  N3  UNL     1      29.312  15.314  56.316  1.00  0.00    -0.338 N 
ATOM      6  H3  UNL     1      28.359  14.966  56.417  1.00  0.00     0.168 HD
HETATM    7  C5  UNL     1      30.173  14.607  55.545  1.00  0.00     0.123 A 
HETATM    8  C6  UNL     1      31.459  15.162  55.468  1.00  0.00     0.062 A 
HETATM    9  C7  UNL     1      32.211  14.335  54.662  1.00  0.00    -0.002 A 
HETATM   10  C9  UNL     1      31.369  13.317  54.281  1.00  0.00     0.103 A 
HETATM   11  N4  UNL     1      30.137  13.482  54.815  1.00  0.00    -0.341 N 
ENDROOT
BRANCH  11  12
HETATM   12  C10 UNL     1      28.976  12.635  54.649  1.00  0.00     0.134 C 
BRANCH  12  13
HETATM   13  C11 UNL     1      28.613  11.802  55.822  1.00  0.00     0.004 C 
HETATM   14  C12 UNL     1      28.527  10.340  55.491  1.00  0.00     0.006 C 
HETATM   15  C13 UNL     1      28.148   9.505  56.691  1.00  0.00     0.000 C 
HETATM   16  C14 UNL     1      26.723   9.655  57.099  1.00  0.00     0.000 C 
HETATM   17  C15 UNL     1      26.512  10.735  58.130  1.00  0.00     0.000 C 
HETATM   18  C16 UNL     1      26.985  12.079  57.703  1.00  0.00     0.000 C 
HETATM   19  C17 UNL     1      27.193  12.229  56.227  1.00  0.00     0.006 C 
ENDBRANCH  12  13
ENDBRANCH  11  12
BRANCH   9  20
HETATM   20  C8  UNL     1      33.652  14.530  54.293  1.00  0.00     0.205 C 
BRANCH  20  21
HETATM   21  O1  UNL     1      33.802  15.437  53.274  1.00  0.00    -0.396 OA
ATOM     22  H1  UNL     1      34.532  16.025  53.428  1.00  0.00     0.209 HD
ENDBRANCH  20  21
ENDBRANCH   9  20
BRANCH   1  23
HETATM   23  N1  UNL     1      32.992  16.764  56.001  1.00  0.00    -0.376 N 
ATOM     24  H1  UNL     1      33.773  16.131  56.169  1.00  0.00     0.161 HD
BRANCH  23  25
HETATM   25  C2  UNL     1      33.267  18.134  55.631  1.00  0.00     0.116 C 
HETATM   26  C1  UNL     1      32.619  18.527  54.332  1.00  0.00     0.026 C 
ENDBRANCH  23  25
ENDBRANCH   1  23
TORSDOF 6
ENDMDL
MODEL 3
REMARK VINA RESULT: -6.224837361      1.796      2.791
REMARK  6 active torsions:
REMARK  status: ('A' for Active; 'I' for Inactive)
REMARK    1  A    between atoms: C2_2  and  N1_3 
REMARK    2  A    between atoms: N1_3  and  C3_5 
REMARK    3  A    between atoms: C7_13  and  C8_14 
REMARK    4  A    between atoms: C8_14  and  O1_15 
REMARK    5  A    between atoms: N4_18  and  C10_19 
REMARK    6  A    between atoms: C10_19  and  C11_20 
ROOT
HETATM    1  C3  UNL     1      32.735  15.812  55.501  1.00  0.00     0.116 A 
HETATM    2  N2  UNL     1      33.472  15.056  54.681  1.00  0.00    -0.338 N 
ATOM      3  H2  UNL     1      34.448  15.288  54.492  1.00  0.00     0.168 HD
HETATM    4  C4  UNL     1      32.899  13.986  54.112  1.00  0.00     0.183 A 
HETATM    5  N3  UNL     1      31.619  13.671  54.352  1.00  0.00    -0.338 N 
ATOM      6  H3  UNL     1      31.232  12.847  53.892  1.00  0.00     0.168 HD
HETATM    7  C5  UNL     1      30.809  14.386  55.171  1.00  0.00     0.123 A 
HETATM    8  C6  UNL     1      31.428  15.501  55.755  1.00  0.00     0.062 A 
HETATM    9  C7  UNL     1      30.486  16.121  56.546  1.00  0.00    -0.002 A 
HETATM   10  C9  UNL     1      29.339  15.372  56.418  1.00  0.00     0.103 A 
HETATM   11  N4  UNL     1      29.536  14.324  55.587  1.00  0.00    -0.341 N 
ENDROOT
BRANCH  11  12
HETATM   12  C10 UNL     1      28.583  13.306  55.202  1.00  0.00     0.134 C 
BRANCH  12  13
HETATM   13  C11 UNL     1      28.380  12.209  56.181  1.00  0.00     0.004 C 
HETATM   14  C12 UNL     1      28.529  10.848  55.565  1.00  0.00     0.006 C 
HETATM   15  C13 UNL     1      28.312   9.740  56.568  1.00  0.00     0.000 C 
HETATM   16  C14 UNL     1      26.889   9.571  56.975  1.00  0.00     0.000 C 
HETATM   17  C15 UNL     1      26.522  10.375  58.196  1.00  0.00     0.000 C 
HETATM   18  C16 UNL     1      26.761  11.836  58.052  1.00  0.00     0.000 C 
HETATM   19  C17 UNL     1      26.917  12.308  56.639  1.00  0.00     0.006 C 
ENDBRANCH  12  13
ENDBRANCH  11  12
BRANCH   9  20
HETATM   20  C8  UNL     1      30.696  17.359  57.368  1.00  0.00     0.205 C 
BRANCH  20  21
HETATM   21  O1  UNL     1      29.776  18.332  57.070  1.00  0.00    -0.396 OA
ATOM     22  H1  UNL     1      29.157  18.463  57.779  1.00  0.00     0.209 HD
ENDBRANCH  20  21
ENDBRANCH   9  20
BRANCH   1  23
HETATM   23  N1  UNL     1      33.233  16.857  56.080  1.00  0.00    -0.376 N 
ATOM     24  H1  UNL     1      33.270  16.887  57.099  1.00  0.00     0.161 HD
BRANCH  23  25
HETATM   25  C2  UNL     1      33.738  17.983  55.327  1.00  0.00     0.116 C 
HETATM   26  C1  UNL     1      32.699  18.590  54.424  1.00  0.00     0.026 C 
ENDBRANCH  23  25
ENDBRANCH   1  23
TORSDOF 6
ENDMDL
MODEL 4
REMARK VINA RESULT: -6.182874730      1.499      1.999
REMARK  6 active torsions:
REMARK  status: ('A' for Active; 'I' for Inactive)
REMARK    1  A    between atoms: C2_2  and  N1_3 
REMARK    2  A    between atoms: N1_3  and  C3_5 
REMARK    3  A    between atoms: C7_13  and  C8_14 
REMARK    4  A    between atoms: C8_14  and  O1_15 
REMARK    5  A    between atoms: N4_18  and  C10_19 
REMARK    6  A    between atoms: C10_19  and  C11_20 
ROOT
HETATM    1  C3  UNL     1      32.034  15.577  56.110  1.00  0.00     0.116 A 
HETATM    2  N2  UNL     1      31.704  16.533  56.984  1.00  0.00    -0.338 N 
ATOM      3  H2  UNL     1      32.423  17.084  57.451  1.00  0.00     0.168 HD
HETATM    4  C4  UNL     1      30.404  16.750  57.231  1.00  0.00     0.183 A 
HETATM    5  N3  UNL     1      29.449  16.032  56.624  1.00  0.00    -0.338 N 
ATOM      6  H3  UNL     1      28.476  16.237  56.849  1.00  0.00     0.168 HD
HETATM    7  C5  UNL     1      29.705  15.049  55.726  1.00  0.00     0.123 A 
HETATM    8  C6  UNL     1      31.069  14.838  55.482  1.00  0.00     0.062 A 
HETATM    9  C7  UNL     1      31.165  13.816  54.563  1.00  0.00    -0.002 A 
HETATM   10  C9  UNL     1      29.871  13.443  54.283  1.00  0.00     0.103 A 
HETATM   11  N4  UNL     1      28.989  14.189  54.986  1.00  0.00    -0.341 N 
ENDROOT
BRANCH  11  12
HETATM   12  C10 UNL     1      27.545  14.110  54.966  1.00  0.00     0.134 C 
BRANCH  12  13
HETATM   13  C11 UNL     1      26.947  13.036  55.799  1.00  0.00     0.004 C 
HETATM   14  C12 UNL     1      27.016  13.338  57.268  1.00  0.00     0.006 C 
HETATM   15  C13 UNL     1      26.413  12.235  58.106  1.00  0.00     0.000 C 
HETATM   16  C14 UNL     1      27.246  11.002  58.161  1.00  0.00     0.000 C 
HETATM   17  C15 UNL     1      26.898  10.001  57.089  1.00  0.00     0.000 C 
HETATM   18  C16 UNL     1      27.007  10.536  55.705  1.00  0.00     0.000 C 
HETATM   19  C17 UNL     1      27.818  11.789  55.581  1.00  0.00     0.006 C 
ENDBRANCH  12  13
ENDBRANCH  11  12
BRANCH   9  20
HETATM   20  C8  UNL     1      32.434  13.246  54.001  1.00  0.00     0.205 C 
BRANCH  20  21
HETATM   21  O1  UNL     1      32.886  13.965  52.924  1.00  0.00    -0.396 OA
ATOM     22  H1  UNL     1      33.520  14.625  53.180  1.00  0.00     0.209 HD
ENDBRANCH  20  21
ENDBRANCH   9  20
BRANCH   1  23
HETATM   23  N1  UNL     1      33.272  15.321  55.828  1.00  0.00    -0.376 N 
ATOM     24  H1  UNL     1      33.617  14.368  55.942  1.00  0.00     0.161 HD
BRANCH  23  25
HETATM   25  C2  UNL     1      34.177  16.344  55.358  1.00  0.00     0.116 C 
HETATM   26  C1  UNL     1      33.690  17.019  54.104  1.00  0.00     0.026 C 
ENDBRANCH  23  25
ENDBRANCH   1  23
TORSDOF 6
ENDMDL
MODEL 5
REMARK VINA RESULT: -6.050341216      1.579      2.666
REMARK  6 active torsions:
REMARK  status: ('A' for Active; 'I' for Inactive)
REMARK    1  A    between atoms: C2_2  and  N1_3 
REMARK    2  A    between atoms: N1_3  and  C3_5 
REMARK    3  A    between atoms: C7_13  and  C8_14 
REMARK    4  A    between atoms: C8_14  and  O1_15 
REMARK    5  A    between atoms: N4_18  and  C10_19 
REMARK    6  A    between atoms: C10_19  and  C11_20 
ROOT
HETATM    1  C3  UNL     1      33.303  15.797  54.318  1.00  0.00     0.116 A 
HETATM    2  N2  UNL     1      33.965  15.076  53.408  1.00  0.00    -0.338 N 
ATOM      3  H2  UNL     1      34.854  15.402  53.029  1.00  0.00     0.168 HD
HETATM    4  C4  UNL     1      33.432  13.914  53.004  1.00  0.00     0.183 A 
HETATM    5  N3  UNL     1      32.265  13.475  53.495  1.00  0.00    -0.338 N 
ATOM      6  H3  UNL     1      31.904  12.584  53.153  1.00  0.00     0.168 HD
HETATM    7  C5  UNL     1      31.537  14.148  54.420  1.00  0.00     0.123 A 
HETATM    8  C6  UNL     1      32.112  15.360  54.827  1.00  0.00     0.062 A 
HETATM    9  C7  UNL     1      31.261  15.923  55.754  1.00  0.00    -0.002 A 
HETATM   10  C9  UNL     1      30.210  15.044  55.877  1.00  0.00     0.103 A 
HETATM   11  N4  UNL     1      30.378  13.971  55.071  1.00  0.00    -0.341 N 
ENDROOT
BRANCH  11  12
HETATM   12  C10 UNL     1      29.502  12.831  54.917  1.00  0.00     0.134 C 
BRANCH  12  13
HETATM   13  C11 UNL     1      28.886  12.318  56.167  1.00  0.00     0.004 C 
HETATM   14  C12 UNL     1      28.824  10.818  56.208  1.00  0.00     0.006 C 
HETATM   15  C13 UNL     1      28.188  10.308  57.480  1.00  0.00     0.000 C 
HETATM   16  C14 UNL     1      26.716  10.525  57.541  1.00  0.00     0.000 C 
HETATM   17  C15 UNL     1      26.335  11.827  58.199  1.00  0.00     0.000 C 
HETATM   18  C16 UNL     1      26.923  13.028  57.547  1.00  0.00     0.000 C 
HETATM   19  C17 UNL     1      27.427  12.801  56.156  1.00  0.00     0.006 C 
ENDBRANCH  12  13
ENDBRANCH  11  12
BRANCH   9  20
HETATM   20  C8  UNL     1      31.464  17.227  56.466  1.00  0.00     0.205 C 
BRANCH  20  21
HETATM   21  O1  UNL     1      31.231  18.301  55.645  1.00  0.00    -0.396 OA
ATOM     22  H1  UNL     1      30.334  18.608  55.709  1.00  0.00     0.209 HD
ENDBRANCH  20  21
ENDBRANCH   9  20
BRANCH   1  23
HETATM   23  N1  UNL     1      33.767  16.928  54.747  1.00  0.00    -0.376 N 
ATOM     24  H1  UNL     1      33.291  17.790  54.481  1.00  0.00     0.161 HD
BRANCH  23  25
HETATM   25  C2  UNL     1      34.937  17.004  55.592  1.00  0.00     0.116 C 
HETATM   26  C1  UNL     1      35.187  18.393  56.113  1.00  0.00     0.026 C 
ENDBRANCH  23  25
ENDBRANCH   1  23
TORSDOF 6
ENDMDL
