MODEL 1
REMARK VINA RESULT: -6.202495978      0.000      0.000
REMARK  12 active torsions:
REMARK  status: ('A' for Active; 'I' for Inactive)
REMARK    1  A    between atoms: C2_2  and  O2_4 
REMARK    2  A    between atoms: O2_4  and  C3_5 
REMARK    3  A    between atoms: C14_16  and  C16_18 
REMARK    4  A    between atoms: C16_18  and  C17_19 
REMARK    5  A    between atoms: C17_19  and  C18_20 
REMARK    6  A    between atoms: C18_20  and  C19_21 
REMARK    7  A    between atoms: C18_20  and  C24_28 
REMARK    8  A    between atoms: C19_21  and  C20_22 
REMARK    9  A    between atoms: C21_23  and  C23_25 
REMARK   10  A    between atoms: C23_25  and  O3_26 
REMARK   11  A    between atoms: C25_30  and  C26_31 
REMARK   12  A    between atoms: C26_31  and  O5_34 
ROOT
HETATM    1  C3  UNL     1      19.456   0.591  11.468  1.00  0.00     0.144 C 
HETATM    2  C4  UNL     1      19.043  -0.532  10.601  1.00  0.00     0.035 C 
HETATM    3  C5  UNL     1      17.689  -0.215  10.079  1.00  0.00     0.016 C 
HETATM    4  C6  UNL     1      16.707  -0.432  11.259  1.00  0.00    -0.019 C 
HETATM    5  C7  UNL     1      15.559   0.451  10.856  1.00  0.00     0.020 C 
HETATM    6  C8  UNL     1      16.359  -1.892  11.089  1.00  0.00     0.023 C 
HETATM    7  C9  UNL     1      15.350  -2.515  11.932  1.00  0.00     0.023 C 
HETATM    8  C10 UNL     1      14.700  -1.738  12.952  1.00  0.00    -0.075 C 
HETATM    9  C11 UNL     1      15.134  -0.712  13.686  1.00  0.00     0.003 C 
HETATM   10  C12 UNL     1      16.420  -0.039  13.698  1.00  0.00     0.005 C 
HETATM   11  C13 UNL     1      17.353  -0.105  12.583  1.00  0.00    -0.061 C 
HETATM   12  C14 UNL     1      18.367   0.980  12.540  1.00  0.00     0.007 C 
HETATM   13  C15 UNL     1      17.895   2.336  12.137  1.00  0.00     0.023 C 
HETATM   14  C29 UNL     1      13.330  -2.034  13.410  1.00  0.00     0.034 C 
HETATM   15  C30 UNL     1      12.579  -3.100  12.717  1.00  0.00     0.005 C 
HETATM   16  C31 UNL     1      13.435  -4.085  11.970  1.00  0.00     0.010 C 
HETATM   17  C32 UNL     1      14.329  -3.206  11.076  1.00  0.00    -0.040 C 
HETATM   18  C33 UNL     1      14.976  -4.161  10.085  1.00  0.00     0.015 C 
HETATM   19  C34 UNL     1      13.406  -2.286  10.327  1.00  0.00     0.015 C 
ENDROOT
BRANCH  12  20
HETATM   20  C16 UNL     1      19.219   1.092  13.780  1.00  0.00     0.017 C 
BRANCH  20  21
HETATM   21  C17 UNL     1      20.517   0.464  13.905  1.00  0.00     0.009 C 
BRANCH  21  22
HETATM   22  C18 UNL     1      20.588  -0.723  14.905  1.00  0.00     0.021 C 
BRANCH  22  23
HETATM   23  C19 UNL     1      19.486  -0.330  15.947  1.00  0.00     0.034 C 
BRANCH  23  24
HETATM   24  C20 UNL     1      20.051  -0.365  17.302  1.00  0.00    -0.022 C 
HETATM   25  C21 UNL     1      20.341   0.767  17.914  1.00  0.00    -0.064 C 
HETATM   26  C22 UNL     1      20.099   2.056  17.245  1.00  0.00     0.045 C 
BRANCH  25  27
HETATM   27  C23 UNL     1      20.910   0.733  19.276  1.00  0.00     0.197 C 
BRANCH  27  28
HETATM   28  O3  UNL     1      22.020   1.533  19.445  1.00  0.00    -0.397 OA
ATOM     29  H3  UNL     1      22.565   1.294  20.186  1.00  0.00     0.209 HD
ENDBRANCH  27  28
ENDBRANCH  25  27
ENDBRANCH  23  24
ENDBRANCH  22  23
BRANCH  22  30
HETATM   30  C24 UNL     1      20.095  -1.994  14.347  1.00  0.00     0.158 A 
HETATM   31  O4  UNL     1      21.014  -3.130  14.515  1.00  0.00    -0.372 OA
HETATM   32  C25 UNL     1      19.653  -3.170  15.016  1.00  0.00     0.184 A 
BRANCH  32  33
HETATM   33  C26 UNL     1      18.759  -4.125  14.259  1.00  0.00     0.079 C 
HETATM   34  C27 UNL     1      17.318  -3.898  14.700  1.00  0.00     0.048 C 
HETATM   35  C28 UNL     1      18.794  -3.903  12.767  1.00  0.00     0.048 C 
BRANCH  33  36
HETATM   36  O5  UNL     1      19.128  -5.460  14.486  1.00  0.00    -0.388 OA
ATOM     37  H5  UNL     1      19.116  -5.964  13.680  1.00  0.00     0.210 HD
ENDBRANCH  33  36
ENDBRANCH  32  33
ENDBRANCH  22  30
ENDBRANCH  21  22
ENDBRANCH  20  21
ENDBRANCH  12  20
BRANCH   1  38
HETATM   38  O2  UNL     1      19.739   1.700  10.644  1.00  0.00    -0.315 OA
BRANCH  38  39
HETATM   39  C2  UNL     1      20.964   1.815  10.050  1.00  0.00     0.255 C 
HETATM   40  C1  UNL     1      22.239   1.941  10.801  1.00  0.00     0.126 C 
HETATM   41  O1  UNL     1      21.076   1.818   8.779  1.00  0.00    -0.266 OA
ENDBRANCH  38  39
ENDBRANCH   1  38
TORSDOF 12
ENDMDL
MODEL 2
REMARK VINA RESULT: -6.133224646      2.999      6.141
REMARK  12 active torsions:
REMARK  status: ('A' for Active; 'I' for Inactive)
REMARK    1  A    between atoms: C2_2  and  O2_4 
REMARK    2  A    between atoms: O2_4  and  C3_5 
REMARK    3  A    between atoms: C14_16  and  C16_18 
REMARK    4  A    between atoms: C16_18  and  C17_19 
REMARK    5  A    between atoms: C17_19  and  C18_20 
REMARK    6  A    between atoms: C18_20  and  C19_21 
REMARK    7  A    between atoms: C18_20  and  C24_28 
REMARK    8  A    between atoms: C19_21  and  C20_22 
REMARK    9  A    between atoms: C21_23  and  C23_25 
REMARK   10  A    between atoms: C23_25  and  O3_26 
REMARK   11  A    between atoms: C25_30  and  C26_31 
REMARK   12  A    between atoms: C26_31  and  O5_34 
ROOT
HETATM    1  C3  UNL     1      19.469  -0.417  10.613  1.00  0.00     0.144 C 
HETATM    2  C4  UNL     1      18.214  -0.630   9.863  1.00  0.00     0.035 C 
HETATM    3  C5  UNL     1      18.316   0.140   8.597  1.00  0.00     0.016 C 
HETATM    4  C6  UNL     1      18.133   1.631   8.981  1.00  0.00    -0.019 C 
HETATM    5  C7  UNL     1      18.831   2.319   7.841  1.00  0.00     0.020 C 
HETATM    6  C8  UNL     1      16.634   1.782   8.875  1.00  0.00     0.023 C 
HETATM    7  C9  UNL     1      16.007   3.084   9.041  1.00  0.00     0.023 C 
HETATM    8  C10 UNL     1      16.824   4.231   9.336  1.00  0.00    -0.075 C 
HETATM    9  C11 UNL     1      17.970   4.345  10.008  1.00  0.00     0.003 C 
HETATM   10  C12 UNL     1      18.777   3.338  10.672  1.00  0.00     0.005 C 
HETATM   11  C13 UNL     1      18.683   1.920  10.357  1.00  0.00    -0.061 C 
HETATM   12  C14 UNL     1      19.860   1.104  10.750  1.00  0.00     0.007 C 
HETATM   13  C15 UNL     1      21.099   1.260   9.935  1.00  0.00     0.023 C 
HETATM   14  C29 UNL     1      16.434   5.595   8.932  1.00  0.00     0.034 C 
HETATM   15  C30 UNL     1      15.219   5.758   8.111  1.00  0.00     0.005 C 
HETATM   16  C31 UNL     1      14.253   4.609   8.186  1.00  0.00     0.010 C 
HETATM   17  C32 UNL     1      15.113   3.371   7.871  1.00  0.00    -0.040 C 
HETATM   18  C33 UNL     1      14.124   2.241   7.626  1.00  0.00     0.015 C 
HETATM   19  C34 UNL     1      15.831   3.671   6.585  1.00  0.00     0.015 C 
ENDROOT
BRANCH  12  20
HETATM   20  C16 UNL     1      20.211   1.174  12.216  1.00  0.00     0.017 C 
BRANCH  20  21
HETATM   21  C17 UNL     1      19.338   0.681  13.260  1.00  0.00     0.009 C 
BRANCH  21  22
HETATM   22  C18 UNL     1      18.611   1.775  14.090  1.00  0.00     0.021 C 
BRANCH  22  23
HETATM   23  C19 UNL     1      17.235   1.089  14.391  1.00  0.00     0.034 C 
BRANCH  23  24
HETATM   24  C20 UNL     1      16.381   1.148  13.199  1.00  0.00    -0.022 C 
HETATM   25  C21 UNL     1      15.829   0.041  12.740  1.00  0.00    -0.064 C 
HETATM   26  C22 UNL     1      16.069  -1.244  13.417  1.00  0.00     0.045 C 
BRANCH  25  27
HETATM   27  C23 UNL     1      14.970   0.099  11.540  1.00  0.00     0.197 C 
BRANCH  27  28
HETATM   28  O3  UNL     1      13.671  -0.311  11.755  1.00  0.00    -0.397 OA
ATOM     29  H3  UNL     1      13.592  -1.096  12.283  1.00  0.00     0.209 HD
ENDBRANCH  27  28
ENDBRANCH  25  27
ENDBRANCH  23  24
ENDBRANCH  22  23
BRANCH  22  30
HETATM   30  C24 UNL     1      19.192   1.983  15.428  1.00  0.00     0.158 A 
HETATM   31  O4  UNL     1      18.685   3.171  16.134  1.00  0.00    -0.372 OA
HETATM   32  C25 UNL     1      18.590   1.843  16.711  1.00  0.00     0.184 A 
BRANCH  32  33
HETATM   33  C26 UNL     1      19.499   1.636  17.902  1.00  0.00     0.079 C 
HETATM   34  C27 UNL     1      19.384   0.187  18.358  1.00  0.00     0.048 C 
HETATM   35  C28 UNL     1      20.953   1.874  17.578  1.00  0.00     0.048 C 
BRANCH  33  36
HETATM   36  O5  UNL     1      19.164   2.501  18.956  1.00  0.00    -0.388 OA
ATOM     37  H5  UNL     1      19.479   3.382  18.794  1.00  0.00     0.210 HD
ENDBRANCH  33  36
ENDBRANCH  32  33
ENDBRANCH  22  30
ENDBRANCH  21  22
ENDBRANCH  20  21
ENDBRANCH  12  20
BRANCH   1  38
HETATM   38  O2  UNL     1      20.498  -1.122   9.952  1.00  0.00    -0.315 OA
BRANCH  38  39
HETATM   39  C2  UNL     1      21.083  -2.200  10.554  1.00  0.00     0.255 C 
HETATM   40  C1  UNL     1      20.733  -2.678  11.916  1.00  0.00     0.126 C 
HETATM   41  O1  UNL     1      21.988  -2.872   9.955  1.00  0.00    -0.266 OA
ENDBRANCH  38  39
ENDBRANCH   1  38
TORSDOF 12
ENDMDL
MODEL 3
REMARK VINA RESULT: -6.011327833      1.852      4.176
REMARK  12 active torsions:
REMARK  status: ('A' for Active; 'I' for Inactive)
REMARK    1  A    between atoms: C2_2  and  O2_4 
REMARK    2  A    between atoms: O2_4  and  C3_5 
REMARK    3  A    between atoms: C14_16  and  C16_18 
REMARK    4  A    between atoms: C16_18  and  C17_19 
REMARK    5  A    between atoms: C17_19  and  C18_20 
REMARK    6  A    between atoms: C18_20  and  C19_21 
REMARK    7  A    between atoms: C18_20  and  C24_28 
REMARK    8  A    between atoms: C19_21  and  C20_22 
REMARK    9  A    between atoms: C21_23  and  C23_25 
REMARK   10  A    between atoms: C23_25  and  O3_26 
REMARK   11  A    between atoms: C25_30  and  C26_31 
REMARK   12  A    between atoms: C26_31  and  O5_34 
ROOT
HETATM    1  C3  UNL     1      17.648   0.730  10.575  1.00  0.00     0.144 C 
HETATM    2  C4  UNL     1      18.131  -0.657  10.413  1.00  0.00     0.035 C 
HETATM    3  C5  UNL     1      17.071  -1.416   9.701  1.00  0.00     0.016 C 
HETATM    4  C6  UNL     1      15.942  -1.659  10.735  1.00  0.00    -0.019 C 
HETATM    5  C7  UNL     1      14.752  -1.847   9.837  1.00  0.00     0.020 C 
HETATM    6  C8  UNL     1      16.379  -2.970  11.346  1.00  0.00     0.023 C 
HETATM    7  C9  UNL     1      15.533  -3.655  12.311  1.00  0.00     0.023 C 
HETATM    8  C10 UNL     1      14.283  -3.061  12.705  1.00  0.00    -0.075 C 
HETATM    9  C11 UNL     1      13.910  -1.786  12.808  1.00  0.00     0.003 C 
HETATM   10  C12 UNL     1      14.650  -0.563  12.557  1.00  0.00     0.005 C 
HETATM   11  C13 UNL     1      15.844  -0.524  11.725  1.00  0.00    -0.061 C 
HETATM   12  C14 UNL     1      16.197   0.815  11.186  1.00  0.00     0.007 C 
HETATM   13  C15 UNL     1      15.345   1.352  10.086  1.00  0.00     0.023 C 
HETATM   14  C29 UNL     1      13.134  -3.875  13.144  1.00  0.00     0.034 C 
HETATM   15  C30 UNL     1      13.252  -5.344  13.073  1.00  0.00     0.005 C 
HETATM   16  C31 UNL     1      14.664  -5.858  13.036  1.00  0.00     0.010 C 
HETATM   17  C32 UNL     1      15.320  -5.077  11.882  1.00  0.00    -0.040 C 
HETATM   18  C33 UNL     1      16.637  -5.787  11.608  1.00  0.00     0.015 C 
HETATM   19  C34 UNL     1      14.422  -5.249  10.690  1.00  0.00     0.015 C 
ENDROOT
BRANCH  12  20
HETATM   20  C16 UNL     1      16.395   1.882  12.235  1.00  0.00     0.017 C 
BRANCH  20  21
HETATM   21  C17 UNL     1      17.621   2.028  12.990  1.00  0.00     0.009 C 
BRANCH  21  22
HETATM   22  C18 UNL     1      17.688   1.216  14.313  1.00  0.00     0.021 C 
BRANCH  22  23
HETATM   23  C19 UNL     1      18.613   0.018  13.907  1.00  0.00     0.034 C 
BRANCH  23  24
HETATM   24  C20 UNL     1      17.998  -1.247  14.328  1.00  0.00    -0.022 C 
HETATM   25  C21 UNL     1      18.715  -2.354  14.314  1.00  0.00    -0.064 C 
HETATM   26  C22 UNL     1      20.121  -2.322  13.881  1.00  0.00     0.045 C 
BRANCH  25  27
HETATM   27  C23 UNL     1      18.097  -3.627  14.736  1.00  0.00     0.197 C 
BRANCH  27  28
HETATM   28  O3  UNL     1      17.949  -3.759  16.101  1.00  0.00    -0.397 OA
ATOM     29  H3  UNL     1      17.069  -3.987  16.378  1.00  0.00     0.209 HD
ENDBRANCH  27  28
ENDBRANCH  25  27
ENDBRANCH  23  24
ENDBRANCH  22  23
BRANCH  22  30
HETATM   30  C24 UNL     1      18.448   1.890  15.380  1.00  0.00     0.158 A 
HETATM   31  O4  UNL     1      17.617   2.612  16.357  1.00  0.00    -0.372 OA
HETATM   32  C25 UNL     1      18.545   1.574  16.764  1.00  0.00     0.184 A 
BRANCH  32  33
HETATM   33  C26 UNL     1      19.739   2.100  17.530  1.00  0.00     0.079 C 
HETATM   34  C27 UNL     1      20.697   0.945  17.792  1.00  0.00     0.048 C 
HETATM   35  C28 UNL     1      20.515   3.141  16.763  1.00  0.00     0.048 C 
BRANCH  33  36
HETATM   36  O5  UNL     1      19.348   2.687  18.744  1.00  0.00    -0.388 OA
ATOM     37  H5  UNL     1      19.328   2.047  19.446  1.00  0.00     0.210 HD
ENDBRANCH  33  36
ENDBRANCH  32  33
ENDBRANCH  22  30
ENDBRANCH  21  22
ENDBRANCH  20  21
ENDBRANCH  12  20
BRANCH   1  38
HETATM   38  O2  UNL     1      17.676   1.354   9.310  1.00  0.00    -0.315 OA
BRANCH  38  39
HETATM   39  C2  UNL     1      18.457   2.457   9.108  1.00  0.00     0.255 C 
HETATM   40  C1  UNL     1      18.245   3.757   9.793  1.00  0.00     0.126 C 
HETATM   41  O1  UNL     1      19.441   2.421   8.296  1.00  0.00    -0.266 OA
ENDBRANCH  38  39
ENDBRANCH   1  38
TORSDOF 12
ENDMDL
MODEL 4
REMARK VINA RESULT: -5.949583578      7.294     13.300
REMARK  12 active torsions:
REMARK  status: ('A' for Active; 'I' for Inactive)
REMARK    1  A    between atoms: C2_2  and  O2_4 
REMARK    2  A    between atoms: O2_4  and  C3_5 
REMARK    3  A    between atoms: C14_16  and  C16_18 
REMARK    4  A    between atoms: C16_18  and  C17_19 
REMARK    5  A    between atoms: C17_19  and  C18_20 
REMARK    6  A    between atoms: C18_20  and  C19_21 
REMARK    7  A    between atoms: C18_20  and  C24_28 
REMARK    8  A    between atoms: C19_21  and  C20_22 
REMARK    9  A    between atoms: C21_23  and  C23_25 
REMARK   10  A    between atoms: C23_25  and  O3_26 
REMARK   11  A    between atoms: C25_30  and  C26_31 
REMARK   12  A    between atoms: C26_31  and  O5_34 
ROOT
HETATM    1  C3  UNL     1      23.268  -3.568  24.399  1.00  0.00     0.144 C 
HETATM    2  C4  UNL     1      23.586  -3.152  25.781  1.00  0.00     0.035 C 
HETATM    3  C5  UNL     1      22.877  -4.080  26.699  1.00  0.00     0.016 C 
HETATM    4  C6  UNL     1      21.380  -3.680  26.651  1.00  0.00    -0.019 C 
HETATM    5  C7  UNL     1      20.716  -4.962  27.069  1.00  0.00     0.020 C 
HETATM    6  C8  UNL     1      21.316  -2.647  27.751  1.00  0.00     0.023 C 
HETATM    7  C9  UNL     1      20.042  -2.067  28.149  1.00  0.00     0.023 C 
HETATM    8  C10 UNL     1      18.840  -2.463  27.466  1.00  0.00    -0.075 C 
HETATM    9  C11 UNL     1      18.630  -2.852  26.208  1.00  0.00     0.003 C 
HETATM   10  C12 UNL     1      19.557  -3.002  25.101  1.00  0.00     0.005 C 
HETATM   11  C13 UNL     1      20.992  -3.152  25.291  1.00  0.00    -0.061 C 
HETATM   12  C14 UNL     1      21.723  -3.757  24.148  1.00  0.00     0.007 C 
HETATM   13  C15 UNL     1      21.543  -5.220  23.922  1.00  0.00     0.023 C 
HETATM   14  C29 UNL     1      17.521  -2.444  28.127  1.00  0.00     0.034 C 
HETATM   15  C30 UNL     1      17.466  -2.104  29.562  1.00  0.00     0.005 C 
HETATM   16  C31 UNL     1      18.660  -1.346  30.073  1.00  0.00     0.010 C 
HETATM   17  C32 UNL     1      19.864  -2.199  29.633  1.00  0.00    -0.040 C 
HETATM   18  C33 UNL     1      21.056  -1.642  30.395  1.00  0.00     0.015 C 
HETATM   19  C34 UNL     1      19.593  -3.596  30.115  1.00  0.00     0.015 C 
ENDROOT
BRANCH  12  20
HETATM   20  C16 UNL     1      21.559  -3.022  22.839  1.00  0.00     0.017 C 
BRANCH  20  21
HETATM   21  C17 UNL     1      22.514  -2.048  22.356  1.00  0.00     0.009 C 
BRANCH  21  22
HETATM   22  C18 UNL     1      22.676  -1.985  20.812  1.00  0.00     0.021 C 
BRANCH  22  23
HETATM   23  C19 UNL     1      22.356  -3.462  20.395  1.00  0.00     0.034 C 
BRANCH  23  24
HETATM   24  C20 UNL     1      21.746  -3.478  19.060  1.00  0.00    -0.022 C 
HETATM   25  C21 UNL     1      20.599  -4.103  18.878  1.00  0.00    -0.064 C 
HETATM   26  C22 UNL     1      19.935  -4.779  20.005  1.00  0.00     0.045 C 
BRANCH  25  27
HETATM   27  C23 UNL     1      19.984  -4.121  17.535  1.00  0.00     0.197 C 
BRANCH  27  28
HETATM   28  O3  UNL     1      18.799  -3.422  17.447  1.00  0.00    -0.397 OA
ATOM     29  H3  UNL     1      18.192  -3.764  16.801  1.00  0.00     0.209 HD
ENDBRANCH  27  28
ENDBRANCH  25  27
ENDBRANCH  23  24
ENDBRANCH  22  23
BRANCH  22  30
HETATM   30  C24 UNL     1      21.622  -1.204  20.141  1.00  0.00     0.158 A 
HETATM   31  O4  UNL     1      21.704   0.248  20.367  1.00  0.00    -0.372 OA
HETATM   32  C25 UNL     1      21.716  -0.317  19.031  1.00  0.00     0.184 A 
BRANCH  32  33
HETATM   33  C26 UNL     1      20.458  -0.031  18.243  1.00  0.00     0.079 C 
HETATM   34  C27 UNL     1      20.164   1.462  18.317  1.00  0.00     0.048 C 
HETATM   35  C28 UNL     1      20.592  -0.373  16.780  1.00  0.00     0.048 C 
BRANCH  33  36
HETATM   36  O5  UNL     1      19.367  -0.762  18.740  1.00  0.00    -0.388 OA
ATOM     37  H5  UNL     1      18.969  -0.326  19.484  1.00  0.00     0.210 HD
ENDBRANCH  33  36
ENDBRANCH  32  33
ENDBRANCH  22  30
ENDBRANCH  21  22
ENDBRANCH  20  21
ENDBRANCH  12  20
BRANCH   1  38
HETATM   38  O2  UNL     1      23.949  -4.776  24.138  1.00  0.00    -0.315 OA
BRANCH  38  39
HETATM   39  C2  UNL     1      25.167  -4.753  23.518  1.00  0.00     0.255 C 
HETATM   40  C1  UNL     1      25.348  -4.556  22.058  1.00  0.00     0.126 C 
HETATM   41  O1  UNL     1      26.243  -4.904  24.187  1.00  0.00    -0.266 OA
ENDBRANCH  38  39
ENDBRANCH   1  38
TORSDOF 12
ENDMDL
MODEL 5
REMARK VINA RESULT: -5.877715604      1.235      3.626
REMARK  12 active torsions:
REMARK  status: ('A' for Active; 'I' for Inactive)
REMARK    1  A    between atoms: C2_2  and  O2_4 
REMARK    2  A    between atoms: O2_4  and  C3_5 
REMARK    3  A    between atoms: C14_16  and  C16_18 
REMARK    4  A    between atoms: C16_18  and  C17_19 
REMARK    5  A    between atoms: C17_19  and  C18_20 
REMARK    6  A    between atoms: C18_20  and  C19_21 
REMARK    7  A    between atoms: C18_20  and  C24_28 
REMARK    8  A    between atoms: C19_21  and  C20_22 
REMARK    9  A    between atoms: C21_23  and  C23_25 
REMARK   10  A    between atoms: C23_25  and  O3_26 
REMARK   11  A    between atoms: C25_30  and  C26_31 
REMARK   12  A    between atoms: C26_31  and  O5_34 
ROOT
HETATM    1  C3  UNL     1      19.514   1.014  12.253  1.00  0.00     0.144 C 
HETATM    2  C4  UNL     1      19.513  -0.313  11.604  1.00  0.00     0.035 C 
HETATM    3  C5  UNL     1      18.297  -0.392  10.755  1.00  0.00     0.016 C 
HETATM    4  C6  UNL     1      17.102  -0.582  11.724  1.00  0.00    -0.019 C 
HETATM    5  C7  UNL     1      15.964  -0.052  10.899  1.00  0.00     0.020 C 
HETATM    6  C8  UNL     1      17.046  -2.088  11.830  1.00  0.00     0.023 C 
HETATM    7  C9  UNL     1      15.972  -2.738  12.567  1.00  0.00     0.023 C 
HETATM    8  C10 UNL     1      14.975  -1.935  13.222  1.00  0.00    -0.075 C 
HETATM    9  C11 UNL     1      15.045  -0.722  13.771  1.00  0.00     0.003 C 
HETATM   10  C12 UNL     1      16.163   0.196  13.892  1.00  0.00     0.005 C 
HETATM   11  C13 UNL     1      17.341   0.117  13.040  1.00  0.00    -0.061 C 
HETATM   12  C14 UNL     1      18.147   1.362  12.956  1.00  0.00     0.007 C 
HETATM   13  C15 UNL     1      17.579   2.488  12.161  1.00  0.00     0.023 C 
HETATM   14  C29 UNL     1      13.600  -2.420  13.443  1.00  0.00     0.034 C 
HETATM   15  C30 UNL     1      13.224  -3.730  12.877  1.00  0.00     0.005 C 
HETATM   16  C31 UNL     1      14.383  -4.637  12.572  1.00  0.00     0.010 C 
HETATM   17  C32 UNL     1      15.318  -3.776  11.704  1.00  0.00    -0.040 C 
HETATM   18  C33 UNL     1      16.334  -4.744  11.117  1.00  0.00     0.015 C 
HETATM   19  C34 UNL     1      14.474  -3.229  10.587  1.00  0.00     0.015 C 
ENDROOT
BRANCH  12  20
HETATM   20  C16 UNL     1      18.638   1.882  14.285  1.00  0.00     0.017 C 
BRANCH  20  21
HETATM   21  C17 UNL     1      19.779   1.325  14.978  1.00  0.00     0.009 C 
BRANCH  21  22
HETATM   22  C18 UNL     1      19.455   0.187  15.985  1.00  0.00     0.021 C 
BRANCH  22  23
HETATM   23  C19 UNL     1      19.943  -1.081  15.204  1.00  0.00     0.034 C 
BRANCH  23  24
HETATM   24  C20 UNL     1      18.975  -2.171  15.376  1.00  0.00    -0.022 C 
HETATM   25  C21 UNL     1      19.085  -3.260  14.641  1.00  0.00    -0.064 C 
HETATM   26  C22 UNL     1      20.170  -3.382  13.653  1.00  0.00     0.045 C 
BRANCH  25  27
HETATM   27  C23 UNL     1      18.111  -4.357  14.812  1.00  0.00     0.197 C 
BRANCH  27  28
HETATM   28  O3  UNL     1      17.061  -4.055  15.653  1.00  0.00    -0.397 OA
ATOM     29  H3  UNL     1      17.027  -3.145  15.924  1.00  0.00     0.209 HD
ENDBRANCH  27  28
ENDBRANCH  25  27
ENDBRANCH  23  24
ENDBRANCH  22  23
BRANCH  22  30
HETATM   30  C24 UNL     1      20.310   0.200  17.184  1.00  0.00     0.158 A 
HETATM   31  O4  UNL     1      19.686   0.807  18.371  1.00  0.00    -0.372 OA
HETATM   32  C25 UNL     1      20.198  -0.550  18.389  1.00  0.00     0.184 A 
BRANCH  32  33
HETATM   33  C26 UNL     1      21.436  -0.716  19.240  1.00  0.00     0.079 C 
HETATM   34  C27 UNL     1      21.350  -2.049  19.972  1.00  0.00     0.048 C 
HETATM   35  C28 UNL     1      22.706  -0.750  18.427  1.00  0.00     0.048 C 
BRANCH  33  36
HETATM   36  O5  UNL     1      21.566   0.333  20.165  1.00  0.00    -0.388 OA
ATOM     37  H5  UNL     1      21.521   1.179  19.735  1.00  0.00     0.210 HD
ENDBRANCH  33  36
ENDBRANCH  32  33
ENDBRANCH  22  30
ENDBRANCH  21  22
ENDBRANCH  20  21
ENDBRANCH  12  20
BRANCH   1  38
HETATM   38  O2  UNL     1      19.811   1.982  11.270  1.00  0.00    -0.315 OA
BRANCH  38  39
HETATM   39  C2  UNL     1      20.983   1.909  10.571  1.00  0.00     0.255 C 
HETATM   40  C1  UNL     1      22.322   1.823  11.208  1.00  0.00     0.126 C 
HETATM   41  O1  UNL     1      20.983   1.910   9.295  1.00  0.00    -0.266 OA
ENDBRANCH  38  39
ENDBRANCH   1  38
TORSDOF 12
ENDMDL
