MODEL 1
REMARK VINA RESULT: -5.066813812      0.000      0.000
REMARK  3 active torsions:
REMARK  status: ('A' for Active; 'I' for Inactive)
REMARK    1  A    between atoms: C2_2  and  O1_3 
REMARK    2  A    between atoms: C2_2  and  C3_5 
REMARK    3  A    between atoms: C3_5  and  N1_6 
REMARK       I    between atoms: N5_14  and  C7_15 
ROOT
HETATM    1  N1  UNL     1       0.298  14.763  29.090  1.00  0.00    -0.334 N 
HETATM    2  C4  UNL     1       1.627  15.045  28.662  1.00  0.00     0.192 C 
HETATM    3  N2  UNL     1       1.990  16.296  28.080  1.00  0.00    -0.063 NA
HETATM    4  N3  UNL     1       2.490  14.106  28.829  1.00  0.00    -0.331 N 
ATOM      5  H3  UNL     1       3.444  14.300  28.526  1.00  0.00     0.168 HD
HETATM    6  C5  UNL     1       2.245  12.828  29.395  1.00  0.00     0.157 C 
HETATM    7  N4  UNL     1       0.946  12.612  29.948  1.00  0.00    -0.239 NA
HETATM    8  C6  UNL     1       0.579  11.218  29.673  1.00  0.00     0.226 C 
HETATM    9  N5  UNL     1      -0.507  11.252  28.741  1.00  0.00    -0.340 N 
HETATM   10  C7  UNL     1      -1.393  10.189  28.446  1.00  0.00     0.185 C 
HETATM   11  N6  UNL     1      -2.010   9.507  29.369  1.00  0.00    -0.374 N 
ATOM     12  H61 UNL     1      -2.649   8.741  29.157  1.00  0.00     0.158 HD
ATOM     13  H62 UNL     1      -1.833   9.766  30.340  1.00  0.00     0.158 HD
HETATM   14  N7  UNL     1      -1.639   9.829  27.099  1.00  0.00    -0.064 NA
HETATM   15  C8  UNL     1      -0.495  12.609  28.174  1.00  0.00     0.168 C 
HETATM   16  C9  UNL     1      -0.091  13.432  29.382  1.00  0.00     0.187 C 
ENDROOT
BRANCH   1  17
HETATM   17  C3  UNL     1      -0.615  15.876  29.214  1.00  0.00     0.158 C 
BRANCH  17  18
HETATM   18  C2  UNL     1      -2.049  15.504  29.366  1.00  0.00     0.132 C 
HETATM   19  C1  UNL     1      -2.715  16.646  30.151  1.00  0.00     0.041 C 
BRANCH  18  20
HETATM   20  O1  UNL     1      -2.745  15.402  28.173  1.00  0.00    -0.394 OA
ATOM     21  H1  UNL     1      -2.374  16.058  27.595  1.00  0.00     0.210 HD
ENDBRANCH  18  20
ENDBRANCH  17  18
ENDBRANCH   1  17
TORSDOF 3
ENDMDL
MODEL 2
REMARK VINA RESULT: -4.919219383      2.501      5.222
REMARK  3 active torsions:
REMARK  status: ('A' for Active; 'I' for Inactive)
REMARK    1  A    between atoms: C2_2  and  O1_3 
REMARK    2  A    between atoms: C2_2  and  C3_5 
REMARK    3  A    between atoms: C3_5  and  N1_6 
REMARK       I    between atoms: N5_14  and  C7_15 
ROOT
HETATM    1  N1  UNL     1      -0.078  12.736  29.773  1.00  0.00    -0.334 N 
HETATM    2  C4  UNL     1      -0.239  12.414  28.395  1.00  0.00     0.192 C 
HETATM    3  N2  UNL     1      -0.693  11.133  27.961  1.00  0.00    -0.063 NA
HETATM    4  N3  UNL     1       0.047  13.345  27.555  1.00  0.00    -0.331 N 
ATOM      5  H3  UNL     1      -0.066  13.123  26.566  1.00  0.00     0.168 HD
HETATM    6  C5  UNL     1       0.505  14.651  27.869  1.00  0.00     0.157 C 
HETATM    7  N4  UNL     1       0.526  15.006  29.253  1.00  0.00    -0.239 NA
HETATM    8  C6  UNL     1       1.703  15.855  29.470  1.00  0.00     0.226 C 
HETATM    9  N5  UNL     1       2.608  15.107  30.289  1.00  0.00    -0.340 N 
HETATM   10  C7  UNL     1       3.702  15.627  31.019  1.00  0.00     0.185 C 
HETATM   11  N6  UNL     1       3.598  16.655  31.812  1.00  0.00    -0.374 N 
ATOM     12  H61 UNL     1       4.387  17.030  32.339  1.00  0.00     0.158 HD
ATOM     13  H62 UNL     1       2.680  17.091  31.896  1.00  0.00     0.158 HD
HETATM   14  N7  UNL     1       4.978  15.023  30.904  1.00  0.00    -0.064 NA
HETATM   15  C8  UNL     1       2.152  13.711  30.203  1.00  0.00     0.168 C 
HETATM   16  C9  UNL     1       0.647  13.893  30.155  1.00  0.00     0.187 C 
ENDROOT
BRANCH   1  17
HETATM   17  C3  UNL     1      -0.678  11.849  30.742  1.00  0.00     0.158 C 
BRANCH  17  18
HETATM   18  C2  UNL     1      -1.957  12.332  31.335  1.00  0.00     0.132 C 
HETATM   19  C1  UNL     1      -3.048  11.352  30.872  1.00  0.00     0.041 C 
BRANCH  18  20
HETATM   20  O1  UNL     1      -1.990  12.316  32.719  1.00  0.00    -0.394 OA
ATOM     21  H1  UNL     1      -1.951  13.225  32.993  1.00  0.00     0.210 HD
ENDBRANCH  18  20
ENDBRANCH  17  18
ENDBRANCH   1  17
TORSDOF 3
ENDMDL
MODEL 3
REMARK VINA RESULT: -4.886017681      2.582      5.928
REMARK  3 active torsions:
REMARK  status: ('A' for Active; 'I' for Inactive)
REMARK    1  A    between atoms: C2_2  and  O1_3 
REMARK    2  A    between atoms: C2_2  and  C3_5 
REMARK    3  A    between atoms: C3_5  and  N1_6 
REMARK       I    between atoms: N5_14  and  C7_15 
ROOT
HETATM    1  N1  UNL     1      -2.115   9.722  28.302  1.00  0.00    -0.334 N 
HETATM    2  C4  UNL     1      -3.416   9.925  28.844  1.00  0.00     0.192 C 
HETATM    3  N2  UNL     1      -4.592   9.426  28.208  1.00  0.00    -0.063 NA
HETATM    4  N3  UNL     1      -3.478  10.586  29.946  1.00  0.00    -0.331 N 
ATOM      5  H3  UNL     1      -4.406  10.735  30.341  1.00  0.00     0.168 HD
HETATM    6  C5  UNL     1      -2.382  11.127  30.665  1.00  0.00     0.157 C 
HETATM    7  N4  UNL     1      -1.076  10.795  30.188  1.00  0.00    -0.239 NA
HETATM    8  C6  UNL     1      -0.224  11.973  30.387  1.00  0.00     0.226 C 
HETATM    9  N5  UNL     1       0.106  12.470  29.086  1.00  0.00    -0.340 N 
HETATM   10  C7  UNL     1       1.153  13.369  28.773  1.00  0.00     0.185 C 
HETATM   11  N6  UNL     1       2.378  13.197  29.182  1.00  0.00    -0.374 N 
ATOM     12  H61 UNL     1       3.133  13.844  28.956  1.00  0.00     0.158 HD
ATOM     13  H62 UNL     1       2.569  12.373  29.752  1.00  0.00     0.158 HD
HETATM   14  N7  UNL     1       0.888  14.512  27.981  1.00  0.00    -0.064 NA
HETATM   15  C8  UNL     1      -0.864  11.850  28.171  1.00  0.00     0.168 C 
HETATM   16  C9  UNL     1      -1.015  10.473  28.788  1.00  0.00     0.187 C 
ENDROOT
BRANCH   1  17
HETATM   17  C3  UNL     1      -1.971   8.734  27.258  1.00  0.00     0.158 C 
BRANCH  17  18
HETATM   18  C2  UNL     1      -2.055   9.264  25.869  1.00  0.00     0.132 C 
HETATM   19  C1  UNL     1      -1.908   8.053  24.932  1.00  0.00     0.041 C 
BRANCH  18  20
HETATM   20  O1  UNL     1      -3.269   9.849  25.550  1.00  0.00    -0.394 OA
ATOM     21  H1  UNL     1      -3.650  10.129  26.375  1.00  0.00     0.210 HD
ENDBRANCH  18  20
ENDBRANCH  17  18
ENDBRANCH   1  17
TORSDOF 3
ENDMDL
MODEL 4
REMARK VINA RESULT: -4.815535355      3.277      4.127
REMARK  3 active torsions:
REMARK  status: ('A' for Active; 'I' for Inactive)
REMARK    1  A    between atoms: C2_2  and  O1_3 
REMARK    2  A    between atoms: C2_2  and  C3_5 
REMARK    3  A    between atoms: C3_5  and  N1_6 
REMARK       I    between atoms: N5_14  and  C7_15 
ROOT
HETATM    1  N1  UNL     1       2.067  16.113  30.737  1.00  0.00    -0.334 N 
HETATM    2  C4  UNL     1       2.057  16.999  29.622  1.00  0.00     0.192 C 
HETATM    3  N2  UNL     1       2.058  18.417  29.778  1.00  0.00    -0.063 NA
HETATM    4  N3  UNL     1       2.050  16.451  28.459  1.00  0.00    -0.331 N 
ATOM      5  H3  UNL     1       2.043  17.078  27.655  1.00  0.00     0.168 HD
HETATM    6  C5  UNL     1       2.049  15.058  28.184  1.00  0.00     0.157 C 
HETATM    7  N4  UNL     1       2.202  14.185  29.305  1.00  0.00    -0.239 NA
HETATM    8  C6  UNL     1       1.370  13.002  29.055  1.00  0.00     0.226 C 
HETATM    9  N5  UNL     1       0.309  13.033  30.016  1.00  0.00    -0.340 N 
HETATM   10  C7  UNL     1      -0.529  11.950  30.373  1.00  0.00     0.185 C 
HETATM   11  N6  UNL     1      -0.067  10.776  30.699  1.00  0.00    -0.374 N 
ATOM     12  H61 UNL     1      -0.671   9.996  30.957  1.00  0.00     0.158 HD
ATOM     13  H62 UNL     1       0.945  10.653  30.688  1.00  0.00     0.158 HD
HETATM   14  N7  UNL     1      -1.935  12.121  30.388  1.00  0.00    -0.064 NA
HETATM   15  C8  UNL     1       0.288  14.409  30.534  1.00  0.00     0.168 C 
HETATM   16  C9  UNL     1       1.768  14.738  30.559  1.00  0.00     0.187 C 
ENDROOT
BRANCH   1  17
HETATM   17  C3  UNL     1       2.392  16.668  32.031  1.00  0.00     0.158 C 
BRANCH  17  18
HETATM   18  C2  UNL     1       3.799  16.463  32.473  1.00  0.00     0.132 C 
HETATM   19  C1  UNL     1       4.421  17.862  32.611  1.00  0.00     0.041 C 
BRANCH  18  20
HETATM   20  O1  UNL     1       3.929  15.861  33.713  1.00  0.00    -0.394 OA
ATOM     21  H1  UNL     1       3.436  15.050  33.665  1.00  0.00     0.210 HD
ENDBRANCH  18  20
ENDBRANCH  17  18
ENDBRANCH   1  17
TORSDOF 3
ENDMDL
MODEL 5
REMARK VINA RESULT: -4.705185692      2.238      5.343
REMARK  3 active torsions:
REMARK  status: ('A' for Active; 'I' for Inactive)
REMARK    1  A    between atoms: C2_2  and  O1_3 
REMARK    2  A    between atoms: C2_2  and  C3_5 
REMARK    3  A    between atoms: C3_5  and  N1_6 
REMARK       I    between atoms: N5_14  and  C7_15 
ROOT
HETATM    1  N1  UNL     1      -1.111  12.368  30.286  1.00  0.00    -0.334 N 
HETATM    2  C4  UNL     1      -2.458  12.820  30.367  1.00  0.00     0.192 C 
HETATM    3  N2  UNL     1      -3.555  12.027  29.915  1.00  0.00    -0.063 NA
HETATM    4  N3  UNL     1      -2.639  13.988  30.873  1.00  0.00    -0.331 N 
ATOM      5  H3  UNL     1      -3.601  14.319  30.936  1.00  0.00     0.168 HD
HETATM    6  C5  UNL     1      -1.629  14.862  31.354  1.00  0.00     0.157 C 
HETATM    7  N4  UNL     1      -0.300  14.341  31.398  1.00  0.00    -0.239 NA
HETATM    8  C6  UNL     1       0.613  15.438  31.057  1.00  0.00     0.226 C 
HETATM    9  N5  UNL     1       1.195  15.114  29.790  1.00  0.00    -0.340 N 
HETATM   10  C7  UNL     1       2.357  15.694  29.228  1.00  0.00     0.185 C 
HETATM   11  N6  UNL     1       3.477  15.807  29.882  1.00  0.00    -0.374 N 
ATOM     12  H61 UNL     1       4.315  16.224  29.478  1.00  0.00     0.158 HD
ATOM     13  H62 UNL     1       3.497  15.456  30.840  1.00  0.00     0.158 HD
HETATM   14  N7  UNL     1       2.329  16.181  27.898  1.00  0.00    -0.064 NA
HETATM   15  C8  UNL     1       0.334  14.067  29.219  1.00  0.00     0.168 C 
HETATM   16  C9  UNL     1      -0.040  13.281  30.462  1.00  0.00     0.187 C 
ENDROOT
BRANCH   1  17
HETATM   17  C3  UNL     1      -0.889  10.964  30.025  1.00  0.00     0.158 C 
BRANCH  17  18
HETATM   18  C2  UNL     1      -0.696  10.610  28.591  1.00  0.00     0.132 C 
HETATM   19  C1  UNL     1      -1.769   9.562  28.253  1.00  0.00     0.041 C 
BRANCH  18  20
HETATM   20  O1  UNL     1      -0.893  11.659  27.709  1.00  0.00    -0.394 OA
ATOM     21  H1  UNL     1      -0.182  12.270  27.863  1.00  0.00     0.210 HD
ENDBRANCH  18  20
ENDBRANCH  17  18
ENDBRANCH   1  17
TORSDOF 3
ENDMDL
