MODEL 1
REMARK VINA RESULT: -5.139552776      0.000      0.000
REMARK  5 active torsions:
REMARK  status: ('A' for Active; 'I' for Inactive)
REMARK    1  A    between atoms: N1_2  and  C2_4 
REMARK    2  A    between atoms: C5_13  and  N5_14 
REMARK    3  A    between atoms: N5_14  and  N6_16 
REMARK       I    between atoms: N6_16  and  C6_18 
REMARK    4  A    between atoms: C6_18  and  C7_20 
REMARK    5  A    between atoms: C7_20  and  N7_21 
ROOT
HETATM    1  C2  UNL     1       3.411  14.770  30.542  1.00  0.00     0.708 A 
HETATM    2  N2  UNL     1       2.896  15.509  29.543  1.00  0.00    -0.019 N 
ATOM      3  H2  UNL     1       3.186  16.458  29.308  1.00  0.00     0.203 HD
HETATM    4  C3  UNL     1       1.950  14.818  28.904  1.00  0.00     0.734 A 
HETATM    5  N3  UNL     1       1.190  15.183  27.852  1.00  0.00    -0.184 N 
ATOM      6  H3  UNL     1       1.286  16.102  27.420  1.00  0.00     0.185 HD
HETATM    7  C4  UNL     1       0.299  14.281  27.397  1.00  0.00     0.215 A 
HETATM    8  N4  UNL     1       0.175  13.070  27.966  1.00  0.00    -0.184 N 
ATOM      9  H4  UNL     1      -0.504  12.399  27.608  1.00  0.00     0.185 HD
HETATM   10  C5  UNL     1       0.957  12.756  29.012  1.00  0.00     0.734 A 
HETATM   11  N8  UNL     1       1.858  13.618  29.502  1.00  0.00     0.106 N 
HETATM   12  N9  UNL     1       2.743  13.607  30.485  1.00  0.00    -0.096 N 
ATOM     13  H9  UNL     1       2.898  12.819  31.115  1.00  0.00     0.207 HD
ENDROOT
BRANCH  10  14
HETATM   14  N5  UNL     1       0.856  11.601  29.575  1.00  0.00    -0.127 N 
ATOM     15  H5  UNL     1       1.696  11.041  29.719  1.00  0.00     0.205 HD
BRANCH  14  16
HETATM   16  N6  UNL     1      -0.390  11.095  29.998  1.00  0.00    -0.254 N 
HETATM   17  C6  UNL     1      -1.259  10.409  29.116  1.00  0.00     0.262 C 
HETATM   18  O1  UNL     1      -0.970  10.210  27.909  1.00  0.00    -0.270 OA
ATOM     19  H6  UNL     1      -0.674  11.228  30.969  1.00  0.00     0.190 HD
BRANCH  17  20
HETATM   20  C7  UNL     1      -2.551   9.903  29.619  1.00  0.00     0.333 C 
BRANCH  20  21
HETATM   21  N7  UNL     1      -3.064  10.809  30.602  1.00  0.00    -0.071 N 
ATOM     22  H73 UNL     1      -3.276  10.343  31.484  1.00  0.00     0.274 HD
ATOM     23  H72 UNL     1      -2.350  11.451  30.945  1.00  0.00     0.274 HD
ATOM     24  H71 UNL     1      -3.873  11.299  30.219  1.00  0.00     0.274 HD
ENDBRANCH  20  21
ENDBRANCH  17  20
ENDBRANCH  14  16
ENDBRANCH  10  14
BRANCH   1  25
HETATM   25  N1  UNL     1       4.349  15.108  31.379  1.00  0.00    -0.229 N 
HETATM   26  C1  UNL     1       4.236  16.387  32.046  1.00  0.00     0.165 C 
ATOM     27  H1  UNL     1       5.140  14.490  31.559  1.00  0.00     0.177 HD
ENDBRANCH   1  25
TORSDOF 5
ENDMDL
MODEL 2
REMARK VINA RESULT: -4.938601685      3.087      4.880
REMARK  5 active torsions:
REMARK  status: ('A' for Active; 'I' for Inactive)
REMARK    1  A    between atoms: N1_2  and  C2_4 
REMARK    2  A    between atoms: C5_13  and  N5_14 
REMARK    3  A    between atoms: N5_14  and  N6_16 
REMARK       I    between atoms: N6_16  and  C6_18 
REMARK    4  A    between atoms: C6_18  and  C7_20 
REMARK    5  A    between atoms: C7_20  and  N7_21 
ROOT
HETATM    1  C2  UNL     1       1.715  19.458  30.657  1.00  0.00     0.708 A 
HETATM    2  N2  UNL     1       2.486  18.967  31.645  1.00  0.00    -0.019 N 
ATOM      3  H2  UNL     1       2.663  19.434  32.535  1.00  0.00     0.203 HD
HETATM    4  C3  UNL     1       2.984  17.782  31.290  1.00  0.00     0.734 A 
HETATM    5  N3  UNL     1       3.795  16.956  31.979  1.00  0.00    -0.184 N 
ATOM      6  H3  UNL     1       4.125  17.193  32.915  1.00  0.00     0.185 HD
HETATM    7  C4  UNL     1       4.152  15.804  31.379  1.00  0.00     0.215 A 
HETATM    8  N4  UNL     1       3.716  15.491  30.147  1.00  0.00    -0.184 N 
ATOM      9  H4  UNL     1       3.995  14.615  29.707  1.00  0.00     0.185 HD
HETATM   10  C5  UNL     1       2.908  16.349  29.502  1.00  0.00     0.734 A 
HETATM   11  N8  UNL     1       2.525  17.508  30.056  1.00  0.00     0.106 N 
HETATM   12  N9  UNL     1       1.765  18.526  29.691  1.00  0.00    -0.096 N 
ATOM     13  H9  UNL     1       1.280  18.595  28.796  1.00  0.00     0.207 HD
ENDROOT
BRANCH  10  14
HETATM   14  N5  UNL     1       2.477  16.073  28.319  1.00  0.00    -0.127 N 
ATOM     15  H5  UNL     1       2.991  16.415  27.508  1.00  0.00     0.205 HD
BRANCH  14  16
HETATM   16  N6  UNL     1       1.309  15.308  28.123  1.00  0.00    -0.254 N 
HETATM   17  C6  UNL     1       1.304  13.899  28.258  1.00  0.00     0.262 C 
HETATM   18  O1  UNL     1       2.338  13.250  28.560  1.00  0.00    -0.270 OA
ATOM     19  H6  UNL     1       0.441  15.784  27.877  1.00  0.00     0.190 HD
BRANCH  17  20
HETATM   20  C7  UNL     1       0.049  13.154  28.040  1.00  0.00     0.333 C 
BRANCH  20  21
HETATM   21  N7  UNL     1       0.052  11.973  28.848  1.00  0.00    -0.071 N 
ATOM     22  H73 UNL     1      -0.874  11.552  28.922  1.00  0.00     0.274 HD
ATOM     23  H72 UNL     1       0.529  11.194  28.393  1.00  0.00     0.274 HD
ATOM     24  H71 UNL     1       0.452  12.190  29.761  1.00  0.00     0.274 HD
ENDBRANCH  20  21
ENDBRANCH  17  20
ENDBRANCH  14  16
ENDBRANCH  10  14
BRANCH   1  25
HETATM   25  N1  UNL     1       1.067  20.586  30.641  1.00  0.00    -0.229 N 
HETATM   26  C1  UNL     1       0.664  21.122  29.359  1.00  0.00     0.165 C 
ATOM     27  H1  UNL     1       0.849  21.079  31.508  1.00  0.00     0.177 HD
ENDBRANCH   1  25
TORSDOF 5
ENDMDL
MODEL 3
REMARK VINA RESULT: -4.915555301      2.272      3.521
REMARK  5 active torsions:
REMARK  status: ('A' for Active; 'I' for Inactive)
REMARK    1  A    between atoms: N1_2  and  C2_4 
REMARK    2  A    between atoms: C5_13  and  N5_14 
REMARK    3  A    between atoms: N5_14  and  N6_16 
REMARK       I    between atoms: N6_16  and  C6_18 
REMARK    4  A    between atoms: C6_18  and  C7_20 
REMARK    5  A    between atoms: C7_20  and  N7_21 
ROOT
HETATM    1  C2  UNL     1       1.890  18.263  29.870  1.00  0.00     0.708 A 
HETATM    2  N2  UNL     1       2.973  17.947  30.604  1.00  0.00    -0.019 N 
ATOM      3  H2  UNL     1       3.592  18.623  31.053  1.00  0.00     0.203 HD
HETATM    4  C3  UNL     1       3.118  16.622  30.658  1.00  0.00     0.734 A 
HETATM    5  N3  UNL     1       4.062  15.892  31.284  1.00  0.00    -0.184 N 
ATOM      6  H3  UNL     1       4.812  16.334  31.816  1.00  0.00     0.185 HD
HETATM    7  C4  UNL     1       3.973  14.552  31.176  1.00  0.00     0.215 A 
HETATM    8  N4  UNL     1       2.984  13.969  30.476  1.00  0.00    -0.184 N 
ATOM      9  H4  UNL     1       2.931  12.954  30.405  1.00  0.00     0.185 HD
HETATM   10  C5  UNL     1       2.068  14.743  29.872  1.00  0.00     0.734 A 
HETATM   11  N8  UNL     1       2.113  16.080  29.949  1.00  0.00     0.106 N 
HETATM   12  N9  UNL     1       1.385  17.081  29.482  1.00  0.00    -0.096 N 
ATOM     13  H9  UNL     1       0.552  16.970  28.905  1.00  0.00     0.207 HD
ENDROOT
BRANCH  10  14
HETATM   14  N5  UNL     1       1.111  14.208  29.194  1.00  0.00    -0.127 N 
ATOM     15  H5  UNL     1       0.804  14.651  28.328  1.00  0.00     0.205 HD
BRANCH  14  16
HETATM   16  N6  UNL     1       0.478  13.025  29.625  1.00  0.00    -0.254 N 
HETATM   17  C6  UNL     1      -0.200  12.167  28.725  1.00  0.00     0.262 C 
HETATM   18  O1  UNL     1      -0.276  12.410  27.495  1.00  0.00    -0.270 OA
ATOM     19  H6  UNL     1       0.510  12.778  30.614  1.00  0.00     0.190 HD
BRANCH  17  20
HETATM   20  C7  UNL     1      -0.843  10.941  29.238  1.00  0.00     0.333 C 
BRANCH  20  21
HETATM   21  N7  UNL     1      -0.383  10.686  30.569  1.00  0.00    -0.071 N 
ATOM     22  H73 UNL     1       0.180   9.837  30.628  1.00  0.00     0.274 HD
ATOM     23  H72 UNL     1       0.330  11.353  30.866  1.00  0.00     0.274 HD
ATOM     24  H71 UNL     1      -1.181  10.666  31.204  1.00  0.00     0.274 HD
ENDBRANCH  20  21
ENDBRANCH  17  20
ENDBRANCH  14  16
ENDBRANCH  10  14
BRANCH   1  25
HETATM   25  N1  UNL     1       1.435  19.451  29.597  1.00  0.00    -0.229 N 
HETATM   26  C1  UNL     1       2.382  20.542  29.518  1.00  0.00     0.165 C 
ATOM     27  H1  UNL     1       0.439  19.609  29.442  1.00  0.00     0.177 HD
ENDBRANCH   1  25
TORSDOF 5
ENDMDL
MODEL 4
REMARK VINA RESULT: -4.889890693      2.953      7.207
REMARK  5 active torsions:
REMARK  status: ('A' for Active; 'I' for Inactive)
REMARK    1  A    between atoms: N1_2  and  C2_4 
REMARK    2  A    between atoms: C5_13  and  N5_14 
REMARK    3  A    between atoms: N5_14  and  N6_16 
REMARK       I    between atoms: N6_16  and  C6_18 
REMARK    4  A    between atoms: C6_18  and  C7_20 
REMARK    5  A    between atoms: C7_20  and  N7_21 
ROOT
HETATM    1  C2  UNL     1      -2.847   8.847  26.122  1.00  0.00     0.708 A 
HETATM    2  N2  UNL     1      -4.091   8.973  26.620  1.00  0.00    -0.019 N 
ATOM      3  H2  UNL     1      -4.948   8.749  26.114  1.00  0.00     0.203 HD
HETATM    4  C3  UNL     1      -4.038   9.435  27.870  1.00  0.00     0.734 A 
HETATM    5  N3  UNL     1      -5.046   9.702  28.725  1.00  0.00    -0.184 N 
ATOM      6  H3  UNL     1      -6.020   9.560  28.459  1.00  0.00     0.185 HD
HETATM    7  C4  UNL     1      -4.710  10.165  29.944  1.00  0.00     0.215 A 
HETATM    8  N4  UNL     1      -3.425  10.350  30.294  1.00  0.00    -0.184 N 
ATOM      9  H4  UNL     1      -3.188  10.701  31.222  1.00  0.00     0.185 HD
HETATM   10  C5  UNL     1      -2.459  10.068  29.406  1.00  0.00     0.734 A 
HETATM   11  N8  UNL     1      -2.742   9.606  28.180  1.00  0.00     0.106 N 
HETATM   12  N9  UNL     1      -2.040   9.248  27.117  1.00  0.00    -0.096 N 
ATOM     13  H9  UNL     1      -1.022   9.273  27.061  1.00  0.00     0.207 HD
ENDROOT
BRANCH  10  14
HETATM   14  N5  UNL     1      -1.219  10.238  29.716  1.00  0.00    -0.127 N 
ATOM     15  H5  UNL     1      -0.629   9.422  29.877  1.00  0.00     0.205 HD
BRANCH  14  16
HETATM   16  N6  UNL     1      -0.663  11.527  29.840  1.00  0.00    -0.254 N 
HETATM   17  C6  UNL     1      -0.302  12.299  28.710  1.00  0.00     0.262 C 
HETATM   18  O1  UNL     1      -0.456  11.882  27.534  1.00  0.00    -0.270 OA
ATOM     19  H6  UNL     1      -0.516  11.915  30.772  1.00  0.00     0.190 HD
BRANCH  17  20
HETATM   20  C7  UNL     1       0.277  13.644  28.905  1.00  0.00     0.333 C 
BRANCH  20  21
HETATM   21  N7  UNL     1       1.670  13.611  28.579  1.00  0.00    -0.071 N 
ATOM     22  H73 UNL     1       2.053  12.666  28.610  1.00  0.00     0.274 HD
ATOM     23  H72 UNL     1       1.841  13.804  27.592  1.00  0.00     0.274 HD
ATOM     24  H71 UNL     1       2.175  14.253  29.190  1.00  0.00     0.274 HD
ENDBRANCH  20  21
ENDBRANCH  17  20
ENDBRANCH  14  16
ENDBRANCH  10  14
BRANCH   1  25
HETATM   25  N1  UNL     1      -2.504   8.428  24.939  1.00  0.00    -0.229 N 
HETATM   26  C1  UNL     1      -1.436   7.457  24.844  1.00  0.00     0.165 C 
ATOM     27  H1  UNL     1      -2.974   8.775  24.102  1.00  0.00     0.177 HD
ENDBRANCH   1  25
TORSDOF 5
ENDMDL
MODEL 5
REMARK VINA RESULT: -4.884298503      2.212      6.277
REMARK  5 active torsions:
REMARK  status: ('A' for Active; 'I' for Inactive)
REMARK    1  A    between atoms: N1_2  and  C2_4 
REMARK    2  A    between atoms: C5_13  and  N5_14 
REMARK    3  A    between atoms: N5_14  and  N6_16 
REMARK       I    between atoms: N6_16  and  C6_18 
REMARK    4  A    between atoms: C6_18  and  C7_20 
REMARK    5  A    between atoms: C7_20  and  N7_21 
ROOT
HETATM    1  C2  UNL     1      -1.751   9.834  28.260  1.00  0.00     0.708 A 
HETATM    2  N2  UNL     1      -2.355  10.125  29.427  1.00  0.00    -0.019 N 
ATOM      3  H2  UNL     1      -3.223   9.703  29.758  1.00  0.00     0.203 HD
HETATM    4  C3  UNL     1      -1.652  11.046  30.088  1.00  0.00     0.734 A 
HETATM    5  N3  UNL     1      -1.900  11.613  31.285  1.00  0.00    -0.184 N 
ATOM      6  H3  UNL     1      -2.723  11.360  31.834  1.00  0.00     0.185 HD
HETATM    7  C4  UNL     1      -1.017  12.528  31.726  1.00  0.00     0.215 A 
HETATM    8  N4  UNL     1       0.067  12.861  31.004  1.00  0.00    -0.184 N 
ATOM      9  H4  UNL     1       0.727  13.556  31.353  1.00  0.00     0.185 HD
HETATM   10  C5  UNL     1       0.269  12.267  29.817  1.00  0.00     0.734 A 
HETATM   11  N8  UNL     1      -0.581  11.350  29.335  1.00  0.00     0.106 N 
HETATM   12  N9  UNL     1      -0.657  10.612  28.240  1.00  0.00    -0.096 N 
ATOM     13  H9  UNL     1       0.024  10.631  27.481  1.00  0.00     0.207 HD
ENDROOT
BRANCH  10  14
HETATM   14  N5  UNL     1       1.300  12.568  29.105  1.00  0.00    -0.127 N 
ATOM     15  H5  UNL     1       1.684  11.875  28.463  1.00  0.00     0.205 HD
BRANCH  14  16
HETATM   16  N6  UNL     1       1.909  13.836  29.195  1.00  0.00    -0.254 N 
HETATM   17  C6  UNL     1       1.558  14.900  28.329  1.00  0.00     0.262 C 
HETATM   18  O1  UNL     1       0.684  14.776  27.434  1.00  0.00    -0.270 OA
ATOM     19  H6  UNL     1       2.626  13.992  29.905  1.00  0.00     0.190 HD
BRANCH  17  20
HETATM   20  C7  UNL     1       2.232  16.205  28.473  1.00  0.00     0.333 C 
BRANCH  20  21
HETATM   21  N7  UNL     1       3.262  16.100  29.462  1.00  0.00    -0.071 N 
ATOM     22  H73 UNL     1       4.043  15.525  29.147  1.00  0.00     0.274 HD
ATOM     23  H72 UNL     1       3.768  16.976  29.588  1.00  0.00     0.274 HD
ATOM     24  H71 UNL     1       2.858  15.758  30.334  1.00  0.00     0.274 HD
ENDBRANCH  20  21
ENDBRANCH  17  20
ENDBRANCH  14  16
ENDBRANCH  10  14
BRANCH   1  25
HETATM   25  N1  UNL     1      -2.142   8.986  27.354  1.00  0.00    -0.229 N 
HETATM   26  C1  UNL     1      -2.293   9.463  25.996  1.00  0.00     0.165 C 
ATOM     27  H1  UNL     1      -2.335   8.013  27.593  1.00  0.00     0.177 HD
ENDBRANCH   1  25
TORSDOF 5
ENDMDL
