MODEL 1
REMARK VINA RESULT: -5.231532955      0.000      0.000
REMARK  4 active torsions:
REMARK  status: ('A' for Active; 'I' for Inactive)
REMARK    1  A    between atoms: N1_1  and  C1_4 
REMARK    2  A    between atoms: C2_9  and  S1_10 
REMARK    3  A    between atoms: S1_10  and  N4_13 
REMARK       I    between atoms: C3_15  and  N6_17 
REMARK    4  A    between atoms: N6_17  and  O3_19 
ROOT
HETATM    1  C1  UNL     1      -2.292  13.515  32.382  1.00  0.00     0.691 A 
HETATM    2  N2  UNL     1      -1.426  12.490  32.450  1.00  0.00    -0.131 N 
ATOM      3  H2  UNL     1      -1.305  11.996  33.334  1.00  0.00     0.205 HD
HETATM    4  N3  UNL     1      -0.734  12.111  31.406  1.00  0.00    -0.272 N 
ATOM      5  H3  UNL     1      -0.089  11.327  31.507  1.00  0.00     0.188 HD
HETATM    6  C2  UNL     1      -0.836  12.717  30.189  1.00  0.00     0.206 A 
HETATM    7  C4  UNL     1      -1.720  13.773  30.096  1.00  0.00     0.173 A 
HETATM    8  N7  UNL     1      -1.866  14.442  28.852  1.00  0.00    -0.079 NA
HETATM    9  N8  UNL     1      -2.417  14.135  31.199  1.00  0.00    -0.175 N 
ATOM     10  H8  UNL     1      -3.068  14.916  31.127  1.00  0.00     0.185 HD
ENDROOT
BRANCH   6  11
HETATM   11  S1  UNL     1       0.096  12.188  28.832  1.00  0.00     0.285 S 
HETATM   12  O1  UNL     1       1.065  11.088  29.209  1.00  0.00    -0.198 OA
HETATM   13  O2  UNL     1      -0.772  11.608  27.729  1.00  0.00    -0.198 OA
BRANCH  11  14
HETATM   14  N4  UNL     1       1.018  13.483  28.191  1.00  0.00    -0.251 N 
HETATM   15  C3  UNL     1       1.831  14.186  28.934  1.00  0.00     0.222 C 
HETATM   16  N5  UNL     1       1.934  13.843  30.307  1.00  0.00    -0.061 NA
HETATM   17  N6  UNL     1       2.570  15.248  28.345  1.00  0.00    -0.240 N 
ATOM     18  H6  UNL     1       3.590  15.251  28.343  1.00  0.00     0.197 HD
ATOM     19  H4  UNL     1       0.929  13.713  27.202  1.00  0.00     0.181 HD
BRANCH  17  20
HETATM   20  O3  UNL     1       1.905  16.191  27.823  1.00  0.00    -0.287 OA
ATOM     21  H3  UNL     1       1.895  17.020  28.285  1.00  0.00     0.244 HD
ENDBRANCH  17  20
ENDBRANCH  11  14
ENDBRANCH   6  11
BRANCH   1  22
HETATM   22  N1  UNL     1      -2.960  13.863  33.437  1.00  0.00    -0.233 N 
ATOM     23  H12 UNL     1      -2.913  13.352  34.319  1.00  0.00     0.174 HD
ATOM     24  H11 UNL     1      -3.566  14.683  33.404  1.00  0.00     0.174 HD
ENDBRANCH   1  22
TORSDOF 4
ENDMDL
MODEL 2
REMARK VINA RESULT: -4.950553707      3.118      5.279
REMARK  4 active torsions:
REMARK  status: ('A' for Active; 'I' for Inactive)
REMARK    1  A    between atoms: N1_1  and  C1_4 
REMARK    2  A    between atoms: C2_9  and  S1_10 
REMARK    3  A    between atoms: S1_10  and  N4_13 
REMARK       I    between atoms: C3_15  and  N6_17 
REMARK    4  A    between atoms: N6_17  and  O3_19 
ROOT
HETATM    1  C1  UNL     1       4.340  16.790  32.205  1.00  0.00     0.691 A 
HETATM    2  N2  UNL     1       4.647  15.632  31.597  1.00  0.00    -0.131 N 
ATOM      3  H2  UNL     1       5.446  15.091  31.928  1.00  0.00     0.205 HD
HETATM    4  N3  UNL     1       3.942  15.183  30.590  1.00  0.00    -0.272 N 
ATOM      5  H3  UNL     1       4.215  14.298  30.161  1.00  0.00     0.188 HD
HETATM    6  C2  UNL     1       2.861  15.844  30.088  1.00  0.00     0.206 A 
HETATM    7  C4  UNL     1       2.527  17.037  30.698  1.00  0.00     0.173 A 
HETATM    8  N7  UNL     1       1.410  17.768  30.217  1.00  0.00    -0.079 NA
HETATM    9  N8  UNL     1       3.281  17.467  31.737  1.00  0.00    -0.175 N 
ATOM     10  H8  UNL     1       3.032  18.349  32.184  1.00  0.00     0.185 HD
ENDROOT
BRANCH   6  11
HETATM   11  S1  UNL     1       1.955  15.218  28.755  1.00  0.00     0.285 S 
HETATM   12  O1  UNL     1       2.057  16.110  27.537  1.00  0.00    -0.198 OA
HETATM   13  O2  UNL     1       2.454  13.856  28.309  1.00  0.00    -0.198 OA
BRANCH  11  14
HETATM   14  N4  UNL     1       0.293  15.096  29.160  1.00  0.00    -0.251 N 
HETATM   15  C3  UNL     1      -0.124  14.352  30.150  1.00  0.00     0.222 C 
HETATM   16  N5  UNL     1       0.850  13.636  30.893  1.00  0.00    -0.061 NA
HETATM   17  N6  UNL     1      -1.515  14.291  30.437  1.00  0.00    -0.240 N 
ATOM     18  H6  UNL     1      -1.885  14.585  31.341  1.00  0.00     0.197 HD
ATOM     19  H4  UNL     1      -0.390  15.619  28.612  1.00  0.00     0.181 HD
BRANCH  17  20
HETATM   20  O3  UNL     1      -2.273  13.857  29.522  1.00  0.00    -0.287 OA
ATOM     21  H3  UNL     1      -2.653  12.996  29.648  1.00  0.00     0.244 HD
ENDBRANCH  17  20
ENDBRANCH  11  14
ENDBRANCH   6  11
BRANCH   1  22
HETATM   22  N1  UNL     1       5.061  17.205  33.200  1.00  0.00    -0.233 N 
ATOM     23  H12 UNL     1       5.402  16.586  33.936  1.00  0.00     0.174 HD
ATOM     24  H11 UNL     1       5.308  18.192  33.269  1.00  0.00     0.174 HD
ENDBRANCH   1  22
TORSDOF 4
ENDMDL
MODEL 3
REMARK VINA RESULT: -4.902002962      2.174      4.514
REMARK  4 active torsions:
REMARK  status: ('A' for Active; 'I' for Inactive)
REMARK    1  A    between atoms: N1_1  and  C1_4 
REMARK    2  A    between atoms: C2_9  and  S1_10 
REMARK    3  A    between atoms: S1_10  and  N4_13 
REMARK       I    between atoms: C3_15  and  N6_17 
REMARK    4  A    between atoms: N6_17  and  O3_19 
ROOT
HETATM    1  C1  UNL     1       3.687  15.209  30.818  1.00  0.00     0.691 A 
HETATM    2  N2  UNL     1       3.060  14.095  31.233  1.00  0.00    -0.131 N 
ATOM      3  H2  UNL     1       3.362  13.645  32.097  1.00  0.00     0.205 HD
HETATM    4  N3  UNL     1       2.070  13.576  30.553  1.00  0.00    -0.272 N 
ATOM      5  H3  UNL     1       1.625  12.730  30.910  1.00  0.00     0.188 HD
HETATM    6  C2  UNL     1       1.606  14.115  29.391  1.00  0.00     0.206 A 
HETATM    7  C4  UNL     1       2.236  15.260  28.945  1.00  0.00     0.173 A 
HETATM    8  N7  UNL     1       1.795  15.865  27.738  1.00  0.00    -0.079 NA
HETATM    9  N8  UNL     1       3.257  15.765  29.677  1.00  0.00    -0.175 N 
ATOM     10  H8  UNL     1       3.721  16.611  29.343  1.00  0.00     0.185 HD
ENDROOT
BRANCH   6  11
HETATM   11  S1  UNL     1       0.295  13.400  28.520  1.00  0.00     0.285 S 
HETATM   12  O1  UNL     1       0.733  12.886  27.165  1.00  0.00    -0.198 OA
HETATM   13  O2  UNL     1      -0.290  12.201  29.244  1.00  0.00    -0.198 OA
BRANCH  11  14
HETATM   14  N4  UNL     1      -0.949  14.549  28.252  1.00  0.00    -0.251 N 
HETATM   15  C3  UNL     1      -1.753  14.933  29.208  1.00  0.00     0.222 C 
HETATM   16  N5  UNL     1      -1.566  14.365  30.495  1.00  0.00    -0.061 NA
HETATM   17  N6  UNL     1      -2.765  15.889  28.924  1.00  0.00    -0.240 N 
ATOM     18  H6  UNL     1      -2.798  16.789  29.404  1.00  0.00     0.197 HD
ATOM     19  H4  UNL     1      -1.066  14.944  27.319  1.00  0.00     0.181 HD
BRANCH  17  20
HETATM   20  O3  UNL     1      -3.624  15.576  28.049  1.00  0.00    -0.287 OA
ATOM     21  H3  UNL     1      -4.082  16.288  27.619  1.00  0.00     0.244 HD
ENDBRANCH  17  20
ENDBRANCH  11  14
ENDBRANCH   6  11
BRANCH   1  22
HETATM   22  N1  UNL     1       4.666  15.694  31.517  1.00  0.00    -0.233 N 
ATOM     23  H12 UNL     1       4.867  16.693  31.575  1.00  0.00     0.174 HD
ATOM     24  H11 UNL     1       5.274  15.064  32.040  1.00  0.00     0.174 HD
ENDBRANCH   1  22
TORSDOF 4
ENDMDL
MODEL 4
REMARK VINA RESULT: -4.870814673      1.944      4.731
REMARK  4 active torsions:
REMARK  status: ('A' for Active; 'I' for Inactive)
REMARK    1  A    between atoms: N1_1  and  C1_4 
REMARK    2  A    between atoms: C2_9  and  S1_10 
REMARK    3  A    between atoms: S1_10  and  N4_13 
REMARK       I    between atoms: C3_15  and  N6_17 
REMARK    4  A    between atoms: N6_17  and  O3_19 
ROOT
HETATM    1  C1  UNL     1       1.836  15.563  28.472  1.00  0.00     0.691 A 
HETATM    2  N2  UNL     1       2.459  14.408  28.762  1.00  0.00    -0.131 N 
ATOM      3  H2  UNL     1       3.474  14.399  28.855  1.00  0.00     0.205 HD
HETATM    4  N3  UNL     1       1.790  13.296  28.927  1.00  0.00    -0.272 N 
ATOM      5  H3  UNL     1       2.308  12.444  29.146  1.00  0.00     0.188 HD
HETATM    6  C2  UNL     1       0.433  13.223  28.819  1.00  0.00     0.206 A 
HETATM    7  C4  UNL     1      -0.227  14.399  28.522  1.00  0.00     0.173 A 
HETATM    8  N7  UNL     1      -1.642  14.382  28.397  1.00  0.00    -0.079 NA
HETATM    9  N8  UNL     1       0.501  15.528  28.358  1.00  0.00    -0.175 N 
ATOM     10  H8  UNL     1       0.009  16.394  28.137  1.00  0.00     0.185 HD
ENDROOT
BRANCH   6  11
HETATM   11  S1  UNL     1      -0.415  11.734  29.044  1.00  0.00     0.285 S 
HETATM   12  O1  UNL     1      -0.869  11.140  27.728  1.00  0.00    -0.198 OA
HETATM   13  O2  UNL     1       0.451  10.671  29.696  1.00  0.00    -0.198 OA
BRANCH  11  14
HETATM   14  N4  UNL     1      -1.815  11.976  30.005  1.00  0.00    -0.251 N 
HETATM   15  C3  UNL     1      -1.739  12.211  31.288  1.00  0.00     0.222 C 
HETATM   16  N5  UNL     1      -0.449  12.263  31.875  1.00  0.00    -0.061 NA
HETATM   17  N6  UNL     1      -2.936  12.405  32.031  1.00  0.00    -0.240 N 
ATOM     18  H6  UNL     1      -3.119  13.276  32.530  1.00  0.00     0.197 HD
ATOM     19  H4  UNL     1      -2.733  11.935  29.562  1.00  0.00     0.181 HD
BRANCH  17  20
HETATM   20  O3  UNL     1      -3.764  11.448  32.047  1.00  0.00    -0.287 OA
ATOM     21  H3  UNL     1      -3.435  10.588  31.816  1.00  0.00     0.244 HD
ENDBRANCH  17  20
ENDBRANCH  11  14
ENDBRANCH   6  11
BRANCH   1  22
HETATM   22  N1  UNL     1       2.532  16.647  28.314  1.00  0.00    -0.233 N 
ATOM     23  H12 UNL     1       3.440  16.793  28.754  1.00  0.00     0.174 HD
ATOM     24  H11 UNL     1       2.169  17.399  27.728  1.00  0.00     0.174 HD
ENDBRANCH   1  22
TORSDOF 4
ENDMDL
MODEL 5
REMARK VINA RESULT: -4.819559074      2.631      5.219
REMARK  4 active torsions:
REMARK  status: ('A' for Active; 'I' for Inactive)
REMARK    1  A    between atoms: N1_1  and  C1_4 
REMARK    2  A    between atoms: C2_9  and  S1_10 
REMARK    3  A    between atoms: S1_10  and  N4_13 
REMARK       I    between atoms: C3_15  and  N6_17 
REMARK    4  A    between atoms: N6_17  and  O3_19 
ROOT
HETATM    1  C1  UNL     1       2.743  17.713  30.366  1.00  0.00     0.691 A 
HETATM    2  N2  UNL     1       1.738  17.690  29.474  1.00  0.00    -0.131 N 
ATOM      3  H2  UNL     1       1.311  18.569  29.181  1.00  0.00     0.205 HD
HETATM    4  N3  UNL     1       1.296  16.565  28.974  1.00  0.00    -0.272 N 
ATOM      5  H3  UNL     1       0.530  16.599  28.300  1.00  0.00     0.188 HD
HETATM    6  C2  UNL     1       1.811  15.349  29.312  1.00  0.00     0.206 A 
HETATM    7  C4  UNL     1       2.846  15.349  30.227  1.00  0.00     0.173 A 
HETATM    8  N7  UNL     1       3.421  14.111  30.616  1.00  0.00    -0.079 NA
HETATM    9  N8  UNL     1       3.274  16.534  30.722  1.00  0.00    -0.175 N 
ATOM     10  H8  UNL     1       4.038  16.529  31.398  1.00  0.00     0.185 HD
ENDROOT
BRANCH   6  11
HETATM   11  S1  UNL     1       1.200  13.884  28.629  1.00  0.00     0.285 S 
HETATM   12  O1  UNL     1       0.092  14.147  27.632  1.00  0.00    -0.198 OA
HETATM   13  O2  UNL     1       2.265  13.117  27.865  1.00  0.00    -0.198 OA
BRANCH  11  14
HETATM   14  N4  UNL     1       0.555  12.871  29.853  1.00  0.00    -0.251 N 
HETATM   15  C3  UNL     1      -0.184  11.831  29.571  1.00  0.00     0.222 C 
HETATM   16  N5  UNL     1      -0.443  11.557  28.204  1.00  0.00    -0.061 NA
HETATM   17  N6  UNL     1      -0.690  11.029  30.630  1.00  0.00    -0.240 N 
ATOM     18  H6  UNL     1      -0.452  10.040  30.709  1.00  0.00     0.197 HD
ATOM     19  H4  UNL     1       0.754  13.086  30.830  1.00  0.00     0.181 HD
BRANCH  17  20
HETATM   20  O3  UNL     1      -1.447  11.596  31.471  1.00  0.00    -0.287 OA
ATOM     21  H3  UNL     1      -2.309  11.219  31.598  1.00  0.00     0.244 HD
ENDBRANCH  17  20
ENDBRANCH  11  14
ENDBRANCH   6  11
BRANCH   1  22
HETATM   22  N1  UNL     1       3.155  18.847  30.841  1.00  0.00    -0.233 N 
ATOM     23  H12 UNL     1       2.891  19.747  30.440  1.00  0.00     0.174 HD
ATOM     24  H11 UNL     1       3.774  18.860  31.653  1.00  0.00     0.174 HD
ENDBRANCH   1  22
TORSDOF 4
ENDMDL
