MODEL 1
REMARK VINA RESULT: -5.768400249      0.000      0.000
REMARK  5 active torsions:
REMARK  status: ('A' for Active; 'I' for Inactive)
REMARK    1  A    between atoms: C2_9  and  S1_10 
REMARK    2  A    between atoms: S1_10  and  N5_11 
REMARK    3  A    between atoms: S1_10  and  N6_15 
REMARK    4  A    between atoms: N6_15  and  C3_17 
REMARK    5  A    between atoms: C4_23  and  N9_24 
ROOT
HETATM    1  S1  UNL     1       1.975  15.904  28.740  1.00  0.00     0.174 S 
HETATM    2  O1  UNL     1       2.304  16.363  27.953  1.00  0.00    -0.220 OA
ENDROOT
BRANCH   1   3
HETATM    3  C2  UNL     1       3.135  16.293  30.412  1.00  0.00     0.235 A 
HETATM    4  N1  UNL     1       3.210  17.450  31.016  1.00  0.00    -0.255 N 
HETATM    5  C1  UNL     1       2.504  18.707  30.776  1.00  0.00     0.182 C 
HETATM    6  N2  UNL     1       4.130  17.363  32.000  1.00  0.00    -0.224 N 
HETATM    7  N3  UNL     1       4.618  16.138  31.991  1.00  0.00    -0.226 N 
ATOM      8  H2  UNL     1       4.400  18.112  32.638  1.00  0.00     0.210 HD
HETATM    9  N4  UNL     1       3.986  15.478  30.994  1.00  0.00    -0.259 N 
ATOM     10  H3  UNL     1       5.332  15.762  32.614  1.00  0.00     0.210 HD
ATOM     11  H4  UNL     1       4.144  14.505  30.735  1.00  0.00     0.191 HD
ENDBRANCH   1   3
BRANCH   1  12
HETATM   12  N5  UNL     1       0.132  16.423  29.220  1.00  0.00    -0.338 N 
ATOM     13  H52 UNL     1      -0.345  16.209  30.095  1.00  0.00     0.167 HD
ATOM     14  H51 UNL     1      -0.232  16.941  28.420  1.00  0.00     0.167 HD
ENDBRANCH   1  12
BRANCH   1  15
HETATM   15  N6  UNL     1       2.177  13.975  28.400  1.00  0.00    -0.276 N 
ATOM     16  H6  UNL     1       3.099  13.541  28.355  1.00  0.00     0.179 HD
BRANCH  15  17
HETATM   17  C3  UNL     1       1.134  13.299  28.242  1.00  0.00     0.182 A 
HETATM   18  N7  UNL     1       0.341  13.126  27.187  1.00  0.00    -0.221 N 
HETATM   19  O2  UNL     1      -0.635  12.330  27.483  1.00  0.00    -0.153 OA
ATOM     20  H7  UNL     1       0.482  13.559  26.274  1.00  0.00     0.198 HD
HETATM   21  N8  UNL     1      -0.524  11.953  28.724  1.00  0.00    -0.222 N 
HETATM   22  C4  UNL     1       0.560  12.522  29.258  1.00  0.00     0.168 A 
ATOM     23  H8  UNL     1      -1.163  11.324  29.210  1.00  0.00     0.198 HD
BRANCH  22  24
HETATM   24  N9  UNL     1       0.969  12.366  30.470  1.00  0.00    -0.381 N 
ATOM     25  H92 UNL     1       0.923  13.070  31.207  1.00  0.00     0.157 HD
ATOM     26  H91 UNL     1       1.395  11.541  30.890  1.00  0.00     0.157 HD
ENDBRANCH  22  24
ENDBRANCH  15  17
ENDBRANCH   1  15
TORSDOF 5
ENDMDL
MODEL 2
REMARK VINA RESULT: -5.744197811      1.257      1.566
REMARK  5 active torsions:
REMARK  status: ('A' for Active; 'I' for Inactive)
REMARK    1  A    between atoms: C2_9  and  S1_10 
REMARK    2  A    between atoms: S1_10  and  N5_11 
REMARK    3  A    between atoms: S1_10  and  N6_15 
REMARK    4  A    between atoms: N6_15  and  C3_17 
REMARK    5  A    between atoms: C4_23  and  N9_24 
ROOT
HETATM    1  S1  UNL     1       1.880  16.378  28.843  1.00  0.00     0.174 S 
HETATM    2  O1  UNL     1       2.284  16.176  27.986  1.00  0.00    -0.220 OA
ENDROOT
BRANCH   1   3
HETATM    3  C2  UNL     1       2.892  15.482  30.413  1.00  0.00     0.235 A 
HETATM    4  N1  UNL     1       3.459  16.125  31.400  1.00  0.00    -0.255 N 
HETATM    5  C1  UNL     1       3.492  17.549  31.726  1.00  0.00     0.182 C 
HETATM    6  N2  UNL     1       4.105  15.233  32.180  1.00  0.00    -0.224 N 
HETATM    7  N3  UNL     1       3.926  14.035  31.659  1.00  0.00    -0.226 N 
ATOM      8  H2  UNL     1       4.637  15.447  33.024  1.00  0.00     0.210 HD
HETATM    9  N4  UNL     1       3.164  14.205  30.554  1.00  0.00    -0.259 N 
ATOM     10  H3  UNL     1       4.292  13.153  32.018  1.00  0.00     0.210 HD
ATOM     11  H4  UNL     1       2.852  13.461  29.931  1.00  0.00     0.191 HD
ENDBRANCH   1   3
BRANCH   1  12
HETATM   12  N5  UNL     1       1.850  18.311  29.243  1.00  0.00    -0.338 N 
ATOM     13  H52 UNL     1       1.028  18.914  29.241  1.00  0.00     0.167 HD
ATOM     14  H51 UNL     1       2.815  18.571  29.449  1.00  0.00     0.167 HD
ENDBRANCH   1  12
BRANCH   1  15
HETATM   15  N6  UNL     1       0.090  15.557  28.836  1.00  0.00    -0.276 N 
ATOM     16  H6  UNL     1      -0.727  16.071  29.167  1.00  0.00     0.179 HD
BRANCH  15  17
HETATM   17  C3  UNL     1      -0.010  14.382  28.413  1.00  0.00     0.182 A 
HETATM   18  N7  UNL     1       0.039  13.876  27.182  1.00  0.00    -0.221 N 
HETATM   19  O2  UNL     1      -0.114  12.592  27.217  1.00  0.00    -0.153 OA
ATOM     20  H7  UNL     1       0.178  14.423  26.332  1.00  0.00     0.198 HD
HETATM   21  N8  UNL     1      -0.268  12.208  28.452  1.00  0.00    -0.222 N 
HETATM   22  C4  UNL     1      -0.214  13.277  29.251  1.00  0.00     0.168 A 
ATOM     23  H8  UNL     1      -0.407  11.246  28.759  1.00  0.00     0.198 HD
BRANCH  22  24
HETATM   24  N9  UNL     1      -0.328  13.261  30.534  1.00  0.00    -0.381 N 
ATOM     25  H92 UNL     1       0.060  13.955  31.174  1.00  0.00     0.157 HD
ATOM     26  H91 UNL     1      -0.811  12.576  31.115  1.00  0.00     0.157 HD
ENDBRANCH  22  24
ENDBRANCH  15  17
ENDBRANCH   1  15
TORSDOF 5
ENDMDL
MODEL 3
REMARK VINA RESULT: -5.737342269      2.488      5.142
REMARK  5 active torsions:
REMARK  status: ('A' for Active; 'I' for Inactive)
REMARK    1  A    between atoms: C2_9  and  S1_10 
REMARK    2  A    between atoms: S1_10  and  N5_11 
REMARK    3  A    between atoms: S1_10  and  N6_15 
REMARK    4  A    between atoms: N6_15  and  C3_17 
REMARK    5  A    between atoms: C4_23  and  N9_24 
ROOT
HETATM    1  S1  UNL     1       3.578  14.193  31.147  1.00  0.00     0.174 S 
HETATM    2  O1  UNL     1       4.314  13.603  30.928  1.00  0.00    -0.220 OA
ENDROOT
BRANCH   1   3
HETATM    3  C2  UNL     1       1.773  13.495  30.403  1.00  0.00     0.235 A 
HETATM    4  N1  UNL     1       0.595  13.896  30.804  1.00  0.00    -0.255 N 
HETATM    5  C1  UNL     1       0.206  14.928  31.762  1.00  0.00     0.182 C 
HETATM    6  N2  UNL     1      -0.346  13.161  30.175  1.00  0.00    -0.224 N 
HETATM    7  N3  UNL     1       0.271  12.304  29.384  1.00  0.00    -0.226 N 
ATOM      8  H2  UNL     1      -1.356  13.251  30.291  1.00  0.00     0.210 HD
HETATM    9  N4  UNL     1       1.596  12.525  29.535  1.00  0.00    -0.259 N 
ATOM     10  H3  UNL     1      -0.167  11.611  28.777  1.00  0.00     0.210 HD
ATOM     11  H4  UNL     1       2.339  12.019  29.053  1.00  0.00     0.191 HD
ENDBRANCH   1   3
BRANCH   1  12
HETATM   12  N5  UNL     1       3.318  14.411  33.092  1.00  0.00    -0.338 N 
ATOM     13  H52 UNL     1       3.895  14.001  33.826  1.00  0.00     0.167 HD
ATOM     14  H51 UNL     1       2.500  15.010  33.202  1.00  0.00     0.167 HD
ENDBRANCH   1  12
BRANCH   1  15
HETATM   15  N6  UNL     1       3.909  15.892  30.210  1.00  0.00    -0.276 N 
ATOM     16  H6  UNL     1       4.762  16.038  29.668  1.00  0.00     0.179 HD
BRANCH  15  17
HETATM   17  C3  UNL     1       3.038  16.787  30.300  1.00  0.00     0.182 A 
HETATM   18  N7  UNL     1       2.791  17.692  31.246  1.00  0.00    -0.221 N 
HETATM   19  O2  UNL     1       1.778  18.425  30.915  1.00  0.00    -0.153 OA
ATOM     20  H7  UNL     1       3.325  17.792  32.110  1.00  0.00     0.198 HD
HETATM   21  N8  UNL     1       1.326  18.039  29.756  1.00  0.00    -0.222 N 
HETATM   22  C4  UNL     1       2.068  17.019  29.316  1.00  0.00     0.168 A 
ATOM     23  H8  UNL     1       0.533  18.450  29.264  1.00  0.00     0.198 HD
BRANCH  22  24
HETATM   24  N9  UNL     1       1.898  16.394  28.202  1.00  0.00    -0.381 N 
ATOM     25  H92 UNL     1       2.603  15.835  27.721  1.00  0.00     0.157 HD
ATOM     26  H91 UNL     1       1.058  16.350  27.625  1.00  0.00     0.157 HD
ENDBRANCH  22  24
ENDBRANCH  15  17
ENDBRANCH   1  15
TORSDOF 5
ENDMDL
MODEL 4
REMARK VINA RESULT: -5.697816271      2.261      2.902
REMARK  5 active torsions:
REMARK  status: ('A' for Active; 'I' for Inactive)
REMARK    1  A    between atoms: C2_9  and  S1_10 
REMARK    2  A    between atoms: S1_10  and  N5_11 
REMARK    3  A    between atoms: S1_10  and  N6_15 
REMARK    4  A    between atoms: N6_15  and  C3_17 
REMARK    5  A    between atoms: C4_23  and  N9_24 
ROOT
HETATM    1  S1  UNL     1       0.624  13.283  28.471  1.00  0.00     0.174 S 
HETATM    2  O1  UNL     1       0.880  13.156  27.545  1.00  0.00    -0.220 OA
ENDROOT
BRANCH   1   3
HETATM    3  C2  UNL     1       2.135  14.161  29.584  1.00  0.00     0.235 A 
HETATM    4  N1  UNL     1       2.617  15.359  29.376  1.00  0.00    -0.255 N 
HETATM    5  C1  UNL     1       2.225  16.401  28.429  1.00  0.00     0.182 C 
HETATM    6  N2  UNL     1       3.650  15.560  30.221  1.00  0.00    -0.224 N 
HETATM    7  N3  UNL     1       3.796  14.470  30.949  1.00  0.00    -0.226 N 
ATOM      8  H2  UNL     1       4.218  16.406  30.285  1.00  0.00     0.210 HD
HETATM    9  N4  UNL     1       2.841  13.603  30.541  1.00  0.00    -0.259 N 
ATOM     10  H3  UNL     1       4.493  14.312  31.677  1.00  0.00     0.210 HD
ATOM     11  H4  UNL     1       2.693  12.666  30.916  1.00  0.00     0.191 HD
ENDBRANCH   1   3
BRANCH   1  12
HETATM   12  N5  UNL     1      -0.956  14.449  28.680  1.00  0.00    -0.338 N 
ATOM     13  H52 UNL     1      -1.395  14.715  29.560  1.00  0.00     0.167 HD
ATOM     14  H51 UNL     1      -1.232  14.721  27.736  1.00  0.00     0.167 HD
ENDBRANCH   1  12
BRANCH   1  15
HETATM   15  N6  UNL     1       0.377  11.490  29.246  1.00  0.00    -0.276 N 
ATOM     16  H6  UNL     1       1.144  11.008  29.715  1.00  0.00     0.179 HD
BRANCH  15  17
HETATM   17  C3  UNL     1      -0.754  10.962  29.144  1.00  0.00     0.182 A 
HETATM   18  N7  UNL     1      -1.311  10.240  28.173  1.00  0.00    -0.221 N 
HETATM   19  O2  UNL     1      -2.515   9.896  28.501  1.00  0.00    -0.153 OA
ATOM     20  H7  UNL     1      -0.854   9.993  27.295  1.00  0.00     0.198 HD
HETATM   21  N8  UNL     1      -2.793  10.370  29.682  1.00  0.00    -0.222 N 
HETATM   22  C4  UNL     1      -1.736  11.047  30.140  1.00  0.00     0.168 A 
ATOM     23  H8  UNL     1      -3.675  10.244  30.176  1.00  0.00     0.198 HD
BRANCH  22  24
HETATM   24  N9  UNL     1      -1.666  11.646  31.279  1.00  0.00    -0.381 N 
ATOM     25  H92 UNL     1      -1.242  12.559  31.444  1.00  0.00     0.157 HD
ATOM     26  H91 UNL     1      -2.011  11.324  32.183  1.00  0.00     0.157 HD
ENDBRANCH  22  24
ENDBRANCH  15  17
ENDBRANCH   1  15
TORSDOF 5
ENDMDL
MODEL 5
REMARK VINA RESULT: -5.644687170      2.172      4.856
REMARK  5 active torsions:
REMARK  status: ('A' for Active; 'I' for Inactive)
REMARK    1  A    between atoms: C2_9  and  S1_10 
REMARK    2  A    between atoms: S1_10  and  N5_11 
REMARK    3  A    between atoms: S1_10  and  N6_15 
REMARK    4  A    between atoms: N6_15  and  C3_17 
REMARK    5  A    between atoms: C4_23  and  N9_24 
ROOT
HETATM    1  S1  UNL     1       1.950  15.572  28.560  1.00  0.00     0.174 S 
HETATM    2  O1  UNL     1       2.041  16.033  27.713  1.00  0.00    -0.220 OA
ENDROOT
BRANCH   1   3
HETATM    3  C2  UNL     1       0.379  16.319  29.687  1.00  0.00     0.235 A 
HETATM    4  N1  UNL     1      -0.870  15.958  29.559  1.00  0.00    -0.255 N 
HETATM    5  C1  UNL     1      -1.496  14.946  28.711  1.00  0.00     0.182 C 
HETATM    6  N2  UNL     1      -1.624  16.717  30.382  1.00  0.00    -0.224 N 
HETATM    7  N3  UNL     1      -0.820  17.549  31.016  1.00  0.00    -0.226 N 
ATOM      8  H2  UNL     1      -2.637  16.659  30.494  1.00  0.00     0.210 HD
HETATM    9  N4  UNL     1       0.431  17.289  30.573  1.00  0.00    -0.259 N 
ATOM     10  H3  UNL     1      -1.090  18.251  31.705  1.00  0.00     0.210 HD
ATOM     11  H4  UNL     1       1.278  17.768  30.878  1.00  0.00     0.191 HD
ENDBRANCH   1   3
BRANCH   1  12
HETATM   12  N5  UNL     1       1.603  13.641  28.352  1.00  0.00    -0.338 N 
ATOM     13  H52 UNL     1       1.902  12.903  28.990  1.00  0.00     0.167 HD
ATOM     14  H51 UNL     1       1.070  13.541  27.488  1.00  0.00     0.167 HD
ENDBRANCH   1  12
BRANCH   1  15
HETATM   15  N6  UNL     1       3.575  15.965  29.600  1.00  0.00    -0.276 N 
ATOM     16  H6  UNL     1       4.324  16.538  29.212  1.00  0.00     0.179 HD
BRANCH  15  17
HETATM   17  C3  UNL     1       3.657  15.487  30.755  1.00  0.00     0.182 A 
HETATM   18  N7  UNL     1       3.710  14.230  31.193  1.00  0.00    -0.221 N 
HETATM   19  O2  UNL     1       3.792  14.207  32.484  1.00  0.00    -0.153 OA
ATOM     20  H7  UNL     1       3.691  13.403  30.595  1.00  0.00     0.198 HD
HETATM   21  N8  UNL     1       3.795  15.426  32.939  1.00  0.00    -0.222 N 
HETATM   22  C4  UNL     1       3.712  16.276  31.912  1.00  0.00     0.168 A 
ATOM     23  H8  UNL     1       3.852  15.690  33.923  1.00  0.00     0.198 HD
BRANCH  22  24
HETATM   24  N9  UNL     1       3.691  17.561  32.001  1.00  0.00    -0.381 N 
ATOM     25  H92 UNL     1       3.928  18.213  31.252  1.00  0.00     0.157 HD
ATOM     26  H91 UNL     1       3.443  18.133  32.808  1.00  0.00     0.157 HD
ENDBRANCH  22  24
ENDBRANCH  15  17
ENDBRANCH   1  15
TORSDOF 5
ENDMDL
