MODEL 1
REMARK VINA RESULT: -6.850181647      0.000      0.000
REMARK  8 active torsions:
REMARK  status: ('A' for Active; 'I' for Inactive)
REMARK    1  A    between atoms: C4_4  and  C5_5 
REMARK    2  A    between atoms: C4_4  and  C6_7 
REMARK    3  A    between atoms: C6_7  and  C7_8 
REMARK    4  A    between atoms: C7_8  and  C8_9 
REMARK    5  A    between atoms: C8_9  and  O2_10 
REMARK    6  A    between atoms: C8_9  and  C9_12 
REMARK    7  A    between atoms: C10_13  and  C11_14 
REMARK    8  A    between atoms: C19_26  and  O4_27 
ROOT
HETATM    1  C6  UNL     1      79.608   5.258  30.186  1.00  0.00     0.019 C 
ENDROOT
BRANCH   1   2
HETATM    2  C4  UNL     1      79.299   6.313  29.144  1.00  0.00     0.014 C 
HETATM    3  C3  UNL     1      79.053   5.533  27.844  1.00  0.00     0.023 C 
HETATM    4  C2  UNL     1      80.377   5.314  27.165  1.00  0.00     0.012 C 
HETATM    5  C1  UNL     1      80.244   4.293  26.060  1.00  0.00     0.012 C 
HETATM    6  C19 UNL     1      80.886   6.615  26.613  1.00  0.00     0.129 C 
HETATM    7  C16 UNL     1      80.738   7.710  27.627  1.00  0.00    -0.020 C 
HETATM    8  C15 UNL     1      80.492   7.223  29.019  1.00  0.00     0.028 C 
HETATM    9  C17 UNL     1      82.080   8.459  27.656  1.00  0.00     0.017 C 
HETATM   10  C18 UNL     1      79.712   8.740  27.180  1.00  0.00     0.017 C 
BRANCH   6  11
HETATM   11  O4  UNL     1      80.252   6.938  25.397  1.00  0.00    -0.394 OA
ATOM     12  H4  UNL     1      80.864   7.325  24.781  1.00  0.00     0.210 HD
ENDBRANCH   6  11
BRANCH   2  13
HETATM   13  C5  UNL     1      78.132   7.133  29.505  1.00  0.00     0.240 C 
HETATM   14  O1  UNL     1      78.163   8.069  30.300  1.00  0.00    -0.306 OA
ENDBRANCH   2  13
ENDBRANCH   1   2
BRANCH   1  15
HETATM   15  C7  UNL     1      80.924   5.511  30.876  1.00  0.00     0.037 C 
BRANCH  15  16
HETATM   16  C8  UNL     1      80.675   5.818  32.354  1.00  0.00     0.140 C 
BRANCH  16  17
HETATM   17  O2  UNL     1      79.314   6.194  32.483  1.00  0.00    -0.392 OA
ATOM     18  H2  UNL     1      79.015   5.887  33.330  1.00  0.00     0.210 HD
ENDBRANCH  16  17
BRANCH  16  19
HETATM   19  C9  UNL     1      80.835   4.621  33.192  1.00  0.00     0.002 C 
HETATM   20  C10 UNL     1      81.455   4.697  34.356  1.00  0.00     0.006 C 
BRANCH  20  21
HETATM   21  C11 UNL     1      81.998   5.987  34.839  1.00  0.00     0.232 C 
HETATM   22  C12 UNL     1      83.513   5.922  34.727  1.00  0.00     0.204 C 
HETATM   23  O3  UNL     1      84.147   6.176  35.921  1.00  0.00    -0.387 OA
HETATM   24  C13 UNL     1      83.767   5.310  36.933  1.00  0.00     0.195 C 
HETATM   25  C14 UNL     1      82.265   5.123  36.991  1.00  0.00     0.259 C 
HETATM   26  N1  UNL     1      81.669   6.204  36.238  1.00  0.00    -0.064 N 
ATOM     27  H12 UNL     1      81.947   7.126  36.575  1.00  0.00     0.278 HD
ATOM     28  H11 UNL     1      80.667   6.299  36.402  1.00  0.00     0.278 HD
ENDBRANCH  20  21
ENDBRANCH  16  19
ENDBRANCH  15  16
ENDBRANCH   1  15
TORSDOF 8
ENDMDL
MODEL 2
REMARK VINA RESULT: -6.792975339      2.608      7.264
REMARK  8 active torsions:
REMARK  status: ('A' for Active; 'I' for Inactive)
REMARK    1  A    between atoms: C4_4  and  C5_5 
REMARK    2  A    between atoms: C4_4  and  C6_7 
REMARK    3  A    between atoms: C6_7  and  C7_8 
REMARK    4  A    between atoms: C7_8  and  C8_9 
REMARK    5  A    between atoms: C8_9  and  O2_10 
REMARK    6  A    between atoms: C8_9  and  C9_12 
REMARK    7  A    between atoms: C10_13  and  C11_14 
REMARK    8  A    between atoms: C19_26  and  O4_27 
ROOT
HETATM    1  C6  UNL     1      80.807   4.747  31.866  1.00  0.00     0.019 C 
ENDROOT
BRANCH   1   2
HETATM    2  C4  UNL     1      81.871   5.730  32.310  1.00  0.00     0.014 C 
HETATM    3  C3  UNL     1      83.019   4.862  32.847  1.00  0.00     0.023 C 
HETATM    4  C2  UNL     1      82.751   4.567  34.297  1.00  0.00     0.012 C 
HETATM    5  C1  UNL     1      83.664   3.471  34.793  1.00  0.00     0.012 C 
HETATM    6  C19 UNL     1      82.942   5.812  35.114  1.00  0.00     0.129 C 
HETATM    7  C16 UNL     1      82.274   6.982  34.454  1.00  0.00    -0.020 C 
HETATM    8  C15 UNL     1      81.292   6.604  33.391  1.00  0.00     0.028 C 
HETATM    9  C17 UNL     1      81.475   7.703  35.551  1.00  0.00     0.017 C 
HETATM   10  C18 UNL     1      83.296   7.998  33.967  1.00  0.00     0.017 C 
BRANCH   6  11
HETATM   11  O4  UNL     1      84.307   6.059  35.359  1.00  0.00    -0.394 OA
ATOM     12  H4  UNL     1      84.709   6.524  34.634  1.00  0.00     0.210 HD
ENDBRANCH   6  11
BRANCH   2  13
HETATM   13  C5  UNL     1      82.326   6.599  31.213  1.00  0.00     0.240 C 
HETATM   14  O1  UNL     1      81.767   7.640  30.877  1.00  0.00    -0.306 OA
ENDBRANCH   2  13
ENDBRANCH   1   2
BRANCH   1  15
HETATM   15  C7  UNL     1      79.415   5.273  32.106  1.00  0.00     0.037 C 
BRANCH  15  16
HETATM   16  C8  UNL     1      78.590   5.138  30.825  1.00  0.00     0.140 C 
BRANCH  16  17
HETATM   17  O2  UNL     1      77.233   4.985  31.211  1.00  0.00    -0.392 OA
ATOM     18  H2  UNL     1      77.022   5.707  31.791  1.00  0.00     0.210 HD
ENDBRANCH  16  17
BRANCH  16  19
HETATM   19  C9  UNL     1      78.634   6.366  30.018  1.00  0.00     0.002 C 
HETATM   20  C10 UNL     1      79.246   6.376  28.847  1.00  0.00     0.006 C 
BRANCH  20  21
HETATM   21  C11 UNL     1      79.897   5.152  28.326  1.00  0.00     0.232 C 
HETATM   22  C12 UNL     1      81.180   5.572  27.628  1.00  0.00     0.204 C 
HETATM   23  O3  UNL     1      81.244   5.141  26.324  1.00  0.00    -0.387 OA
HETATM   24  C13 UNL     1      80.184   5.590  25.551  1.00  0.00     0.195 C 
HETATM   25  C14 UNL     1      78.854   5.423  26.255  1.00  0.00     0.259 C 
HETATM   26  N1  UNL     1      79.057   4.491  27.341  1.00  0.00    -0.064 N 
ATOM     27  H12 UNL     1      79.434   3.594  27.033  1.00  0.00     0.278 HD
ATOM     28  H11 UNL     1      78.184   4.139  27.734  1.00  0.00     0.278 HD
ENDBRANCH  20  21
ENDBRANCH  16  19
ENDBRANCH  15  16
ENDBRANCH   1  15
TORSDOF 8
ENDMDL
MODEL 3
REMARK VINA RESULT: -6.732728340      1.179      1.370
REMARK  8 active torsions:
REMARK  status: ('A' for Active; 'I' for Inactive)
REMARK    1  A    between atoms: C4_4  and  C5_5 
REMARK    2  A    between atoms: C4_4  and  C6_7 
REMARK    3  A    between atoms: C6_7  and  C7_8 
REMARK    4  A    between atoms: C7_8  and  C8_9 
REMARK    5  A    between atoms: C8_9  and  O2_10 
REMARK    6  A    between atoms: C8_9  and  C9_12 
REMARK    7  A    between atoms: C10_13  and  C11_14 
REMARK    8  A    between atoms: C19_26  and  O4_27 
ROOT
HETATM    1  C6  UNL     1      79.741   4.896  29.978  1.00  0.00     0.019 C 
ENDROOT
BRANCH   1   2
HETATM    2  C4  UNL     1      79.374   6.054  29.072  1.00  0.00     0.014 C 
HETATM    3  C3  UNL     1      79.090   5.417  27.704  1.00  0.00     0.023 C 
HETATM    4  C2  UNL     1      80.389   5.302  26.955  1.00  0.00     0.012 C 
HETATM    5  C1  UNL     1      80.229   4.407  25.750  1.00  0.00     0.012 C 
HETATM    6  C19 UNL     1      80.855   6.666  26.533  1.00  0.00     0.129 C 
HETATM    7  C16 UNL     1      80.729   7.639  27.668  1.00  0.00    -0.020 C 
HETATM    8  C15 UNL     1      80.545   6.997  29.005  1.00  0.00     0.028 C 
HETATM    9  C17 UNL     1      82.058   8.408  27.730  1.00  0.00     0.017 C 
HETATM   10  C18 UNL     1      79.669   8.691  27.376  1.00  0.00     0.017 C 
BRANCH   6  11
HETATM   11  O4  UNL     1      80.168   7.108  25.385  1.00  0.00    -0.394 OA
ATOM     12  H4  UNL     1      79.876   8.007  25.483  1.00  0.00     0.210 HD
ENDBRANCH   6  11
BRANCH   2  13
HETATM   13  C5  UNL     1      78.209   6.804  29.565  1.00  0.00     0.240 C 
HETATM   14  O1  UNL     1      78.280   7.806  30.273  1.00  0.00    -0.306 OA
ENDBRANCH   2  13
ENDBRANCH   1   2
BRANCH   1  15
HETATM   15  C7  UNL     1      79.110   5.022  31.341  1.00  0.00     0.037 C 
BRANCH  15  16
HETATM   16  C8  UNL     1      80.126   5.611  32.322  1.00  0.00     0.140 C 
BRANCH  16  17
HETATM   17  O2  UNL     1      79.455   6.606  33.078  1.00  0.00    -0.392 OA
ATOM     18  H2  UNL     1      80.117   7.186  33.433  1.00  0.00     0.210 HD
ENDBRANCH  16  17
BRANCH  16  19
HETATM   19  C9  UNL     1      80.580   4.612  33.300  1.00  0.00     0.002 C 
HETATM   20  C10 UNL     1      81.802   4.667  33.796  1.00  0.00     0.006 C 
BRANCH  20  21
HETATM   21  C11 UNL     1      82.738   5.736  33.378  1.00  0.00     0.232 C 
HETATM   22  C12 UNL     1      83.846   5.088  32.563  1.00  0.00     0.204 C 
HETATM   23  O3  UNL     1      85.099   5.354  33.062  1.00  0.00    -0.387 OA
HETATM   24  C13 UNL     1      85.259   4.948  34.377  1.00  0.00     0.195 C 
HETATM   25  C14 UNL     1      84.086   5.352  35.245  1.00  0.00     0.259 C 
HETATM   26  N1  UNL     1      83.354   6.373  34.530  1.00  0.00    -0.064 N 
ATOM     27  H12 UNL     1      83.932   7.177  34.280  1.00  0.00     0.278 HD
ATOM     28  H11 UNL     1      82.684   6.869  35.117  1.00  0.00     0.278 HD
ENDBRANCH  20  21
ENDBRANCH  16  19
ENDBRANCH  15  16
ENDBRANCH   1  15
TORSDOF 8
ENDMDL
MODEL 4
REMARK VINA RESULT: -6.643190096      2.675      7.528
REMARK  8 active torsions:
REMARK  status: ('A' for Active; 'I' for Inactive)
REMARK    1  A    between atoms: C4_4  and  C5_5 
REMARK    2  A    between atoms: C4_4  and  C6_7 
REMARK    3  A    between atoms: C6_7  and  C7_8 
REMARK    4  A    between atoms: C7_8  and  C8_9 
REMARK    5  A    between atoms: C8_9  and  O2_10 
REMARK    6  A    between atoms: C8_9  and  C9_12 
REMARK    7  A    between atoms: C10_13  and  C11_14 
REMARK    8  A    between atoms: C19_26  and  O4_27 
ROOT
HETATM    1  C6  UNL     1      80.534   4.387  32.595  1.00  0.00     0.019 C 
ENDROOT
BRANCH   1   2
HETATM    2  C4  UNL     1      81.471   5.189  33.474  1.00  0.00     0.014 C 
HETATM    3  C3  UNL     1      82.365   5.969  32.499  1.00  0.00     0.023 C 
HETATM    4  C2  UNL     1      83.533   5.098  32.126  1.00  0.00     0.012 C 
HETATM    5  C1  UNL     1      84.270   5.676  30.942  1.00  0.00     0.012 C 
HETATM    6  C19 UNL     1      84.460   4.960  33.300  1.00  0.00     0.129 C 
HETATM    7  C16 UNL     1      83.684   4.676  34.552  1.00  0.00    -0.020 C 
HETATM    8  C15 UNL     1      82.277   4.232  34.311  1.00  0.00     0.028 C 
HETATM    9  C17 UNL     1      84.398   3.508  35.250  1.00  0.00     0.017 C 
HETATM   10  C18 UNL     1      83.768   5.839  35.528  1.00  0.00     0.017 C 
BRANCH   6  11
HETATM   11  O4  UNL     1      85.281   6.097  33.439  1.00  0.00    -0.394 OA
ATOM     12  H4  UNL     1      84.958   6.821  32.916  1.00  0.00     0.210 HD
ENDBRANCH   6  11
BRANCH   2  13
HETATM   13  C5  UNL     1      80.751   6.097  34.382  1.00  0.00     0.240 C 
HETATM   14  O1  UNL     1      80.968   7.303  34.470  1.00  0.00    -0.306 OA
ENDBRANCH   2  13
ENDBRANCH   1   2
BRANCH   1  15
HETATM   15  C7  UNL     1      79.441   5.241  32.006  1.00  0.00     0.037 C 
BRANCH  15  16
HETATM   16  C8  UNL     1      79.407   5.053  30.488  1.00  0.00     0.140 C 
BRANCH  16  17
HETATM   17  O2  UNL     1      78.663   3.874  30.225  1.00  0.00    -0.392 OA
ATOM     18  H2  UNL     1      77.800   3.995  30.602  1.00  0.00     0.210 HD
ENDBRANCH  16  17
BRANCH  16  19
HETATM   19  C9  UNL     1      78.675   6.139  29.821  1.00  0.00     0.002 C 
HETATM   20  C10 UNL     1      78.899   6.416  28.549  1.00  0.00     0.006 C 
BRANCH  20  21
HETATM   21  C11 UNL     1      79.891   5.638  27.772  1.00  0.00     0.232 C 
HETATM   22  C12 UNL     1      80.540   6.583  26.774  1.00  0.00     0.204 C 
HETATM   23  O3  UNL     1      80.436   6.142  25.476  1.00  0.00    -0.387 OA
HETATM   24  C13 UNL     1      79.124   5.948  25.072  1.00  0.00     0.195 C 
HETATM   25  C14 UNL     1      78.312   5.200  26.109  1.00  0.00     0.259 C 
HETATM   26  N1  UNL     1      79.248   4.575  27.017  1.00  0.00    -0.064 N 
ATOM     27  H12 UNL     1      79.913   3.962  26.545  1.00  0.00     0.278 HD
ATOM     28  H11 UNL     1      78.815   3.869  27.612  1.00  0.00     0.278 HD
ENDBRANCH  20  21
ENDBRANCH  16  19
ENDBRANCH  15  16
ENDBRANCH   1  15
TORSDOF 8
ENDMDL
MODEL 5
REMARK VINA RESULT: -6.634307939      2.328      7.773
REMARK  8 active torsions:
REMARK  status: ('A' for Active; 'I' for Inactive)
REMARK    1  A    between atoms: C4_4  and  C5_5 
REMARK    2  A    between atoms: C4_4  and  C6_7 
REMARK    3  A    between atoms: C6_7  and  C7_8 
REMARK    4  A    between atoms: C7_8  and  C8_9 
REMARK    5  A    between atoms: C8_9  and  O2_10 
REMARK    6  A    between atoms: C8_9  and  C9_12 
REMARK    7  A    between atoms: C10_13  and  C11_14 
REMARK    8  A    between atoms: C19_26  and  O4_27 
ROOT
HETATM    1  C6  UNL     1      81.051   6.216  34.673  1.00  0.00     0.019 C 
ENDROOT
BRANCH   1   2
HETATM    2  C4  UNL     1      82.331   6.174  35.482  1.00  0.00     0.014 C 
HETATM    3  C3  UNL     1      83.293   7.128  34.757  1.00  0.00     0.023 C 
HETATM    4  C2  UNL     1      84.002   6.356  33.679  1.00  0.00     0.012 C 
HETATM    5  C1  UNL     1      84.717   7.296  32.737  1.00  0.00     0.012 C 
HETATM    6  C19 UNL     1      84.978   5.397  34.297  1.00  0.00     0.129 C 
HETATM    7  C16 UNL     1      84.344   4.667  35.444  1.00  0.00    -0.020 C 
HETATM    8  C15 UNL     1      82.852   4.762  35.477  1.00  0.00     0.028 C 
HETATM    9  C17 UNL     1      84.684   3.181  35.255  1.00  0.00     0.017 C 
HETATM   10  C18 UNL     1      84.981   5.061  36.768  1.00  0.00     0.017 C 
BRANCH   6  11
HETATM   11  O4  UNL     1      86.163   6.052  34.685  1.00  0.00    -0.394 OA
ATOM     12  H4  UNL     1      86.879   5.436  34.792  1.00  0.00     0.210 HD
ENDBRANCH   6  11
BRANCH   2  13
HETATM   13  C5  UNL     1      82.126   6.583  36.880  1.00  0.00     0.240 C 
HETATM   14  O1  UNL     1      81.636   5.862  37.746  1.00  0.00    -0.306 OA
ENDBRANCH   2  13
ENDBRANCH   1   2
BRANCH   1  15
HETATM   15  C7  UNL     1      80.914   5.021  33.765  1.00  0.00     0.037 C 
BRANCH  15  16
HETATM   16  C8  UNL     1      80.178   5.430  32.488  1.00  0.00     0.140 C 
BRANCH  16  17
HETATM   17  O2  UNL     1      79.324   6.513  32.823  1.00  0.00    -0.392 OA
ATOM     18  H2  UNL     1      79.499   7.212  32.204  1.00  0.00     0.210 HD
ENDBRANCH  16  17
BRANCH  16  19
HETATM   19  C9  UNL     1      81.101   5.955  31.472  1.00  0.00     0.002 C 
HETATM   20  C10 UNL     1      80.829   5.820  30.187  1.00  0.00     0.006 C 
BRANCH  20  21
HETATM   21  C11 UNL     1      79.589   5.141  29.745  1.00  0.00     0.232 C 
HETATM   22  C12 UNL     1      79.791   4.702  28.304  1.00  0.00     0.204 C 
HETATM   23  O3  UNL     1      78.820   5.184  27.459  1.00  0.00    -0.387 OA
HETATM   24  C13 UNL     1      78.734   6.568  27.464  1.00  0.00     0.195 C 
HETATM   25  C14 UNL     1      78.753   7.136  28.867  1.00  0.00     0.259 C 
HETATM   26  N1  UNL     1      78.455   6.050  29.774  1.00  0.00    -0.064 N 
ATOM     27  H12 UNL     1      77.569   5.588  29.567  1.00  0.00     0.278 HD
ATOM     28  H11 UNL     1      78.222   6.367  30.714  1.00  0.00     0.278 HD
ENDBRANCH  20  21
ENDBRANCH  16  19
ENDBRANCH  15  16
ENDBRANCH   1  15
TORSDOF 8
ENDMDL
