MODEL 1
REMARK VINA RESULT: -7.375993280      0.000      0.000
REMARK  15 active torsions:
REMARK  status: ('A' for Active; 'I' for Inactive)
REMARK    1  A    between atoms: C2_2  and  C3_4 
REMARK    2  A    between atoms: C3_4  and  O2_5 
REMARK    3  A    between atoms: C3_4  and  C4_7 
REMARK    4  A    between atoms: C4_7  and  O3_8 
REMARK    5  A    between atoms: C4_7  and  C5_10 
REMARK    6  A    between atoms: C5_10  and  O4_11 
REMARK    7  A    between atoms: C5_10  and  N1_13 
REMARK    8  A    between atoms: N1_13  and  C6_15 
REMARK    9  A    between atoms: C8_18  and  C9_19 
REMARK   10  A    between atoms: C9_19  and  N2_20 
REMARK   11  A    between atoms: C10_21  and  N3_22 
REMARK   12  A    between atoms: N3_22  and  C11_24 
REMARK   13  A    between atoms: C13_28  and  O6_29 
REMARK   14  A    between atoms: C16_43  and  N10_44 
REMARK   15  A    between atoms: C18_50  and  O7_51 
ROOT
HETATM    1  N2  UNL     1      61.425   2.431  49.523  1.00  0.00    -0.003 N 
HETATM    2  C10 UNL     1      62.599   2.916  49.924  1.00  0.00     0.730 A 
HETATM    3  N6  UNL     1      62.365   3.478  51.151  1.00  0.00    -0.095 N 
ATOM      4  H6  UNL     1      63.068   3.936  51.730  1.00  0.00     0.207 HD
HETATM    5  N7  UNL     1      61.096   3.337  51.469  1.00  0.00     0.106 N 
HETATM    6  C15 UNL     1      60.378   3.721  52.568  1.00  0.00     0.727 A 
HETATM    7  N8  UNL     1      60.967   4.351  53.538  1.00  0.00    -0.232 N 
ATOM      8  H81 UNL     1      60.432   4.637  54.357  1.00  0.00     0.174 HD
ATOM      9  H82 UNL     1      61.962   4.573  53.512  1.00  0.00     0.174 HD
HETATM   10  N9  UNL     1      59.080   3.431  52.601  1.00  0.00    -0.020 N 
ATOM     11  H9  UNL     1      58.538   3.716  53.417  1.00  0.00     0.203 HD
HETATM   12  C16 UNL     1      58.449   2.776  51.601  1.00  0.00     0.705 A 
HETATM   13  N11 UNL     1      59.149   2.398  50.524  1.00  0.00    -0.019 N 
ATOM     14  H11 UNL     1      58.700   1.903  49.754  1.00  0.00     0.203 HD
HETATM   15  C17 UNL     1      60.463   2.691  50.488  1.00  0.00     0.750 A 
ENDROOT
BRANCH   1  16
HETATM   16  C9  UNL     1      61.107   1.692  48.334  1.00  0.00     0.235 C 
BRANCH  16  17
HETATM   17  C8  UNL     1      60.475   2.509  47.275  1.00  0.00     0.109 A 
HETATM   18  O5  UNL     1      59.129   2.503  47.186  1.00  0.00    -0.320 OA
HETATM   19  C7  UNL     1      58.458   3.172  46.301  1.00  0.00     0.175 A 
HETATM   20  C6  UNL     1      59.064   3.963  45.355  1.00  0.00     0.106 A 
HETATM   21  C19 UNL     1      60.436   4.010  45.396  1.00  0.00     0.235 A 
HETATM   22  C18 UNL     1      61.146   3.278  46.365  1.00  0.00     0.150 A 
HETATM   23  O8  UNL     1      61.028   4.720  44.551  1.00  0.00    -0.283 OA
BRANCH  20  24
HETATM   24  N1  UNL     1      58.316   4.665  44.360  1.00  0.00    -0.357 N 
ATOM     25  H1  UNL     1      57.831   5.511  44.661  1.00  0.00     0.162 HD
BRANCH  24  26
HETATM   26  C5  UNL     1      58.181   4.304  42.990  1.00  0.00     0.250 C 
BRANCH  26  27
HETATM   27  C4  UNL     1      56.794   4.526  42.488  1.00  0.00     0.202 C 
BRANCH  27  28
HETATM   28  C3  UNL     1      56.541   5.923  41.979  1.00  0.00     0.220 C 
BRANCH  28  29
HETATM   29  C2  UNL     1      55.263   6.158  41.318  1.00  0.00     0.154 C 
HETATM   30  C1  UNL     1      54.454   7.402  41.342  1.00  0.00     0.093 C 
HETATM   31  O1  UNL     1      54.754   5.237  40.649  1.00  0.00    -0.295 OA
ENDBRANCH  28  29
BRANCH  28  32
HETATM   32  O2  UNL     1      56.645   6.845  43.046  1.00  0.00    -0.385 OA
ATOM     33  H2  UNL     1      57.518   7.218  43.017  1.00  0.00     0.210 HD
ENDBRANCH  28  32
ENDBRANCH  27  28
BRANCH  27  34
HETATM   34  O3  UNL     1      55.781   4.042  43.258  1.00  0.00    -0.388 OA
ATOM     35  H3  UNL     1      55.945   3.166  43.588  1.00  0.00     0.210 HD
ENDBRANCH  27  34
ENDBRANCH  26  27
BRANCH  26  36
HETATM   36  O4  UNL     1      59.137   4.995  42.244  1.00  0.00    -0.374 OA
ATOM     37  H4  UNL     1      59.848   4.435  41.955  1.00  0.00     0.212 HD
ENDBRANCH  26  36
ENDBRANCH  24  26
ENDBRANCH  20  24
BRANCH  22  38
HETATM   38  O7  UNL     1      62.529   3.378  46.348  1.00  0.00    -0.355 OA
ATOM     39  H7  UNL     1      62.999   3.852  45.673  1.00  0.00     0.218 HD
ENDBRANCH  22  38
ENDBRANCH  16  17
ENDBRANCH   1  16
BRANCH   2  40
HETATM   40  N3  UNL     1      63.859   2.943  49.259  1.00  0.00    -0.021 N 
ATOM     41  H3  UNL     1      64.275   2.074  48.925  1.00  0.00     0.203 HD
BRANCH  40  42
HETATM   42  C11 UNL     1      64.539   4.174  49.060  1.00  0.00     0.688 C 
HETATM   43  N4  UNL     1      63.979   5.230  48.572  1.00  0.00    -0.223 N 
HETATM   44  C12 UNL     1      64.655   6.493  48.363  1.00  0.00     0.171 C 
ATOM     45  H4  UNL     1      62.994   5.171  48.316  1.00  0.00     0.177 HD
HETATM   46  C13 UNL     1      65.716   6.665  49.425  1.00  0.00     0.154 C 
HETATM   47  C14 UNL     1      66.675   5.506  49.287  1.00  0.00     0.171 C 
HETATM   48  N5  UNL     1      65.928   4.295  49.408  1.00  0.00    -0.223 N 
ATOM     49  H5  UNL     1      66.407   3.468  49.762  1.00  0.00     0.177 HD
BRANCH  46  50
HETATM   50  O6  UNL     1      66.364   7.892  49.317  1.00  0.00    -0.392 OA
ATOM     51  H6  UNL     1      67.189   7.899  49.788  1.00  0.00     0.210 HD
ENDBRANCH  46  50
ENDBRANCH  40  42
ENDBRANCH   2  40
BRANCH  12  52
HETATM   52  N10 UNL     1      57.177   2.506  51.664  1.00  0.00    -0.234 N 
ATOM     53 2H10 UNL     1      56.626   2.867  52.443  1.00  0.00     0.174 HD
ATOM     54 1H10 UNL     1      56.718   1.940  50.951  1.00  0.00     0.174 HD
ENDBRANCH  12  52
TORSDOF 15
ENDMDL
MODEL 2
REMARK VINA RESULT: -7.322393794      1.469      2.030
REMARK  15 active torsions:
REMARK  status: ('A' for Active; 'I' for Inactive)
REMARK    1  A    between atoms: C2_2  and  C3_4 
REMARK    2  A    between atoms: C3_4  and  O2_5 
REMARK    3  A    between atoms: C3_4  and  C4_7 
REMARK    4  A    between atoms: C4_7  and  O3_8 
REMARK    5  A    between atoms: C4_7  and  C5_10 
REMARK    6  A    between atoms: C5_10  and  O4_11 
REMARK    7  A    between atoms: C5_10  and  N1_13 
REMARK    8  A    between atoms: N1_13  and  C6_15 
REMARK    9  A    between atoms: C8_18  and  C9_19 
REMARK   10  A    between atoms: C9_19  and  N2_20 
REMARK   11  A    between atoms: C10_21  and  N3_22 
REMARK   12  A    between atoms: N3_22  and  C11_24 
REMARK   13  A    between atoms: C13_28  and  O6_29 
REMARK   14  A    between atoms: C16_43  and  N10_44 
REMARK   15  A    between atoms: C18_50  and  O7_51 
ROOT
HETATM    1  N2  UNL     1      60.499   2.998  50.693  1.00  0.00    -0.003 N 
HETATM    2  C10 UNL     1      61.811   3.179  50.833  1.00  0.00     0.730 A 
HETATM    3  N6  UNL     1      61.962   3.903  51.986  1.00  0.00    -0.095 N 
ATOM      4  H6  UNL     1      62.853   4.205  52.376  1.00  0.00     0.207 HD
HETATM    5  N7  UNL     1      60.782   4.148  52.514  1.00  0.00     0.106 N 
HETATM    6  C15 UNL     1      60.404   4.821  53.643  1.00  0.00     0.727 A 
HETATM    7  N8  UNL     1      61.304   5.358  54.408  1.00  0.00    -0.232 N 
ATOM      8  H81 UNL     1      61.023   5.860  55.250  1.00  0.00     0.174 HD
ATOM      9  H82 UNL     1      62.300   5.295  54.196  1.00  0.00     0.174 HD
HETATM   10  N9  UNL     1      59.105   4.903  53.919  1.00  0.00    -0.020 N 
ATOM     11  H9  UNL     1      58.815   5.405  54.759  1.00  0.00     0.203 HD
HETATM   12  C16 UNL     1      58.152   4.351  53.135  1.00  0.00     0.705 A 
HETATM   13  N11 UNL     1      58.519   3.690  52.029  1.00  0.00    -0.019 N 
ATOM     14  H11 UNL     1      57.823   3.263  51.419  1.00  0.00     0.203 HD
HETATM   15  C17 UNL     1      59.832   3.606  51.747  1.00  0.00     0.750 A 
ENDROOT
BRANCH   1  16
HETATM   16  C9  UNL     1      59.787   2.261  49.689  1.00  0.00     0.235 C 
BRANCH  16  17
HETATM   17  C8  UNL     1      59.604   3.002  48.422  1.00  0.00     0.109 A 
HETATM   18  O5  UNL     1      60.669   3.647  47.904  1.00  0.00    -0.320 OA
HETATM   19  C7  UNL     1      60.636   4.332  46.804  1.00  0.00     0.175 A 
HETATM   20  C6  UNL     1      59.495   4.468  46.049  1.00  0.00     0.106 A 
HETATM   21  C19 UNL     1      58.376   3.830  46.527  1.00  0.00     0.235 A 
HETATM   22  C18 UNL     1      58.432   3.090  47.722  1.00  0.00     0.150 A 
HETATM   23  O8  UNL     1      57.315   3.928  45.869  1.00  0.00    -0.283 OA
BRANCH  20  24
HETATM   24  N1  UNL     1      59.461   5.258  44.859  1.00  0.00    -0.357 N 
ATOM     25  H1  UNL     1      59.110   6.212  44.951  1.00  0.00     0.162 HD
BRANCH  24  26
HETATM   26  C5  UNL     1      59.866   4.848  43.557  1.00  0.00     0.250 C 
BRANCH  26  27
HETATM   27  C4  UNL     1      58.709   4.398  42.729  1.00  0.00     0.202 C 
BRANCH  27  28
HETATM   28  C3  UNL     1      57.663   5.461  42.506  1.00  0.00     0.220 C 
BRANCH  28  29
HETATM   29  C2  UNL     1      56.766   5.270  41.373  1.00  0.00     0.154 C 
HETATM   30  C1  UNL     1      55.626   6.132  40.974  1.00  0.00     0.093 C 
HETATM   31  O1  UNL     1      56.937   4.282  40.630  1.00  0.00    -0.295 OA
ENDBRANCH  28  29
BRANCH  28  32
HETATM   32  O2  UNL     1      56.864   5.592  43.665  1.00  0.00    -0.385 OA
ATOM     33  H2  UNL     1      57.162   4.944  44.292  1.00  0.00     0.210 HD
ENDBRANCH  28  32
ENDBRANCH  27  28
BRANCH  27  34
HETATM   34  O3  UNL     1      58.184   3.178  43.024  1.00  0.00    -0.388 OA
ATOM     35  H3  UNL     1      57.325   3.036  42.643  1.00  0.00     0.210 HD
ENDBRANCH  27  34
ENDBRANCH  26  27
BRANCH  26  36
HETATM   36  O4  UNL     1      60.581   5.886  42.959  1.00  0.00    -0.374 OA
ATOM     37  H4  UNL     1      61.513   5.709  42.917  1.00  0.00     0.212 HD
ENDBRANCH  26  36
ENDBRANCH  24  26
ENDBRANCH  20  24
BRANCH  22  38
HETATM   38  O7  UNL     1      57.264   2.471  48.140  1.00  0.00    -0.355 OA
ATOM     39  H7  UNL     1      56.423   2.912  48.138  1.00  0.00     0.218 HD
ENDBRANCH  22  38
ENDBRANCH  16  17
ENDBRANCH   1  16
BRANCH   2  40
HETATM   40  N3  UNL     1      62.888   2.794  49.984  1.00  0.00    -0.021 N 
ATOM     41  H3  UNL     1      62.993   1.817  49.710  1.00  0.00     0.203 HD
BRANCH  40  42
HETATM   42  C11 UNL     1      63.818   3.762  49.519  1.00  0.00     0.688 C 
HETATM   43  N4  UNL     1      63.515   4.702  48.687  1.00  0.00    -0.223 N 
HETATM   44  C12 UNL     1      64.447   5.698  48.202  1.00  0.00     0.171 C 
ATOM     45  H4  UNL     1      62.555   4.746  48.348  1.00  0.00     0.177 HD
HETATM   46  C13 UNL     1      65.461   5.991  49.285  1.00  0.00     0.154 C 
HETATM   47  C14 UNL     1      66.166   4.692  49.597  1.00  0.00     0.171 C 
HETATM   48  N5  UNL     1      65.180   3.731  49.974  1.00  0.00    -0.223 N 
ATOM     49  H5  UNL     1      65.458   2.979  50.604  1.00  0.00     0.177 HD
BRANCH  46  50
HETATM   50  O6  UNL     1      66.353   6.989  48.904  1.00  0.00    -0.392 OA
ATOM     51  H6  UNL     1      65.931   7.838  48.847  1.00  0.00     0.210 HD
ENDBRANCH  46  50
ENDBRANCH  40  42
ENDBRANCH   2  40
BRANCH  12  52
HETATM   52  N10 UNL     1      56.888   4.448  53.433  1.00  0.00    -0.234 N 
ATOM     53 2H10 UNL     1      56.572   4.185  54.367  1.00  0.00     0.174 HD
ATOM     54 1H10 UNL     1      56.206   4.781  52.753  1.00  0.00     0.174 HD
ENDBRANCH  12  52
TORSDOF 15
ENDMDL
MODEL 3
REMARK VINA RESULT: -7.286849002      2.674      3.555
REMARK  15 active torsions:
REMARK  status: ('A' for Active; 'I' for Inactive)
REMARK    1  A    between atoms: C2_2  and  C3_4 
REMARK    2  A    between atoms: C3_4  and  O2_5 
REMARK    3  A    between atoms: C3_4  and  C4_7 
REMARK    4  A    between atoms: C4_7  and  O3_8 
REMARK    5  A    between atoms: C4_7  and  C5_10 
REMARK    6  A    between atoms: C5_10  and  O4_11 
REMARK    7  A    between atoms: C5_10  and  N1_13 
REMARK    8  A    between atoms: N1_13  and  C6_15 
REMARK    9  A    between atoms: C8_18  and  C9_19 
REMARK   10  A    between atoms: C9_19  and  N2_20 
REMARK   11  A    between atoms: C10_21  and  N3_22 
REMARK   12  A    between atoms: N3_22  and  C11_24 
REMARK   13  A    between atoms: C13_28  and  O6_29 
REMARK   14  A    between atoms: C16_43  and  N10_44 
REMARK   15  A    between atoms: C18_50  and  O7_51 
ROOT
HETATM    1  N2  UNL     1      58.663   1.958  50.399  1.00  0.00    -0.003 N 
HETATM    2  C10 UNL     1      59.634   1.050  50.474  1.00  0.00     0.730 A 
HETATM    3  N6  UNL     1      60.106   1.119  51.758  1.00  0.00    -0.095 N 
ATOM      4  H6  UNL     1      60.857   0.545  52.139  1.00  0.00     0.207 HD
HETATM    5  N7  UNL     1      59.442   2.038  52.426  1.00  0.00     0.106 N 
HETATM    6  C15 UNL     1      59.534   2.480  53.716  1.00  0.00     0.727 A 
HETATM    7  N8  UNL     1      60.411   1.959  54.517  1.00  0.00    -0.232 N 
ATOM      8  H81 UNL     1      60.481   2.288  55.480  1.00  0.00     0.174 HD
ATOM      9  H82 UNL     1      61.045   1.219  54.216  1.00  0.00     0.174 HD
HETATM   10  N9  UNL     1      58.707   3.446  54.109  1.00  0.00    -0.020 N 
ATOM     11  H9  UNL     1      58.771   3.782  55.070  1.00  0.00     0.203 HD
HETATM   12  C16 UNL     1      57.787   4.002  53.289  1.00  0.00     0.705 A 
HETATM   13  N11 UNL     1      57.694   3.571  52.025  1.00  0.00    -0.019 N 
ATOM     14  H11 UNL     1      57.009   3.971  51.384  1.00  0.00     0.203 HD
HETATM   15  C17 UNL     1      58.529   2.594  51.625  1.00  0.00     0.750 A 
ENDROOT
BRANCH   1  16
HETATM   16  C9  UNL     1      57.794   2.269  49.301  1.00  0.00     0.235 C 
BRANCH  16  17
HETATM   17  C8  UNL     1      58.480   2.917  48.161  1.00  0.00     0.109 A 
HETATM   18  O5  UNL     1      58.764   2.164  47.079  1.00  0.00    -0.320 OA
HETATM   19  C7  UNL     1      59.364   2.613  46.021  1.00  0.00     0.175 A 
HETATM   20  C6  UNL     1      59.774   3.919  45.900  1.00  0.00     0.106 A 
HETATM   21  C19 UNL     1      59.511   4.737  46.973  1.00  0.00     0.235 A 
HETATM   22  C18 UNL     1      58.858   4.231  48.112  1.00  0.00     0.150 A 
HETATM   23  O8  UNL     1      59.868   5.935  46.904  1.00  0.00    -0.283 OA
BRANCH  20  24
HETATM   24  N1  UNL     1      60.469   4.394  44.746  1.00  0.00    -0.357 N 
ATOM     25  H1  UNL     1      61.489   4.389  44.789  1.00  0.00     0.162 HD
BRANCH  24  26
HETATM   26  C5  UNL     1      59.883   4.874  43.540  1.00  0.00     0.250 C 
BRANCH  26  27
HETATM   27  C4  UNL     1      58.471   5.310  43.742  1.00  0.00     0.202 C 
BRANCH  27  28
HETATM   28  C3  UNL     1      57.453   4.437  43.053  1.00  0.00     0.220 C 
BRANCH  28  29
HETATM   29  C2  UNL     1      56.780   5.006  41.892  1.00  0.00     0.154 C 
HETATM   30  C1  UNL     1      57.069   4.734  40.462  1.00  0.00     0.093 C 
HETATM   31  O1  UNL     1      55.852   5.819  42.074  1.00  0.00    -0.295 OA
ENDBRANCH  28  29
BRANCH  28  32
HETATM   32  O2  UNL     1      58.061   3.229  42.644  1.00  0.00    -0.385 OA
ATOM     33  H2  UNL     1      57.502   2.837  41.984  1.00  0.00     0.210 HD
ENDBRANCH  28  32
ENDBRANCH  27  28
BRANCH  27  34
HETATM   34  O3  UNL     1      58.218   6.641  43.609  1.00  0.00    -0.388 OA
ATOM     35  H3  UNL     1      59.004   7.166  43.516  1.00  0.00     0.210 HD
ENDBRANCH  27  34
ENDBRANCH  26  27
BRANCH  26  36
HETATM   36  O4  UNL     1      60.687   5.889  43.020  1.00  0.00    -0.374 OA
ATOM     37  H4  UNL     1      60.220   6.446  42.408  1.00  0.00     0.212 HD
ENDBRANCH  26  36
ENDBRANCH  24  26
ENDBRANCH  20  24
BRANCH  22  38
HETATM   38  O7  UNL     1      58.622   5.115  49.153  1.00  0.00    -0.355 OA
ATOM     39  H7  UNL     1      58.357   6.015  49.009  1.00  0.00     0.218 HD
ENDBRANCH  22  38
ENDBRANCH  16  17
ENDBRANCH   1  16
BRANCH   2  40
HETATM   40  N3  UNL     1      60.173   0.195  49.470  1.00  0.00    -0.021 N 
ATOM     41  H3  UNL     1      59.757  -0.722  49.308  1.00  0.00     0.203 HD
BRANCH  40  42
HETATM   42  C11 UNL     1      61.288   0.612  48.694  1.00  0.00     0.688 C 
HETATM   43  N4  UNL     1      62.018  -0.196  47.999  1.00  0.00    -0.223 N 
HETATM   44  C12 UNL     1      63.156   0.210  47.202  1.00  0.00     0.171 C 
ATOM     45  H4  UNL     1      61.776  -1.186  48.012  1.00  0.00     0.177 HD
HETATM   46  C13 UNL     1      62.912   1.602  46.668  1.00  0.00     0.154 C 
HETATM   47  C14 UNL     1      62.733   2.511  47.862  1.00  0.00     0.171 C 
HETATM   48  N5  UNL     1      61.659   1.998  48.652  1.00  0.00    -0.223 N 
ATOM     49  H5  UNL     1      61.124   2.656  49.219  1.00  0.00     0.177 HD
BRANCH  46  50
HETATM   50  O6  UNL     1      63.946   2.029  45.841  1.00  0.00    -0.392 OA
ATOM     51  H6  UNL     1      64.415   1.299  45.455  1.00  0.00     0.210 HD
ENDBRANCH  46  50
ENDBRANCH  40  42
ENDBRANCH   2  40
BRANCH  12  52
HETATM   52  N10 UNL     1      56.991   4.945  53.704  1.00  0.00    -0.234 N 
ATOM     53 2H10 UNL     1      57.344   5.651  54.350  1.00  0.00     0.174 HD
ATOM     54 1H10 UNL     1      56.020   4.994  53.397  1.00  0.00     0.174 HD
ENDBRANCH  12  52
TORSDOF 15
ENDMDL
MODEL 4
REMARK VINA RESULT: -7.247271735      3.320      4.803
REMARK  15 active torsions:
REMARK  status: ('A' for Active; 'I' for Inactive)
REMARK    1  A    between atoms: C2_2  and  C3_4 
REMARK    2  A    between atoms: C3_4  and  O2_5 
REMARK    3  A    between atoms: C3_4  and  C4_7 
REMARK    4  A    between atoms: C4_7  and  O3_8 
REMARK    5  A    between atoms: C4_7  and  C5_10 
REMARK    6  A    between atoms: C5_10  and  O4_11 
REMARK    7  A    between atoms: C5_10  and  N1_13 
REMARK    8  A    between atoms: N1_13  and  C6_15 
REMARK    9  A    between atoms: C8_18  and  C9_19 
REMARK   10  A    between atoms: C9_19  and  N2_20 
REMARK   11  A    between atoms: C10_21  and  N3_22 
REMARK   12  A    between atoms: N3_22  and  C11_24 
REMARK   13  A    between atoms: C13_28  and  O6_29 
REMARK   14  A    between atoms: C16_43  and  N10_44 
REMARK   15  A    between atoms: C18_50  and  O7_51 
ROOT
HETATM    1  N2  UNL     1      58.613   1.751  50.180  1.00  0.00    -0.003 N 
HETATM    2  C10 UNL     1      58.518   2.101  51.461  1.00  0.00     0.730 A 
HETATM    3  N6  UNL     1      59.617   1.559  52.073  1.00  0.00    -0.095 N 
ATOM      4  H6  UNL     1      59.841   1.648  53.064  1.00  0.00     0.207 HD
HETATM    5  N7  UNL     1      60.340   0.905  51.190  1.00  0.00     0.106 N 
HETATM    6  C15 UNL     1      61.508   0.202  51.300  1.00  0.00     0.727 A 
HETATM    7  N8  UNL     1      62.095   0.099  52.452  1.00  0.00    -0.232 N 
ATOM      8  H81 UNL     1      62.966  -0.425  52.535  1.00  0.00     0.174 HD
ATOM      9  H82 UNL     1      61.714   0.532  53.293  1.00  0.00     0.174 HD
HETATM   10  N9  UNL     1      62.006  -0.363  50.202  1.00  0.00    -0.020 N 
ATOM     11  H9  UNL     1      62.876  -0.890  50.277  1.00  0.00     0.203 HD
HETATM   12  C16 UNL     1      61.409  -0.267  48.993  1.00  0.00     0.705 A 
HETATM   13  N11 UNL     1      60.265   0.421  48.882  1.00  0.00    -0.019 N 
ATOM     14  H11 UNL     1      59.792   0.510  47.983  1.00  0.00     0.203 HD
HETATM   15  C17 UNL     1      59.759   0.992  49.991  1.00  0.00     0.750 A 
ENDROOT
BRANCH   1  16
HETATM   16  C9  UNL     1      57.760   2.097  49.080  1.00  0.00     0.235 C 
BRANCH  16  17
HETATM   17  C8  UNL     1      58.458   2.802  47.982  1.00  0.00     0.109 A 
HETATM   18  O5  UNL     1      58.693   2.124  46.840  1.00  0.00    -0.320 OA
HETATM   19  C7  UNL     1      59.298   2.628  45.809  1.00  0.00     0.175 A 
HETATM   20  C6  UNL     1      59.763   3.921  45.782  1.00  0.00     0.106 A 
HETATM   21  C19 UNL     1      59.552   4.663  46.919  1.00  0.00     0.235 A 
HETATM   22  C18 UNL     1      58.893   4.098  48.027  1.00  0.00     0.150 A 
HETATM   23  O8  UNL     1      59.960   5.846  46.937  1.00  0.00    -0.283 OA
BRANCH  20  24
HETATM   24  N1  UNL     1      60.463   4.454  44.656  1.00  0.00    -0.357 N 
ATOM     25  H1  UNL     1      61.480   4.499  44.727  1.00  0.00     0.162 HD
BRANCH  24  26
HETATM   26  C5  UNL     1      59.884   4.927  43.445  1.00  0.00     0.250 C 
BRANCH  26  27
HETATM   27  C4  UNL     1      58.468   5.356  43.634  1.00  0.00     0.202 C 
BRANCH  27  28
HETATM   28  C3  UNL     1      57.463   4.497  42.910  1.00  0.00     0.220 C 
BRANCH  28  29
HETATM   29  C2  UNL     1      56.751   5.116  41.798  1.00  0.00     0.154 C 
HETATM   30  C1  UNL     1      56.974   4.887  40.349  1.00  0.00     0.093 C 
HETATM   31  O1  UNL     1      55.847   5.938  42.047  1.00  0.00    -0.295 OA
ENDBRANCH  28  29
BRANCH  28  32
HETATM   32  O2  UNL     1      58.098   3.335  42.416  1.00  0.00    -0.385 OA
ATOM     33  H2  UNL     1      58.273   2.768  43.157  1.00  0.00     0.210 HD
ENDBRANCH  28  32
ENDBRANCH  27  28
BRANCH  27  34
HETATM   34  O3  UNL     1      58.214   6.690  43.526  1.00  0.00    -0.388 OA
ATOM     35  H3  UNL     1      58.976   7.198  43.274  1.00  0.00     0.210 HD
ENDBRANCH  27  34
ENDBRANCH  26  27
BRANCH  26  36
HETATM   36  O4  UNL     1      60.687   5.945  42.928  1.00  0.00    -0.374 OA
ATOM     37  H4  UNL     1      61.583   5.896  43.240  1.00  0.00     0.212 HD
ENDBRANCH  26  36
ENDBRANCH  24  26
ENDBRANCH  20  24
BRANCH  22  38
HETATM   38  O7  UNL     1      58.711   4.908  49.137  1.00  0.00    -0.355 OA
ATOM     39  H7  UNL     1      58.263   5.744  49.092  1.00  0.00     0.218 HD
ENDBRANCH  22  38
ENDBRANCH  16  17
ENDBRANCH   1  16
BRANCH   2  40
HETATM   40  N3  UNL     1      57.500   2.827  52.144  1.00  0.00    -0.021 N 
ATOM     41  H3  UNL     1      56.562   2.434  52.219  1.00  0.00     0.203 HD
BRANCH  40  42
HETATM   42  C11 UNL     1      57.784   4.093  52.721  1.00  0.00     0.688 C 
HETATM   43  N4  UNL     1      57.105   4.606  53.692  1.00  0.00    -0.223 N 
HETATM   44  C12 UNL     1      57.379   5.894  54.293  1.00  0.00     0.171 C 
ATOM     45  H4  UNL     1      56.322   4.067  54.061  1.00  0.00     0.177 HD
HETATM   46  C13 UNL     1      58.867   6.157  54.235  1.00  0.00     0.154 C 
HETATM   47  C14 UNL     1      59.264   6.141  52.777  1.00  0.00     0.171 C 
HETATM   48  N5  UNL     1      58.878   4.881  52.226  1.00  0.00    -0.223 N 
ATOM     49  H5  UNL     1      59.411   4.520  51.435  1.00  0.00     0.177 HD
BRANCH  46  50
HETATM   50  O6  UNL     1      59.206   7.357  54.853  1.00  0.00    -0.392 OA
ATOM     51  H6  UNL     1      59.803   7.871  54.323  1.00  0.00     0.210 HD
ENDBRANCH  46  50
ENDBRANCH  40  42
ENDBRANCH   2  40
BRANCH  12  52
HETATM   52  N10 UNL     1      61.922  -0.830  47.937  1.00  0.00    -0.234 N 
ATOM     53 2H10 UNL     1      61.415  -1.583  47.474  1.00  0.00     0.174 HD
ATOM     54 1H10 UNL     1      62.823  -0.533  47.562  1.00  0.00     0.174 HD
ENDBRANCH  12  52
TORSDOF 15
ENDMDL
MODEL 5
REMARK VINA RESULT: -7.150303684      3.109      9.134
REMARK  15 active torsions:
REMARK  status: ('A' for Active; 'I' for Inactive)
REMARK    1  A    between atoms: C2_2  and  C3_4 
REMARK    2  A    between atoms: C3_4  and  O2_5 
REMARK    3  A    between atoms: C3_4  and  C4_7 
REMARK    4  A    between atoms: C4_7  and  O3_8 
REMARK    5  A    between atoms: C4_7  and  C5_10 
REMARK    6  A    between atoms: C5_10  and  O4_11 
REMARK    7  A    between atoms: C5_10  and  N1_13 
REMARK    8  A    between atoms: N1_13  and  C6_15 
REMARK    9  A    between atoms: C8_18  and  C9_19 
REMARK   10  A    between atoms: C9_19  and  N2_20 
REMARK   11  A    between atoms: C10_21  and  N3_22 
REMARK   12  A    between atoms: N3_22  and  C11_24 
REMARK   13  A    between atoms: C13_28  and  O6_29 
REMARK   14  A    between atoms: C16_43  and  N10_44 
REMARK   15  A    between atoms: C18_50  and  O7_51 
ROOT
HETATM    1  N2  UNL     1      57.337   3.223  42.752  1.00  0.00    -0.003 N 
HETATM    2  C10 UNL     1      56.899   2.095  43.308  1.00  0.00     0.730 A 
HETATM    3  N6  UNL     1      55.538   2.119  43.164  1.00  0.00    -0.095 N 
ATOM      4  H6  UNL     1      54.901   1.391  43.486  1.00  0.00     0.207 HD
HETATM    5  N7  UNL     1      55.175   3.224  42.549  1.00  0.00     0.106 N 
HETATM    6  C15 UNL     1      53.951   3.708  42.178  1.00  0.00     0.727 A 
HETATM    7  N8  UNL     1      52.879   3.025  42.437  1.00  0.00    -0.232 N 
ATOM      8  H81 UNL     1      51.966   3.385  42.161  1.00  0.00     0.174 HD
ATOM      9  H82 UNL     1      52.915   2.123  42.914  1.00  0.00     0.174 HD
HETATM   10  N9  UNL     1      53.904   4.884  41.557  1.00  0.00    -0.020 N 
ATOM     11  H9  UNL     1      52.994   5.253  41.279  1.00  0.00     0.203 HD
HETATM   12  C16 UNL     1      55.009   5.612  41.278  1.00  0.00     0.705 A 
HETATM   13  N11 UNL     1      56.209   5.140  41.640  1.00  0.00    -0.019 N 
ATOM     14  H11 UNL     1      57.061   5.666  41.443  1.00  0.00     0.203 HD
HETATM   15  C17 UNL     1      56.260   3.951  42.269  1.00  0.00     0.750 A 
ENDROOT
BRANCH   1  16
HETATM   16  C9  UNL     1      58.685   3.683  42.575  1.00  0.00     0.235 C 
BRANCH  16  17
HETATM   17  C8  UNL     1      59.418   3.889  43.844  1.00  0.00     0.109 A 
HETATM   18  O5  UNL     1      60.260   2.919  44.256  1.00  0.00    -0.320 OA
HETATM   19  C7  UNL     1      60.954   2.980  45.349  1.00  0.00     0.175 A 
HETATM   20  C6  UNL     1      60.898   4.054  46.204  1.00  0.00     0.106 A 
HETATM   21  C19 UNL     1      60.056   5.075  45.837  1.00  0.00     0.235 A 
HETATM   22  C18 UNL     1      59.311   4.992  44.646  1.00  0.00     0.150 A 
HETATM   23  O8  UNL     1      59.975   6.074  46.588  1.00  0.00    -0.283 OA
BRANCH  20  24
HETATM   24  N1  UNL     1      61.638   4.092  47.427  1.00  0.00    -0.357 N 
ATOM     25  H1  UNL     1      61.832   5.015  47.817  1.00  0.00     0.162 HD
BRANCH  24  26
HETATM   26  C5  UNL     1      62.132   2.973  48.154  1.00  0.00     0.250 C 
BRANCH  26  27
HETATM   27  C4  UNL     1      63.617   2.865  48.071  1.00  0.00     0.202 C 
BRANCH  27  28
HETATM   28  C3  UNL     1      64.350   3.628  49.145  1.00  0.00     0.220 C 
BRANCH  28  29
HETATM   29  C2  UNL     1      65.781   3.829  48.948  1.00  0.00     0.154 C 
HETATM   30  C1  UNL     1      66.561   5.061  49.219  1.00  0.00     0.093 C 
HETATM   31  O1  UNL     1      66.463   2.886  48.499  1.00  0.00    -0.295 OA
ENDBRANCH  28  29
BRANCH  28  32
HETATM   32  O2  UNL     1      63.760   4.901  49.312  1.00  0.00    -0.385 OA
ATOM     33  H2  UNL     1      62.842   4.823  49.083  1.00  0.00     0.210 HD
ENDBRANCH  28  32
ENDBRANCH  27  28
BRANCH  27  34
HETATM   34  O3  UNL     1      64.172   3.008  46.836  1.00  0.00    -0.388 OA
ATOM     35  H3  UNL     1      64.689   3.800  46.745  1.00  0.00     0.210 HD
ENDBRANCH  27  34
ENDBRANCH  26  27
BRANCH  26  36
HETATM   36  O4  UNL     1      61.674   3.052  49.470  1.00  0.00    -0.374 OA
ATOM     37  H4  UNL     1      62.104   2.427  50.043  1.00  0.00     0.212 HD
ENDBRANCH  26  36
ENDBRANCH  24  26
ENDBRANCH  20  24
BRANCH  22  38
HETATM   38  O7  UNL     1      58.487   6.063  44.337  1.00  0.00    -0.355 OA
ATOM     39  H7  UNL     1      58.624   6.932  44.693  1.00  0.00     0.218 HD
ENDBRANCH  22  38
ENDBRANCH  16  17
ENDBRANCH   1  16
BRANCH   2  40
HETATM   40  N3  UNL     1      57.614   1.062  43.981  1.00  0.00    -0.021 N 
ATOM     41  H3  UNL     1      58.019   0.294  43.446  1.00  0.00     0.203 HD
BRANCH  40  42
HETATM   42  C11 UNL     1      57.765   1.098  45.393  1.00  0.00     0.688 C 
HETATM   43  N4  UNL     1      58.167   0.091  46.095  1.00  0.00    -0.223 N 
HETATM   44  C12 UNL     1      58.327   0.107  47.533  1.00  0.00     0.171 C 
ATOM     45  H4  UNL     1      58.386  -0.775  45.602  1.00  0.00     0.177 HD
HETATM   46  C13 UNL     1      58.733   1.497  47.967  1.00  0.00     0.154 C 
HETATM   47  C14 UNL     1      57.633   2.437  47.532  1.00  0.00     0.171 C 
HETATM   48  N5  UNL     1      57.464   2.299  46.121  1.00  0.00    -0.223 N 
ATOM     49  H5  UNL     1      57.109   3.100  45.599  1.00  0.00     0.177 HD
BRANCH  46  50
HETATM   50  O6  UNL     1      58.964   1.566  49.338  1.00  0.00    -0.392 OA
ATOM     51  H6  UNL     1      59.574   0.898  49.628  1.00  0.00     0.210 HD
ENDBRANCH  46  50
ENDBRANCH  40  42
ENDBRANCH   2  40
BRANCH  12  52
HETATM   52  N10 UNL     1      54.930   6.759  40.668  1.00  0.00    -0.234 N 
ATOM     53 2H10 UNL     1      55.107   7.617  41.189  1.00  0.00     0.174 HD
ATOM     54 1H10 UNL     1      54.695   6.817  39.677  1.00  0.00     0.174 HD
ENDBRANCH  12  52
TORSDOF 15
ENDMDL
