MODEL 1
REMARK VINA RESULT: -7.282239799      0.000      0.000
REMARK  9 active torsions:
REMARK  status: ('A' for Active; 'I' for Inactive)
REMARK       I    between atoms: C1_4  and  N3_6 
REMARK    1  A    between atoms: C4_15  and  C5_16 
REMARK    2  A    between atoms: C4_15  and  C12_30 
REMARK    3  A    between atoms: C6_19  and  C7_20 
REMARK    4  A    between atoms: C12_30  and  N11_31 
REMARK    5  A    between atoms: C12_30  and  C13_35 
REMARK    6  A    between atoms: C13_35  and  O2_36 
REMARK    7  A    between atoms: C13_35  and  C14_38 
REMARK    8  A    between atoms: C14_38  and  O3_39 
REMARK    9  A    between atoms: C15_41  and  O4_42 
ROOT
HETATM    1  N1  UNL     1     -34.305  -4.543  46.669  1.00  0.00    -0.373 N 
ATOM      2  H11 UNL     1     -33.480  -4.184  47.148  1.00  0.00     0.158 HD
ATOM      3  H12 UNL     1     -34.120  -5.188  45.900  1.00  0.00     0.158 HD
HETATM    4  C1  UNL     1     -35.457  -4.142  47.072  1.00  0.00     0.193 C 
HETATM    5  N2  UNL     1     -36.605  -4.642  46.404  1.00  0.00    -0.063 NA
HETATM    6  N3  UNL     1     -35.715  -3.243  48.143  1.00  0.00    -0.257 N 
HETATM    7  C2  UNL     1     -36.241  -3.940  49.307  1.00  0.00     0.202 A 
HETATM    8  N4  UNL     1     -36.349  -5.365  49.347  1.00  0.00    -0.063 NA
HETATM    9  N5  UNL     1     -36.640  -3.331  50.359  1.00  0.00    -0.304 N 
ATOM     10  H5  UNL     1     -37.011  -3.859  51.149  1.00  0.00     0.171 HD
HETATM   11  C3  UNL     1     -36.561  -1.914  50.419  1.00  0.00     0.193 A 
HETATM   12  N6  UNL     1     -36.966  -1.193  51.562  1.00  0.00    -0.063 NA
HETATM   13  N7  UNL     1     -36.085  -1.308  49.435  1.00  0.00    -0.329 N 
ATOM     14  H7  UNL     1     -36.062  -0.291  49.515  1.00  0.00     0.165 HD
HETATM   15  C4  UNL     1     -35.555  -1.852  48.186  1.00  0.00     0.217 A 
ENDROOT
BRANCH  15  16
HETATM   16  C5  UNL     1     -34.043  -1.619  48.515  1.00  0.00     0.201 A 
HETATM   17  N8  UNL     1     -33.590  -0.532  49.085  1.00  0.00    -0.319 N 
HETATM   18  C6  UNL     1     -32.277  -0.643  49.248  1.00  0.00     0.138 A 
ATOM     19  H8  UNL     1     -34.154   0.271  49.360  1.00  0.00     0.169 HD
HETATM   20  N10 UNL     1     -31.948  -1.869  48.739  1.00  0.00    -0.242 N 
HETATM   21  O1  UNL     1     -33.065  -2.429  48.303  1.00  0.00    -0.218 OA
ATOM     22  H10 UNL     1     -31.014  -2.276  48.703  1.00  0.00     0.196 HD
BRANCH  18  23
HETATM   23  C7  UNL     1     -31.360   0.319  49.853  1.00  0.00     0.012 A 
HETATM   24  C8  UNL     1     -30.193  -0.154  50.483  1.00  0.00     0.032 A 
HETATM   25  C9  UNL     1     -29.314   0.739  51.042  1.00  0.00     0.088 A 
HETATM   26  N9  UNL     1     -29.515   2.077  51.013  1.00  0.00    -0.375 N 
HETATM   27  C10 UNL     1     -30.635   2.574  50.410  1.00  0.00     0.088 A 
ATOM     28  H9  UNL     1     -28.835   2.709  51.437  1.00  0.00     0.164 HD
HETATM   29  C11 UNL     1     -31.541   1.672  49.838  1.00  0.00     0.032 A 
ENDBRANCH  18  23
ENDBRANCH  15  16
BRANCH  15  30
HETATM   30  C12 UNL     1     -35.800  -1.005  47.024  1.00  0.00     0.273 C 
BRANCH  30  31
HETATM   31  N11 UNL     1     -34.691  -0.879  46.100  1.00  0.00    -0.068 N 
ATOM     32 3H11 UNL     1     -34.219   0.014  46.240  1.00  0.00     0.275 HD
ATOM     33 2H11 UNL     1     -33.943  -1.521  46.362  1.00  0.00     0.275 HD
ATOM     34 1H11 UNL     1     -34.925  -1.000  45.114  1.00  0.00     0.275 HD
ENDBRANCH  30  31
BRANCH  30  35
HETATM   35  C13 UNL     1     -37.093  -1.206  46.271  1.00  0.00     0.192 C 
BRANCH  35  36
HETATM   36  O2  UNL     1     -38.109  -1.788  47.030  1.00  0.00    -0.390 OA
ATOM     37  H2  UNL     1     -38.632  -2.424  46.555  1.00  0.00     0.210 HD
ENDBRANCH  35  36
BRANCH  35  38
HETATM   38  C14 UNL     1     -37.678   0.122  45.721  1.00  0.00     0.144 C 
HETATM   39  C15 UNL     1     -37.228   0.249  44.205  1.00  0.00     0.190 C 
HETATM   40  C16 UNL     1     -38.452   1.135  44.182  1.00  0.00     0.251 A 
HETATM   41  N12 UNL     1     -39.802   0.809  44.387  1.00  0.00    -0.057 N 
HETATM   42  C17 UNL     1     -38.962  -0.095  45.009  1.00  0.00     0.259 A 
ATOM     43 2H12 UNL     1     -40.566   1.368  44.765  1.00  0.00     0.278 HD
ATOM     44 1H12 UNL     1     -40.553   0.656  43.715  1.00  0.00     0.278 HD
BRANCH  38  45
HETATM   45  O3  UNL     1     -37.387   1.267  46.379  1.00  0.00    -0.382 OA
ATOM     46  H3  UNL     1     -37.971   1.544  47.076  1.00  0.00     0.210 HD
ENDBRANCH  38  45
BRANCH  39  47
HETATM   47  O4  UNL     1     -36.086   0.975  44.045  1.00  0.00    -0.390 OA
ATOM     48  H4  UNL     1     -36.220   1.776  43.553  1.00  0.00     0.210 HD
ENDBRANCH  39  47
ENDBRANCH  35  38
ENDBRANCH  30  35
ENDBRANCH  15  30
TORSDOF 9
ENDMDL
MODEL 2
REMARK VINA RESULT: -7.207457095      1.517      1.612
REMARK  9 active torsions:
REMARK  status: ('A' for Active; 'I' for Inactive)
REMARK       I    between atoms: C1_4  and  N3_6 
REMARK    1  A    between atoms: C4_15  and  C5_16 
REMARK    2  A    between atoms: C4_15  and  C12_30 
REMARK    3  A    between atoms: C6_19  and  C7_20 
REMARK    4  A    between atoms: C12_30  and  N11_31 
REMARK    5  A    between atoms: C12_30  and  C13_35 
REMARK    6  A    between atoms: C13_35  and  O2_36 
REMARK    7  A    between atoms: C13_35  and  C14_38 
REMARK    8  A    between atoms: C14_38  and  O3_39 
REMARK    9  A    between atoms: C15_41  and  O4_42 
ROOT
HETATM    1  N1  UNL     1     -35.545  -4.785  47.096  1.00  0.00    -0.373 N 
ATOM      2  H11 UNL     1     -34.929  -4.415  47.819  1.00  0.00     0.158 HD
ATOM      3  H12 UNL     1     -35.194  -5.604  46.599  1.00  0.00     0.158 HD
HETATM    4  C1  UNL     1     -36.663  -4.185  46.894  1.00  0.00     0.193 C 
HETATM    5  N2  UNL     1     -37.520  -4.701  45.888  1.00  0.00    -0.063 NA
HETATM    6  N3  UNL     1     -37.151  -3.044  47.587  1.00  0.00    -0.257 N 
HETATM    7  C2  UNL     1     -38.221  -3.399  48.508  1.00  0.00     0.202 A 
HETATM    8  N4  UNL     1     -38.605  -4.758  48.728  1.00  0.00    -0.063 NA
HETATM    9  N5  UNL     1     -38.883  -2.528  49.171  1.00  0.00    -0.304 N 
ATOM     10  H5  UNL     1     -39.632  -2.821  49.799  1.00  0.00     0.171 HD
HETATM   11  C3  UNL     1     -38.566  -1.151  49.028  1.00  0.00     0.193 A 
HETATM   12  N6  UNL     1     -39.249  -0.150  49.751  1.00  0.00    -0.063 NA
HETATM   13  N7  UNL     1     -37.630  -0.838  48.261  1.00  0.00    -0.329 N 
ATOM     14  H7  UNL     1     -37.448   0.162  48.176  1.00  0.00     0.165 HD
HETATM   15  C4  UNL     1     -36.759  -1.704  47.469  1.00  0.00     0.217 A 
ENDROOT
BRANCH  15  16
HETATM   16  C5  UNL     1     -35.492  -1.562  48.374  1.00  0.00     0.201 A 
HETATM   17  N8  UNL     1     -34.751  -0.483  48.412  1.00  0.00    -0.319 N 
HETATM   18  C6  UNL     1     -33.767  -0.662  49.284  1.00  0.00     0.138 A 
ATOM     19  H8  UNL     1     -34.906   0.360  47.860  1.00  0.00     0.169 HD
HETATM   20  N10 UNL     1     -33.945  -1.924  49.782  1.00  0.00    -0.242 N 
HETATM   21  O1  UNL     1     -35.016  -2.434  49.193  1.00  0.00    -0.218 OA
ATOM     22  H10 UNL     1     -33.361  -2.386  50.478  1.00  0.00     0.196 HD
BRANCH  18  23
HETATM   23  C7  UNL     1     -32.715   0.277  49.661  1.00  0.00     0.012 A 
HETATM   24  C8  UNL     1     -31.455  -0.226  50.042  1.00  0.00     0.032 A 
HETATM   25  C9  UNL     1     -30.453   0.645  50.384  1.00  0.00     0.088 A 
HETATM   26  N9  UNL     1     -30.615   1.989  50.369  1.00  0.00    -0.375 N 
HETATM   27  C10 UNL     1     -31.822   2.514  50.005  1.00  0.00     0.088 A 
ATOM     28  H9  UNL     1     -29.843   2.604  50.627  1.00  0.00     0.164 HD
HETATM   29  C11 UNL     1     -32.854   1.634  49.656  1.00  0.00     0.032 A 
ENDBRANCH  18  23
ENDBRANCH  15  16
BRANCH  15  30
HETATM   30  C12 UNL     1     -36.353  -1.123  46.194  1.00  0.00     0.273 C 
BRANCH  30  31
HETATM   31  N11 UNL     1     -35.102  -1.618  45.655  1.00  0.00    -0.068 N 
ATOM     32 3H11 UNL     1     -34.355  -0.946  45.831  1.00  0.00     0.275 HD
ATOM     33 2H11 UNL     1     -34.769  -2.406  46.210  1.00  0.00     0.275 HD
ATOM     34 1H11 UNL     1     -35.119  -1.869  44.666  1.00  0.00     0.275 HD
ENDBRANCH  30  31
BRANCH  30  35
HETATM   35  C13 UNL     1     -37.394  -1.026  45.105  1.00  0.00     0.192 C 
BRANCH  35  36
HETATM   36  O2  UNL     1     -38.562  -1.741  45.368  1.00  0.00    -0.390 OA
ATOM     37  H2  UNL     1     -38.776  -2.392  44.710  1.00  0.00     0.210 HD
ENDBRANCH  35  36
BRANCH  35  38
HETATM   38  C14 UNL     1     -37.840   0.436  44.833  1.00  0.00     0.144 C 
HETATM   39  C15 UNL     1     -37.247   0.861  43.425  1.00  0.00     0.190 C 
HETATM   40  C16 UNL     1     -38.405   1.828  43.515  1.00  0.00     0.251 A 
HETATM   41  N12 UNL     1     -39.785   1.577  43.538  1.00  0.00    -0.057 N 
HETATM   42  C17 UNL     1     -39.065   0.492  43.996  1.00  0.00     0.259 A 
ATOM     43 2H12 UNL     1     -40.543   2.100  43.977  1.00  0.00     0.278 HD
ATOM     44 1H12 UNL     1     -40.480   1.642  42.795  1.00  0.00     0.278 HD
BRANCH  38  45
HETATM   45  O3  UNL     1     -37.537   1.376  45.756  1.00  0.00    -0.382 OA
ATOM     46  H3  UNL     1     -37.022   2.125  45.479  1.00  0.00     0.210 HD
ENDBRANCH  38  45
BRANCH  39  47
HETATM   47  O4  UNL     1     -36.051   1.506  43.521  1.00  0.00    -0.390 OA
ATOM     48  H4  UNL     1     -35.653   1.682  42.676  1.00  0.00     0.210 HD
ENDBRANCH  39  47
ENDBRANCH  35  38
ENDBRANCH  30  35
ENDBRANCH  15  30
TORSDOF 9
ENDMDL
MODEL 3
REMARK VINA RESULT: -6.736044971      1.959      2.322
REMARK  9 active torsions:
REMARK  status: ('A' for Active; 'I' for Inactive)
REMARK       I    between atoms: C1_4  and  N3_6 
REMARK    1  A    between atoms: C4_15  and  C5_16 
REMARK    2  A    between atoms: C4_15  and  C12_30 
REMARK    3  A    between atoms: C6_19  and  C7_20 
REMARK    4  A    between atoms: C12_30  and  N11_31 
REMARK    5  A    between atoms: C12_30  and  C13_35 
REMARK    6  A    between atoms: C13_35  and  O2_36 
REMARK    7  A    between atoms: C13_35  and  C14_38 
REMARK    8  A    between atoms: C14_38  and  O3_39 
REMARK    9  A    between atoms: C15_41  and  O4_42 
ROOT
HETATM    1  N1  UNL     1     -37.229  -5.027  48.144  1.00  0.00    -0.373 N 
ATOM      2  H11 UNL     1     -36.475  -4.710  48.753  1.00  0.00     0.158 HD
ATOM      3  H12 UNL     1     -37.122  -5.970  47.768  1.00  0.00     0.158 HD
HETATM    4  C1  UNL     1     -38.200  -4.217  47.920  1.00  0.00     0.193 C 
HETATM    5  N2  UNL     1     -39.251  -4.659  47.073  1.00  0.00    -0.063 NA
HETATM    6  N3  UNL     1     -38.349  -2.905  48.444  1.00  0.00    -0.257 N 
HETATM    7  C2  UNL     1     -39.370  -2.858  49.480  1.00  0.00     0.202 A 
HETATM    8  N4  UNL     1     -40.022  -4.041  49.949  1.00  0.00    -0.063 NA
HETATM    9  N5  UNL     1     -39.751  -1.769  50.032  1.00  0.00    -0.304 N 
ATOM     10  H5  UNL     1     -40.477  -1.782  50.748  1.00  0.00     0.171 HD
HETATM   11  C3  UNL     1     -39.153  -0.541  49.640  1.00  0.00     0.193 A 
HETATM   12  N6  UNL     1     -39.519   0.688  50.230  1.00  0.00    -0.063 NA
HETATM   13  N7  UNL     1     -38.255  -0.573  48.771  1.00  0.00    -0.329 N 
ATOM     14  H7  UNL     1     -37.866   0.332  48.509  1.00  0.00     0.165 HD
HETATM   15  C4  UNL     1     -37.685  -1.726  48.078  1.00  0.00     0.217 A 
ENDROOT
BRANCH  15  16
HETATM   16  C5  UNL     1     -36.330  -1.755  48.860  1.00  0.00     0.201 A 
HETATM   17  N8  UNL     1     -35.414  -0.827  48.747  1.00  0.00    -0.319 N 
HETATM   18  C6  UNL     1     -34.397  -1.123  49.547  1.00  0.00     0.138 A 
ATOM     19  H8  UNL     1     -35.473  -0.009  48.142  1.00  0.00     0.169 HD
HETATM   20  N10 UNL     1     -34.742  -2.296  50.160  1.00  0.00    -0.242 N 
HETATM   21  O1  UNL     1     -35.937  -2.642  49.706  1.00  0.00    -0.218 OA
ATOM     22  H10 UNL     1     -34.183  -2.808  50.841  1.00  0.00     0.196 HD
BRANCH  18  23
HETATM   23  C7  UNL     1     -33.166  -0.366  49.756  1.00  0.00     0.012 A 
HETATM   24  C8  UNL     1     -31.955  -1.064  49.928  1.00  0.00     0.032 A 
HETATM   25  C9  UNL     1     -30.789  -0.366  50.110  1.00  0.00     0.088 A 
HETATM   26  N9  UNL     1     -30.743   0.987  50.130  1.00  0.00    -0.375 N 
HETATM   27  C10 UNL     1     -31.897   1.699  49.968  1.00  0.00     0.088 A 
ATOM     28  H9  UNL     1     -29.854   1.470  50.265  1.00  0.00     0.164 HD
HETATM   29  C11 UNL     1     -33.094   0.997  49.783  1.00  0.00     0.032 A 
ENDBRANCH  18  23
ENDBRANCH  15  16
BRANCH  15  30
HETATM   30  C12 UNL     1     -37.293  -1.451  46.700  1.00  0.00     0.273 C 
BRANCH  30  31
HETATM   31  N11 UNL     1     -36.418  -2.434  46.093  1.00  0.00    -0.068 N 
ATOM     32 3H11 UNL     1     -36.195  -2.160  45.136  1.00  0.00     0.275 HD
ATOM     33 2H11 UNL     1     -35.491  -2.385  46.516  1.00  0.00     0.275 HD
ATOM     34 1H11 UNL     1     -36.760  -3.396  46.110  1.00  0.00     0.275 HD
ENDBRANCH  30  31
BRANCH  30  35
HETATM   35  C13 UNL     1     -38.378  -1.042  45.732  1.00  0.00     0.192 C 
BRANCH  35  36
HETATM   36  O2  UNL     1     -39.667  -1.105  46.262  1.00  0.00    -0.390 OA
ATOM     37  H2  UNL     1     -40.018  -0.264  46.529  1.00  0.00     0.210 HD
ENDBRANCH  35  36
BRANCH  35  38
HETATM   38  C14 UNL     1     -38.200   0.410  45.214  1.00  0.00     0.144 C 
HETATM   39  C15 UNL     1     -37.352   0.337  43.875  1.00  0.00     0.190 C 
HETATM   40  C16 UNL     1     -38.053   1.659  43.661  1.00  0.00     0.251 A 
HETATM   41  N12 UNL     1     -39.419   1.935  43.496  1.00  0.00    -0.057 N 
HETATM   42  C17 UNL     1     -39.220   0.760  44.194  1.00  0.00     0.259 A 
ATOM     43 2H12 UNL     1     -39.959   2.765  43.742  1.00  0.00     0.278 HD
ATOM     44 1H12 UNL     1     -39.959   2.117  42.650  1.00  0.00     0.278 HD
BRANCH  38  45
HETATM   45  O3  UNL     1     -37.653   1.322  46.049  1.00  0.00    -0.382 OA
ATOM     46  H3  UNL     1     -37.712   2.240  45.810  1.00  0.00     0.210 HD
ENDBRANCH  38  45
BRANCH  39  47
HETATM   47  O4  UNL     1     -36.016   0.511  44.079  1.00  0.00    -0.390 OA
ATOM     48  H4  UNL     1     -35.570   0.882  43.327  1.00  0.00     0.210 HD
ENDBRANCH  39  47
ENDBRANCH  35  38
ENDBRANCH  30  35
ENDBRANCH  15  30
TORSDOF 9
ENDMDL
MODEL 4
REMARK VINA RESULT: -6.732746433      5.111      8.004
REMARK  9 active torsions:
REMARK  status: ('A' for Active; 'I' for Inactive)
REMARK       I    between atoms: C1_4  and  N3_6 
REMARK    1  A    between atoms: C4_15  and  C5_16 
REMARK    2  A    between atoms: C4_15  and  C12_30 
REMARK    3  A    between atoms: C6_19  and  C7_20 
REMARK    4  A    between atoms: C12_30  and  N11_31 
REMARK    5  A    between atoms: C12_30  and  C13_35 
REMARK    6  A    between atoms: C13_35  and  O2_36 
REMARK    7  A    between atoms: C13_35  and  C14_38 
REMARK    8  A    between atoms: C14_38  and  O3_39 
REMARK    9  A    between atoms: C15_41  and  O4_42 
ROOT
HETATM    1  N1  UNL     1     -39.415  -3.033  46.629  1.00  0.00    -0.373 N 
ATOM      2  H11 UNL     1     -38.693  -3.566  46.144  1.00  0.00     0.158 HD
ATOM      3  H12 UNL     1     -39.975  -3.562  47.298  1.00  0.00     0.158 HD
HETATM    4  C1  UNL     1     -39.539  -1.788  46.339  1.00  0.00     0.193 C 
HETATM    5  N2  UNL     1     -40.544  -1.047  47.014  1.00  0.00    -0.063 NA
HETATM    6  N3  UNL     1     -38.759  -1.052  45.406  1.00  0.00    -0.257 N 
HETATM    7  C2  UNL     1     -37.824  -0.163  46.080  1.00  0.00     0.202 A 
HETATM    8  N4  UNL     1     -37.675  -0.163  47.502  1.00  0.00    -0.063 NA
HETATM    9  N5  UNL     1     -37.084   0.670  45.452  1.00  0.00    -0.304 N 
ATOM     10  H5  UNL     1     -36.449   1.283  45.965  1.00  0.00     0.171 HD
HETATM   11  C3  UNL     1     -37.152   0.737  44.034  1.00  0.00     0.193 A 
HETATM   12  N6  UNL     1     -36.343   1.622  43.290  1.00  0.00    -0.063 NA
HETATM   13  N7  UNL     1     -37.931  -0.043  43.445  1.00  0.00    -0.329 N 
ATOM     14  H7  UNL     1     -37.959   0.050  42.429  1.00  0.00     0.165 HD
HETATM   15  C4  UNL     1     -38.807  -1.069  44.006  1.00  0.00     0.217 A 
ENDROOT
BRANCH  15  16
HETATM   16  C5  UNL     1     -37.941  -2.299  43.577  1.00  0.00     0.201 A 
HETATM   17  N8  UNL     1     -37.676  -2.593  42.329  1.00  0.00    -0.319 N 
HETATM   18  C6  UNL     1     -36.907  -3.674  42.292  1.00  0.00     0.138 A 
ATOM     19  H8  UNL     1     -38.006  -2.074  41.516  1.00  0.00     0.169 HD
HETATM   20  N10 UNL     1     -36.717  -4.033  43.598  1.00  0.00    -0.242 N 
HETATM   21  O1  UNL     1     -37.370  -3.158  44.347  1.00  0.00    -0.218 OA
ATOM     22  H10 UNL     1     -36.172  -4.827  43.933  1.00  0.00     0.196 HD
BRANCH  18  23
HETATM   23  C7  UNL     1     -36.358  -4.349  41.119  1.00  0.00     0.012 A 
HETATM   24  C8  UNL     1     -37.230  -4.741  40.085  1.00  0.00     0.032 A 
HETATM   25  C9  UNL     1     -36.725  -5.363  38.971  1.00  0.00     0.088 A 
HETATM   26  N9  UNL     1     -35.405  -5.619  38.812  1.00  0.00    -0.375 N 
HETATM   27  C10 UNL     1     -34.529  -5.253  39.794  1.00  0.00     0.088 A 
ATOM     28  H9  UNL     1     -35.069  -6.080  37.967  1.00  0.00     0.164 HD
HETATM   29  C11 UNL     1     -35.032  -4.621  40.937  1.00  0.00     0.032 A 
ENDBRANCH  18  23
ENDBRANCH  15  16
BRANCH  15  30
HETATM   30  C12 UNL     1     -40.056  -1.242  43.274  1.00  0.00     0.273 C 
BRANCH  30  31
HETATM   31  N11 UNL     1     -40.757  -2.486  43.522  1.00  0.00    -0.068 N 
ATOM     32 3H11 UNL     1     -40.742  -2.703  44.519  1.00  0.00     0.275 HD
ATOM     33 2H11 UNL     1     -41.759  -2.356  43.382  1.00  0.00     0.275 HD
ATOM     34 1H11 UNL     1     -40.430  -3.289  42.985  1.00  0.00     0.275 HD
ENDBRANCH  30  31
BRANCH  30  35
HETATM   35  C13 UNL     1     -41.026  -0.084  43.260  1.00  0.00     0.192 C 
BRANCH  35  36
HETATM   36  O2  UNL     1     -40.523   1.086  43.829  1.00  0.00    -0.390 OA
ATOM     37  H2  UNL     1     -40.618   1.130  44.774  1.00  0.00     0.210 HD
ENDBRANCH  35  36
BRANCH  35  38
HETATM   38  C14 UNL     1     -41.480   0.299  41.826  1.00  0.00     0.144 C 
HETATM   39  C15 UNL     1     -40.796   1.683  41.464  1.00  0.00     0.190 C 
HETATM   40  C16 UNL     1     -41.046   1.151  40.072  1.00  0.00     0.251 A 
HETATM   41  N12 UNL     1     -40.507   0.025  39.431  1.00  0.00    -0.057 N 
HETATM   42  C17 UNL     1     -40.487  -0.116  40.805  1.00  0.00     0.259 A 
ATOM     43 2H12 UNL     1     -40.906  -0.578  38.711  1.00  0.00     0.278 HD
ATOM     44 1H12 UNL     1     -39.753  -0.049  38.749  1.00  0.00     0.278 HD
BRANCH  38  45
HETATM   45  O3  UNL     1     -42.807   0.369  41.577  1.00  0.00    -0.382 OA
ATOM     46  H3  UNL     1     -43.321   1.004  42.062  1.00  0.00     0.210 HD
ENDBRANCH  38  45
BRANCH  39  47
HETATM   47  O4  UNL     1     -41.588   2.759  41.734  1.00  0.00    -0.390 OA
ATOM     48  H4  UNL     1     -41.106   3.577  41.773  1.00  0.00     0.210 HD
ENDBRANCH  39  47
ENDBRANCH  35  38
ENDBRANCH  30  35
ENDBRANCH  15  30
TORSDOF 9
ENDMDL
MODEL 5
REMARK VINA RESULT: -6.682268915      2.130      2.627
REMARK  9 active torsions:
REMARK  status: ('A' for Active; 'I' for Inactive)
REMARK       I    between atoms: C1_4  and  N3_6 
REMARK    1  A    between atoms: C4_15  and  C5_16 
REMARK    2  A    between atoms: C4_15  and  C12_30 
REMARK    3  A    between atoms: C6_19  and  C7_20 
REMARK    4  A    between atoms: C12_30  and  N11_31 
REMARK    5  A    between atoms: C12_30  and  C13_35 
REMARK    6  A    between atoms: C13_35  and  O2_36 
REMARK    7  A    between atoms: C13_35  and  C14_38 
REMARK    8  A    between atoms: C14_38  and  O3_39 
REMARK    9  A    between atoms: C15_41  and  O4_42 
ROOT
HETATM    1  N1  UNL     1     -36.696  -3.711  44.726  1.00  0.00    -0.373 N 
ATOM      2  H11 UNL     1     -35.807  -3.501  45.180  1.00  0.00     0.158 HD
ATOM      3  H12 UNL     1     -36.634  -4.292  43.890  1.00  0.00     0.158 HD
HETATM    4  C1  UNL     1     -37.765  -3.220  45.242  1.00  0.00     0.193 C 
HETATM    5  N2  UNL     1     -39.002  -3.512  44.610  1.00  0.00    -0.063 NA
HETATM    6  N3  UNL     1     -37.850  -2.409  46.406  1.00  0.00    -0.257 N 
HETATM    7  C2  UNL     1     -38.392  -3.153  47.534  1.00  0.00     0.202 A 
HETATM    8  N4  UNL     1     -38.673  -4.552  47.449  1.00  0.00    -0.063 NA
HETATM    9  N5  UNL     1     -38.653  -2.610  48.663  1.00  0.00    -0.304 N 
ATOM     10  H5  UNL     1     -39.042  -3.168  49.423  1.00  0.00     0.171 HD
HETATM   11  C3  UNL     1     -38.398  -1.225  48.848  1.00  0.00     0.193 A 
HETATM   12  N6  UNL     1     -38.646  -0.580  50.078  1.00  0.00    -0.063 NA
HETATM   13  N7  UNL     1     -37.906  -0.583  47.895  1.00  0.00    -0.329 N 
ATOM     14  H7  UNL     1     -37.754   0.411  48.067  1.00  0.00     0.165 HD
HETATM   15  C4  UNL     1     -37.518  -1.057  46.568  1.00  0.00     0.217 A 
ENDROOT
BRANCH  15  16
HETATM   16  C5  UNL     1     -35.973  -1.038  46.814  1.00  0.00     0.201 A 
HETATM   17  N8  UNL     1     -35.411  -0.399  47.808  1.00  0.00    -0.319 N 
HETATM   18  C6  UNL     1     -34.098  -0.588  47.758  1.00  0.00     0.138 A 
ATOM     19  H8  UNL     1     -35.902   0.155  48.509  1.00  0.00     0.169 HD
HETATM   20  N10 UNL     1     -33.884  -1.383  46.666  1.00  0.00    -0.242 N 
HETATM   21  O1  UNL     1     -35.065  -1.632  46.122  1.00  0.00    -0.218 OA
ATOM     22  H10 UNL     1     -32.982  -1.722  46.333  1.00  0.00     0.196 HD
BRANCH  18  23
HETATM   23  C7  UNL     1     -33.079  -0.078  48.671  1.00  0.00     0.012 A 
HETATM   24  C8  UNL     1     -32.033  -0.931  49.072  1.00  0.00     0.032 A 
HETATM   25  C9  UNL     1     -31.060  -0.461  49.917  1.00  0.00     0.088 A 
HETATM   26  N9  UNL     1     -31.053   0.808  50.390  1.00  0.00    -0.375 N 
HETATM   27  C10 UNL     1     -32.051   1.665  50.023  1.00  0.00     0.088 A 
ATOM     28  H9  UNL     1     -30.309   1.121  51.014  1.00  0.00     0.164 HD
HETATM   29  C11 UNL     1     -33.051   1.195  49.163  1.00  0.00     0.032 A 
ENDBRANCH  18  23
ENDBRANCH  15  16
BRANCH  15  30
HETATM   30  C12 UNL     1     -37.721  -0.075  45.509  1.00  0.00     0.273 C 
BRANCH  30  31
HETATM   31  N11 UNL     1     -36.549   0.239  44.717  1.00  0.00    -0.068 N 
ATOM     32 3H11 UNL     1     -35.840   0.681  45.302  1.00  0.00     0.275 HD
ATOM     33 2H11 UNL     1     -36.061  -0.620  44.459  1.00  0.00     0.275 HD
ATOM     34 1H11 UNL     1     -36.720   0.806  43.886  1.00  0.00     0.275 HD
ENDBRANCH  30  31
BRANCH  30  35
HETATM   35  C13 UNL     1     -38.929  -0.246  44.618  1.00  0.00     0.192 C 
BRANCH  35  36
HETATM   36  O2  UNL     1     -40.125  -0.432  45.311  1.00  0.00    -0.390 OA
ATOM     37  H2  UNL     1     -40.878  -0.583  44.751  1.00  0.00     0.210 HD
ENDBRANCH  35  36
BRANCH  35  38
HETATM   38  C14 UNL     1     -39.161   0.973  43.685  1.00  0.00     0.144 C 
HETATM   39  C15 UNL     1     -38.534   0.617  42.273  1.00  0.00     0.190 C 
HETATM   40  C16 UNL     1     -39.536   1.666  41.849  1.00  0.00     0.251 A 
HETATM   41  N12 UNL     1     -40.938   1.645  41.910  1.00  0.00    -0.057 N 
HETATM   42  C17 UNL     1     -40.377   0.804  42.852  1.00  0.00     0.259 A 
ATOM     43 2H12 UNL     1     -41.605   2.409  42.021  1.00  0.00     0.278 HD
ATOM     44 1H12 UNL     1     -41.627   1.455  41.184  1.00  0.00     0.278 HD
BRANCH  38  45
HETATM   45  O3  UNL     1     -38.710   2.181  44.092  1.00  0.00    -0.382 OA
ATOM     46  H3  UNL     1     -39.213   2.649  44.749  1.00  0.00     0.210 HD
ENDBRANCH  38  45
BRANCH  39  47
HETATM   47  O4  UNL     1     -37.255   1.065  42.127  1.00  0.00    -0.390 OA
ATOM     48  H4  UNL     1     -37.150   1.662  41.396  1.00  0.00     0.210 HD
ENDBRANCH  39  47
ENDBRANCH  35  38
ENDBRANCH  30  35
ENDBRANCH  15  30
TORSDOF 9
ENDMDL
