MODEL 1
REMARK VINA RESULT: -6.991599344      0.000      0.000
REMARK  0 active torsions:
REMARK  status: ('A' for Active; 'I' for Inactive)
ROOT
HETATM    1  N1  UNL     1      82.756 -54.607 -22.447  1.00  0.00    -0.197 NA
HETATM    2  C1  UNL     1      83.714 -54.452 -23.075  1.00  0.00     0.069 C 
HETATM    3  C2  UNL     1      84.902 -54.254 -23.885  1.00  0.00     0.173 C 
HETATM    4  C3  UNL     1      85.288 -52.804 -24.080  1.00  0.00     0.348 C 
HETATM    5  C4  UNL     1      84.294 -51.841 -23.680  1.00  0.00     0.097 C 
HETATM    6  N2  UNL     1      83.502 -51.058 -23.353  1.00  0.00    -0.195 NA
HETATM    7  N3  UNL     1      85.406 -53.014 -25.526  1.00  0.00     0.114 N 
HETATM    8  C5  UNL     1      86.747 -53.140 -25.941  1.00  0.00     0.275 C 
HETATM    9  C6  UNL     1      87.046 -54.140 -26.994  1.00  0.00     0.030 C 
HETATM   10  C7  UNL     1      85.983 -55.137 -27.265  1.00  0.00     0.004 C 
HETATM   11  C8  UNL     1      85.107 -55.397 -26.069  1.00  0.00     0.037 C 
HETATM   12  C9  UNL     1      84.628 -54.174 -25.390  1.00  0.00     0.245 C 
ENDROOT
TORSDOF 0
ENDMDL
MODEL 2
REMARK VINA RESULT: -6.560768808      1.858      2.436
REMARK  0 active torsions:
REMARK  status: ('A' for Active; 'I' for Inactive)
ROOT
HETATM    1  N1  UNL     1      83.607 -55.070 -25.058  1.00  0.00    -0.197 NA
HETATM    2  C1  UNL     1      84.686 -54.794 -25.370  1.00  0.00     0.069 C 
HETATM    3  C2  UNL     1      86.033 -54.449 -25.786  1.00  0.00     0.173 C 
HETATM    4  C3  UNL     1      86.265 -52.965 -25.972  1.00  0.00     0.348 C 
HETATM    5  C4  UNL     1      85.078 -52.150 -25.980  1.00  0.00     0.097 C 
HETATM    6  N2  UNL     1      84.127 -51.485 -25.980  1.00  0.00    -0.195 NA
HETATM    7  N3  UNL     1      86.864 -53.209 -27.288  1.00  0.00     0.114 N 
HETATM    8  C5  UNL     1      88.271 -53.145 -27.256  1.00  0.00     0.275 C 
HETATM    9  C6  UNL     1      89.019 -54.126 -28.078  1.00  0.00     0.030 C 
HETATM   10  C7  UNL     1      88.239 -55.282 -28.581  1.00  0.00     0.004 C 
HETATM   11  C8  UNL     1      87.071 -55.628 -27.697  1.00  0.00     0.037 C 
HETATM   12  C9  UNL     1      86.243 -54.467 -27.303  1.00  0.00     0.245 C 
ENDROOT
TORSDOF 0
ENDMDL
MODEL 3
REMARK VINA RESULT: -6.478201912      1.128      2.765
REMARK  0 active torsions:
REMARK  status: ('A' for Active; 'I' for Inactive)
ROOT
HETATM    1  N1  UNL     1      84.026 -51.255 -24.029  1.00  0.00    -0.197 NA
HETATM    2  C1  UNL     1      84.368 -51.981 -24.861  1.00  0.00     0.069 C 
HETATM    3  C2  UNL     1      84.820 -52.896 -25.893  1.00  0.00     0.173 C 
HETATM    4  C3  UNL     1      84.486 -54.348 -25.626  1.00  0.00     0.348 C 
HETATM    5  C4  UNL     1      84.027 -54.641 -24.293  1.00  0.00     0.097 C 
HETATM    6  N2  UNL     1      83.648 -54.886 -23.224  1.00  0.00    -0.195 NA
HETATM    7  N3  UNL     1      85.873 -54.734 -25.907  1.00  0.00     0.114 N 
HETATM    8  C5  UNL     1      86.023 -55.290 -27.193  1.00  0.00     0.275 C 
HETATM    9  C6  UNL     1      87.244 -54.934 -27.954  1.00  0.00     0.030 C 
HETATM   10  C7  UNL     1      88.014 -53.775 -27.442  1.00  0.00     0.004 C 
HETATM   11  C8  UNL     1      87.157 -52.787 -26.697  1.00  0.00     0.037 C 
HETATM   12  C9  UNL     1      86.254 -53.400 -25.698  1.00  0.00     0.245 C 
ENDROOT
TORSDOF 0
ENDMDL
MODEL 4
REMARK VINA RESULT: -6.306263726      1.416      1.957
REMARK  0 active torsions:
REMARK  status: ('A' for Active; 'I' for Inactive)
ROOT
HETATM    1  N1  UNL     1      83.226 -57.545 -22.952  1.00  0.00    -0.197 NA
HETATM    2  C1  UNL     1      83.956 -56.730 -23.328  1.00  0.00     0.069 C 
HETATM    3  C2  UNL     1      84.856 -55.704 -23.820  1.00  0.00     0.173 C 
HETATM    4  C3  UNL     1      84.529 -54.307 -23.339  1.00  0.00     0.348 C 
HETATM    5  C4  UNL     1      83.243 -54.157 -22.707  1.00  0.00     0.097 C 
HETATM    6  N2  UNL     1      82.214 -54.028 -22.188  1.00  0.00    -0.195 NA
HETATM    7  N3  UNL     1      84.610 -53.799 -24.713  1.00  0.00     0.114 N 
HETATM    8  C5  UNL     1      85.824 -53.131 -24.966  1.00  0.00     0.275 C 
HETATM    9  C6  UNL     1      86.455 -53.335 -26.291  1.00  0.00     0.030 C 
HETATM   10  C7  UNL     1      85.938 -54.472 -27.089  1.00  0.00     0.004 C 
HETATM   11  C8  UNL     1      85.376 -55.577 -26.236  1.00  0.00     0.037 C 
HETATM   12  C9  UNL     1      84.453 -55.115 -25.176  1.00  0.00     0.245 C 
ENDROOT
TORSDOF 0
ENDMDL
MODEL 5
REMARK VINA RESULT: -6.086429594      1.151      1.262
REMARK  0 active torsions:
REMARK  status: ('A' for Active; 'I' for Inactive)
ROOT
HETATM    1  N1  UNL     1      83.329 -54.881 -23.663  1.00  0.00    -0.197 NA
HETATM    2  C1  UNL     1      84.333 -54.623 -24.178  1.00  0.00     0.069 C 
HETATM    3  C2  UNL     1      85.579 -54.300 -24.846  1.00  0.00     0.173 C 
HETATM    4  C3  UNL     1      85.806 -52.819 -25.057  1.00  0.00     0.348 C 
HETATM    5  C4  UNL     1      84.660 -51.979 -24.822  1.00  0.00     0.097 C 
HETATM    6  N2  UNL     1      83.744 -51.293 -24.628  1.00  0.00    -0.195 NA
HETATM    7  N3  UNL     1      86.129 -53.053 -26.468  1.00  0.00     0.114 N 
HETATM    8  C5  UNL     1      87.516 -53.021 -26.713  1.00  0.00     0.275 C 
HETATM    9  C6  UNL     1      88.064 -54.003 -27.677  1.00  0.00     0.030 C 
HETATM   10  C7  UNL     1      87.173 -55.134 -28.030  1.00  0.00     0.004 C 
HETATM   11  C8  UNL     1      86.193 -55.470 -26.938  1.00  0.00     0.037 C 
HETATM   12  C9  UNL     1      85.487 -54.298 -26.376  1.00  0.00     0.245 C 
ENDROOT
TORSDOF 0
ENDMDL
