MODEL 1
REMARK VINA RESULT: -6.595038465      0.000      0.000
REMARK  13 active torsions:
REMARK  status: ('A' for Active; 'I' for Inactive)
REMARK    1  A    between atoms: C2_2  and  C3_3 
REMARK    2  A    between atoms: C3_3  and  C4_4 
REMARK    3  A    between atoms: C6_8  and  C7_9 
REMARK    4  A    between atoms: C7_9  and  C8_10 
REMARK    5  A    between atoms: C8_10  and  C9_11 
REMARK    6  A    between atoms: C9_11  and  N2_12 
REMARK    7  A    between atoms: C12_17  and  O1_18 
REMARK    8  A    between atoms: C17_25  and  O2_26 
REMARK    9  A    between atoms: C18_28  and  C19_29 
REMARK   10  A    between atoms: C19_29  and  C20_30 
REMARK   11  A    between atoms: C23_35  and  O3_36 
REMARK   12  A    between atoms: C24_38  and  C25_39 
REMARK   13  A    between atoms: C25_39  and  C26_40 
ROOT
HETATM    1  C4  UNL     1      11.892  66.226  23.171  1.00  0.00     0.077 C 
HETATM    2  N1  UNL     1      13.095  65.668  23.577  1.00  0.00    -0.366 N 
ATOM      3  H1  UNL     1      13.332  64.733  23.246  1.00  0.00     0.165 HD
HETATM    4  C5  UNL     1      13.992  66.320  24.410  1.00  0.00     0.086 C 
HETATM    5  C6  UNL     1      14.663  65.453  25.423  1.00  0.00     0.122 C 
HETATM    6  N3  UNL     1      16.075  65.677  25.572  1.00  0.00    -0.364 N 
ATOM      7  H3  UNL     1      16.406  65.489  26.518  1.00  0.00     0.162 HD
HETATM    8  C12 UNL     1      17.093  66.091  24.715  1.00  0.00     0.135 C 
HETATM    9  C13 UNL     1      17.743  65.505  23.545  1.00  0.00     0.160 C 
HETATM   10  C14 UNL     1      18.081  64.022  23.751  1.00  0.00     0.035 C 
HETATM   11  C15 UNL     1      17.202  63.263  22.836  1.00  0.00     0.022 C 
HETATM   12  C16 UNL     1      16.461  64.233  22.010  1.00  0.00     0.125 C 
HETATM   13  N4  UNL     1      17.130  65.537  22.269  1.00  0.00    -0.351 N 
HETATM   14  C17 UNL     1      17.128  66.569  21.286  1.00  0.00     0.137 C 
HETATM   15  C18 UNL     1      16.953  67.997  21.458  1.00  0.00     0.158 C 
HETATM   16  N5  UNL     1      15.683  68.580  21.132  1.00  0.00    -0.361 N 
ATOM     17  H5  UNL     1      15.757  69.574  20.919  1.00  0.00     0.162 HD
HETATM   18  C23 UNL     1      14.389  68.118  21.039  1.00  0.00     0.135 C 
HETATM   19  C24 UNL     1      13.837  66.995  20.254  1.00  0.00     0.159 C 
HETATM   20  N6  UNL     1      12.521  66.564  20.649  1.00  0.00    -0.344 N 
ATOM     21  H6  UNL     1      12.049  66.017  19.929  1.00  0.00     0.163 HD
HETATM   22  C29 UNL     1      11.758  66.727  21.789  1.00  0.00     0.264 C 
HETATM   23  O4  UNL     1      10.704  67.467  21.621  1.00  0.00    -0.266 OA
ENDROOT
BRANCH   5  24
HETATM   24  C7  UNL     1      14.273  63.997  25.289  1.00  0.00     0.032 C 
BRANCH  24  25
HETATM   25  C8  UNL     1      13.700  63.416  26.533  1.00  0.00     0.033 C 
BRANCH  25  26
HETATM   26  C9  UNL     1      12.408  63.969  27.001  1.00  0.00     0.271 C 
BRANCH  26  27
HETATM   27  N2  UNL     1      11.352  62.981  27.091  1.00  0.00     0.080 N 
HETATM   28  C10 UNL     1      11.769  61.815  27.844  1.00  0.00     0.309 C 
HETATM   29  C11 UNL     1      10.271  63.623  27.855  1.00  0.00     0.309 C 
ENDBRANCH  26  27
ENDBRANCH  25  26
ENDBRANCH  24  25
ENDBRANCH   5  24
BRANCH   8  30
HETATM   30  O1  UNL     1      17.574  67.265  25.037  1.00  0.00    -0.348 OA
ATOM     31  H1  UNL     1      17.475  67.903  24.339  1.00  0.00     0.219 HD
ENDBRANCH   8  30
BRANCH   1  32
HETATM   32  C3  UNL     1      11.216  67.210  24.100  1.00  0.00     0.062 C 
BRANCH  32  33
HETATM   33  C2  UNL     1      10.251  66.574  25.057  1.00  0.00     0.002 C 
HETATM   34  C1  UNL     1       8.909  67.296  25.066  1.00  0.00     0.005 C 
ENDBRANCH  32  33
ENDBRANCH   1  32
BRANCH  14  35
HETATM   35  O2  UNL     1      17.309  66.219  20.038  1.00  0.00    -0.348 OA
ATOM     36  H2  UNL     1      17.729  66.846  19.461  1.00  0.00     0.219 HD
ENDBRANCH  14  35
BRANCH  19  37
HETATM   37  C25 UNL     1      13.982  67.153  18.776  1.00  0.00     0.037 C 
BRANCH  37  38
HETATM   38  C26 UNL     1      13.435  68.302  18.076  1.00  0.00    -0.020 C 
HETATM   39  C27 UNL     1      12.034  68.274  17.591  1.00  0.00     0.009 C 
HETATM   40  C28 UNL     1      14.290  68.836  16.941  1.00  0.00     0.009 C 
ENDBRANCH  37  38
ENDBRANCH  19  37
BRANCH  15  41
HETATM   41  C19 UNL     1      17.965  68.643  20.465  1.00  0.00     0.037 C 
BRANCH  41  42
HETATM   42  C20 UNL     1      17.340  69.611  19.540  1.00  0.00    -0.020 C 
HETATM   43  C21 UNL     1      17.626  69.226  18.110  1.00  0.00     0.009 C 
HETATM   44  C22 UNL     1      17.871  70.984  19.864  1.00  0.00     0.009 C 
ENDBRANCH  41  42
ENDBRANCH  15  41
BRANCH  18  45
HETATM   45  O3  UNL     1      13.469  68.727  21.728  1.00  0.00    -0.348 OA
ATOM     46  H3  UNL     1      13.201  68.345  22.556  1.00  0.00     0.219 HD
ENDBRANCH  18  45
TORSDOF 13
ENDMDL
MODEL 2
REMARK VINA RESULT: -6.498125484      2.008      7.384
REMARK  13 active torsions:
REMARK  status: ('A' for Active; 'I' for Inactive)
REMARK    1  A    between atoms: C2_2  and  C3_3 
REMARK    2  A    between atoms: C3_3  and  C4_4 
REMARK    3  A    between atoms: C6_8  and  C7_9 
REMARK    4  A    between atoms: C7_9  and  C8_10 
REMARK    5  A    between atoms: C8_10  and  C9_11 
REMARK    6  A    between atoms: C9_11  and  N2_12 
REMARK    7  A    between atoms: C12_17  and  O1_18 
REMARK    8  A    between atoms: C17_25  and  O2_26 
REMARK    9  A    between atoms: C18_28  and  C19_29 
REMARK   10  A    between atoms: C19_29  and  C20_30 
REMARK   11  A    between atoms: C23_35  and  O3_36 
REMARK   12  A    between atoms: C24_38  and  C25_39 
REMARK   13  A    between atoms: C25_39  and  C26_40 
ROOT
HETATM    1  C4  UNL     1      14.412  67.605  20.460  1.00  0.00     0.077 C 
HETATM    2  N1  UNL     1      15.398  66.797  21.006  1.00  0.00    -0.366 N 
ATOM      3  H1  UNL     1      16.209  67.243  21.435  1.00  0.00     0.165 HD
HETATM    4  C5  UNL     1      15.335  65.412  20.998  1.00  0.00     0.086 C 
HETATM    5  C6  UNL     1      16.633  64.718  20.746  1.00  0.00     0.122 C 
HETATM    6  N3  UNL     1      16.895  63.593  21.600  1.00  0.00    -0.364 N 
ATOM      7  H3  UNL     1      17.458  62.875  21.145  1.00  0.00     0.162 HD
HETATM    8  C12 UNL     1      16.553  63.262  22.910  1.00  0.00     0.135 C 
HETATM    9  C13 UNL     1      16.909  63.797  24.223  1.00  0.00     0.160 C 
HETATM   10  C14 UNL     1      18.412  64.083  24.346  1.00  0.00     0.035 C 
HETATM   11  C15 UNL     1      18.551  65.553  24.428  1.00  0.00     0.022 C 
HETATM   12  C16 UNL     1      17.198  66.134  24.494  1.00  0.00     0.125 C 
HETATM   13  N4  UNL     1      16.300  64.971  24.729  1.00  0.00    -0.351 N 
HETATM   14  C17 UNL     1      15.060  65.130  25.414  1.00  0.00     0.137 C 
HETATM   15  C18 UNL     1      13.773  64.528  25.130  1.00  0.00     0.158 C 
HETATM   16  N5  UNL     1      12.770  65.321  24.479  1.00  0.00    -0.361 N 
ATOM     17  H5  UNL     1      11.827  64.976  24.658  1.00  0.00     0.162 HD
HETATM   18  C23 UNL     1      12.775  66.436  23.672  1.00  0.00     0.135 C 
HETATM   19  C24 UNL     1      13.380  67.766  23.894  1.00  0.00     0.159 C 
HETATM   20  N6  UNL     1      13.505  68.584  22.716  1.00  0.00    -0.344 N 
ATOM     21  H6  UNL     1      13.633  69.573  22.930  1.00  0.00     0.163 HD
HETATM   22  C29 UNL     1      13.489  68.325  21.360  1.00  0.00     0.264 C 
HETATM   23  O4  UNL     1      12.456  68.810  20.738  1.00  0.00    -0.266 OA
ENDROOT
BRANCH   5  24
HETATM   24  C7  UNL     1      17.790  65.685  20.616  1.00  0.00     0.032 C 
BRANCH  24  25
HETATM   25  C8  UNL     1      18.282  65.842  19.220  1.00  0.00     0.033 C 
BRANCH  25  26
HETATM   26  C9  UNL     1      17.980  67.124  18.541  1.00  0.00     0.271 C 
BRANCH  26  27
HETATM   27  N2  UNL     1      19.063  67.612  17.712  1.00  0.00     0.080 N 
HETATM   28  C10 UNL     1      19.393  68.991  18.015  1.00  0.00     0.309 C 
HETATM   29  C11 UNL     1      20.237  66.801  18.074  1.00  0.00     0.309 C 
ENDBRANCH  26  27
ENDBRANCH  25  26
ENDBRANCH  24  25
ENDBRANCH   5  24
BRANCH   8  30
HETATM   30  O1  UNL     1      15.736  62.242  22.974  1.00  0.00    -0.348 OA
ATOM     31  H1  UNL     1      14.881  62.480  23.314  1.00  0.00     0.219 HD
ENDBRANCH   8  30
BRANCH   1  32
HETATM   32  C3  UNL     1      13.615  67.065  19.295  1.00  0.00     0.062 C 
BRANCH  32  33
HETATM   33  C2  UNL     1      14.188  67.417  17.953  1.00  0.00     0.002 C 
HETATM   34  C1  UNL     1      13.330  68.448  17.228  1.00  0.00     0.005 C 
ENDBRANCH  32  33
ENDBRANCH   1  32
BRANCH  14  35
HETATM   35  O2  UNL     1      15.039  65.922  26.455  1.00  0.00    -0.348 OA
ATOM     36  H2  UNL     1      15.108  65.524  27.314  1.00  0.00     0.219 HD
ENDBRANCH  14  35
BRANCH  19  37
HETATM   37  C25 UNL     1      12.818  68.505  25.064  1.00  0.00     0.037 C 
BRANCH  37  38
HETATM   38  C26 UNL     1      11.394  68.509  25.349  1.00  0.00    -0.020 C 
HETATM   39  C27 UNL     1      10.614  69.761  25.203  1.00  0.00     0.009 C 
HETATM   40  C28 UNL     1      10.998  67.889  26.677  1.00  0.00     0.009 C 
ENDBRANCH  37  38
ENDBRANCH  19  37
BRANCH  15  41
HETATM   41  C19 UNL     1      13.178  64.185  26.528  1.00  0.00     0.037 C 
BRANCH  41  42
HETATM   42  C20 UNL     1      13.168  62.737  26.821  1.00  0.00    -0.020 C 
HETATM   43  C21 UNL     1      11.812  62.317  27.331  1.00  0.00     0.009 C 
HETATM   44  C22 UNL     1      14.255  62.450  27.825  1.00  0.00     0.009 C 
ENDBRANCH  41  42
ENDBRANCH  15  41
BRANCH  18  45
HETATM   45  O3  UNL     1      12.169  66.366  22.523  1.00  0.00    -0.348 OA
ATOM     46  H3  UNL     1      12.609  65.918  21.810  1.00  0.00     0.219 HD
ENDBRANCH  18  45
TORSDOF 13
ENDMDL
MODEL 3
REMARK VINA RESULT: -6.466114341      2.809      7.770
REMARK  13 active torsions:
REMARK  status: ('A' for Active; 'I' for Inactive)
REMARK    1  A    between atoms: C2_2  and  C3_3 
REMARK    2  A    between atoms: C3_3  and  C4_4 
REMARK    3  A    between atoms: C6_8  and  C7_9 
REMARK    4  A    between atoms: C7_9  and  C8_10 
REMARK    5  A    between atoms: C8_10  and  C9_11 
REMARK    6  A    between atoms: C9_11  and  N2_12 
REMARK    7  A    between atoms: C12_17  and  O1_18 
REMARK    8  A    between atoms: C17_25  and  O2_26 
REMARK    9  A    between atoms: C18_28  and  C19_29 
REMARK   10  A    between atoms: C19_29  and  C20_30 
REMARK   11  A    between atoms: C23_35  and  O3_36 
REMARK   12  A    between atoms: C24_38  and  C25_39 
REMARK   13  A    between atoms: C25_39  and  C26_40 
ROOT
HETATM    1  C4  UNL     1      16.199  64.819  21.652  1.00  0.00     0.077 C 
HETATM    2  N1  UNL     1      15.332  65.295  22.625  1.00  0.00    -0.366 N 
ATOM      3  H1  UNL     1      14.459  64.791  22.784  1.00  0.00     0.165 HD
HETATM    4  C5  UNL     1      15.593  66.420  23.391  1.00  0.00     0.086 C 
HETATM    5  C6  UNL     1      14.412  67.292  23.661  1.00  0.00     0.122 C 
HETATM    6  N3  UNL     1      14.302  67.760  25.016  1.00  0.00    -0.364 N 
ATOM      7  H3  UNL     1      13.854  68.674  25.082  1.00  0.00     0.162 HD
HETATM    8  C12 UNL     1      14.668  67.246  26.258  1.00  0.00     0.135 C 
HETATM    9  C13 UNL     1      14.220  66.113  27.066  1.00  0.00     0.160 C 
HETATM   10  C14 UNL     1      12.690  66.001  27.110  1.00  0.00     0.035 C 
HETATM   11  C15 UNL     1      12.340  64.774  26.363  1.00  0.00     0.022 C 
HETATM   12  C16 UNL     1      13.595  64.092  25.998  1.00  0.00     0.125 C 
HETATM   13  N4  UNL     1      14.647  64.793  26.783  1.00  0.00    -0.351 N 
HETATM   14  C17 UNL     1      15.841  64.119  27.173  1.00  0.00     0.137 C 
HETATM   15  C18 UNL     1      17.205  64.607  27.187  1.00  0.00     0.158 C 
HETATM   16  N5  UNL     1      18.093  64.202  26.136  1.00  0.00    -0.361 N 
ATOM     17  H5  UNL     1      19.073  64.263  26.412  1.00  0.00     0.162 HD
HETATM   18  C23 UNL     1      17.940  63.750  24.844  1.00  0.00     0.135 C 
HETATM   19  C24 UNL     1      17.148  62.617  24.324  1.00  0.00     0.159 C 
HETATM   20  N6  UNL     1      16.924  62.631  22.901  1.00  0.00    -0.344 N 
ATOM     21  H6  UNL     1      16.651  61.721  22.532  1.00  0.00     0.163 HD
HETATM   22  C29 UNL     1      16.997  63.607  21.927  1.00  0.00     0.264 C 
HETATM   23  O4  UNL     1      17.958  63.433  21.070  1.00  0.00    -0.266 OA
ENDROOT
BRANCH   5  24
HETATM   24  C7  UNL     1      13.131  66.725  23.092  1.00  0.00     0.032 C 
BRANCH  24  25
HETATM   25  C8  UNL     1      12.530  67.564  22.020  1.00  0.00     0.033 C 
BRANCH  25  26
HETATM   26  C9  UNL     1      12.916  67.249  20.624  1.00  0.00     0.271 C 
BRANCH  26  27
HETATM   27  N2  UNL     1      12.559  68.284  19.675  1.00  0.00     0.080 N 
HETATM   28  C10 UNL     1      12.882  67.901  18.315  1.00  0.00     0.309 C 
HETATM   29  C11 UNL     1      11.095  68.406  19.751  1.00  0.00     0.309 C 
ENDBRANCH  26  27
ENDBRANCH  25  26
ENDBRANCH  24  25
ENDBRANCH   5  24
BRANCH   8  30
HETATM   30  O1  UNL     1      15.622  67.938  26.827  1.00  0.00    -0.348 OA
ATOM     31  H1  UNL     1      15.621  67.852  27.773  1.00  0.00     0.219 HD
ENDBRANCH   8  30
BRANCH   1  32
HETATM   32  C3  UNL     1      17.083  65.817  20.939  1.00  0.00     0.062 C 
BRANCH  32  33
HETATM   33  C2  UNL     1      16.440  66.447  19.738  1.00  0.00     0.002 C 
HETATM   34  C1  UNL     1      15.635  65.432  18.935  1.00  0.00     0.005 C 
ENDBRANCH  32  33
ENDBRANCH   1  32
BRANCH  14  35
HETATM   35  O2  UNL     1      15.733  62.882  27.585  1.00  0.00    -0.348 OA
ATOM     36  H2  UNL     1      16.507  62.334  27.543  1.00  0.00     0.219 HD
ENDBRANCH  14  35
BRANCH  19  37
HETATM   37  C25 UNL     1      17.580  61.282  24.835  1.00  0.00     0.037 C 
BRANCH  37  38
HETATM   38  C26 UNL     1      18.801  60.648  24.369  1.00  0.00    -0.020 C 
HETATM   39  C27 UNL     1      18.740  59.611  23.312  1.00  0.00     0.009 C 
HETATM   40  C28 UNL     1      19.713  60.119  25.462  1.00  0.00     0.009 C 
ENDBRANCH  37  38
ENDBRANCH  19  37
BRANCH  15  41
HETATM   41  C19 UNL     1      17.822  64.022  28.492  1.00  0.00     0.037 C 
BRANCH  41  42
HETATM   42  C20 UNL     1      18.679  64.983  29.216  1.00  0.00    -0.020 C 
HETATM   43  C21 UNL     1      18.716  64.645  30.686  1.00  0.00     0.009 C 
HETATM   44  C22 UNL     1      18.141  66.370  28.976  1.00  0.00     0.009 C 
ENDBRANCH  41  42
ENDBRANCH  15  41
BRANCH  18  45
HETATM   45  O3  UNL     1      18.566  64.380  23.894  1.00  0.00    -0.348 OA
ATOM     46  H3  UNL     1      18.917  63.870  23.173  1.00  0.00     0.219 HD
ENDBRANCH  18  45
TORSDOF 13
ENDMDL
MODEL 4
REMARK VINA RESULT: -6.433102109      2.432      6.965
REMARK  13 active torsions:
REMARK  status: ('A' for Active; 'I' for Inactive)
REMARK    1  A    between atoms: C2_2  and  C3_3 
REMARK    2  A    between atoms: C3_3  and  C4_4 
REMARK    3  A    between atoms: C6_8  and  C7_9 
REMARK    4  A    between atoms: C7_9  and  C8_10 
REMARK    5  A    between atoms: C8_10  and  C9_11 
REMARK    6  A    between atoms: C9_11  and  N2_12 
REMARK    7  A    between atoms: C12_17  and  O1_18 
REMARK    8  A    between atoms: C17_25  and  O2_26 
REMARK    9  A    between atoms: C18_28  and  C19_29 
REMARK   10  A    between atoms: C19_29  and  C20_30 
REMARK   11  A    between atoms: C23_35  and  O3_36 
REMARK   12  A    between atoms: C24_38  and  C25_39 
REMARK   13  A    between atoms: C25_39  and  C26_40 
ROOT
HETATM    1  C4  UNL     1      12.460  67.983  22.088  1.00  0.00     0.077 C 
HETATM    2  N1  UNL     1      13.505  67.759  21.204  1.00  0.00    -0.366 N 
ATOM      3  H1  UNL     1      14.213  68.486  21.096  1.00  0.00     0.165 HD
HETATM    4  C5  UNL     1      13.634  66.597  20.459  1.00  0.00     0.086 C 
HETATM    5  C6  UNL     1      14.120  66.789  19.061  1.00  0.00     0.122 C 
HETATM    6  N3  UNL     1      15.123  65.853  18.634  1.00  0.00    -0.364 N 
ATOM      7  H3  UNL     1      15.085  65.662  17.633  1.00  0.00     0.162 HD
HETATM    8  C12 UNL     1      16.137  65.148  19.279  1.00  0.00     0.135 C 
HETATM    9  C13 UNL     1      17.385  65.529  19.938  1.00  0.00     0.160 C 
HETATM   10  C14 UNL     1      18.179  66.561  19.126  1.00  0.00     0.035 C 
HETATM   11  C15 UNL     1      18.141  67.820  19.900  1.00  0.00     0.022 C 
HETATM   12  C16 UNL     1      17.479  67.541  21.188  1.00  0.00     0.125 C 
HETATM   13  N4  UNL     1      17.392  66.057  21.252  1.00  0.00    -0.351 N 
HETATM   14  C17 UNL     1      17.373  65.379  22.506  1.00  0.00     0.137 C 
HETATM   15  C18 UNL     1      16.581  64.238  22.918  1.00  0.00     0.158 C 
HETATM   16  N5  UNL     1      15.438  64.460  23.758  1.00  0.00    -0.361 N 
ATOM     17  H5  UNL     1      15.182  63.628  24.290  1.00  0.00     0.162 HD
HETATM   18  C23 UNL     1      14.605  65.524  24.016  1.00  0.00     0.135 C 
HETATM   19  C24 UNL     1      14.930  66.897  24.456  1.00  0.00     0.159 C 
HETATM   20  N6  UNL     1      13.867  67.856  24.296  1.00  0.00    -0.344 N 
ATOM     21  H6  UNL     1      13.997  68.692  24.866  1.00  0.00     0.163 HD
HETATM   22  C29 UNL     1      12.712  67.893  23.540  1.00  0.00     0.264 C 
HETATM   23  O4  UNL     1      11.618  67.842  24.239  1.00  0.00    -0.266 OA
ENDROOT
BRANCH   5  24
HETATM   24  C7  UNL     1      14.447  68.235  18.755  1.00  0.00     0.032 C 
BRANCH  24  25
HETATM   25  C8  UNL     1      13.314  68.988  18.153  1.00  0.00     0.033 C 
BRANCH  25  26
HETATM   26  C9  UNL     1      12.970  70.291  18.769  1.00  0.00     0.271 C 
BRANCH  26  27
HETATM   27  N2  UNL     1      13.998  70.808  19.649  1.00  0.00     0.080 N 
HETATM   28  C10 UNL     1      14.802  71.824  18.997  1.00  0.00     0.309 C 
HETATM   29  C11 UNL     1      13.283  71.468  20.752  1.00  0.00     0.309 C 
ENDBRANCH  26  27
ENDBRANCH  25  26
ENDBRANCH  24  25
ENDBRANCH   5  24
BRANCH   8  30
HETATM   30  O1  UNL     1      15.923  63.857  19.291  1.00  0.00    -0.348 OA
ATOM     31  H1  UNL     1      15.374  63.585  20.017  1.00  0.00     0.219 HD
ENDBRANCH   8  30
BRANCH   1  32
HETATM   32  C3  UNL     1      11.130  67.327  21.796  1.00  0.00     0.062 C 
BRANCH  32  33
HETATM   33  C2  UNL     1      10.317  68.042  20.757  1.00  0.00     0.002 C 
HETATM   34  C1  UNL     1      10.129  69.514  21.105  1.00  0.00     0.005 C 
ENDBRANCH  32  33
ENDBRANCH   1  32
BRANCH  14  35
HETATM   35  O2  UNL     1      18.172  65.816  23.445  1.00  0.00    -0.348 OA
ATOM     36  H2  UNL     1      18.144  65.378  24.287  1.00  0.00     0.219 HD
ENDBRANCH  14  35
BRANCH  19  37
HETATM   37  C25 UNL     1      15.588  66.971  25.795  1.00  0.00     0.037 C 
BRANCH  37  38
HETATM   38  C26 UNL     1      16.006  65.774  26.504  1.00  0.00    -0.020 C 
HETATM   39  C27 UNL     1      15.233  65.301  27.677  1.00  0.00     0.009 C 
HETATM   40  C28 UNL     1      17.474  65.730  26.889  1.00  0.00     0.009 C 
ENDBRANCH  37  38
ENDBRANCH  19  37
BRANCH  15  41
HETATM   41  C19 UNL     1      17.551  63.367  23.770  1.00  0.00     0.037 C 
BRANCH  41  42
HETATM   42  C20 UNL     1      16.909  62.167  24.344  1.00  0.00    -0.020 C 
HETATM   43  C21 UNL     1      17.089  62.144  25.841  1.00  0.00     0.009 C 
HETATM   44  C22 UNL     1      17.514  60.950  23.692  1.00  0.00     0.009 C 
ENDBRANCH  41  42
ENDBRANCH  15  41
BRANCH  18  45
HETATM   45  O3  UNL     1      13.325  65.354  23.867  1.00  0.00    -0.348 OA
ATOM     46  H3  UNL     1      12.737  65.844  24.430  1.00  0.00     0.219 HD
ENDBRANCH  18  45
TORSDOF 13
ENDMDL
MODEL 5
REMARK VINA RESULT: -6.423866693      2.662      7.236
REMARK  13 active torsions:
REMARK  status: ('A' for Active; 'I' for Inactive)
REMARK    1  A    between atoms: C2_2  and  C3_3 
REMARK    2  A    between atoms: C3_3  and  C4_4 
REMARK    3  A    between atoms: C6_8  and  C7_9 
REMARK    4  A    between atoms: C7_9  and  C8_10 
REMARK    5  A    between atoms: C8_10  and  C9_11 
REMARK    6  A    between atoms: C9_11  and  N2_12 
REMARK    7  A    between atoms: C12_17  and  O1_18 
REMARK    8  A    between atoms: C17_25  and  O2_26 
REMARK    9  A    between atoms: C18_28  and  C19_29 
REMARK   10  A    between atoms: C19_29  and  C20_30 
REMARK   11  A    between atoms: C23_35  and  O3_36 
REMARK   12  A    between atoms: C24_38  and  C25_39 
REMARK   13  A    between atoms: C25_39  and  C26_40 
ROOT
HETATM    1  C4  UNL     1      15.644  65.435  21.718  1.00  0.00     0.077 C 
HETATM    2  N1  UNL     1      14.873  65.352  22.868  1.00  0.00    -0.366 N 
ATOM      3  H1  UNL     1      14.251  64.551  22.977  1.00  0.00     0.165 HD
HETATM    4  C5  UNL     1      14.908  66.303  23.876  1.00  0.00     0.086 C 
HETATM    5  C6  UNL     1      13.586  66.622  24.493  1.00  0.00     0.122 C 
HETATM    6  N3  UNL     1      13.594  66.716  25.927  1.00  0.00    -0.364 N 
ATOM      7  H3  UNL     1      12.903  67.376  26.283  1.00  0.00     0.162 HD
HETATM    8  C12 UNL     1      14.334  66.110  26.940  1.00  0.00     0.135 C 
HETATM    9  C13 UNL     1      14.428  64.746  27.457  1.00  0.00     0.160 C 
HETATM   10  C14 UNL     1      13.050  64.094  27.631  1.00  0.00     0.035 C 
HETATM   11  C15 UNL     1      12.969  63.014  26.624  1.00  0.00     0.022 C 
HETATM   12  C16 UNL     1      14.281  62.915  25.959  1.00  0.00     0.125 C 
HETATM   13  N4  UNL     1      15.187  63.756  26.787  1.00  0.00    -0.351 N 
HETATM   14  C17 UNL     1      16.584  63.479  26.854  1.00  0.00     0.137 C 
HETATM   15  C18 UNL     1      17.701  64.402  26.855  1.00  0.00     0.158 C 
HETATM   16  N5  UNL     1      18.454  64.574  25.646  1.00  0.00    -0.361 N 
ATOM     17  H5  UNL     1      19.399  64.916  25.823  1.00  0.00     0.162 HD
HETATM   18  C23 UNL     1      18.208  64.387  24.304  1.00  0.00     0.135 C 
HETATM   19  C24 UNL     1      17.729  63.188  23.586  1.00  0.00     0.159 C 
HETATM   20  N6  UNL     1      17.246  63.430  22.251  1.00  0.00    -0.344 N 
ATOM     21  H6  UNL     1      17.209  62.584  21.682  1.00  0.00     0.163 HD
HETATM   22  C29 UNL     1      16.820  64.554  21.572  1.00  0.00     0.264 C 
HETATM   23  O4  UNL     1      17.605  64.920  20.603  1.00  0.00    -0.266 OA
ENDROOT
BRANCH   5  24
HETATM   24  C7  UNL     1      12.465  65.776  23.931  1.00  0.00     0.032 C 
BRANCH  24  25
HETATM   25  C8  UNL     1      11.434  66.560  23.199  1.00  0.00     0.033 C 
BRANCH  25  26
HETATM   26  C9  UNL     1      11.567  66.635  21.725  1.00  0.00     0.271 C 
BRANCH  26  27
HETATM   27  N2  UNL     1      10.522  67.410  21.086  1.00  0.00     0.080 N 
HETATM   28  C10 UNL     1       9.789  68.215  22.043  1.00  0.00     0.309 C 
HETATM   29  C11 UNL     1      11.214  68.342  20.182  1.00  0.00     0.309 C 
ENDBRANCH  26  27
ENDBRANCH  25  26
ENDBRANCH  24  25
ENDBRANCH   5  24
BRANCH   8  30
HETATM   30  O1  UNL     1      15.111  66.954  27.570  1.00  0.00    -0.348 OA
ATOM     31  H1  UNL     1      14.726  67.270  28.379  1.00  0.00     0.219 HD
ENDBRANCH   8  30
BRANCH   1  32
HETATM   32  C3  UNL     1      16.015  66.810  21.209  1.00  0.00     0.062 C 
BRANCH  32  33
HETATM   33  C2  UNL     1      14.983  67.421  20.308  1.00  0.00     0.002 C 
HETATM   34  C1  UNL     1      14.436  66.406  19.310  1.00  0.00     0.005 C 
ENDBRANCH  32  33
ENDBRANCH   1  32
BRANCH  14  35
HETATM   35  O2  UNL     1      16.952  62.226  26.929  1.00  0.00    -0.348 OA
ATOM     36  H2  UNL     1      17.779  61.985  26.528  1.00  0.00     0.219 HD
ENDBRANCH  14  35
BRANCH  19  37
HETATM   37  C25 UNL     1      18.650  62.015  23.672  1.00  0.00     0.037 C 
BRANCH  37  38
HETATM   38  C26 UNL     1      18.203  60.735  24.192  1.00  0.00    -0.020 C 
HETATM   39  C27 UNL     1      18.988  60.050  25.246  1.00  0.00     0.009 C 
HETATM   40  C28 UNL     1      17.862  59.693  23.140  1.00  0.00     0.009 C 
ENDBRANCH  37  38
ENDBRANCH  19  37
BRANCH  15  41
HETATM   41  C19 UNL     1      18.708  63.806  27.882  1.00  0.00     0.037 C 
BRANCH  41  42
HETATM   42  C20 UNL     1      18.755  64.550  29.157  1.00  0.00    -0.020 C 
HETATM   43  C21 UNL     1      17.773  63.965  30.141  1.00  0.00     0.009 C 
HETATM   44  C22 UNL     1      18.457  66.000  28.869  1.00  0.00     0.009 C 
ENDBRANCH  41  42
ENDBRANCH  15  41
BRANCH  18  45
HETATM   45  O3  UNL     1      18.411  65.387  23.497  1.00  0.00    -0.348 OA
ATOM     46  H3  UNL     1      18.410  66.265  23.861  1.00  0.00     0.219 HD
ENDBRANCH  18  45
TORSDOF 13
ENDMDL
