MODEL 1
REMARK VINA RESULT: -8.525303954      0.000      0.000
REMARK  8 active torsions:
REMARK  status: ('A' for Active; 'I' for Inactive)
REMARK    1  A    between atoms: C2_2  and  C4_4 
REMARK    2  A    between atoms: C4_4  and  C5_5 
REMARK    3  A    between atoms: N2_13  and  C10_14 
REMARK    4  A    between atoms: C10_14  and  C11_15 
REMARK    5  A    between atoms: C12_16  and  C13_17 
REMARK    6  A    between atoms: C13_17  and  C14_18 
REMARK    7  A    between atoms: C14_18  and  N3_19 
REMARK    8  A    between atoms: C16_30  and  C17_31 
REMARK       I    between atoms: C17_31  and  N7_33 
ROOT
HETATM    1  C5  UNL     1      15.895  65.294  25.355  1.00  0.00     0.177 C 
HETATM    2  N1  UNL     1      17.251  65.538  25.037  1.00  0.00    -0.346 N 
ATOM      3  H1  UNL     1      17.445  66.445  24.614  1.00  0.00     0.163 HD
HETATM    4  C6  UNL     1      18.373  64.705  25.223  1.00  0.00     0.246 C 
HETATM    5  O1  UNL     1      19.464  65.321  25.361  1.00  0.00    -0.271 OA
HETATM    6  C7  UNL     1      18.460  63.268  25.277  1.00  0.00     0.123 C 
HETATM    7  C8  UNL     1      19.956  62.962  25.523  1.00  0.00     0.049 C 
HETATM    8  C9  UNL     1      17.824  62.596  26.451  1.00  0.00     0.049 C 
HETATM    9  N2  UNL     1      18.066  62.598  24.047  1.00  0.00    -0.197 N 
HETATM   10  C15 UNL     1      18.176  63.185  22.752  1.00  0.00     0.673 C 
HETATM   11  N5  UNL     1      18.769  62.369  21.893  1.00  0.00    -0.235 N 
ATOM     12  H51 UNL     1      18.849  62.788  20.967  1.00  0.00     0.174 HD
ATOM     13  H52 UNL     1      19.050  61.456  22.254  1.00  0.00     0.174 HD
HETATM   14  N6  UNL     1      17.797  64.418  22.265  1.00  0.00    -0.197 N 
ATOM     15  H6  UNL     1      18.565  64.970  21.884  1.00  0.00     0.180 HD
HETATM   16  C16 UNL     1      16.475  65.085  22.197  1.00  0.00     0.295 C 
HETATM   17  N8  UNL     1      15.499  64.400  22.962  1.00  0.00    -0.330 N 
ATOM     18  H8  UNL     1      14.835  63.847  22.421  1.00  0.00     0.165 HD
HETATM   19  C23 UNL     1      15.307  64.368  24.365  1.00  0.00     0.242 C 
HETATM   20  O4  UNL     1      14.545  63.449  24.853  1.00  0.00    -0.271 OA
ENDROOT
BRANCH   9  21
HETATM   21  C10 UNL     1      17.558  61.229  24.230  1.00  0.00     0.169 C 
BRANCH  21  22
HETATM   22  C11 UNL     1      18.327  60.203  23.560  1.00  0.00    -0.010 C 
HETATM   23  C12 UNL     1      19.250  59.413  24.051  1.00  0.00    -0.027 C 
BRANCH  23  24
HETATM   24  C13 UNL     1      19.657  59.475  25.458  1.00  0.00     0.048 C 
BRANCH  24  25
HETATM   25  C14 UNL     1      19.986  58.091  26.016  1.00  0.00     0.142 C 
BRANCH  25  26
HETATM   26  N3  UNL     1      20.740  58.171  27.211  1.00  0.00    -0.343 N 
HETATM   27  N4  UNL     1      20.410  57.512  28.229  1.00  0.00    -0.349 N 
ATOM     28  H42 UNL     1      19.584  56.916  28.176  1.00  0.00     0.176 HD
ATOM     29  H41 UNL     1      20.954  57.569  29.090  1.00  0.00     0.176 HD
ATOM     30  H3  UNL     1      21.563  58.772  27.246  1.00  0.00     0.179 HD
ENDBRANCH  25  26
ENDBRANCH  24  25
ENDBRANCH  23  24
ENDBRANCH  21  22
ENDBRANCH   9  21
BRANCH  16  31
HETATM   31  C17 UNL     1      16.023  65.080  20.756  1.00  0.00     0.269 C 
HETATM   32  O2  UNL     1      16.574  64.127  20.082  1.00  0.00    -0.269 OA
HETATM   33  N7  UNL     1      15.160  65.897  20.079  1.00  0.00    -0.285 N 
HETATM   34  C18 UNL     1      14.910  65.584  18.656  1.00  0.00     0.135 C 
HETATM   35  C22 UNL     1      14.537  67.012  20.672  1.00  0.00     0.226 C 
HETATM   36  C19 UNL     1      14.508  66.781  17.878  1.00  0.00     0.021 C 
HETATM   37  C20 UNL     1      13.526  67.672  18.599  1.00  0.00     0.011 C 
HETATM   38  C21 UNL     1      14.256  68.220  19.813  1.00  0.00     0.103 C 
HETATM   39  O3  UNL     1      14.189  67.098  21.856  1.00  0.00    -0.273 OA
ENDBRANCH  16  31
BRANCH   1  40
HETATM   40  C4  UNL     1      15.103  66.612  25.378  1.00  0.00     0.038 C 
BRANCH  40  41
HETATM   41  C2  UNL     1      14.130  66.655  26.537  1.00  0.00    -0.020 C 
HETATM   42  C1  UNL     1      12.744  66.224  26.181  1.00  0.00     0.009 C 
HETATM   43  C3  UNL     1      14.667  65.825  27.671  1.00  0.00     0.009 C 
ENDBRANCH  40  41
ENDBRANCH   1  40
TORSDOF 8
ENDMDL
MODEL 2
REMARK VINA RESULT: -8.292175705      1.009      1.058
REMARK  8 active torsions:
REMARK  status: ('A' for Active; 'I' for Inactive)
REMARK    1  A    between atoms: C2_2  and  C4_4 
REMARK    2  A    between atoms: C4_4  and  C5_5 
REMARK    3  A    between atoms: N2_13  and  C10_14 
REMARK    4  A    between atoms: C10_14  and  C11_15 
REMARK    5  A    between atoms: C12_16  and  C13_17 
REMARK    6  A    between atoms: C13_17  and  C14_18 
REMARK    7  A    between atoms: C14_18  and  N3_19 
REMARK    8  A    between atoms: C16_30  and  C17_31 
REMARK       I    between atoms: C17_31  and  N7_33 
ROOT
HETATM    1  C5  UNL     1      15.462  66.165  25.070  1.00  0.00     0.177 C 
HETATM    2  N1  UNL     1      16.819  66.376  24.732  1.00  0.00    -0.346 N 
ATOM      3  H1  UNL     1      17.021  67.258  24.262  1.00  0.00     0.163 HD
HETATM    4  C6  UNL     1      17.932  65.539  24.953  1.00  0.00     0.246 C 
HETATM    5  O1  UNL     1      19.031  66.148  25.054  1.00  0.00    -0.271 OA
HETATM    6  C7  UNL     1      18.002  64.106  25.080  1.00  0.00     0.123 C 
HETATM    7  C8  UNL     1      19.496  63.794  25.332  1.00  0.00     0.049 C 
HETATM    8  C9  UNL     1      17.366  63.502  26.290  1.00  0.00     0.049 C 
HETATM    9  N2  UNL     1      17.592  63.379  23.888  1.00  0.00    -0.197 N 
HETATM   10  C15 UNL     1      17.701  63.898  22.564  1.00  0.00     0.673 C 
HETATM   11  N5  UNL     1      18.279  63.033  21.744  1.00  0.00    -0.235 N 
ATOM     12  H51 UNL     1      18.358  63.404  20.797  1.00  0.00     0.174 HD
ATOM     13  H52 UNL     1      18.551  62.136  22.148  1.00  0.00     0.174 HD
HETATM   14  N6  UNL     1      17.334  65.110  22.017  1.00  0.00    -0.197 N 
ATOM     15  H6  UNL     1      18.106  65.633  21.604  1.00  0.00     0.180 HD
HETATM   16  C16 UNL     1      16.019  65.789  21.922  1.00  0.00     0.295 C 
HETATM   17  N8  UNL     1      15.040  65.156  22.727  1.00  0.00    -0.330 N 
ATOM     18  H8  UNL     1      14.367  64.584  22.218  1.00  0.00     0.165 HD
HETATM   19  C23 UNL     1      14.857  65.197  24.131  1.00  0.00     0.242 C 
HETATM   20  O4  UNL     1      14.087  64.313  24.669  1.00  0.00    -0.271 OA
ENDROOT
BRANCH   9  21
HETATM   21  C10 UNL     1      17.069  62.028  24.142  1.00  0.00     0.169 C 
BRANCH  21  22
HETATM   22  C11 UNL     1      17.856  60.956  23.573  1.00  0.00    -0.010 C 
HETATM   23  C12 UNL     1      18.771  60.212  24.147  1.00  0.00    -0.027 C 
BRANCH  23  24
HETATM   24  C13 UNL     1      19.145  60.387  25.553  1.00  0.00     0.048 C 
BRANCH  24  25
HETATM   25  C14 UNL     1      20.102  59.294  26.026  1.00  0.00     0.142 C 
BRANCH  25  26
HETATM   26  N3  UNL     1      19.820  58.048  25.417  1.00  0.00    -0.343 N 
HETATM   27  N4  UNL     1      20.191  56.971  25.948  1.00  0.00    -0.349 N 
ATOM     28  H42 UNL     1      20.702  57.013  26.829  1.00  0.00     0.176 HD
ATOM     29  H41 UNL     1      19.987  56.073  25.509  1.00  0.00     0.176 HD
ATOM     30  H3  UNL     1      19.308  58.024  24.536  1.00  0.00     0.179 HD
ENDBRANCH  25  26
ENDBRANCH  24  25
ENDBRANCH  23  24
ENDBRANCH  21  22
ENDBRANCH   9  21
BRANCH  16  31
HETATM   31  C17 UNL     1      15.559  65.717  20.486  1.00  0.00     0.269 C 
HETATM   32  O2  UNL     1      16.078  64.712  19.864  1.00  0.00    -0.269 OA
HETATM   33  N7  UNL     1      14.715  66.519  19.769  1.00  0.00    -0.285 N 
HETATM   34  C18 UNL     1      14.448  66.134  18.366  1.00  0.00     0.135 C 
HETATM   35  C22 UNL     1      14.128  67.683  20.301  1.00  0.00     0.226 C 
HETATM   36  C19 UNL     1      14.075  67.297  17.525  1.00  0.00     0.021 C 
HETATM   37  C20 UNL     1      13.124  68.256  18.199  1.00  0.00     0.011 C 
HETATM   38  C21 UNL     1      13.876  68.849  19.378  1.00  0.00     0.103 C 
HETATM   39  O3  UNL     1      13.791  67.845  21.480  1.00  0.00    -0.273 OA
ENDBRANCH  16  31
BRANCH   1  40
HETATM   40  C4  UNL     1      14.686  67.492  25.030  1.00  0.00     0.038 C 
BRANCH  40  41
HETATM   41  C2  UNL     1      13.751  67.623  26.213  1.00  0.00    -0.020 C 
HETATM   42  C1  UNL     1      12.346  67.205  25.924  1.00  0.00     0.009 C 
HETATM   43  C3  UNL     1      14.305  66.847  27.376  1.00  0.00     0.009 C 
ENDBRANCH  40  41
ENDBRANCH   1  40
TORSDOF 8
ENDMDL
MODEL 3
REMARK VINA RESULT: -7.989514201      2.095      2.480
REMARK  8 active torsions:
REMARK  status: ('A' for Active; 'I' for Inactive)
REMARK    1  A    between atoms: C2_2  and  C4_4 
REMARK    2  A    between atoms: C4_4  and  C5_5 
REMARK    3  A    between atoms: N2_13  and  C10_14 
REMARK    4  A    between atoms: C10_14  and  C11_15 
REMARK    5  A    between atoms: C12_16  and  C13_17 
REMARK    6  A    between atoms: C13_17  and  C14_18 
REMARK    7  A    between atoms: C14_18  and  N3_19 
REMARK    8  A    between atoms: C16_30  and  C17_31 
REMARK       I    between atoms: C17_31  and  N7_33 
ROOT
HETATM    1  C5  UNL     1      14.293  64.704  24.706  1.00  0.00     0.177 C 
HETATM    2  N1  UNL     1      15.266  65.525  25.321  1.00  0.00    -0.346 N 
ATOM      3  H1  UNL     1      15.330  66.475  24.957  1.00  0.00     0.163 HD
HETATM    4  C6  UNL     1      16.160  65.215  26.366  1.00  0.00     0.246 C 
HETATM    5  O1  UNL     1      16.515  66.206  27.060  1.00  0.00    -0.271 OA
HETATM    6  C7  UNL     1      16.723  63.948  26.757  1.00  0.00     0.123 C 
HETATM    7  C8  UNL     1      17.611  64.262  27.985  1.00  0.00     0.049 C 
HETATM    8  C9  UNL     1      15.782  62.935  27.324  1.00  0.00     0.049 C 
HETATM    9  N2  UNL     1      17.568  63.332  25.745  1.00  0.00    -0.197 N 
HETATM   10  C15 UNL     1      18.295  64.066  24.762  1.00  0.00     0.673 C 
HETATM   11  N5  UNL     1      19.561  63.681  24.700  1.00  0.00    -0.235 N 
ATOM     12  H51 UNL     1      20.081  64.206  23.997  1.00  0.00     0.174 HD
ATOM     13  H52 UNL     1      19.839  62.931  25.333  1.00  0.00     0.174 HD
HETATM   14  N6  UNL     1      17.919  65.081  23.907  1.00  0.00    -0.197 N 
ATOM     15  H6  UNL     1      18.450  65.944  24.025  1.00  0.00     0.180 HD
HETATM   16  C16 UNL     1      16.884  65.144  22.848  1.00  0.00     0.295 C 
HETATM   17  N8  UNL     1      16.012  64.028  22.897  1.00  0.00    -0.330 N 
ATOM     18  H8  UNL     1      16.175  63.320  22.182  1.00  0.00     0.165 HD
HETATM   19  C23 UNL     1      14.950  63.746  23.791  1.00  0.00     0.242 C 
HETATM   20  O4  UNL     1      14.490  62.542  23.829  1.00  0.00    -0.271 OA
ENDROOT
BRANCH   9  21
HETATM   21  C10 UNL     1      17.647  61.865  25.823  1.00  0.00     0.169 C 
BRANCH  21  22
HETATM   22  C11 UNL     1      17.757  61.195  24.545  1.00  0.00    -0.010 C 
HETATM   23  C12 UNL     1      18.555  60.217  24.195  1.00  0.00    -0.027 C 
BRANCH  23  24
HETATM   24  C13 UNL     1      19.520  59.629  25.130  1.00  0.00     0.048 C 
BRANCH  24  25
HETATM   25  C14 UNL     1      19.371  58.111  25.219  1.00  0.00     0.142 C 
BRANCH  25  26
HETATM   26  N3  UNL     1      20.367  57.532  26.041  1.00  0.00    -0.343 N 
HETATM   27  N4  UNL     1      20.714  58.080  27.118  1.00  0.00    -0.349 N 
ATOM     28  H42 UNL     1      20.262  58.953  27.388  1.00  0.00     0.176 HD
ATOM     29  H41 UNL     1      21.433  57.663  27.710  1.00  0.00     0.176 HD
ATOM     30  H3  UNL     1      20.809  56.659  25.756  1.00  0.00     0.179 HD
ENDBRANCH  25  26
ENDBRANCH  24  25
ENDBRANCH  23  24
ENDBRANCH  21  22
ENDBRANCH   9  21
BRANCH  16  31
HETATM   31  C17 UNL     1      17.583  65.130  21.510  1.00  0.00     0.269 C 
HETATM   32  O2  UNL     1      18.092  63.974  21.245  1.00  0.00    -0.269 OA
HETATM   33  N7  UNL     1      17.757  66.111  20.574  1.00  0.00    -0.285 N 
HETATM   34  C18 UNL     1      18.474  65.742  19.334  1.00  0.00     0.135 C 
HETATM   35  C22 UNL     1      17.309  67.433  20.758  1.00  0.00     0.226 C 
HETATM   36  C19 UNL     1      19.141  66.906  18.702  1.00  0.00     0.021 C 
HETATM   37  C20 UNL     1      18.300  68.160  18.697  1.00  0.00     0.011 C 
HETATM   38  C21 UNL     1      18.114  68.557  20.152  1.00  0.00     0.103 C 
HETATM   39  O3  UNL     1      16.297  67.771  21.384  1.00  0.00    -0.273 OA
ENDBRANCH  16  31
BRANCH   1  40
HETATM   40  C4  UNL     1      13.279  65.561  23.929  1.00  0.00     0.038 C 
BRANCH  40  41
HETATM   41  C2  UNL     1      12.406  66.371  24.864  1.00  0.00    -0.020 C 
HETATM   42  C1  UNL     1      11.140  66.860  24.239  1.00  0.00     0.009 C 
HETATM   43  C3  UNL     1      12.109  65.561  26.096  1.00  0.00     0.009 C 
ENDBRANCH  40  41
ENDBRANCH   1  40
TORSDOF 8
ENDMDL
MODEL 4
REMARK VINA RESULT: -7.871370270      1.763      2.367
REMARK  8 active torsions:
REMARK  status: ('A' for Active; 'I' for Inactive)
REMARK    1  A    between atoms: C2_2  and  C4_4 
REMARK    2  A    between atoms: C4_4  and  C5_5 
REMARK    3  A    between atoms: N2_13  and  C10_14 
REMARK    4  A    between atoms: C10_14  and  C11_15 
REMARK    5  A    between atoms: C12_16  and  C13_17 
REMARK    6  A    between atoms: C13_17  and  C14_18 
REMARK    7  A    between atoms: C14_18  and  N3_19 
REMARK    8  A    between atoms: C16_30  and  C17_31 
REMARK       I    between atoms: C17_31  and  N7_33 
ROOT
HETATM    1  C5  UNL     1      14.012  65.058  26.178  1.00  0.00     0.177 C 
HETATM    2  N1  UNL     1      15.000  66.068  26.242  1.00  0.00    -0.346 N 
ATOM      3  H1  UNL     1      14.801  66.909  25.703  1.00  0.00     0.163 HD
HETATM    4  C6  UNL     1      16.222  66.075  26.946  1.00  0.00     0.246 C 
HETATM    5  O1  UNL     1      16.633  67.222  27.267  1.00  0.00    -0.271 OA
HETATM    6  C7  UNL     1      17.063  64.977  27.352  1.00  0.00     0.123 C 
HETATM    7  C8  UNL     1      18.246  65.630  28.106  1.00  0.00     0.049 C 
HETATM    8  C9  UNL     1      16.518  64.058  28.397  1.00  0.00     0.049 C 
HETATM    9  N2  UNL     1      17.612  64.205  26.248  1.00  0.00    -0.197 N 
HETATM   10  C15 UNL     1      17.862  64.742  24.950  1.00  0.00     0.673 C 
HETATM   11  N5  UNL     1      19.081  64.446  24.523  1.00  0.00    -0.235 N 
ATOM     12  H51 UNL     1      19.260  64.829  23.596  1.00  0.00     0.174 HD
ATOM     13  H52 UNL     1      19.658  63.884  25.151  1.00  0.00     0.174 HD
HETATM   14  N6  UNL     1      17.083  65.501  24.102  1.00  0.00    -0.197 N 
ATOM     15  H6  UNL     1      17.489  66.404  23.858  1.00  0.00     0.180 HD
HETATM   16  C16 UNL     1      15.761  65.241  23.483  1.00  0.00     0.295 C 
HETATM   17  N8  UNL     1      15.128  64.107  24.049  1.00  0.00    -0.330 N 
ATOM     18  H8  UNL     1      15.151  63.266  23.473  1.00  0.00     0.165 HD
HETATM   19  C23 UNL     1      14.469  63.965  25.294  1.00  0.00     0.242 C 
HETATM   20  O4  UNL     1      14.230  62.772  25.723  1.00  0.00    -0.271 OA
ENDROOT
BRANCH   9  21
HETATM   21  C10 UNL     1      17.927  62.806  26.574  1.00  0.00     0.169 C 
BRANCH  21  22
HETATM   22  C11 UNL     1      17.508  61.842  25.581  1.00  0.00    -0.010 C 
HETATM   23  C12 UNL     1      18.220  60.928  24.968  1.00  0.00    -0.027 C 
BRANCH  23  24
HETATM   24  C13 UNL     1      19.652  60.754  25.231  1.00  0.00     0.048 C 
BRANCH  24  25
HETATM   25  C14 UNL     1      19.923  59.534  26.109  1.00  0.00     0.142 C 
BRANCH  25  26
HETATM   26  N3  UNL     1      19.858  58.328  25.370  1.00  0.00    -0.343 N 
HETATM   27  N4  UNL     1      20.255  57.244  25.865  1.00  0.00    -0.349 N 
ATOM     28  H42 UNL     1      20.627  57.250  26.815  1.00  0.00     0.176 HD
ATOM     29  H41 UNL     1      20.207  56.375  25.332  1.00  0.00     0.176 HD
ATOM     30  H3  UNL     1      19.483  58.340  24.421  1.00  0.00     0.179 HD
ENDBRANCH  25  26
ENDBRANCH  24  25
ENDBRANCH  23  24
ENDBRANCH  21  22
ENDBRANCH   9  21
BRANCH  16  31
HETATM   31  C17 UNL     1      15.979  64.967  22.014  1.00  0.00     0.269 C 
HETATM   32  O2  UNL     1      16.376  63.757  21.804  1.00  0.00    -0.269 OA
HETATM   33  N7  UNL     1      15.832  65.769  20.917  1.00  0.00    -0.285 N 
HETATM   34  C18 UNL     1      16.101  65.161  19.595  1.00  0.00     0.135 C 
HETATM   35  C22 UNL     1      15.466  67.126  21.002  1.00  0.00     0.226 C 
HETATM   36  C19 UNL     1      16.518  66.166  18.587  1.00  0.00     0.021 C 
HETATM   37  C20 UNL     1      15.718  67.446  18.638  1.00  0.00     0.011 C 
HETATM   38  C21 UNL     1      16.021  68.088  19.981  1.00  0.00     0.103 C 
HETATM   39  O3  UNL     1      14.715  67.617  21.854  1.00  0.00    -0.273 OA
ENDBRANCH  16  31
BRANCH   1  40
HETATM   40  C4  UNL     1      12.686  65.636  25.656  1.00  0.00     0.038 C 
BRANCH  40  41
HETATM   41  C2  UNL     1      11.641  65.702  26.750  1.00  0.00    -0.020 C 
HETATM   42  C1  UNL     1      10.325  66.246  26.297  1.00  0.00     0.009 C 
HETATM   43  C3  UNL     1      11.469  64.338  27.359  1.00  0.00     0.009 C 
ENDBRANCH  40  41
ENDBRANCH   1  40
TORSDOF 8
ENDMDL
MODEL 5
REMARK VINA RESULT: -7.797918143      3.986      6.348
REMARK  8 active torsions:
REMARK  status: ('A' for Active; 'I' for Inactive)
REMARK    1  A    between atoms: C2_2  and  C4_4 
REMARK    2  A    between atoms: C4_4  and  C5_5 
REMARK    3  A    between atoms: N2_13  and  C10_14 
REMARK    4  A    between atoms: C10_14  and  C11_15 
REMARK    5  A    between atoms: C12_16  and  C13_17 
REMARK    6  A    between atoms: C13_17  and  C14_18 
REMARK    7  A    between atoms: C14_18  and  N3_19 
REMARK    8  A    between atoms: C16_30  and  C17_31 
REMARK       I    between atoms: C17_31  and  N7_33 
ROOT
HETATM    1  C5  UNL     1      18.298  65.875  29.237  1.00  0.00     0.177 C 
HETATM    2  N1  UNL     1      17.491  66.251  28.138  1.00  0.00    -0.346 N 
ATOM      3  H1  UNL     1      16.652  66.781  28.373  1.00  0.00     0.163 HD
HETATM    4  C6  UNL     1      17.682  65.997  26.765  1.00  0.00     0.246 C 
HETATM    5  O1  UNL     1      17.158  66.849  25.998  1.00  0.00    -0.271 OA
HETATM    6  C7  UNL     1      18.380  64.919  26.112  1.00  0.00     0.123 C 
HETATM    7  C8  UNL     1      18.252  65.213  24.598  1.00  0.00     0.049 C 
HETATM    8  C9  UNL     1      19.865  64.875  26.280  1.00  0.00     0.049 C 
HETATM    9  N2  UNL     1      17.812  63.603  26.358  1.00  0.00    -0.197 N 
HETATM   10  C15 UNL     1      16.435  63.373  26.649  1.00  0.00     0.673 C 
HETATM   11  N5  UNL     1      15.927  62.411  25.893  1.00  0.00    -0.235 N 
ATOM     12  H51 UNL     1      14.942  62.247  26.100  1.00  0.00     0.174 HD
ATOM     13  H52 UNL     1      16.567  61.968  25.232  1.00  0.00     0.174 HD
HETATM   14  N6  UNL     1      15.571  63.972  27.542  1.00  0.00    -0.197 N 
ATOM     15  H6  UNL     1      14.752  64.399  27.108  1.00  0.00     0.180 HD
HETATM   16  C16 UNL     1      15.617  64.108  29.017  1.00  0.00     0.295 C 
HETATM   17  N8  UNL     1      16.880  63.735  29.540  1.00  0.00    -0.330 N 
ATOM     18  H8  UNL     1      16.908  62.821  29.993  1.00  0.00     0.165 HD
HETATM   19  C23 UNL     1      18.109  64.438  29.529  1.00  0.00     0.242 C 
HETATM   20  O4  UNL     1      19.187  63.784  29.799  1.00  0.00    -0.271 OA
ENDROOT
BRANCH   9  21
HETATM   21  C10 UNL     1      18.771  62.492  26.256  1.00  0.00     0.169 C 
BRANCH  21  22
HETATM   22  C11 UNL     1      18.819  61.848  24.962  1.00  0.00    -0.010 C 
HETATM   23  C12 UNL     1      19.243  60.646  24.655  1.00  0.00    -0.027 C 
BRANCH  23  24
HETATM   24  C13 UNL     1      19.767  59.726  25.669  1.00  0.00     0.048 C 
BRANCH  24  25
HETATM   25  C14 UNL     1      19.534  58.265  25.284  1.00  0.00     0.142 C 
BRANCH  25  26
HETATM   26  N3  UNL     1      20.276  57.381  26.102  1.00  0.00    -0.343 N 
HETATM   27  N4  UNL     1      20.723  57.754  27.216  1.00  0.00    -0.349 N 
ATOM     28  H42 UNL     1      20.540  58.710  27.520  1.00  0.00     0.176 HD
ATOM     29  H41 UNL     1      21.258  57.116  27.807  1.00  0.00     0.176 HD
ATOM     30  H3  UNL     1      20.451  56.428  25.784  1.00  0.00     0.179 HD
ENDBRANCH  25  26
ENDBRANCH  24  25
ENDBRANCH  23  24
ENDBRANCH  21  22
ENDBRANCH   9  21
BRANCH  16  31
HETATM   31  C17 UNL     1      14.579  63.182  29.604  1.00  0.00     0.269 C 
HETATM   32  O2  UNL     1      15.055  62.477  30.575  1.00  0.00    -0.269 OA
HETATM   33  N7  UNL     1      13.266  62.980  29.279  1.00  0.00    -0.285 N 
HETATM   34  C18 UNL     1      12.511  62.005  30.096  1.00  0.00     0.135 C 
HETATM   35  C22 UNL     1      12.633  63.633  28.204  1.00  0.00     0.226 C 
HETATM   36  C19 UNL     1      11.379  61.403  29.351  1.00  0.00     0.021 C 
HETATM   37  C20 UNL     1      10.602  62.396  28.520  1.00  0.00     0.011 C 
HETATM   38  C21 UNL     1      11.555  62.896  27.448  1.00  0.00     0.103 C 
HETATM   39  O3  UNL     1      12.882  64.779  27.811  1.00  0.00    -0.273 OA
ENDBRANCH  16  31
BRANCH   1  40
HETATM   40  C4  UNL     1      17.944  66.715  30.476  1.00  0.00     0.038 C 
BRANCH  40  41
HETATM   41  C2  UNL     1      16.707  67.556  30.242  1.00  0.00    -0.020 C 
HETATM   42  C1  UNL     1      15.559  67.206  31.132  1.00  0.00     0.009 C 
HETATM   43  C3  UNL     1      17.060  69.011  30.379  1.00  0.00     0.009 C 
ENDBRANCH  40  41
ENDBRANCH   1  40
TORSDOF 8
ENDMDL
