MODEL 1
REMARK VINA RESULT: -7.224441410      0.000      0.000
REMARK  7 active torsions:
REMARK  status: ('A' for Active; 'I' for Inactive)
REMARK    1  A    between atoms: C4_5  and  C5_6 
REMARK    2  A    between atoms: C5_6  and  N2_7 
REMARK    3  A    between atoms: N2_7  and  C6_9 
REMARK    4  A    between atoms: C6_9  and  C7_10 
REMARK    5  A    between atoms: C7_10  and  C8_11 
REMARK    6  A    between atoms: C8_11  and  N3_12 
REMARK    7  A    between atoms: N3_12  and  C9_14 
ROOT
HETATM    1  C6  UNL     1      57.816  43.880  35.613  1.00  0.00     0.115 C 
ENDROOT
BRANCH   1   2
HETATM    2  N2  UNL     1      57.159  45.105  35.329  1.00  0.00    -0.417 N 
ATOM      3  H2  UNL     1      57.668  45.902  34.947  1.00  0.00     0.153 HD
BRANCH   2   4
HETATM    4  C5  UNL     1      55.764  45.181  35.595  1.00  0.00     0.152 C 
BRANCH   4   5
HETATM    5  C4  UNL     1      55.607  45.442  37.055  1.00  0.00    -0.041 A 
HETATM    6  C3  UNL     1      54.825  44.517  37.743  1.00  0.00     0.011 A 
HETATM    7  C2  UNL     1      54.584  44.617  39.096  1.00  0.00     0.027 A 
HETATM    8  C1  UNL     1      55.160  45.688  39.749  1.00  0.00     0.046 A 
HETATM    9  N1  UNL     1      54.956  45.853  41.151  1.00  0.00    -0.102 NA
HETATM   10  C13 UNL     1      55.939  46.619  39.091  1.00  0.00     0.027 A 
HETATM   11  C12 UNL     1      56.161  46.486  37.726  1.00  0.00     0.011 A 
ENDBRANCH   4   5
ENDBRANCH   2   4
ENDBRANCH   1   2
BRANCH   1  12
HETATM   12  C7  UNL     1      57.119  42.667  35.028  1.00  0.00     0.039 C 
BRANCH  12  13
HETATM   13  C8  UNL     1      56.865  41.639  36.137  1.00  0.00     0.125 C 
BRANCH  13  14
HETATM   14  N3  UNL     1      58.109  41.186  36.673  1.00  0.00    -0.356 N 
ATOM     15  H3  UNL     1      58.551  41.733  37.411  1.00  0.00     0.163 HD
BRANCH  14  16
HETATM   16  C9  UNL     1      58.691  40.124  36.268  1.00  0.00     0.223 A 
HETATM   17  N4  UNL     1      58.428  38.868  36.683  1.00  0.00    -0.330 N 
HETATM   18  C10 UNL     1      59.257  38.060  36.013  1.00  0.00     0.116 A 
ATOM     19  H4  UNL     1      57.731  38.589  37.374  1.00  0.00     0.168 HD
HETATM   20  C11 UNL     1      60.016  38.848  35.195  1.00  0.00     0.162 A 
HETATM   21  O1  UNL     1      59.644  40.100  35.377  1.00  0.00    -0.290 OA
ENDBRANCH  14  16
ENDBRANCH  13  14
ENDBRANCH  12  13
ENDBRANCH   1  12
TORSDOF 7
ENDMDL
MODEL 2
REMARK VINA RESULT: -7.177214737      1.662      2.099
REMARK  7 active torsions:
REMARK  status: ('A' for Active; 'I' for Inactive)
REMARK    1  A    between atoms: C4_5  and  C5_6 
REMARK    2  A    between atoms: C5_6  and  N2_7 
REMARK    3  A    between atoms: N2_7  and  C6_9 
REMARK    4  A    between atoms: C6_9  and  C7_10 
REMARK    5  A    between atoms: C7_10  and  C8_11 
REMARK    6  A    between atoms: C8_11  and  N3_12 
REMARK    7  A    between atoms: N3_12  and  C9_14 
ROOT
HETATM    1  C6  UNL     1      57.638  43.633  35.239  1.00  0.00     0.115 C 
ENDROOT
BRANCH   1   2
HETATM    2  N2  UNL     1      56.950  44.871  35.159  1.00  0.00    -0.417 N 
ATOM      3  H2  UNL     1      56.620  45.236  34.266  1.00  0.00     0.153 HD
BRANCH   2   4
HETATM    4  C5  UNL     1      56.737  45.585  36.371  1.00  0.00     0.152 C 
BRANCH   4   5
HETATM    5  C4  UNL     1      55.300  45.422  36.733  1.00  0.00    -0.041 A 
HETATM    6  C3  UNL     1      54.393  45.907  35.794  1.00  0.00     0.011 A 
HETATM    7  C2  UNL     1      53.029  45.831  35.979  1.00  0.00     0.027 A 
HETATM    8  C1  UNL     1      52.596  45.245  37.151  1.00  0.00     0.046 A 
HETATM    9  N1  UNL     1      51.198  45.130  37.409  1.00  0.00    -0.102 NA
HETATM   10  C13 UNL     1      53.474  44.757  38.099  1.00  0.00     0.027 A 
HETATM   11  C12 UNL     1      54.843  44.850  37.878  1.00  0.00     0.011 A 
ENDBRANCH   4   5
ENDBRANCH   2   4
ENDBRANCH   1   2
BRANCH   1  12
HETATM   12  C7  UNL     1      56.741  42.426  35.045  1.00  0.00     0.039 C 
BRANCH  12  13
HETATM   13  C8  UNL     1      56.693  41.610  36.342  1.00  0.00     0.125 C 
BRANCH  13  14
HETATM   14  N3  UNL     1      58.019  41.261  36.744  1.00  0.00    -0.356 N 
ATOM     15  H3  UNL     1      58.505  41.868  37.403  1.00  0.00     0.163 HD
BRANCH  14  16
HETATM   16  C9  UNL     1      58.622  40.221  36.313  1.00  0.00     0.223 A 
HETATM   17  N4  UNL     1      58.430  38.958  36.747  1.00  0.00    -0.330 N 
HETATM   18  C10 UNL     1      59.256  38.179  36.038  1.00  0.00     0.116 A 
ATOM     19  H4  UNL     1      57.781  38.655  37.473  1.00  0.00     0.168 HD
HETATM   20  C11 UNL     1      59.940  38.992  35.180  1.00  0.00     0.162 A 
HETATM   21  O1  UNL     1      59.528  40.229  35.375  1.00  0.00    -0.290 OA
ENDBRANCH  14  16
ENDBRANCH  13  14
ENDBRANCH  12  13
ENDBRANCH   1  12
TORSDOF 7
ENDMDL
MODEL 3
REMARK VINA RESULT: -6.908917662      2.719      6.489
REMARK  7 active torsions:
REMARK  status: ('A' for Active; 'I' for Inactive)
REMARK    1  A    between atoms: C4_5  and  C5_6 
REMARK    2  A    between atoms: C5_6  and  N2_7 
REMARK    3  A    between atoms: N2_7  and  C6_9 
REMARK    4  A    between atoms: C6_9  and  C7_10 
REMARK    5  A    between atoms: C7_10  and  C8_11 
REMARK    6  A    between atoms: C8_11  and  N3_12 
REMARK    7  A    between atoms: N3_12  and  C9_14 
ROOT
HETATM    1  C6  UNL     1      54.901  45.975  35.313  1.00  0.00     0.115 C 
ENDROOT
BRANCH   1   2
HETATM    2  N2  UNL     1      55.995  45.163  34.917  1.00  0.00    -0.417 N 
ATOM      3  H2  UNL     1      56.010  44.703  34.007  1.00  0.00     0.153 HD
BRANCH   2   4
HETATM    4  C5  UNL     1      57.070  45.015  35.836  1.00  0.00     0.152 C 
BRANCH   4   5
HETATM    5  C4  UNL     1      57.384  43.559  35.918  1.00  0.00    -0.041 A 
HETATM    6  C3  UNL     1      58.558  43.168  35.277  1.00  0.00     0.011 A 
HETATM    7  C2  UNL     1      58.988  41.859  35.262  1.00  0.00     0.027 A 
HETATM    8  C1  UNL     1      58.195  40.939  35.918  1.00  0.00     0.046 A 
HETATM    9  N1  UNL     1      58.580  39.567  35.946  1.00  0.00    -0.102 NA
HETATM   10  C13 UNL     1      57.026  41.301  36.560  1.00  0.00     0.027 A 
HETATM   11  C12 UNL     1      56.624  42.631  36.555  1.00  0.00     0.011 A 
ENDBRANCH   4   5
ENDBRANCH   2   4
ENDBRANCH   1   2
BRANCH   1  12
HETATM   12  C7  UNL     1      54.113  45.407  36.478  1.00  0.00     0.039 C 
BRANCH  12  13
HETATM   13  C8  UNL     1      53.894  46.502  37.529  1.00  0.00     0.125 C 
BRANCH  13  14
HETATM   14  N3  UNL     1      55.148  47.072  37.905  1.00  0.00    -0.356 N 
ATOM     15  H3  UNL     1      55.568  47.773  37.295  1.00  0.00     0.163 HD
BRANCH  14  16
HETATM   16  C9  UNL     1      55.767  46.741  38.972  1.00  0.00     0.223 A 
HETATM   17  N4  UNL     1      55.869  45.494  39.475  1.00  0.00    -0.330 N 
HETATM   18  C10 UNL     1      56.594  45.589  40.594  1.00  0.00     0.116 A 
ATOM     19  H4  UNL     1      55.470  44.643  39.078  1.00  0.00     0.168 HD
HETATM   20  C11 UNL     1      56.922  46.905  40.753  1.00  0.00     0.162 A 
HETATM   21  O1  UNL     1      56.402  47.579  39.745  1.00  0.00    -0.290 OA
ENDBRANCH  14  16
ENDBRANCH  13  14
ENDBRANCH  12  13
ENDBRANCH   1  12
TORSDOF 7
ENDMDL
MODEL 4
REMARK VINA RESULT: -6.901819034      2.697      3.319
REMARK  7 active torsions:
REMARK  status: ('A' for Active; 'I' for Inactive)
REMARK    1  A    between atoms: C4_5  and  C5_6 
REMARK    2  A    between atoms: C5_6  and  N2_7 
REMARK    3  A    between atoms: N2_7  and  C6_9 
REMARK    4  A    between atoms: C6_9  and  C7_10 
REMARK    5  A    between atoms: C7_10  and  C8_11 
REMARK    6  A    between atoms: C8_11  and  N3_12 
REMARK    7  A    between atoms: N3_12  and  C9_14 
ROOT
HETATM    1  C6  UNL     1      57.099  44.886  36.408  1.00  0.00     0.115 C 
ENDROOT
BRANCH   1   2
HETATM    2  N2  UNL     1      56.341  46.082  36.320  1.00  0.00    -0.417 N 
ATOM      3  H2  UNL     1      56.517  46.768  35.587  1.00  0.00     0.153 HD
BRANCH   2   4
HETATM    4  C5  UNL     1      55.325  46.289  37.294  1.00  0.00     0.152 C 
BRANCH   4   5
HETATM    5  C4  UNL     1      54.013  46.201  36.590  1.00  0.00    -0.041 A 
HETATM    6  C3  UNL     1      53.329  47.408  36.459  1.00  0.00     0.011 A 
HETATM    7  C2  UNL     1      52.104  47.496  35.831  1.00  0.00     0.027 A 
HETATM    8  C1  UNL     1      51.579  46.322  35.333  1.00  0.00     0.046 A 
HETATM    9  N1  UNL     1      50.317  46.338  34.669  1.00  0.00    -0.102 NA
HETATM   10  C13 UNL     1      52.237  45.112  35.450  1.00  0.00     0.027 A 
HETATM   11  C12 UNL     1      53.470  45.062  36.087  1.00  0.00     0.011 A 
ENDBRANCH   4   5
ENDBRANCH   2   4
ENDBRANCH   1   2
BRANCH   1  12
HETATM   12  C7  UNL     1      56.905  43.955  35.227  1.00  0.00     0.039 C 
BRANCH  12  13
HETATM   13  C8  UNL     1      56.383  42.602  35.723  1.00  0.00     0.125 C 
BRANCH  13  14
HETATM   14  N3  UNL     1      57.356  41.987  36.570  1.00  0.00    -0.356 N 
ATOM     15  H3  UNL     1      57.434  42.305  37.535  1.00  0.00     0.163 HD
BRANCH  14  16
HETATM   16  C9  UNL     1      58.133  41.056  36.169  1.00  0.00     0.223 A 
HETATM   17  N4  UNL     1      58.149  39.787  36.623  1.00  0.00    -0.330 N 
HETATM   18  C10 UNL     1      59.106  39.147  35.942  1.00  0.00     0.116 A 
ATOM     19  H4  UNL     1      57.547  39.391  37.345  1.00  0.00     0.168 HD
HETATM   20  C11 UNL     1      59.660  40.049  35.079  1.00  0.00     0.162 A 
HETATM   21  O1  UNL     1      59.042  41.202  35.244  1.00  0.00    -0.290 OA
ENDBRANCH  14  16
ENDBRANCH  13  14
ENDBRANCH  12  13
ENDBRANCH   1  12
TORSDOF 7
ENDMDL
MODEL 5
REMARK VINA RESULT: -6.896900278      2.627      3.121
REMARK  7 active torsions:
REMARK  status: ('A' for Active; 'I' for Inactive)
REMARK    1  A    between atoms: C4_5  and  C5_6 
REMARK    2  A    between atoms: C5_6  and  N2_7 
REMARK    3  A    between atoms: N2_7  and  C6_9 
REMARK    4  A    between atoms: C6_9  and  C7_10 
REMARK    5  A    between atoms: C7_10  and  C8_11 
REMARK    6  A    between atoms: C8_11  and  N3_12 
REMARK    7  A    between atoms: N3_12  and  C9_14 
ROOT
HETATM    1  C6  UNL     1      57.053  45.079  35.833  1.00  0.00     0.115 C 
ENDROOT
BRANCH   1   2
HETATM    2  N2  UNL     1      56.347  46.200  36.340  1.00  0.00    -0.417 N 
ATOM      3  H2  UNL     1      56.555  47.146  36.020  1.00  0.00     0.153 HD
BRANCH   2   4
HETATM    4  C5  UNL     1      55.338  45.957  37.312  1.00  0.00     0.152 C 
BRANCH   4   5
HETATM    5  C4  UNL     1      54.021  46.144  36.638  1.00  0.00    -0.041 A 
HETATM    6  C3  UNL     1      53.444  44.982  36.130  1.00  0.00     0.011 A 
HETATM    7  C2  UNL     1      52.228  44.986  35.480  1.00  0.00     0.027 A 
HETATM    8  C1  UNL     1      51.599  46.208  35.353  1.00  0.00     0.046 A 
HETATM    9  N1  UNL     1      50.337  46.287  34.694  1.00  0.00    -0.102 NA
HETATM   10  C13 UNL     1      52.150  47.375  35.847  1.00  0.00     0.027 A 
HETATM   11  C12 UNL     1      53.377  47.332  36.497  1.00  0.00     0.011 A 
ENDBRANCH   4   5
ENDBRANCH   2   4
ENDBRANCH   1   2
BRANCH   1  12
HETATM   12  C7  UNL     1      56.980  43.858  36.730  1.00  0.00     0.039 C 
BRANCH  12  13
HETATM   13  C8  UNL     1      56.937  42.592  35.867  1.00  0.00     0.125 C 
BRANCH  13  14
HETATM   14  N3  UNL     1      57.356  41.465  36.639  1.00  0.00    -0.356 N 
ATOM     15  H3  UNL     1      56.959  41.335  37.569  1.00  0.00     0.163 HD
BRANCH  14  16
HETATM   16  C9  UNL     1      58.206  40.613  36.214  1.00  0.00     0.223 A 
HETATM   17  N4  UNL     1      58.367  39.355  36.676  1.00  0.00    -0.330 N 
HETATM   18  C10 UNL     1      59.357  38.808  35.962  1.00  0.00     0.116 A 
ATOM     19  H4  UNL     1      57.836  38.909  37.424  1.00  0.00     0.168 HD
HETATM   20  C11 UNL     1      59.784  39.752  35.072  1.00  0.00     0.162 A 
HETATM   21  O1  UNL     1      59.060  40.839  35.254  1.00  0.00    -0.290 OA
ENDBRANCH  14  16
ENDBRANCH  13  14
ENDBRANCH  12  13
ENDBRANCH   1  12
TORSDOF 7
ENDMDL
