MODEL 1
REMARK VINA RESULT: -7.552398972      0.000      0.000
REMARK  7 active torsions:
REMARK  status: ('A' for Active; 'I' for Inactive)
REMARK    1  A    between atoms: C4_7  and  C5_8 
REMARK    2  A    between atoms: C5_8  and  C6_9 
REMARK    3  A    between atoms: C7_13  and  C8_14 
REMARK    4  A    between atoms: C8_14  and  C9_15 
REMARK    5  A    between atoms: C9_15  and  C10_16 
REMARK    6  A    between atoms: C10_16  and  C11_17 
REMARK    7  A    between atoms: C11_17  and  N3_18 
ROOT
HETATM    1  C6  UNL     1      57.141  43.384  35.828  1.00  0.00     0.108 A 
HETATM    2  N2  UNL     1      55.988  43.116  35.190  1.00  0.00    -0.247 N 
ATOM      3  H2  UNL     1      55.894  42.570  34.334  1.00  0.00     0.196 HD
HETATM    4  O1  UNL     1      55.030  43.660  35.838  1.00  0.00    -0.223 OA
HETATM    5  C7  UNL     1      55.506  44.285  36.888  1.00  0.00     0.148 A 
HETATM    6  N4  UNL     1      56.828  44.117  36.890  1.00  0.00    -0.327 N 
ATOM      7  H4  UNL     1      57.481  44.485  37.582  1.00  0.00     0.169 HD
ENDROOT
BRANCH   1   8
HETATM    8  C5  UNL     1      58.437  42.891  35.325  1.00  0.00     0.118 C 
BRANCH   8   9
HETATM    9  C4  UNL     1      58.677  41.475  35.552  1.00  0.00    -0.035 A 
HETATM   10  C3  UNL     1      59.649  40.828  34.818  1.00  0.00     0.012 A 
HETATM   11  C2  UNL     1      59.926  39.480  34.985  1.00  0.00     0.048 A 
HETATM   12  C1  UNL     1      59.207  38.779  35.910  1.00  0.00     0.098 A 
HETATM   13  N1  UNL     1      59.437  37.528  36.091  1.00  0.00    -0.385 N 
HETATM   14  N5  UNL     1      58.256  39.393  36.633  1.00  0.00    -0.352 N 
ATOM     15  H12 UNL     1      60.158  37.061  35.543  1.00  0.00     0.157 HD
ATOM     16  H11 UNL     1      58.900  37.003  36.783  1.00  0.00     0.157 HD
HETATM   17  C12 UNL     1      57.980  40.720  36.471  1.00  0.00     0.097 A 
ATOM     18  H5  UNL     1      57.728  38.855  37.320  1.00  0.00     0.166 HD
ENDBRANCH   8   9
ENDBRANCH   1   8
BRANCH   5  19
HETATM   19  C8  UNL     1      54.633  45.021  37.845  1.00  0.00     0.087 C 
BRANCH  19  20
HETATM   20  C9  UNL     1      53.461  45.541  37.044  1.00  0.00     0.010 C 
BRANCH  20  21
HETATM   21  C10 UNL     1      53.732  46.840  36.353  1.00  0.00     0.027 C 
BRANCH  21  22
HETATM   22  C11 UNL     1      53.437  46.704  34.875  1.00  0.00     0.229 C 
BRANCH  22  23
HETATM   23  N3  UNL     1      54.690  46.353  34.192  1.00  0.00    -0.079 N 
ATOM     24  H33 UNL     1      55.060  47.117  33.628  1.00  0.00     0.274 HD
ATOM     25  H32 UNL     1      55.478  46.264  34.834  1.00  0.00     0.274 HD
ATOM     26  H31 UNL     1      54.526  45.505  33.650  1.00  0.00     0.274 HD
ENDBRANCH  22  23
ENDBRANCH  21  22
ENDBRANCH  20  21
ENDBRANCH  19  20
ENDBRANCH   5  19
TORSDOF 7
ENDMDL
MODEL 2
REMARK VINA RESULT: -7.379677788      2.627      3.488
REMARK  7 active torsions:
REMARK  status: ('A' for Active; 'I' for Inactive)
REMARK    1  A    between atoms: C4_7  and  C5_8 
REMARK    2  A    between atoms: C5_8  and  C6_9 
REMARK    3  A    between atoms: C7_13  and  C8_14 
REMARK    4  A    between atoms: C8_14  and  C9_15 
REMARK    5  A    between atoms: C9_15  and  C10_16 
REMARK    6  A    between atoms: C10_16  and  C11_17 
REMARK    7  A    between atoms: C11_17  and  N3_18 
ROOT
HETATM    1  C6  UNL     1      55.359  45.485  35.590  1.00  0.00     0.108 A 
HETATM    2  N2  UNL     1      54.982  46.104  34.458  1.00  0.00    -0.247 N 
ATOM      3  H2  UNL     1      55.610  46.487  33.751  1.00  0.00     0.196 HD
HETATM    4  O1  UNL     1      53.705  46.132  34.416  1.00  0.00    -0.223 OA
HETATM    5  C7  UNL     1      53.216  45.552  35.485  1.00  0.00     0.148 A 
HETATM    6  N4  UNL     1      54.245  45.144  36.227  1.00  0.00    -0.327 N 
ATOM      7  H4  UNL     1      54.188  44.657  37.121  1.00  0.00     0.169 HD
ENDROOT
BRANCH   1   8
HETATM    8  C5  UNL     1      56.781  45.293  35.932  1.00  0.00     0.118 C 
BRANCH   8   9
HETATM    9  C4  UNL     1      57.184  43.906  36.093  1.00  0.00    -0.035 A 
HETATM   10  C3  UNL     1      57.164  43.064  35.000  1.00  0.00     0.012 A 
HETATM   11  C2  UNL     1      57.535  41.732  35.088  1.00  0.00     0.048 A 
HETATM   12  C1  UNL     1      57.932  41.245  36.300  1.00  0.00     0.098 A 
HETATM   13  N1  UNL     1      58.283  40.015  36.418  1.00  0.00    -0.385 N 
HETATM   14  N5  UNL     1      57.958  42.051  37.375  1.00  0.00    -0.352 N 
ATOM     15  H12 UNL     1      58.264  39.404  35.603  1.00  0.00     0.157 HD
ATOM     16  H11 UNL     1      58.580  39.652  37.324  1.00  0.00     0.157 HD
HETATM   17  C12 UNL     1      57.593  43.364  37.293  1.00  0.00     0.097 A 
ATOM     18  H5  UNL     1      58.257  41.672  38.273  1.00  0.00     0.166 HD
ENDBRANCH   8   9
ENDBRANCH   1   8
BRANCH   5  19
HETATM   19  C8  UNL     1      51.751  45.426  35.728  1.00  0.00     0.087 C 
BRANCH  19  20
HETATM   20  C9  UNL     1      51.133  46.742  35.313  1.00  0.00     0.010 C 
BRANCH  20  21
HETATM   21  C10 UNL     1      49.646  46.785  35.467  1.00  0.00     0.027 C 
BRANCH  21  22
HETATM   22  C11 UNL     1      48.986  46.452  34.147  1.00  0.00     0.229 C 
BRANCH  22  23
HETATM   23  N3  UNL     1      48.239  45.198  34.314  1.00  0.00    -0.079 N 
ATOM     24  H33 UNL     1      48.841  44.410  34.556  1.00  0.00     0.274 HD
ATOM     25  H32 UNL     1      47.662  45.191  35.156  1.00  0.00     0.274 HD
ATOM     26  H31 UNL     1      47.699  45.036  33.464  1.00  0.00     0.274 HD
ENDBRANCH  22  23
ENDBRANCH  21  22
ENDBRANCH  20  21
ENDBRANCH  19  20
ENDBRANCH   5  19
TORSDOF 7
ENDMDL
MODEL 3
REMARK VINA RESULT: -7.349690301      2.548      7.747
REMARK  7 active torsions:
REMARK  status: ('A' for Active; 'I' for Inactive)
REMARK    1  A    between atoms: C4_7  and  C5_8 
REMARK    2  A    between atoms: C5_8  and  C6_9 
REMARK    3  A    between atoms: C7_13  and  C8_14 
REMARK    4  A    between atoms: C8_14  and  C9_15 
REMARK    5  A    between atoms: C9_15  and  C10_16 
REMARK    6  A    between atoms: C10_16  and  C11_17 
REMARK    7  A    between atoms: C11_17  and  N3_18 
ROOT
HETATM    1  C6  UNL     1      54.727  46.191  36.118  1.00  0.00     0.108 A 
HETATM    2  N2  UNL     1      55.003  46.268  34.804  1.00  0.00    -0.247 N 
ATOM      3  H2  UNL     1      54.492  46.827  34.120  1.00  0.00     0.196 HD
HETATM    4  O1  UNL     1      56.011  45.524  34.556  1.00  0.00    -0.223 OA
HETATM    5  C7  UNL     1      56.419  44.950  35.662  1.00  0.00     0.148 A 
HETATM    6  N4  UNL     1      55.620  45.362  36.646  1.00  0.00    -0.327 N 
ATOM      7  H4  UNL     1      55.683  45.090  37.627  1.00  0.00     0.169 HD
ENDROOT
BRANCH   1   8
HETATM    8  C5  UNL     1      53.609  46.941  36.721  1.00  0.00     0.118 C 
BRANCH   8   9
HETATM    9  C4  UNL     1      52.287  46.477  36.333  1.00  0.00    -0.035 A 
HETATM   10  C3  UNL     1      51.310  47.400  36.024  1.00  0.00     0.012 A 
HETATM   11  C2  UNL     1      50.031  47.023  35.649  1.00  0.00     0.048 A 
HETATM   12  C1  UNL     1      49.737  45.691  35.584  1.00  0.00     0.098 A 
HETATM   13  N1  UNL     1      48.562  45.306  35.240  1.00  0.00    -0.385 N 
HETATM   14  N5  UNL     1      50.677  44.779  35.882  1.00  0.00    -0.352 N 
ATOM     15  H12 UNL     1      47.848  45.998  35.014  1.00  0.00     0.157 HD
ATOM     16  H11 UNL     1      48.343  44.310  35.192  1.00  0.00     0.157 HD
HETATM   17  C12 UNL     1      51.939  45.146  36.253  1.00  0.00     0.097 A 
ATOM     18  H5  UNL     1      50.442  43.788  35.829  1.00  0.00     0.166 HD
ENDBRANCH   8   9
ENDBRANCH   1   8
BRANCH   5  19
HETATM   19  C8  UNL     1      57.582  44.019  35.700  1.00  0.00     0.087 C 
BRANCH  19  20
HETATM   20  C9  UNL     1      57.171  42.790  34.922  1.00  0.00     0.010 C 
BRANCH  20  21
HETATM   21  C10 UNL     1      58.088  41.622  35.111  1.00  0.00     0.027 C 
BRANCH  21  22
HETATM   22  C11 UNL     1      57.867  41.016  36.480  1.00  0.00     0.229 C 
BRANCH  22  23
HETATM   23  N3  UNL     1      58.299  39.612  36.430  1.00  0.00    -0.079 N 
ATOM     24  H33 UNL     1      59.314  39.512  36.421  1.00  0.00     0.274 HD
ATOM     25  H32 UNL     1      58.121  39.113  37.302  1.00  0.00     0.274 HD
ATOM     26  H31 UNL     1      57.852  39.173  35.625  1.00  0.00     0.274 HD
ENDBRANCH  22  23
ENDBRANCH  21  22
ENDBRANCH  20  21
ENDBRANCH  19  20
ENDBRANCH   5  19
TORSDOF 7
ENDMDL
MODEL 4
REMARK VINA RESULT: -7.323280899      2.125      2.972
REMARK  7 active torsions:
REMARK  status: ('A' for Active; 'I' for Inactive)
REMARK    1  A    between atoms: C4_7  and  C5_8 
REMARK    2  A    between atoms: C5_8  and  C6_9 
REMARK    3  A    between atoms: C7_13  and  C8_14 
REMARK    4  A    between atoms: C8_14  and  C9_15 
REMARK    5  A    between atoms: C9_15  and  C10_16 
REMARK    6  A    between atoms: C10_16  and  C11_17 
REMARK    7  A    between atoms: C11_17  and  N3_18 
ROOT
HETATM    1  C6  UNL     1      55.754  45.389  35.683  1.00  0.00     0.108 A 
HETATM    2  N2  UNL     1      54.788  44.454  35.646  1.00  0.00    -0.247 N 
ATOM      3  H2  UNL     1      54.934  43.450  35.542  1.00  0.00     0.196 HD
HETATM    4  O1  UNL     1      53.656  45.035  35.762  1.00  0.00    -0.223 OA
HETATM    5  C7  UNL     1      53.834  46.329  35.875  1.00  0.00     0.148 A 
HETATM    6  N4  UNL     1      55.146  46.560  35.827  1.00  0.00    -0.327 N 
ATOM      7  H4  UNL     1      55.600  47.471  35.889  1.00  0.00     0.169 HD
ENDROOT
BRANCH   1   8
HETATM    8  C5  UNL     1      57.182  45.033  35.573  1.00  0.00     0.118 C 
BRANCH   8   9
HETATM    9  C4  UNL     1      57.484  43.641  35.864  1.00  0.00    -0.035 A 
HETATM   10  C3  UNL     1      57.611  42.745  34.822  1.00  0.00     0.012 A 
HETATM   11  C2  UNL     1      57.896  41.405  35.032  1.00  0.00     0.048 A 
HETATM   12  C1  UNL     1      58.057  40.967  36.314  1.00  0.00     0.098 A 
HETATM   13  N1  UNL     1      58.323  39.732  36.546  1.00  0.00    -0.385 N 
HETATM   14  N5  UNL     1      57.937  41.826  37.340  1.00  0.00    -0.352 N 
ATOM     15  H12 UNL     1      58.414  39.080  35.767  1.00  0.00     0.157 HD
ATOM     16  H11 UNL     1      58.443  39.404  37.505  1.00  0.00     0.157 HD
HETATM   17  C12 UNL     1      57.655  43.146  37.139  1.00  0.00     0.097 A 
ATOM     18  H5  UNL     1      58.060  41.482  38.293  1.00  0.00     0.166 HD
ENDBRANCH   8   9
ENDBRANCH   1   8
BRANCH   5  19
HETATM   19  C8  UNL     1      52.699  47.283  36.027  1.00  0.00     0.087 C 
BRANCH  19  20
HETATM   20  C9  UNL     1      51.521  46.665  35.310  1.00  0.00     0.010 C 
BRANCH  20  21
HETATM   21  C10 UNL     1      50.218  46.847  36.023  1.00  0.00     0.027 C 
BRANCH  21  22
HETATM   22  C11 UNL     1      49.802  45.542  36.668  1.00  0.00     0.229 C 
BRANCH  22  23
HETATM   23  N3  UNL     1      50.595  44.463  36.062  1.00  0.00    -0.079 N 
ATOM     24  H33 UNL     1      50.199  44.128  35.184  1.00  0.00     0.274 HD
ATOM     25  H32 UNL     1      51.488  44.789  35.693  1.00  0.00     0.274 HD
ATOM     26  H31 UNL     1      50.700  43.722  36.755  1.00  0.00     0.274 HD
ENDBRANCH  22  23
ENDBRANCH  21  22
ENDBRANCH  20  21
ENDBRANCH  19  20
ENDBRANCH   5  19
TORSDOF 7
ENDMDL
MODEL 5
REMARK VINA RESULT: -7.299877296      2.475      3.393
REMARK  7 active torsions:
REMARK  status: ('A' for Active; 'I' for Inactive)
REMARK    1  A    between atoms: C4_7  and  C5_8 
REMARK    2  A    between atoms: C5_8  and  C6_9 
REMARK    3  A    between atoms: C7_13  and  C8_14 
REMARK    4  A    between atoms: C8_14  and  C9_15 
REMARK    5  A    between atoms: C9_15  and  C10_16 
REMARK    6  A    between atoms: C10_16  and  C11_17 
REMARK    7  A    between atoms: C11_17  and  N3_18 
ROOT
HETATM    1  C6  UNL     1      55.328  45.483  35.587  1.00  0.00     0.108 A 
HETATM    2  N2  UNL     1      54.954  46.112  34.459  1.00  0.00    -0.247 N 
ATOM      3  H2  UNL     1      55.583  46.511  33.762  1.00  0.00     0.196 HD
HETATM    4  O1  UNL     1      53.677  46.128  34.407  1.00  0.00    -0.223 OA
HETATM    5  C7  UNL     1      53.186  45.529  35.465  1.00  0.00     0.148 A 
HETATM    6  N4  UNL     1      54.213  45.122  36.210  1.00  0.00    -0.327 N 
ATOM      7  H4  UNL     1      54.153  44.623  37.097  1.00  0.00     0.169 HD
ENDROOT
BRANCH   1   8
HETATM    8  C5  UNL     1      56.750  45.300  35.937  1.00  0.00     0.118 C 
BRANCH   8   9
HETATM    9  C4  UNL     1      57.162  43.916  36.100  1.00  0.00    -0.035 A 
HETATM   10  C3  UNL     1      57.144  43.072  35.008  1.00  0.00     0.012 A 
HETATM   11  C2  UNL     1      57.523  41.743  35.097  1.00  0.00     0.048 A 
HETATM   12  C1  UNL     1      57.927  41.260  36.308  1.00  0.00     0.098 A 
HETATM   13  N1  UNL     1      58.285  40.033  36.427  1.00  0.00    -0.385 N 
HETATM   14  N5  UNL     1      57.950  42.068  37.382  1.00  0.00    -0.352 N 
ATOM     15  H12 UNL     1      58.267  39.420  35.612  1.00  0.00     0.157 HD
ATOM     16  H11 UNL     1      58.587  39.672  37.332  1.00  0.00     0.157 HD
HETATM   17  C12 UNL     1      57.577  43.378  37.299  1.00  0.00     0.097 A 
ATOM     18  H5  UNL     1      58.254  41.692  38.280  1.00  0.00     0.166 HD
ENDBRANCH   8   9
ENDBRANCH   1   8
BRANCH   5  19
HETATM   19  C8  UNL     1      51.720  45.386  35.695  1.00  0.00     0.087 C 
BRANCH  19  20
HETATM   20  C9  UNL     1      51.079  46.653  35.178  1.00  0.00     0.010 C 
BRANCH  20  21
HETATM   21  C10 UNL     1      49.609  46.738  35.446  1.00  0.00     0.027 C 
BRANCH  21  22
HETATM   22  C11 UNL     1      49.331  47.874  36.407  1.00  0.00     0.229 C 
BRANCH  22  23
HETATM   23  N3  UNL     1      50.488  48.779  36.388  1.00  0.00    -0.079 N 
ATOM     24  H33 UNL     1      51.326  48.341  36.004  1.00  0.00     0.274 HD
ATOM     25  H32 UNL     1      50.396  49.525  35.698  1.00  0.00     0.274 HD
ATOM     26  H31 UNL     1      50.628  49.133  37.335  1.00  0.00     0.274 HD
ENDBRANCH  22  23
ENDBRANCH  21  22
ENDBRANCH  20  21
ENDBRANCH  19  20
ENDBRANCH   5  19
TORSDOF 7
ENDMDL
