MODEL 1
REMARK VINA RESULT: -6.461512979      0.000      0.000
REMARK  9 active torsions:
REMARK  status: ('A' for Active; 'I' for Inactive)
REMARK    1  A    between atoms: N1_1  and  C1_5 
REMARK    2  A    between atoms: C1_5  and  C2_6 
REMARK    3  A    between atoms: C1_5  and  C14_32 
REMARK    4  A    between atoms: C2_6  and  N2_7 
REMARK    5  A    between atoms: N4_16  and  O2_17 
REMARK    6  A    between atoms: O2_17  and  C8_18 
REMARK    7  A    between atoms: C14_32  and  O6_33 
REMARK    8  A    between atoms: C14_32  and  C15_35 
REMARK    9  A    between atoms: C15_35  and  O7_36 
ROOT
HETATM    1  N2  UNL     1     -11.974  29.276   6.521  1.00  0.00    -0.324 N 
HETATM    2  C3  UNL     1     -11.533  28.092   6.982  1.00  0.00     0.122 A 
HETATM    3  C4  UNL     1     -10.495  28.302   7.849  1.00  0.00     0.085 A 
HETATM    4  C5  UNL     1     -10.279  29.667   7.931  1.00  0.00     0.129 A 
HETATM    5  C6  UNL     1     -11.204  30.254   7.101  1.00  0.00     0.143 A 
HETATM    6  N3  UNL     1     -11.026  31.572   7.154  1.00  0.00    -0.290 N 
ATOM      7  H3  UNL     1     -11.575  32.258   6.637  1.00  0.00     0.172 HD
HETATM    8  C7  UNL     1     -10.007  31.870   7.998  1.00  0.00     0.353 A 
HETATM    9  O1  UNL     1      -9.552  33.007   8.300  1.00  0.00    -0.244 OA
HETATM   10  N4  UNL     1      -9.569  30.687   8.460  1.00  0.00    -0.165 N 
HETATM   11  C11 UNL     1      -9.804  27.198   8.496  1.00  0.00     0.254 A 
HETATM   12  O3  UNL     1      -8.849  27.425   9.294  1.00  0.00    -0.281 OA
HETATM   13  C12 UNL     1     -10.162  25.804   8.267  1.00  0.00     0.299 A 
HETATM   14  O4  UNL     1      -9.583  24.842   8.812  1.00  0.00    -0.264 OA
HETATM   15  N6  UNL     1     -11.237  25.590   7.365  1.00  0.00    -0.285 N 
ATOM     16  H6  UNL     1     -11.538  24.637   7.161  1.00  0.00     0.172 HD
HETATM   17  C13 UNL     1     -11.902  26.681   6.742  1.00  0.00     0.276 A 
HETATM   18  O5  UNL     1     -12.839  26.384   5.957  1.00  0.00    -0.266 OA
ENDROOT
BRANCH   1  19
HETATM   19  C2  UNL     1     -13.078  29.459   5.647  1.00  0.00     0.166 C 
BRANCH  19  20
HETATM   20  C1  UNL     1     -12.794  29.906   4.262  1.00  0.00     0.232 C 
BRANCH  20  21
HETATM   21  N1  UNL     1     -13.283  31.237   4.043  1.00  0.00    -0.071 N 
ATOM     22  H13 UNL     1     -14.271  31.238   3.788  1.00  0.00     0.274 HD
ATOM     23  H12 UNL     1     -13.349  31.762   4.914  1.00  0.00     0.274 HD
ATOM     24  H11 UNL     1     -12.715  31.725   3.350  1.00  0.00     0.274 HD
ENDBRANCH  20  21
BRANCH  20  25
HETATM   25  C14 UNL     1     -13.519  29.009   3.243  1.00  0.00     0.173 C 
BRANCH  25  26
HETATM   26  O6  UNL     1     -14.354  28.115   3.936  1.00  0.00    -0.391 OA
ATOM     27  H6  UNL     1     -14.553  27.378   3.370  1.00  0.00     0.210 HD
ENDBRANCH  25  26
BRANCH  25  28
HETATM   28  C15 UNL     1     -12.491  28.167   2.503  1.00  0.00     0.197 C 
BRANCH  28  29
HETATM   29  O7  UNL     1     -12.118  27.064   3.312  1.00  0.00    -0.398 OA
ATOM     30  H7  UNL     1     -11.552  27.365   4.013  1.00  0.00     0.209 HD
ENDBRANCH  28  29
ENDBRANCH  25  28
ENDBRANCH  20  25
ENDBRANCH  19  20
ENDBRANCH   1  19
BRANCH  10  31
HETATM   31  O2  UNL     1      -8.544  30.486   9.345  1.00  0.00    -0.260 OA
BRANCH  31  32
HETATM   32  C8  UNL     1      -8.663  30.601  10.730  1.00  0.00     0.204 C 
HETATM   33  C9  UNL     1      -7.517  29.912  11.478  1.00  0.00     0.268 C 
HETATM   34  N5  UNL     1      -7.524  31.026  12.397  1.00  0.00    -0.070 N 
HETATM   35  C10 UNL     1      -8.073  31.854  11.344  1.00  0.00     0.268 C 
ATOM     36  H52 UNL     1      -7.998  30.952  13.297  1.00  0.00     0.277 HD
ATOM     37  H51 UNL     1      -6.670  31.304  12.882  1.00  0.00     0.277 HD
ENDBRANCH  31  32
ENDBRANCH  10  31
TORSDOF 9
ENDMDL
MODEL 2
REMARK VINA RESULT: -6.433771038      1.939      2.922
REMARK  9 active torsions:
REMARK  status: ('A' for Active; 'I' for Inactive)
REMARK    1  A    between atoms: N1_1  and  C1_5 
REMARK    2  A    between atoms: C1_5  and  C2_6 
REMARK    3  A    between atoms: C1_5  and  C14_32 
REMARK    4  A    between atoms: C2_6  and  N2_7 
REMARK    5  A    between atoms: N4_16  and  O2_17 
REMARK    6  A    between atoms: O2_17  and  C8_18 
REMARK    7  A    between atoms: C14_32  and  O6_33 
REMARK    8  A    between atoms: C14_32  and  C15_35 
REMARK    9  A    between atoms: C15_35  and  O7_36 
ROOT
HETATM    1  N2  UNL     1     -10.867  28.207   7.134  1.00  0.00    -0.324 N 
HETATM    2  C3  UNL     1     -10.007  27.731   8.052  1.00  0.00     0.122 A 
HETATM    3  C4  UNL     1      -9.448  28.776   8.734  1.00  0.00     0.085 A 
HETATM    4  C5  UNL     1      -9.977  29.950   8.222  1.00  0.00     0.129 A 
HETATM    5  C6  UNL     1     -10.853  29.577   7.231  1.00  0.00     0.143 A 
HETATM    6  N3  UNL     1     -11.384  30.683   6.715  1.00  0.00    -0.290 N 
ATOM      7  H3  UNL     1     -12.069  30.706   5.960  1.00  0.00     0.172 HD
HETATM    8  C7  UNL     1     -10.879  31.776   7.338  1.00  0.00     0.353 A 
HETATM    9  O1  UNL     1     -11.144  32.990   7.120  1.00  0.00    -0.244 OA
HETATM   10  N4  UNL     1     -10.022  31.299   8.256  1.00  0.00    -0.165 N 
HETATM   11  C11 UNL     1      -8.462  28.566   9.782  1.00  0.00     0.254 A 
HETATM   12  O3  UNL     1      -7.964  29.553  10.396  1.00  0.00    -0.281 OA
HETATM   13  C12 UNL     1      -8.003  27.240  10.175  1.00  0.00     0.299 A 
HETATM   14  O4  UNL     1      -7.160  27.036  11.072  1.00  0.00    -0.264 OA
HETATM   15  N6  UNL     1      -8.584  26.157   9.463  1.00  0.00    -0.285 N 
ATOM     16  H6  UNL     1      -8.306  25.202   9.689  1.00  0.00     0.172 HD
HETATM   17  C13 UNL     1      -9.546  26.381   8.442  1.00  0.00     0.276 A 
HETATM   18  O5  UNL     1      -9.997  25.355   7.869  1.00  0.00    -0.266 OA
ENDROOT
BRANCH   1  19
HETATM   19  C2  UNL     1     -11.679  27.416   6.278  1.00  0.00     0.166 C 
BRANCH  19  20
HETATM   20  C1  UNL     1     -13.019  27.019   6.773  1.00  0.00     0.232 C 
BRANCH  20  21
HETATM   21  N1  UNL     1     -13.017  25.657   7.223  1.00  0.00    -0.071 N 
ATOM     22  H13 UNL     1     -12.173  25.165   6.929  1.00  0.00     0.274 HD
ATOM     23  H12 UNL     1     -12.888  25.594   8.232  1.00  0.00     0.274 HD
ATOM     24  H11 UNL     1     -13.861  25.171   6.919  1.00  0.00     0.274 HD
ENDBRANCH  20  21
BRANCH  20  25
HETATM   25  C14 UNL     1     -14.060  27.095   5.641  1.00  0.00     0.173 C 
BRANCH  25  26
HETATM   26  O6  UNL     1     -14.468  25.791   5.309  1.00  0.00    -0.391 OA
ATOM     27  H6  UNL     1     -15.363  25.820   4.993  1.00  0.00     0.210 HD
ENDBRANCH  25  26
BRANCH  25  28
HETATM   28  C15 UNL     1     -13.401  27.678   4.400  1.00  0.00     0.197 C 
BRANCH  28  29
HETATM   29  O7  UNL     1     -14.341  27.710   3.340  1.00  0.00    -0.398 OA
ATOM     30  H7  UNL     1     -13.887  27.872   2.522  1.00  0.00     0.209 HD
ENDBRANCH  28  29
ENDBRANCH  25  28
ENDBRANCH  20  25
ENDBRANCH  19  20
ENDBRANCH   1  19
BRANCH  10  31
HETATM   31  O2  UNL     1      -9.269  32.037   9.131  1.00  0.00    -0.260 OA
BRANCH  31  32
HETATM   32  C8  UNL     1      -8.053  32.640   8.812  1.00  0.00     0.204 C 
HETATM   33  C9  UNL     1      -8.178  34.156   8.632  1.00  0.00     0.268 C 
HETATM   34  N5  UNL     1      -6.910  34.283   9.313  1.00  0.00    -0.070 N 
HETATM   35  C10 UNL     1      -7.180  33.030   9.986  1.00  0.00     0.268 C 
ATOM     36  H52 UNL     1      -6.048  34.411   8.783  1.00  0.00     0.277 HD
ATOM     37  H51 UNL     1      -6.692  35.123   9.850  1.00  0.00     0.277 HD
ENDBRANCH  31  32
ENDBRANCH  10  31
TORSDOF 9
ENDMDL
MODEL 3
REMARK VINA RESULT: -6.303498483      1.781      4.179
REMARK  9 active torsions:
REMARK  status: ('A' for Active; 'I' for Inactive)
REMARK    1  A    between atoms: N1_1  and  C1_5 
REMARK    2  A    between atoms: C1_5  and  C2_6 
REMARK    3  A    between atoms: C1_5  and  C14_32 
REMARK    4  A    between atoms: C2_6  and  N2_7 
REMARK    5  A    between atoms: N4_16  and  O2_17 
REMARK    6  A    between atoms: O2_17  and  C8_18 
REMARK    7  A    between atoms: C14_32  and  O6_33 
REMARK    8  A    between atoms: C14_32  and  C15_35 
REMARK    9  A    between atoms: C15_35  and  O7_36 
ROOT
HETATM    1  N2  UNL     1     -11.001  28.266   7.308  1.00  0.00    -0.324 N 
HETATM    2  C3  UNL     1     -10.823  29.598   7.340  1.00  0.00     0.122 A 
HETATM    3  C4  UNL     1      -9.968  29.918   8.359  1.00  0.00     0.085 A 
HETATM    4  C5  UNL     1      -9.598  28.741   8.988  1.00  0.00     0.129 A 
HETATM    5  C6  UNL     1     -10.249  27.729   8.324  1.00  0.00     0.143 A 
HETATM    6  N3  UNL     1      -9.916  26.577   8.904  1.00  0.00    -0.290 N 
ATOM      7  H3  UNL     1     -10.253  25.659   8.617  1.00  0.00     0.172 HD
HETATM    8  C7  UNL     1      -9.064  26.805   9.934  1.00  0.00     0.353 A 
HETATM    9  O1  UNL     1      -8.538  25.961  10.711  1.00  0.00    -0.244 OA
HETATM   10  N4  UNL     1      -8.886  28.136   9.963  1.00  0.00    -0.165 N 
HETATM   11  C11 UNL     1      -9.600  31.296   8.646  1.00  0.00     0.254 A 
HETATM   12  O3  UNL     1      -8.806  31.558   9.594  1.00  0.00    -0.281 OA
HETATM   13  C12 UNL     1     -10.114  32.422   7.878  1.00  0.00     0.299 A 
HETATM   14  O4  UNL     1      -9.812  33.612   8.106  1.00  0.00    -0.264 OA
HETATM   15  N6  UNL     1     -11.004  32.088   6.823  1.00  0.00    -0.285 N 
ATOM     16  H6  UNL     1     -11.400  32.830   6.246  1.00  0.00     0.172 HD
HETATM   17  C13 UNL     1     -11.351  30.736   6.556  1.00  0.00     0.276 A 
HETATM   18  O5  UNL     1     -12.150  30.546   5.602  1.00  0.00    -0.266 OA
ENDROOT
BRANCH   1  19
HETATM   19  C2  UNL     1     -11.776  27.561   6.349  1.00  0.00     0.166 C 
BRANCH  19  20
HETATM   20  C1  UNL     1     -13.109  27.069   6.769  1.00  0.00     0.232 C 
BRANCH  20  21
HETATM   21  N1  UNL     1     -13.037  25.707   7.216  1.00  0.00    -0.071 N 
ATOM     22  H13 UNL     1     -13.277  25.053   6.471  1.00  0.00     0.274 HD
ATOM     23  H12 UNL     1     -12.073  25.414   7.373  1.00  0.00     0.274 HD
ATOM     24  H11 UNL     1     -13.614  25.564   8.044  1.00  0.00     0.274 HD
ENDBRANCH  20  21
BRANCH  20  25
HETATM   25  C14 UNL     1     -14.089  27.078   5.582  1.00  0.00     0.173 C 
BRANCH  25  26
HETATM   26  O6  UNL     1     -14.468  25.756   5.292  1.00  0.00    -0.391 OA
ATOM     27  H6  UNL     1     -14.102  25.507   4.451  1.00  0.00     0.210 HD
ENDBRANCH  25  26
BRANCH  25  28
HETATM   28  C15 UNL     1     -13.371  27.609   4.351  1.00  0.00     0.197 C 
BRANCH  28  29
HETATM   29  O7  UNL     1     -14.298  27.743   3.287  1.00  0.00    -0.398 OA
ATOM     30  H7  UNL     1     -14.789  28.549   3.397  1.00  0.00     0.209 HD
ENDBRANCH  28  29
ENDBRANCH  25  28
ENDBRANCH  20  25
ENDBRANCH  19  20
ENDBRANCH   1  19
BRANCH  10  31
HETATM   31  O2  UNL     1      -8.101  28.834  10.840  1.00  0.00    -0.260 OA
BRANCH  31  32
HETATM   32  C8  UNL     1      -8.504  29.234  12.114  1.00  0.00     0.204 C 
HETATM   33  C9  UNL     1      -7.888  28.374  13.223  1.00  0.00     0.268 C 
HETATM   34  N5  UNL     1      -7.728  29.586  13.994  1.00  0.00    -0.070 N 
HETATM   35  C10 UNL     1      -7.681  30.333  12.755  1.00  0.00     0.268 C 
ATOM     36  H52 UNL     1      -8.401  29.830  14.720  1.00  0.00     0.277 HD
ATOM     37  H51 UNL     1      -6.975  29.669  14.678  1.00  0.00     0.277 HD
ENDBRANCH  31  32
ENDBRANCH  10  31
TORSDOF 9
ENDMDL
MODEL 4
REMARK VINA RESULT: -6.229339625      2.120      4.265
REMARK  9 active torsions:
REMARK  status: ('A' for Active; 'I' for Inactive)
REMARK    1  A    between atoms: N1_1  and  C1_5 
REMARK    2  A    between atoms: C1_5  and  C2_6 
REMARK    3  A    between atoms: C1_5  and  C14_32 
REMARK    4  A    between atoms: C2_6  and  N2_7 
REMARK    5  A    between atoms: N4_16  and  O2_17 
REMARK    6  A    between atoms: O2_17  and  C8_18 
REMARK    7  A    between atoms: C14_32  and  O6_33 
REMARK    8  A    between atoms: C14_32  and  C15_35 
REMARK    9  A    between atoms: C15_35  and  O7_36 
ROOT
HETATM    1  N2  UNL     1     -11.586  28.157   6.464  1.00  0.00    -0.324 N 
HETATM    2  C3  UNL     1     -11.179  29.367   6.886  1.00  0.00     0.122 A 
HETATM    3  C4  UNL     1     -10.317  29.215   7.938  1.00  0.00     0.085 A 
HETATM    4  C5  UNL     1     -10.182  27.858   8.183  1.00  0.00     0.129 A 
HETATM    5  C6  UNL     1     -10.977  27.219   7.261  1.00  0.00     0.143 A 
HETATM    6  N3  UNL     1     -10.872  25.908   7.467  1.00  0.00    -0.290 N 
ATOM      7  H3  UNL     1     -11.355  25.191   6.927  1.00  0.00     0.172 HD
HETATM    8  C7  UNL     1     -10.031  25.666   8.502  1.00  0.00     0.353 A 
HETATM    9  O1  UNL     1      -9.689  24.551   8.984  1.00  0.00    -0.244 OA
HETATM   10  N4  UNL     1      -9.622  26.876   8.921  1.00  0.00    -0.165 N 
HETATM   11  C11 UNL     1      -9.724  30.358   8.614  1.00  0.00     0.254 A 
HETATM   12  O3  UNL     1      -8.930  30.183   9.582  1.00  0.00    -0.281 OA
HETATM   13  C12 UNL     1     -10.004  31.734   8.224  1.00  0.00     0.299 A 
HETATM   14  O4  UNL     1      -9.507  32.729   8.789  1.00  0.00    -0.264 OA
HETATM   15  N6  UNL     1     -10.901  31.889   7.134  1.00  0.00    -0.285 N 
ATOM     16  H6  UNL     1     -11.140  32.826   6.811  1.00  0.00     0.172 HD
HETATM   17  C13 UNL     1     -11.471  30.760   6.485  1.00  0.00     0.276 A 
HETATM   18  O5  UNL     1     -12.256  31.006   5.532  1.00  0.00    -0.266 OA
ENDROOT
BRANCH   1  19
HETATM   19  C2  UNL     1     -12.438  27.916   5.354  1.00  0.00     0.166 C 
BRANCH  19  20
HETATM   20  C1  UNL     1     -11.825  27.910   4.004  1.00  0.00     0.232 C 
BRANCH  20  21
HETATM   21  N1  UNL     1     -12.784  28.281   3.004  1.00  0.00    -0.071 N 
ATOM     22  H13 UNL     1     -13.691  27.846   3.172  1.00  0.00     0.274 HD
ATOM     23  H12 UNL     1     -13.063  29.258   3.093  1.00  0.00     0.274 HD
ATOM     24  H11 UNL     1     -12.435  28.073   2.068  1.00  0.00     0.274 HD
ENDBRANCH  20  21
BRANCH  20  25
HETATM   25  C14 UNL     1     -11.345  26.495   3.633  1.00  0.00     0.173 C 
BRANCH  25  26
HETATM   26  O6  UNL     1     -12.009  25.561   4.446  1.00  0.00    -0.391 OA
ATOM     27  H6  UNL     1     -11.726  25.678   5.346  1.00  0.00     0.210 HD
ENDBRANCH  25  26
BRANCH  25  28
HETATM   28  C15 UNL     1      -9.862  26.377   3.949  1.00  0.00     0.197 C 
BRANCH  28  29
HETATM   29  O7  UNL     1      -9.640  25.217   4.733  1.00  0.00    -0.398 OA
ATOM     30  H7  UNL     1      -8.898  24.738   4.383  1.00  0.00     0.209 HD
ENDBRANCH  28  29
ENDBRANCH  25  28
ENDBRANCH  20  25
ENDBRANCH  19  20
ENDBRANCH   1  19
BRANCH  10  31
HETATM   31  O2  UNL     1      -8.759  27.133   9.951  1.00  0.00    -0.260 OA
BRANCH  31  32
HETATM   32  C8  UNL     1      -9.120  27.153  11.298  1.00  0.00     0.204 C 
HETATM   33  C9  UNL     1      -8.576  25.947  12.071  1.00  0.00     0.268 C 
HETATM   34  N5  UNL     1      -8.308  26.845  13.171  1.00  0.00    -0.070 N 
HETATM   35  C10 UNL     1      -8.203  27.931  12.219  1.00  0.00     0.268 C 
ATOM     36  H52 UNL     1      -8.955  26.908  13.957  1.00  0.00     0.277 HD
ATOM     37  H51 UNL     1      -7.548  26.653  13.824  1.00  0.00     0.277 HD
ENDBRANCH  31  32
ENDBRANCH  10  31
TORSDOF 9
ENDMDL
MODEL 5
REMARK VINA RESULT: -6.184614784      1.199      1.314
REMARK  9 active torsions:
REMARK  status: ('A' for Active; 'I' for Inactive)
REMARK    1  A    between atoms: N1_1  and  C1_5 
REMARK    2  A    between atoms: C1_5  and  C2_6 
REMARK    3  A    between atoms: C1_5  and  C14_32 
REMARK    4  A    between atoms: C2_6  and  N2_7 
REMARK    5  A    between atoms: N4_16  and  O2_17 
REMARK    6  A    between atoms: O2_17  and  C8_18 
REMARK    7  A    between atoms: C14_32  and  O6_33 
REMARK    8  A    between atoms: C14_32  and  C15_35 
REMARK    9  A    between atoms: C15_35  and  O7_36 
ROOT
HETATM    1  N2  UNL     1     -12.024  29.272   6.552  1.00  0.00    -0.324 N 
HETATM    2  C3  UNL     1     -11.611  28.089   7.041  1.00  0.00     0.122 A 
HETATM    3  C4  UNL     1     -10.564  28.292   7.898  1.00  0.00     0.085 A 
HETATM    4  C5  UNL     1     -10.312  29.653   7.945  1.00  0.00     0.129 A 
HETATM    5  C6  UNL     1     -11.225  30.244   7.104  1.00  0.00     0.143 A 
HETATM    6  N3  UNL     1     -11.012  31.558   7.123  1.00  0.00    -0.290 N 
ATOM      7  H3  UNL     1     -11.545  32.244   6.591  1.00  0.00     0.172 HD
HETATM    8  C7  UNL     1      -9.981  31.849   7.954  1.00  0.00     0.353 A 
HETATM    9  O1  UNL     1      -9.495  32.981   8.226  1.00  0.00    -0.244 OA
HETATM   10  N4  UNL     1      -9.572  30.667   8.444  1.00  0.00    -0.165 N 
HETATM   11  C11 UNL     1      -9.899  27.187   8.569  1.00  0.00     0.254 A 
HETATM   12  O3  UNL     1      -8.935  27.408   9.357  1.00  0.00    -0.281 OA
HETATM   13  C12 UNL     1     -10.295  25.798   8.377  1.00  0.00     0.299 A 
HETATM   14  O4  UNL     1      -9.740  24.834   8.943  1.00  0.00    -0.264 OA
HETATM   15  N6  UNL     1     -11.381  25.590   7.485  1.00  0.00    -0.285 N 
ATOM     16  H6  UNL     1     -11.708  24.641   7.306  1.00  0.00     0.172 HD
HETATM   17  C13 UNL     1     -12.019  26.682   6.838  1.00  0.00     0.276 A 
HETATM   18  O5  UNL     1     -12.968  26.391   6.064  1.00  0.00    -0.266 OA
ENDROOT
BRANCH   1  19
HETATM   19  C2  UNL     1     -13.127  29.462   5.678  1.00  0.00     0.166 C 
BRANCH  19  20
HETATM   20  C1  UNL     1     -12.841  29.924   4.299  1.00  0.00     0.232 C 
BRANCH  20  21
HETATM   21  N1  UNL     1     -13.321  31.261   4.096  1.00  0.00    -0.071 N 
ATOM     22  H13 UNL     1     -12.849  31.716   3.315  1.00  0.00     0.274 HD
ATOM     23  H12 UNL     1     -14.272  31.267   3.726  1.00  0.00     0.274 HD
ATOM     24  H11 UNL     1     -13.246  31.810   4.953  1.00  0.00     0.274 HD
ENDBRANCH  20  21
BRANCH  20  25
HETATM   25  C14 UNL     1     -13.574  29.045   3.270  1.00  0.00     0.173 C 
BRANCH  25  26
HETATM   26  O6  UNL     1     -14.438  28.169   3.951  1.00  0.00    -0.391 OA
ATOM     27  H6  UNL     1     -14.203  27.274   3.734  1.00  0.00     0.210 HD
ENDBRANCH  25  26
BRANCH  25  28
HETATM   28  C15 UNL     1     -12.556  28.180   2.542  1.00  0.00     0.197 C 
BRANCH  28  29
HETATM   29  O7  UNL     1     -12.190  27.089   3.369  1.00  0.00    -0.398 OA
ATOM     30  H7  UNL     1     -11.984  26.338   2.825  1.00  0.00     0.209 HD
ENDBRANCH  28  29
ENDBRANCH  25  28
ENDBRANCH  20  25
ENDBRANCH  19  20
ENDBRANCH   1  19
BRANCH  10  31
HETATM   31  O2  UNL     1      -8.549  30.461   9.330  1.00  0.00    -0.260 OA
BRANCH  31  32
HETATM   32  C8  UNL     1      -7.195  30.583   9.015  1.00  0.00     0.204 C 
HETATM   33  C9  UNL     1      -6.308  29.670   9.868  1.00  0.00     0.268 C 
HETATM   34  N5  UNL     1      -5.526  29.417   8.680  1.00  0.00    -0.070 N 
HETATM   35  C10 UNL     1      -6.698  29.710   7.882  1.00  0.00     0.268 C 
ATOM     36  H52 UNL     1      -4.652  29.918   8.519  1.00  0.00     0.277 HD
ATOM     37  H51 UNL     1      -5.029  28.533   8.565  1.00  0.00     0.277 HD
ENDBRANCH  31  32
ENDBRANCH  10  31
TORSDOF 9
ENDMDL
