MODEL 1
REMARK VINA RESULT: -8.139324774      0.000      0.000
REMARK  3 active torsions:
REMARK  status: ('A' for Active; 'I' for Inactive)
REMARK    1  A    between atoms: C3_3  and  C4_4 
REMARK    2  A    between atoms: N1_9  and  C7_10 
REMARK    3  A    between atoms: C7_10  and  C8_11 
ROOT
HETATM    1  C1  UNL     1     -67.619  45.424   5.088  1.00  0.00     0.070 C 
HETATM    2  C2  UNL     1     -66.493  46.384   4.794  1.00  0.00     0.035 A 
HETATM    3  C3  UNL     1     -66.355  46.923   3.562  1.00  0.00     0.056 A 
HETATM    4  N2  UNL     1     -65.269  47.790   3.372  1.00  0.00    -0.350 N 
ATOM      5  H2  UNL     1     -65.150  48.203   2.447  1.00  0.00     0.166 HD
HETATM    6  C10 UNL     1     -64.306  48.142   4.396  1.00  0.00     0.112 A 
HETATM    7  C11 UNL     1     -63.304  48.974   4.137  1.00  0.00     0.119 C 
HETATM    8 CL1  UNL     1     -63.138  49.657   2.542  1.00  0.00    -0.094 Cl
HETATM    9  C12 UNL     1     -64.490  47.544   5.707  1.00  0.00     0.273 A 
HETATM   10  O4  UNL     1     -63.685  47.815   6.630  1.00  0.00    -0.266 OA
HETATM   11  N3  UNL     1     -65.598  46.674   5.849  1.00  0.00    -0.324 N 
ATOM     12  H3  UNL     1     -65.758  46.236   6.756  1.00  0.00     0.169 HD
ENDROOT
BRANCH   3  13
HETATM   13  C4  UNL     1     -67.283  46.577   2.532  1.00  0.00     0.056 C 
HETATM   14  C5  UNL     1     -67.560  46.941   1.343  1.00  0.00     0.078 C 
HETATM   15  S1  UNL     1     -68.955  46.056   0.450  1.00  0.00    -0.055 SA
HETATM   16  C9  UNL     1     -67.197  47.873   0.317  1.00  0.00     0.266 C 
HETATM   17  C6  UNL     1     -68.046  46.185  -1.137  1.00  0.00     0.149 C 
HETATM   18  S2  UNL     1     -68.007  45.072  -2.284  1.00  0.00    -0.052 SA
HETATM   19  N1  UNL     1     -67.453  47.464  -1.018  1.00  0.00    -0.288 N 
HETATM   20  O3  UNL     1     -66.677  49.012   0.578  1.00  0.00    -0.266 OA
BRANCH  19  21
HETATM   21  C7  UNL     1     -67.118  48.273  -2.190  1.00  0.00     0.246 C 
BRANCH  21  22
HETATM   22  C8  UNL     1     -65.721  48.018  -2.626  1.00  0.00     0.192 C 
HETATM   23  O1  UNL     1     -65.498  47.270  -3.612  1.00  0.00    -0.647 OA
HETATM   24  O2  UNL     1     -64.625  48.573  -1.989  1.00  0.00    -0.647 OA
ENDBRANCH  21  22
ENDBRANCH  19  21
ENDBRANCH   3  13
TORSDOF 3
ENDMDL
MODEL 2
REMARK VINA RESULT: -7.984959477      3.554      6.902
REMARK  3 active torsions:
REMARK  status: ('A' for Active; 'I' for Inactive)
REMARK    1  A    between atoms: C3_3  and  C4_4 
REMARK    2  A    between atoms: N1_9  and  C7_10 
REMARK    3  A    between atoms: C7_10  and  C8_11 
ROOT
HETATM    1  C1  UNL     1     -64.638  50.373  -0.008  1.00  0.00     0.070 C 
HETATM    2  C2  UNL     1     -65.353  49.241  -0.702  1.00  0.00     0.035 A 
HETATM    3  C3  UNL     1     -66.295  48.521  -0.051  1.00  0.00     0.056 A 
HETATM    4  N2  UNL     1     -66.895  47.476  -0.767  1.00  0.00    -0.350 N 
ATOM      5  H2  UNL     1     -67.605  46.921  -0.288  1.00  0.00     0.166 HD
HETATM    6  C10 UNL     1     -66.579  47.126  -2.138  1.00  0.00     0.112 A 
HETATM    7  C11 UNL     1     -67.195  46.120  -2.747  1.00  0.00     0.119 C 
HETATM    8 CL1  UNL     1     -68.404  45.200  -1.891  1.00  0.00    -0.094 Cl
HETATM    9  C12 UNL     1     -65.565  47.925  -2.804  1.00  0.00     0.273 A 
HETATM   10  O4  UNL     1     -65.253  47.666  -3.991  1.00  0.00    -0.266 OA
HETATM   11  N3  UNL     1     -64.986  48.967  -2.040  1.00  0.00    -0.324 N 
ATOM     12  H3  UNL     1     -64.270  49.548  -2.475  1.00  0.00     0.169 HD
ENDROOT
BRANCH   3  13
HETATM   13  C4  UNL     1     -66.610  48.837   1.307  1.00  0.00     0.056 C 
HETATM   14  C5  UNL     1     -67.333  48.370   2.246  1.00  0.00     0.078 C 
HETATM   15  S1  UNL     1     -67.324  49.264   3.896  1.00  0.00    -0.055 SA
HETATM   16  C9  UNL     1     -68.265  47.329   2.564  1.00  0.00     0.266 C 
HETATM   17  C6  UNL     1     -67.465  47.666   4.784  1.00  0.00     0.149 C 
HETATM   18  S2  UNL     1     -66.747  47.297   6.165  1.00  0.00    -0.052 SA
HETATM   19  N1  UNL     1     -68.332  46.946   3.929  1.00  0.00    -0.288 N 
HETATM   20  O3  UNL     1     -69.001  46.773   1.678  1.00  0.00    -0.266 OA
BRANCH  19  21
HETATM   21  C7  UNL     1     -69.202  45.880   4.428  1.00  0.00     0.246 C 
BRANCH  21  22
HETATM   22  C8  UNL     1     -68.616  44.544   4.145  1.00  0.00     0.192 C 
HETATM   23  O1  UNL     1     -67.665  44.115   4.847  1.00  0.00    -0.647 OA
HETATM   24  O2  UNL     1     -69.073  43.728   3.125  1.00  0.00    -0.647 OA
ENDBRANCH  21  22
ENDBRANCH  19  21
ENDBRANCH   3  13
TORSDOF 3
ENDMDL
MODEL 3
REMARK VINA RESULT: -7.884318540      3.519      7.169
REMARK  3 active torsions:
REMARK  status: ('A' for Active; 'I' for Inactive)
REMARK    1  A    between atoms: C3_3  and  C4_4 
REMARK    2  A    between atoms: N1_9  and  C7_10 
REMARK    3  A    between atoms: C7_10  and  C8_11 
ROOT
HETATM    1  C1  UNL     1     -64.642  50.493   0.092  1.00  0.00     0.070 C 
HETATM    2  C2  UNL     1     -65.294  49.381  -0.691  1.00  0.00     0.035 A 
HETATM    3  C3  UNL     1     -66.213  48.578  -0.109  1.00  0.00     0.056 A 
HETATM    4  N2  UNL     1     -66.754  47.559  -0.905  1.00  0.00    -0.350 N 
ATOM      5  H2  UNL     1     -67.446  46.942  -0.479  1.00  0.00     0.166 HD
HETATM    6  C10 UNL     1     -66.401  47.319  -2.290  1.00  0.00     0.112 A 
HETATM    7  C11 UNL     1     -66.961  46.331  -2.978  1.00  0.00     0.119 C 
HETATM    8 CL1  UNL     1     -68.141  45.303  -2.210  1.00  0.00    -0.094 Cl
HETATM    9  C12 UNL     1     -65.413  48.205  -2.881  1.00  0.00     0.273 A 
HETATM   10  O4  UNL     1     -65.071  48.042  -4.077  1.00  0.00    -0.266 OA
HETATM   11  N3  UNL     1     -64.894  49.216  -2.037  1.00  0.00    -0.324 N 
ATOM     12  H3  UNL     1     -64.198  49.856  -2.418  1.00  0.00     0.169 HD
ENDROOT
BRANCH   3  13
HETATM   13  C4  UNL     1     -66.563  48.785   1.262  1.00  0.00     0.056 C 
HETATM   14  C5  UNL     1     -66.930  48.088   2.263  1.00  0.00     0.078 C 
HETATM   15  S1  UNL     1     -67.250  48.973   3.887  1.00  0.00    -0.055 SA
HETATM   16  C9  UNL     1     -67.245  46.752   2.674  1.00  0.00     0.266 C 
HETATM   17  C6  UNL     1     -66.576  47.546   4.819  1.00  0.00     0.149 C 
HETATM   18  S2  UNL     1     -65.694  47.632   6.150  1.00  0.00    -0.052 SA
HETATM   19  N1  UNL     1     -67.049  46.458   4.049  1.00  0.00    -0.288 N 
HETATM   20  O3  UNL     1     -67.682  45.868   1.859  1.00  0.00    -0.266 OA
BRANCH  19  21
HETATM   21  C7  UNL     1     -67.288  45.140   4.636  1.00  0.00     0.246 C 
BRANCH  21  22
HETATM   22  C8  UNL     1     -68.482  45.164   5.521  1.00  0.00     0.192 C 
HETATM   23  O1  UNL     1     -68.418  44.671   6.676  1.00  0.00    -0.647 OA
HETATM   24  O2  UNL     1     -69.691  45.714   5.131  1.00  0.00    -0.647 OA
ENDBRANCH  21  22
ENDBRANCH  19  21
ENDBRANCH   3  13
TORSDOF 3
ENDMDL
MODEL 4
REMARK VINA RESULT: -7.708151142      4.006      6.666
REMARK  3 active torsions:
REMARK  status: ('A' for Active; 'I' for Inactive)
REMARK    1  A    between atoms: C3_3  and  C4_4 
REMARK    2  A    between atoms: N1_9  and  C7_10 
REMARK    3  A    between atoms: C7_10  and  C8_11 
ROOT
HETATM    1  C1  UNL     1     -65.249  49.686   1.824  1.00  0.00     0.070 C 
HETATM    2  C2  UNL     1     -65.654  48.970   0.560  1.00  0.00     0.035 A 
HETATM    3  C3  UNL     1     -66.617  48.021   0.586  1.00  0.00     0.056 A 
HETATM    4  N2  UNL     1     -66.916  47.393  -0.632  1.00  0.00    -0.350 N 
ATOM      5  H2  UNL     1     -67.638  46.673  -0.627  1.00  0.00     0.166 HD
HETATM    6  C10 UNL     1     -66.273  47.694  -1.895  1.00  0.00     0.112 A 
HETATM    7  C11 UNL     1     -66.614  47.054  -3.007  1.00  0.00     0.119 C 
HETATM    8 CL1  UNL     1     -67.856  45.831  -2.954  1.00  0.00    -0.094 Cl
HETATM    9  C12 UNL     1     -65.245  48.721  -1.883  1.00  0.00     0.273 A 
HETATM   10  O4  UNL     1     -64.656  49.021  -2.949  1.00  0.00    -0.266 OA
HETATM   11  N3  UNL     1     -64.977  49.324  -0.630  1.00  0.00    -0.324 N 
ATOM     12  H3  UNL     1     -64.261  50.048  -0.584  1.00  0.00     0.169 HD
ENDROOT
BRANCH   3  13
HETATM   13  C4  UNL     1     -67.253  47.696   1.824  1.00  0.00     0.056 C 
HETATM   14  C5  UNL     1     -68.039  46.803   2.281  1.00  0.00     0.078 C 
HETATM   15  S1  UNL     1     -68.539  46.907   4.087  1.00  0.00    -0.055 SA
HETATM   16  C9  UNL     1     -68.783  45.636   1.912  1.00  0.00     0.266 C 
HETATM   17  C6  UNL     1     -68.527  45.078   4.215  1.00  0.00     0.149 C 
HETATM   18  S2  UNL     1     -68.037  44.234   5.482  1.00  0.00    -0.052 SA
HETATM   19  N1  UNL     1     -69.042  44.705   2.952  1.00  0.00    -0.288 N 
HETATM   20  O3  UNL     1     -69.201  45.437   0.719  1.00  0.00    -0.266 OA
BRANCH  19  21
HETATM   21  C7  UNL     1     -69.758  43.445   2.750  1.00  0.00     0.246 C 
BRANCH  21  22
HETATM   22  C8  UNL     1     -71.170  43.562   3.202  1.00  0.00     0.192 C 
HETATM   23  O1  UNL     1     -72.085  43.743   2.359  1.00  0.00    -0.647 OA
HETATM   24  O2  UNL     1     -71.538  43.481   4.533  1.00  0.00    -0.647 OA
ENDBRANCH  21  22
ENDBRANCH  19  21
ENDBRANCH   3  13
TORSDOF 3
ENDMDL
MODEL 5
REMARK VINA RESULT: -7.291259412      3.590      6.469
REMARK  3 active torsions:
REMARK  status: ('A' for Active; 'I' for Inactive)
REMARK    1  A    between atoms: C3_3  and  C4_4 
REMARK    2  A    between atoms: N1_9  and  C7_10 
REMARK    3  A    between atoms: C7_10  and  C8_11 
ROOT
HETATM    1  C1  UNL     1     -67.962  45.997  -2.418  1.00  0.00     0.070 C 
HETATM    2  C2  UNL     1     -67.432  46.872  -1.310  1.00  0.00     0.035 A 
HETATM    3  C3  UNL     1     -67.718  46.594  -0.018  1.00  0.00     0.056 A 
HETATM    4  N2  UNL     1     -67.200  47.470   0.945  1.00  0.00    -0.350 N 
ATOM      5  H2  UNL     1     -67.410  47.276   1.924  1.00  0.00     0.166 HD
HETATM    6  C10 UNL     1     -66.387  48.634   0.649  1.00  0.00     0.112 A 
HETATM    7  C11 UNL     1     -65.932  49.416   1.621  1.00  0.00     0.119 C 
HETATM    8 CL1  UNL     1     -66.314  49.044   3.281  1.00  0.00    -0.094 Cl
HETATM    9  C12 UNL     1     -66.099  48.898  -0.749  1.00  0.00     0.273 A 
HETATM   10  O4  UNL     1     -65.400  49.891  -1.062  1.00  0.00    -0.266 OA
HETATM   11  N3  UNL     1     -66.646  47.986  -1.684  1.00  0.00    -0.324 N 
ATOM     12  H3  UNL     1     -66.465  48.141  -2.676  1.00  0.00     0.169 HD
ENDROOT
BRANCH   3  13
HETATM   13  C4  UNL     1     -68.532  45.461   0.295  1.00  0.00     0.056 C 
HETATM   14  C5  UNL     1     -68.905  44.818   1.330  1.00  0.00     0.078 C 
HETATM   15  S1  UNL     1     -70.046  43.346   1.093  1.00  0.00    -0.055 SA
HETATM   16  C9  UNL     1     -68.764  44.762   2.755  1.00  0.00     0.266 C 
HETATM   17  C6  UNL     1     -70.920  43.749   2.654  1.00  0.00     0.149 C 
HETATM   18  S2  UNL     1     -72.491  43.597   2.910  1.00  0.00    -0.052 SA
HETATM   19  N1  UNL     1     -69.851  44.191   3.468  1.00  0.00    -0.288 N 
HETATM   20  O3  UNL     1     -67.723  45.193   3.360  1.00  0.00    -0.266 OA
BRANCH  19  21
HETATM   21  C7  UNL     1     -69.893  44.081   4.926  1.00  0.00     0.246 C 
BRANCH  21  22
HETATM   22  C8  UNL     1     -69.078  42.930   5.393  1.00  0.00     0.192 C 
HETATM   23  O1  UNL     1     -69.061  41.863   4.730  1.00  0.00    -0.647 OA
HETATM   24  O2  UNL     1     -68.317  42.973   6.549  1.00  0.00    -0.647 OA
ENDBRANCH  21  22
ENDBRANCH  19  21
ENDBRANCH   3  13
TORSDOF 3
ENDMDL
