MODEL 1
REMARK VINA RESULT: -5.763619307      0.000      0.000
REMARK  7 active torsions:
REMARK  status: ('A' for Active; 'I' for Inactive)
REMARK    1  A    between atoms: C2_2  and  N1_3 
REMARK    2  A    between atoms: N1_3  and  C4_5 
REMARK    3  A    between atoms: C4_5  and  N2_7 
REMARK    4  A    between atoms: N2_7  and  N3_8 
REMARK       I    between atoms: N3_8  and  C5_10 
REMARK       I    between atoms: C5_10  and  N4_12 
REMARK    5  A    between atoms: N4_12  and  N5_14 
REMARK       I    between atoms: C6_16  and  N7_18 
REMARK    6  A    between atoms: N7_18  and  C7_20 
REMARK    7  A    between atoms: C7_20  and  C8_21 
ROOT
HETATM    1  N3  UNL     1      39.582  69.351  85.447  1.00  0.00    -0.180 N 
ATOM      2  H3  UNL     1      39.626  70.037  84.694  1.00  0.00     0.207 HD
HETATM    3  C5  UNL     1      40.831  69.255  86.106  1.00  0.00     0.363 C 
HETATM    4  O1  UNL     1      41.265  68.576  86.964  1.00  0.00    -0.243 OA
HETATM    5  N4  UNL     1      41.786  70.244  85.569  1.00  0.00    -0.247 N 
ATOM      6  H4  UNL     1      41.434  70.832  84.814  1.00  0.00     0.192 HD
ENDROOT
BRANCH   1   7
HETATM    7  N2  UNL     1      38.363  68.809  85.519  1.00  0.00    -0.291 NA
BRANCH   7   8
HETATM    8  C4  UNL     1      37.144  68.271  85.620  1.00  0.00     0.270 C 
HETATM    9  S1  UNL     1      36.897  66.604  85.291  1.00  0.00    -0.023 SA
BRANCH   8  10
HETATM   10  N1  UNL     1      35.902  68.891  86.012  1.00  0.00    -0.350 N 
HETATM   11  C3  UNL     1      35.647  70.271  85.713  1.00  0.00     0.153 C 
BRANCH  10  12
HETATM   12  C2  UNL     1      34.890  68.106  86.683  1.00  0.00     0.121 C 
HETATM   13  C1  UNL     1      33.598  68.839  86.789  1.00  0.00     0.026 C 
ENDBRANCH  10  12
ENDBRANCH   8  10
ENDBRANCH   7   8
ENDBRANCH   1   7
BRANCH   5  14
HETATM   14  N5  UNL     1      43.060  70.475  85.943  1.00  0.00    -0.270 N 
HETATM   15  C6  UNL     1      43.913  70.865  85.012  1.00  0.00     0.203 C 
HETATM   16  N6  UNL     1      43.432  70.997  83.696  1.00  0.00    -0.062 NA
HETATM   17  N7  UNL     1      45.219  71.241  85.287  1.00  0.00    -0.362 N 
ATOM     18  H7  UNL     1      46.006  70.595  85.232  1.00  0.00     0.162 HD
ATOM     19  H5  UNL     1      43.355  70.352  86.911  1.00  0.00     0.189 HD
BRANCH  17  20
HETATM   20  C7  UNL     1      45.373  72.670  85.670  1.00  0.00     0.137 C 
BRANCH  20  21
HETATM   21  C8  UNL     1      45.384  72.862  87.153  1.00  0.00     0.134 C 
HETATM   22 CL1  UNL     1      45.736  71.429  88.082  1.00  0.00    -0.129 Cl
ENDBRANCH  20  21
ENDBRANCH  17  20
ENDBRANCH   5  14
TORSDOF 7
ENDMDL
MODEL 2
REMARK VINA RESULT: -5.712457996      2.754      3.233
REMARK  7 active torsions:
REMARK  status: ('A' for Active; 'I' for Inactive)
REMARK    1  A    between atoms: C2_2  and  N1_3 
REMARK    2  A    between atoms: N1_3  and  C4_5 
REMARK    3  A    between atoms: C4_5  and  N2_7 
REMARK    4  A    between atoms: N2_7  and  N3_8 
REMARK       I    between atoms: N3_8  and  C5_10 
REMARK       I    between atoms: C5_10  and  N4_12 
REMARK    5  A    between atoms: N4_12  and  N5_14 
REMARK       I    between atoms: C6_16  and  N7_18 
REMARK    6  A    between atoms: N7_18  and  C7_20 
REMARK    7  A    between atoms: C7_20  and  C8_21 
ROOT
HETATM    1  N3  UNL     1      40.126  69.551  85.073  1.00  0.00    -0.180 N 
ATOM      2  H3  UNL     1      40.433  70.090  85.882  1.00  0.00     0.207 HD
HETATM    3  C5  UNL     1      40.923  69.851  83.943  1.00  0.00     0.363 C 
HETATM    4  O1  UNL     1      40.906  69.536  82.810  1.00  0.00    -0.243 OA
HETATM    5  N4  UNL     1      42.015  70.777  84.301  1.00  0.00    -0.247 N 
ATOM      6  H4  UNL     1      42.039  71.075  85.276  1.00  0.00     0.192 HD
ENDROOT
BRANCH   1   7
HETATM    7  N2  UNL     1      39.091  68.771  85.394  1.00  0.00    -0.291 NA
BRANCH   7   8
HETATM    8  C4  UNL     1      38.051  68.006  85.741  1.00  0.00     0.270 C 
HETATM    9  S1  UNL     1      38.286  66.360  86.172  1.00  0.00    -0.023 SA
BRANCH   8  10
HETATM   10  N1  UNL     1      36.656  68.355  85.849  1.00  0.00    -0.350 N 
HETATM   11  C3  UNL     1      35.643  67.338  85.820  1.00  0.00     0.153 C 
BRANCH  10  12
HETATM   12  C2  UNL     1      36.274  69.738  86.024  1.00  0.00     0.121 C 
HETATM   13  C1  UNL     1      34.984  69.871  86.756  1.00  0.00     0.026 C 
ENDBRANCH  10  12
ENDBRANCH   8  10
ENDBRANCH   7   8
ENDBRANCH   1   7
BRANCH   5  14
HETATM   14  N5  UNL     1      42.986  71.281  83.514  1.00  0.00    -0.270 N 
HETATM   15  C6  UNL     1      44.198  70.768  83.625  1.00  0.00     0.203 C 
HETATM   16  N6  UNL     1      44.391  69.742  84.570  1.00  0.00    -0.062 NA
HETATM   17  N7  UNL     1      45.253  71.121  82.796  1.00  0.00    -0.362 N 
ATOM     18  H7  UNL     1      45.926  71.848  83.035  1.00  0.00     0.162 HD
ATOM     19  H5  UNL     1      42.790  72.033  82.854  1.00  0.00     0.189 HD
BRANCH  17  20
HETATM   20  C7  UNL     1      45.316  70.345  81.529  1.00  0.00     0.137 C 
BRANCH  20  21
HETATM   21  C8  UNL     1      46.150  71.024  80.490  1.00  0.00     0.134 C 
HETATM   22 CL1  UNL     1      47.231  72.252  81.095  1.00  0.00    -0.129 Cl
ENDBRANCH  20  21
ENDBRANCH  17  20
ENDBRANCH   5  14
TORSDOF 7
ENDMDL
MODEL 3
REMARK VINA RESULT: -5.687926022      4.298      8.577
REMARK  7 active torsions:
REMARK  status: ('A' for Active; 'I' for Inactive)
REMARK    1  A    between atoms: C2_2  and  N1_3 
REMARK    2  A    between atoms: N1_3  and  C4_5 
REMARK    3  A    between atoms: C4_5  and  N2_7 
REMARK    4  A    between atoms: N2_7  and  N3_8 
REMARK       I    between atoms: N3_8  and  C5_10 
REMARK       I    between atoms: C5_10  and  N4_12 
REMARK    5  A    between atoms: N4_12  and  N5_14 
REMARK       I    between atoms: C6_16  and  N7_18 
REMARK    6  A    between atoms: N7_18  and  C7_20 
REMARK    7  A    between atoms: C7_20  and  C8_21 
ROOT
HETATM    1  N3  UNL     1      40.647  69.588  84.235  1.00  0.00    -0.180 N 
ATOM      2  H3  UNL     1      40.568  70.016  85.157  1.00  0.00     0.207 HD
HETATM    3  C5  UNL     1      39.461  68.888  83.908  1.00  0.00     0.363 C 
HETATM    4  O1  UNL     1      39.121  68.208  83.011  1.00  0.00    -0.243 OA
HETATM    5  N4  UNL     1      38.437  69.072  84.955  1.00  0.00    -0.247 N 
ATOM      6  H4  UNL     1      38.717  69.646  85.750  1.00  0.00     0.192 HD
ENDROOT
BRANCH   1   7
HETATM    7  N2  UNL     1      41.839  69.853  83.695  1.00  0.00    -0.291 NA
BRANCH   7   8
HETATM    8  C4  UNL     1      43.035  70.141  83.173  1.00  0.00     0.270 C 
HETATM    9  S1  UNL     1      44.237  70.916  84.124  1.00  0.00    -0.023 SA
BRANCH   8  10
HETATM   10  N1  UNL     1      43.544  69.871  81.850  1.00  0.00    -0.350 N 
HETATM   11  C3  UNL     1      42.653  69.517  80.782  1.00  0.00     0.153 C 
BRANCH  10  12
HETATM   12  C2  UNL     1      44.961  69.992  81.589  1.00  0.00     0.121 C 
HETATM   13  C1  UNL     1      45.259  69.984  80.130  1.00  0.00     0.026 C 
ENDBRANCH  10  12
ENDBRANCH   8  10
ENDBRANCH   7   8
ENDBRANCH   1   7
BRANCH   5  14
HETATM   14  N5  UNL     1      37.182  68.583  85.002  1.00  0.00    -0.270 N 
HETATM   15  C6  UNL     1      36.967  67.507  85.737  1.00  0.00     0.203 C 
HETATM   16  N6  UNL     1      38.069  66.940  86.406  1.00  0.00    -0.062 NA
HETATM   17  N7  UNL     1      35.705  66.975  85.957  1.00  0.00    -0.362 N 
ATOM     18  H7  UNL     1      35.312  66.227  85.386  1.00  0.00     0.162 HD
ATOM     19  H5  UNL     1      36.424  69.030  84.487  1.00  0.00     0.189 HD
BRANCH  17  20
HETATM   20  C7  UNL     1      34.976  67.590  87.098  1.00  0.00     0.137 C 
BRANCH  20  21
HETATM   21  C8  UNL     1      33.932  68.560  86.646  1.00  0.00     0.134 C 
HETATM   22 CL1  UNL     1      34.131  70.189  87.237  1.00  0.00    -0.129 Cl
ENDBRANCH  20  21
ENDBRANCH  17  20
ENDBRANCH   5  14
TORSDOF 7
ENDMDL
MODEL 4
REMARK VINA RESULT: -5.656665700      6.916      8.278
REMARK  7 active torsions:
REMARK  status: ('A' for Active; 'I' for Inactive)
REMARK    1  A    between atoms: C2_2  and  N1_3 
REMARK    2  A    between atoms: N1_3  and  C4_5 
REMARK    3  A    between atoms: C4_5  and  N2_7 
REMARK    4  A    between atoms: N2_7  and  N3_8 
REMARK       I    between atoms: N3_8  and  C5_10 
REMARK       I    between atoms: C5_10  and  N4_12 
REMARK    5  A    between atoms: N4_12  and  N5_14 
REMARK       I    between atoms: C6_16  and  N7_18 
REMARK    6  A    between atoms: N7_18  and  C7_20 
REMARK    7  A    between atoms: C7_20  and  C8_21 
ROOT
HETATM    1  N3  UNL     1      45.229  71.844  84.642  1.00  0.00    -0.180 N 
ATOM      2  H3  UNL     1      46.032  72.232  84.148  1.00  0.00     0.207 HD
HETATM    3  C5  UNL     1      44.462  71.025  83.779  1.00  0.00     0.363 C 
HETATM    4  O1  UNL     1      43.448  70.438  83.880  1.00  0.00    -0.243 OA
HETATM    5  N4  UNL     1      45.109  70.903  82.459  1.00  0.00    -0.247 N 
ATOM      6  H4  UNL     1      45.982  71.418  82.346  1.00  0.00     0.192 HD
ENDROOT
BRANCH   1   7
HETATM    7  N2  UNL     1      45.213  72.260  85.911  1.00  0.00    -0.291 NA
BRANCH   7   8
HETATM    8  C4  UNL     1      45.202  72.648  87.190  1.00  0.00     0.270 C 
HETATM    9  S1  UNL     1      45.770  74.207  87.632  1.00  0.00    -0.023 SA
BRANCH   8  10
HETATM   10  N1  UNL     1      44.735  71.939  88.356  1.00  0.00    -0.350 N 
HETATM   11  C3  UNL     1      43.760  70.893  88.234  1.00  0.00     0.153 C 
BRANCH  10  12
HETATM   12  C2  UNL     1      45.279  72.260  89.656  1.00  0.00     0.121 C 
HETATM   13  C1  UNL     1      44.401  71.783  90.760  1.00  0.00     0.026 C 
ENDBRANCH  10  12
ENDBRANCH   8  10
ENDBRANCH   7   8
ENDBRANCH   1   7
BRANCH   5  14
HETATM   14  N5  UNL     1      44.701  70.204  81.382  1.00  0.00    -0.270 N 
HETATM   15  C6  UNL     1      45.391  70.337  80.263  1.00  0.00     0.203 C 
HETATM   16  N6  UNL     1      46.494  71.212  80.274  1.00  0.00    -0.062 NA
HETATM   17  N7  UNL     1      45.143  69.589  79.122  1.00  0.00    -0.362 N 
ATOM     18  H7  UNL     1      44.538  69.913  78.367  1.00  0.00     0.162 HD
ATOM     19  H5  UNL     1      43.887  69.591  81.429  1.00  0.00     0.189 HD
BRANCH  17  20
HETATM   20  C7  UNL     1      45.835  68.273  79.094  1.00  0.00     0.137 C 
BRANCH  20  21
HETATM   21  C8  UNL     1      44.878  67.127  79.169  1.00  0.00     0.134 C 
HETATM   22 CL1  UNL     1      44.401  66.459  77.630  1.00  0.00    -0.129 Cl
ENDBRANCH  20  21
ENDBRANCH  17  20
ENDBRANCH   5  14
TORSDOF 7
ENDMDL
MODEL 5
REMARK VINA RESULT: -5.631927982      5.734      8.161
REMARK  7 active torsions:
REMARK  status: ('A' for Active; 'I' for Inactive)
REMARK    1  A    between atoms: C2_2  and  N1_3 
REMARK    2  A    between atoms: N1_3  and  C4_5 
REMARK    3  A    between atoms: C4_5  and  N2_7 
REMARK    4  A    between atoms: N2_7  and  N3_8 
REMARK       I    between atoms: N3_8  and  C5_10 
REMARK       I    between atoms: C5_10  and  N4_12 
REMARK    5  A    between atoms: N4_12  and  N5_14 
REMARK       I    between atoms: C6_16  and  N7_18 
REMARK    6  A    between atoms: N7_18  and  C7_20 
REMARK    7  A    between atoms: C7_20  and  C8_21 
ROOT
HETATM    1  N3  UNL     1      44.596  70.806  83.934  1.00  0.00    -0.180 N 
ATOM      2  H3  UNL     1      43.975  70.085  84.300  1.00  0.00     0.207 HD
HETATM    3  C5  UNL     1      44.859  71.785  84.922  1.00  0.00     0.363 C 
HETATM    4  O1  UNL     1      45.447  72.803  84.943  1.00  0.00    -0.243 OA
HETATM    5  N4  UNL     1      44.237  71.414  86.207  1.00  0.00    -0.247 N 
ATOM      6  H4  UNL     1      43.708  70.541  86.206  1.00  0.00     0.192 HD
ENDROOT
BRANCH   1   7
HETATM    7  N2  UNL     1      44.919  70.547  82.664  1.00  0.00    -0.291 NA
BRANCH   7   8
HETATM    8  C4  UNL     1      45.214  70.285  81.387  1.00  0.00     0.270 C 
HETATM    9  S1  UNL     1      44.435  68.997  80.560  1.00  0.00    -0.023 SA
BRANCH   8  10
HETATM   10  N1  UNL     1      46.128  70.964  80.502  1.00  0.00    -0.350 N 
HETATM   11  C3  UNL     1      46.996  71.994  80.998  1.00  0.00     0.153 C 
BRANCH  10  12
HETATM   12  C2  UNL     1      46.196  70.582  79.110  1.00  0.00     0.121 C 
HETATM   13  C1  UNL     1      47.584  70.667  78.577  1.00  0.00     0.026 C 
ENDBRANCH  10  12
ENDBRANCH   8  10
ENDBRANCH   7   8
ENDBRANCH   1   7
BRANCH   5  14
HETATM   14  N5  UNL     1      44.272  72.073  87.382  1.00  0.00    -0.270 N 
HETATM   15  C6  UNL     1      43.346  71.783  88.280  1.00  0.00     0.203 C 
HETATM   16  N6  UNL     1      42.382  70.816  87.936  1.00  0.00    -0.062 NA
HETATM   17  N7  UNL     1      43.340  72.307  89.563  1.00  0.00    -0.362 N 
ATOM     18  H7  UNL     1      42.817  73.144  89.818  1.00  0.00     0.162 HD
ATOM     19  H5  UNL     1      44.990  72.772  87.572  1.00  0.00     0.189 HD
BRANCH  17  20
HETATM   20  C7  UNL     1      44.164  71.541  90.537  1.00  0.00     0.137 C 
BRANCH  20  21
HETATM   21  C8  UNL     1      45.119  72.416  91.283  1.00  0.00     0.134 C 
HETATM   22 CL1  UNL     1      44.836  74.130  91.119  1.00  0.00    -0.129 Cl
ENDBRANCH  20  21
ENDBRANCH  17  20
ENDBRANCH   5  14
TORSDOF 7
ENDMDL
