MODEL 1
REMARK VINA RESULT: -6.295068499      0.000      0.000
REMARK  4 active torsions:
REMARK  status: ('A' for Active; 'I' for Inactive)
REMARK    1  A    between atoms: C2_2  and  C6_8 
REMARK    2  A    between atoms: N1_3  and  C3_5 
REMARK    3  A    between atoms: C8_15  and  N4_16 
REMARK    4  A    between atoms: C8_15  and  C10_20 
REMARK       I    between atoms: N4_16  and  C9_17 
ROOT
HETATM    1  C6  UNL     1      44.882  68.484  82.115  1.00  0.00     0.201 C 
HETATM    2  N2  UNL     1      43.944  68.336  83.176  1.00  0.00    -0.352 N 
ATOM      3  H2  UNL     1      43.440  67.499  83.469  1.00  0.00     0.162 HD
HETATM    4  C7  UNL     1      43.886  69.675  83.738  1.00  0.00     0.171 C 
HETATM    5  S1  UNL     1      43.281  70.130  85.182  1.00  0.00    -0.041 SA
HETATM    6  N3  UNL     1      44.469  70.591  82.792  1.00  0.00    -0.320 N 
ATOM      7  H3  UNL     1      44.836  71.530  82.949  1.00  0.00     0.166 HD
HETATM    8  C8  UNL     1      44.395  69.807  81.512  1.00  0.00     0.275 C 
ENDROOT
BRANCH   1   9
HETATM    9  C2  UNL     1      45.102  67.399  81.203  1.00  0.00     0.007 C 
HETATM   10  C1  UNL     1      45.558  66.073  81.679  1.00  0.00     0.065 C 
HETATM   11  N1  UNL     1      44.934  67.544  79.954  1.00  0.00    -0.391 N 
ATOM     12  H1  UNL     1      44.620  68.460  79.635  1.00  0.00     0.159 HD
BRANCH  11  13
HETATM   13  C3  UNL     1      45.138  66.560  78.963  1.00  0.00     0.073 C 
HETATM   14  C4  UNL     1      46.359  66.747  78.126  1.00  0.00     0.031 C 
HETATM   15  C5  UNL     1      43.930  66.542  78.018  1.00  0.00     0.031 C 
ENDBRANCH  11  13
ENDBRANCH   1   9
BRANCH   8  16
HETATM   16  N4  UNL     1      45.164  70.269  80.528  1.00  0.00    -0.375 NA
HETATM   17  C9  UNL     1      45.853  70.689  79.666  1.00  0.00     0.273 C 
HETATM   18  N5  UNL     1      45.743  70.233  78.281  1.00  0.00    -0.053 NA
HETATM   19  N6  UNL     1      46.877  71.682  79.835  1.00  0.00    -0.053 NA
ENDBRANCH   8  16
BRANCH   8  20
HETATM   20  C10 UNL     1      42.934  69.759  81.217  1.00  0.00     0.296 C 
HETATM   21  N7  UNL     1      42.354  68.802  80.377  1.00  0.00    -0.057 NA
HETATM   22  O1  UNL     1      42.175  70.604  81.731  1.00  0.00    -0.271 OA
ENDBRANCH   8  20
TORSDOF 4
ENDMDL
MODEL 2
REMARK VINA RESULT: -6.276401359      6.246      8.369
REMARK  4 active torsions:
REMARK  status: ('A' for Active; 'I' for Inactive)
REMARK    1  A    between atoms: C2_2  and  C6_8 
REMARK    2  A    between atoms: N1_3  and  C3_5 
REMARK    3  A    between atoms: C8_15  and  N4_16 
REMARK    4  A    between atoms: C8_15  and  C10_20 
REMARK       I    between atoms: N4_16  and  C9_17 
ROOT
HETATM    1  C6  UNL     1      44.810  72.027  89.006  1.00  0.00     0.201 C 
HETATM    2  N2  UNL     1      44.335  71.770  90.324  1.00  0.00    -0.352 N 
ATOM      3  H2  UNL     1      43.663  71.067  90.633  1.00  0.00     0.162 HD
HETATM    4  C7  UNL     1      45.046  72.758  91.117  1.00  0.00     0.171 C 
HETATM    5  S1  UNL     1      45.237  72.795  92.735  1.00  0.00    -0.041 SA
HETATM    6  N3  UNL     1      45.588  73.752  90.226  1.00  0.00    -0.320 N 
ATOM      7  H3  UNL     1      46.345  74.416  90.389  1.00  0.00     0.166 HD
HETATM    8  C8  UNL     1      44.748  73.559  88.995  1.00  0.00     0.275 C 
ENDROOT
BRANCH   1   9
HETATM    9  C2  UNL     1      44.218  71.347  87.891  1.00  0.00     0.007 C 
HETATM   10  C1  UNL     1      42.918  70.647  88.016  1.00  0.00     0.065 C 
HETATM   11  N1  UNL     1      44.798  71.302  86.764  1.00  0.00    -0.391 N 
ATOM     12  H1  UNL     1      45.693  71.786  86.687  1.00  0.00     0.159 HD
BRANCH  11  13
HETATM   13  C3  UNL     1      44.326  70.648  85.606  1.00  0.00     0.073 C 
HETATM   14  C4  UNL     1      44.921  69.305  85.348  1.00  0.00     0.031 C 
HETATM   15  C5  UNL     1      44.619  71.525  84.381  1.00  0.00     0.031 C 
ENDBRANCH  11  13
ENDBRANCH   1   9
BRANCH   8  16
HETATM   16  N4  UNL     1      45.241  74.113  87.889  1.00  0.00    -0.375 NA
HETATM   17  C9  UNL     1      45.672  74.619  86.914  1.00  0.00     0.273 C 
HETATM   18  N5  UNL     1      46.377  73.860  85.882  1.00  0.00    -0.053 NA
HETATM   19  N6  UNL     1      45.576  76.017  86.595  1.00  0.00    -0.053 NA
ENDBRANCH   8  16
BRANCH   8  20
HETATM   20  C10 UNL     1      43.401  74.047  89.412  1.00  0.00     0.296 C 
HETATM   21  N7  UNL     1      43.215  75.104  90.309  1.00  0.00    -0.057 NA
HETATM   22  O1  UNL     1      42.380  73.498  88.953  1.00  0.00    -0.271 OA
ENDBRANCH   8  20
TORSDOF 4
ENDMDL
MODEL 3
REMARK VINA RESULT: -6.131360214      8.835     10.574
REMARK  4 active torsions:
REMARK  status: ('A' for Active; 'I' for Inactive)
REMARK    1  A    between atoms: C2_2  and  C6_8 
REMARK    2  A    between atoms: N1_3  and  C3_5 
REMARK    3  A    between atoms: C8_15  and  N4_16 
REMARK    4  A    between atoms: C8_15  and  C10_20 
REMARK       I    between atoms: N4_16  and  C9_17 
ROOT
HETATM    1  C6  UNL     1      36.988  65.527  84.123  1.00  0.00     0.201 C 
HETATM    2  N2  UNL     1      36.027  64.664  83.523  1.00  0.00    -0.352 N 
ATOM      3  H2  UNL     1      35.056  64.862  83.279  1.00  0.00     0.162 HD
HETATM    4  C7  UNL     1      36.775  63.431  83.345  1.00  0.00     0.171 C 
HETATM    5  S1  UNL     1      36.393  62.154  82.406  1.00  0.00    -0.041 SA
HETATM    6  N3  UNL     1      37.963  63.498  84.156  1.00  0.00    -0.320 N 
ATOM      7  H3  UNL     1      38.826  62.959  84.078  1.00  0.00     0.166 HD
HETATM    8  C8  UNL     1      37.604  64.568  85.148  1.00  0.00     0.275 C 
ENDROOT
BRANCH   1   9
HETATM    9  C2  UNL     1      36.583  66.817  84.603  1.00  0.00     0.007 C 
HETATM   10  C1  UNL     1      37.493  67.984  84.537  1.00  0.00     0.065 C 
HETATM   11  N1  UNL     1      35.440  66.998  85.122  1.00  0.00    -0.391 N 
ATOM     12  H1  UNL     1      34.821  66.188  85.164  1.00  0.00     0.159 HD
BRANCH  11  13
HETATM   13  C3  UNL     1      34.942  68.209  85.646  1.00  0.00     0.073 C 
HETATM   14  C4  UNL     1      34.828  68.258  87.132  1.00  0.00     0.031 C 
HETATM   15  C5  UNL     1      33.545  68.468  85.068  1.00  0.00     0.031 C 
ENDBRANCH  11  13
ENDBRANCH   1   9
BRANCH   8  16
HETATM   16  N4  UNL     1      38.634  65.080  85.817  1.00  0.00    -0.375 NA
HETATM   17  C9  UNL     1      39.541  65.549  86.410  1.00  0.00     0.273 C 
HETATM   18  N5  UNL     1      40.697  64.758  86.830  1.00  0.00    -0.053 NA
HETATM   19  N6  UNL     1      39.650  66.927  86.802  1.00  0.00    -0.053 NA
ENDBRANCH   8  16
BRANCH   8  20
HETATM   20  C10 UNL     1      36.550  63.925  85.986  1.00  0.00     0.296 C 
HETATM   21  N7  UNL     1      35.677  64.649  86.806  1.00  0.00    -0.057 NA
HETATM   22  O1  UNL     1      36.425  62.685  85.971  1.00  0.00    -0.271 OA
ENDBRANCH   8  20
TORSDOF 4
ENDMDL
MODEL 4
REMARK VINA RESULT: -6.093701681      3.473      6.870
REMARK  4 active torsions:
REMARK  status: ('A' for Active; 'I' for Inactive)
REMARK    1  A    between atoms: C2_2  and  C6_8 
REMARK    2  A    between atoms: N1_3  and  C3_5 
REMARK    3  A    between atoms: C8_15  and  N4_16 
REMARK    4  A    between atoms: C8_15  and  C10_20 
REMARK       I    between atoms: N4_16  and  C9_17 
ROOT
HETATM    1  C6  UNL     1      44.340  69.768  84.736  1.00  0.00     0.201 C 
HETATM    2  N2  UNL     1      44.901  69.688  83.430  1.00  0.00    -0.352 N 
ATOM      3  H2  UNL     1      45.564  70.320  82.981  1.00  0.00     0.162 HD
HETATM    4  C7  UNL     1      44.293  68.481  82.897  1.00  0.00     0.171 C 
HETATM    5  S1  UNL     1      44.754  67.619  81.592  1.00  0.00    -0.041 SA
HETATM    6  N3  UNL     1      43.167  68.134  83.725  1.00  0.00    -0.320 N 
ATOM      7  H3  UNL     1      42.689  67.238  83.817  1.00  0.00     0.166 HD
HETATM    8  C8  UNL     1      42.878  69.435  84.419  1.00  0.00     0.275 C 
ENDROOT
BRANCH   1   9
HETATM    9  C2  UNL     1      44.580  70.930  85.543  1.00  0.00     0.007 C 
HETATM   10  C1  UNL     1      45.132  72.174  84.959  1.00  0.00     0.065 C 
HETATM   11  N1  UNL     1      44.346  70.925  86.790  1.00  0.00    -0.391 N 
ATOM     12  H1  UNL     1      43.966  70.064  87.183  1.00  0.00     0.159 HD
BRANCH  11  13
HETATM   13  C3  UNL     1      44.561  71.995  87.685  1.00  0.00     0.073 C 
HETATM   14  C4  UNL     1      45.751  71.850  88.572  1.00  0.00     0.031 C 
HETATM   15  C5  UNL     1      43.330  72.148  88.587  1.00  0.00     0.031 C 
ENDBRANCH  11  13
ENDBRANCH   1   9
BRANCH   8  16
HETATM   16  N4  UNL     1      42.099  69.335  85.494  1.00  0.00    -0.375 NA
HETATM   17  C9  UNL     1      41.396  69.250  86.438  1.00  0.00     0.273 C 
HETATM   18  N5  UNL     1      41.903  68.902  87.766  1.00  0.00    -0.053 NA
HETATM   19  N6  UNL     1      39.975  69.467  86.435  1.00  0.00    -0.053 NA
ENDBRANCH   8  16
BRANCH   8  20
HETATM   20  C10 UNL     1      42.352  70.304  83.325  1.00  0.00     0.296 C 
HETATM   21  N7  UNL     1      41.704  69.799  82.193  1.00  0.00    -0.057 NA
HETATM   22  O1  UNL     1      42.489  71.540  83.403  1.00  0.00    -0.271 OA
ENDBRANCH   8  20
TORSDOF 4
ENDMDL
MODEL 5
REMARK VINA RESULT: -6.074438968      7.238      9.705
REMARK  4 active torsions:
REMARK  status: ('A' for Active; 'I' for Inactive)
REMARK    1  A    between atoms: C2_2  and  C6_8 
REMARK    2  A    between atoms: N1_3  and  C3_5 
REMARK    3  A    between atoms: C8_15  and  N4_16 
REMARK    4  A    between atoms: C8_15  and  C10_20 
REMARK       I    between atoms: N4_16  and  C9_17 
ROOT
HETATM    1  C6  UNL     1      38.554  67.764  85.452  1.00  0.00     0.201 C 
HETATM    2  N2  UNL     1      39.816  68.093  84.882  1.00  0.00    -0.352 N 
ATOM      3  H2  UNL     1      40.073  68.911  84.329  1.00  0.00     0.162 HD
HETATM    4  C7  UNL     1      40.648  66.971  85.285  1.00  0.00     0.171 C 
HETATM    5  S1  UNL     1      42.275  66.874  85.269  1.00  0.00    -0.041 SA
HETATM    6  N3  UNL     1      39.788  65.901  85.723  1.00  0.00    -0.320 N 
ATOM      7  H3  UNL     1      40.011  65.097  86.309  1.00  0.00     0.166 HD
HETATM    8  C8  UNL     1      38.477  66.277  85.092  1.00  0.00     0.275 C 
ENDROOT
BRANCH   1   9
HETATM    9  C2  UNL     1      37.404  68.566  85.144  1.00  0.00     0.007 C 
HETATM   10  C1  UNL     1      37.434  69.569  84.055  1.00  0.00     0.065 C 
HETATM   11  N1  UNL     1      36.328  68.457  85.807  1.00  0.00    -0.391 N 
ATOM     12  H1  UNL     1      36.317  67.764  86.555  1.00  0.00     0.159 HD
BRANCH  11  13
HETATM   13  C3  UNL     1      35.146  69.202  85.611  1.00  0.00     0.073 C 
HETATM   14  C4  UNL     1      34.582  69.831  86.840  1.00  0.00     0.031 C 
HETATM   15  C5  UNL     1      34.066  68.282  85.027  1.00  0.00     0.031 C 
ENDBRANCH  11  13
ENDBRANCH   1   9
BRANCH   8  16
HETATM   16  N4  UNL     1      37.415  65.651  85.595  1.00  0.00    -0.375 NA
HETATM   17  C9  UNL     1      36.476  65.084  86.030  1.00  0.00     0.273 C 
HETATM   18  N5  UNL     1      35.630  65.655  87.078  1.00  0.00    -0.053 NA
HETATM   19  N6  UNL     1      36.029  63.783  85.616  1.00  0.00    -0.053 NA
ENDBRANCH   8  16
BRANCH   8  20
HETATM   20  C10 UNL     1      38.718  66.062  83.635  1.00  0.00     0.296 C 
HETATM   21  N7  UNL     1      39.364  64.930  83.125  1.00  0.00    -0.057 NA
HETATM   22  O1  UNL     1      38.335  66.920  82.816  1.00  0.00    -0.271 OA
ENDBRANCH   8  20
TORSDOF 4
ENDMDL
