MODEL 1
REMARK VINA RESULT: -6.784076398      0.000      0.000
REMARK  5 active torsions:
REMARK  status: ('A' for Active; 'I' for Inactive)
REMARK    1  A    between atoms: C4_8  and  N3_9 
REMARK    2  A    between atoms: N3_9  and  C5_11 
REMARK    3  A    between atoms: C5_11  and  C6_12 
REMARK    4  A    between atoms: C6_12  and  N4_13 
REMARK    5  A    between atoms: C9_18  and  N6_19 
ROOT
HETATM    1  C1  UNL     1      88.860  72.147  29.784  1.00  0.00     0.070 C 
HETATM    2  C2  UNL     1      87.483  72.396  30.233  1.00  0.00     0.029 A 
HETATM    3  N1  UNL     1      86.576  71.441  30.526  1.00  0.00    -0.344 N 
ATOM      4  H1  UNL     1      86.751  70.438  30.464  1.00  0.00     0.167 HD
HETATM    5  C3  UNL     1      85.414  71.988  30.908  1.00  0.00     0.137 A 
HETATM    6  N2  UNL     1      84.213  71.532  31.301  1.00  0.00    -0.176 N 
ATOM      7  H2  UNL     1      84.054  70.526  31.347  1.00  0.00     0.186 HD
HETATM    8  C4  UNL     1      83.200  72.379  31.639  1.00  0.00     0.681 A 
HETATM    9  N5  UNL     1      83.417  73.704  31.575  1.00  0.00    -0.176 N 
ATOM     10  H5  UNL     1      82.659  74.340  31.828  1.00  0.00     0.186 HD
HETATM   11  C9  UNL     1      84.605  74.224  31.186  1.00  0.00     0.130 A 
HETATM   12  C10 UNL     1      85.614  73.360  30.849  1.00  0.00     0.075 A 
HETATM   13  C11 UNL     1      86.901  73.640  30.429  1.00  0.00     0.084 A 
HETATM   14  C12 UNL     1      87.508  74.947  30.235  1.00  0.00     0.102 C 
HETATM   15  N7  UNL     1      88.009  75.981  30.092  1.00  0.00    -0.191 NA
ENDROOT
BRANCH  11  16
HETATM   16  N6  UNL     1      84.807  75.496  31.126  1.00  0.00    -0.384 N 
ATOM     17  H62 UNL     1      84.161  76.133  31.594  1.00  0.00     0.157 HD
ATOM     18  H61 UNL     1      85.598  75.894  30.621  1.00  0.00     0.157 HD
ENDBRANCH  11  16
BRANCH   8  19
HETATM   19  N3  UNL     1      82.055  71.950  32.015  1.00  0.00    -0.224 N 
ATOM     20  H3  UNL     1      81.639  72.414  32.822  1.00  0.00     0.177 HD
BRANCH  19  21
HETATM   21  C5  UNL     1      81.301  70.897  31.430  1.00  0.00     0.157 C 
BRANCH  21  22
HETATM   22  C6  UNL     1      81.472  69.633  32.271  1.00  0.00     0.136 C 
BRANCH  22  23
HETATM   23  N4  UNL     1      82.207  68.603  31.625  1.00  0.00    -0.419 N 
HETATM   24  C7  UNL     1      82.301  68.657  30.219  1.00  0.00     0.142 C 
HETATM   25  C8  UNL     1      83.250  67.977  32.326  1.00  0.00     0.142 C 
ENDBRANCH  22  23
ENDBRANCH  21  22
ENDBRANCH  19  21
ENDBRANCH   8  19
TORSDOF 5
ENDMDL
MODEL 2
REMARK VINA RESULT: -6.560314897      1.451      6.213
REMARK  5 active torsions:
REMARK  status: ('A' for Active; 'I' for Inactive)
REMARK    1  A    between atoms: C4_8  and  N3_9 
REMARK    2  A    between atoms: N3_9  and  C5_11 
REMARK    3  A    between atoms: C5_11  and  C6_12 
REMARK    4  A    between atoms: C6_12  and  N4_13 
REMARK    5  A    between atoms: C9_18  and  N6_19 
ROOT
HETATM    1  C1  UNL     1      80.452  70.806  33.290  1.00  0.00     0.070 C 
HETATM    2  C2  UNL     1      81.687  71.370  32.727  1.00  0.00     0.029 A 
HETATM    3  N1  UNL     1      82.269  72.519  33.126  1.00  0.00    -0.344 N 
ATOM      4  H1  UNL     1      81.911  73.124  33.866  1.00  0.00     0.167 HD
HETATM    5  C3  UNL     1      83.382  72.760  32.421  1.00  0.00     0.137 A 
HETATM    6  N2  UNL     1      84.323  73.719  32.394  1.00  0.00    -0.176 N 
ATOM      7  H2  UNL     1      84.250  74.504  33.041  1.00  0.00     0.186 HD
HETATM    8  C4  UNL     1      85.372  73.671  31.526  1.00  0.00     0.681 A 
HETATM    9  N5  UNL     1      85.461  72.633  30.676  1.00  0.00    -0.176 N 
ATOM     10  H5  UNL     1      86.246  72.595  30.025  1.00  0.00     0.186 HD
HETATM   11  C9  UNL     1      84.544  71.637  30.654  1.00  0.00     0.130 A 
HETATM   12  C10 UNL     1      83.495  71.699  31.533  1.00  0.00     0.075 A 
HETATM   13  C11 UNL     1      82.445  70.816  31.706  1.00  0.00     0.084 A 
HETATM   14  C12 UNL     1      82.192  69.583  30.978  1.00  0.00     0.102 C 
HETATM   15  N7  UNL     1      81.988  68.591  30.418  1.00  0.00    -0.191 NA
ENDROOT
BRANCH  11  16
HETATM   16  N6  UNL     1      84.635  70.644  29.837  1.00  0.00    -0.384 N 
ATOM     17  H62 UNL     1      85.350  70.651  29.110  1.00  0.00     0.157 HD
ATOM     18  H61 UNL     1      84.007  69.841  29.891  1.00  0.00     0.157 HD
ENDBRANCH  11  16
BRANCH   8  19
HETATM   19  N3  UNL     1      86.271  74.580  31.498  1.00  0.00    -0.224 N 
ATOM     20  H3  UNL     1      86.353  75.165  32.329  1.00  0.00     0.177 HD
BRANCH  19  21
HETATM   21  C5  UNL     1      87.170  74.863  30.434  1.00  0.00     0.157 C 
BRANCH  21  22
HETATM   22  C6  UNL     1      88.592  74.520  30.875  1.00  0.00     0.136 C 
BRANCH  22  23
HETATM   23  N4  UNL     1      88.930  73.148  30.724  1.00  0.00    -0.419 N 
HETATM   24  C7  UNL     1      89.008  72.366  31.896  1.00  0.00     0.142 C 
HETATM   25  C8  UNL     1      88.594  72.499  29.526  1.00  0.00     0.142 C 
ENDBRANCH  22  23
ENDBRANCH  21  22
ENDBRANCH  19  21
ENDBRANCH   8  19
TORSDOF 5
ENDMDL
MODEL 3
REMARK VINA RESULT: -6.550547739      2.782      5.142
REMARK  5 active torsions:
REMARK  status: ('A' for Active; 'I' for Inactive)
REMARK    1  A    between atoms: C4_8  and  N3_9 
REMARK    2  A    between atoms: N3_9  and  C5_11 
REMARK    3  A    between atoms: C5_11  and  C6_12 
REMARK    4  A    between atoms: C6_12  and  N4_13 
REMARK    5  A    between atoms: C9_18  and  N6_19 
ROOT
HETATM    1  C1  UNL     1      93.544  72.072  29.652  1.00  0.00     0.070 C 
HETATM    2  C2  UNL     1      92.096  72.201  29.873  1.00  0.00     0.029 A 
HETATM    3  N1  UNL     1      91.518  73.003  30.791  1.00  0.00    -0.344 N 
ATOM      4  H1  UNL     1      92.028  73.608  31.435  1.00  0.00     0.167 HD
HETATM    5  C3  UNL     1      90.183  72.898  30.742  1.00  0.00     0.137 A 
HETATM    6  N2  UNL     1      89.145  73.444  31.397  1.00  0.00    -0.176 N 
ATOM      7  H2  UNL     1      89.326  74.120  32.139  1.00  0.00     0.186 HD
HETATM    8  C4  UNL     1      87.856  73.119  31.098  1.00  0.00     0.681 A 
HETATM    9  N5  UNL     1      87.626  72.226  30.119  1.00  0.00    -0.176 N 
ATOM     10  H5  UNL     1      86.661  71.981  29.893  1.00  0.00     0.186 HD
HETATM   11  C9  UNL     1      88.629  71.640  29.424  1.00  0.00     0.130 A 
HETATM   12  C10 UNL     1      89.920  71.978  29.736  1.00  0.00     0.075 A 
HETATM   13  C11 UNL     1      91.102  71.528  29.178  1.00  0.00     0.084 A 
HETATM   14  C12 UNL     1      91.266  70.563  28.103  1.00  0.00     0.102 C 
HETATM   15  N7  UNL     1      91.409  69.808  27.237  1.00  0.00    -0.191 NA
ENDROOT
BRANCH  11  16
HETATM   16  N6  UNL     1      88.402  70.785  28.486  1.00  0.00    -0.384 N 
ATOM     17  H62 UNL     1      88.615  71.028  27.519  1.00  0.00     0.157 HD
ATOM     18  H61 UNL     1      88.012  69.863  28.680  1.00  0.00     0.157 HD
ENDBRANCH  11  16
BRANCH   8  19
HETATM   19  N3  UNL     1      86.864  73.637  31.717  1.00  0.00    -0.224 N 
ATOM     20  H3  UNL     1      87.032  73.931  32.679  1.00  0.00     0.177 HD
BRANCH  19  21
HETATM   21  C5  UNL     1      85.554  73.847  31.209  1.00  0.00     0.157 C 
BRANCH  21  22
HETATM   22  C6  UNL     1      84.539  73.583  32.320  1.00  0.00     0.136 C 
BRANCH  22  23
HETATM   23  N4  UNL     1      83.607  72.552  32.020  1.00  0.00    -0.419 N 
HETATM   24  C7  UNL     1      84.033  71.526  31.150  1.00  0.00     0.142 C 
HETATM   25  C8  UNL     1      82.621  72.237  32.969  1.00  0.00     0.142 C 
ENDBRANCH  22  23
ENDBRANCH  21  22
ENDBRANCH  19  21
ENDBRANCH   8  19
TORSDOF 5
ENDMDL
MODEL 4
REMARK VINA RESULT: -6.352426487      2.804      5.009
REMARK  5 active torsions:
REMARK  status: ('A' for Active; 'I' for Inactive)
REMARK    1  A    between atoms: C4_8  and  N3_9 
REMARK    2  A    between atoms: N3_9  and  C5_11 
REMARK    3  A    between atoms: C5_11  and  C6_12 
REMARK    4  A    between atoms: C6_12  and  N4_13 
REMARK    5  A    between atoms: C9_18  and  N6_19 
ROOT
HETATM    1  C1  UNL     1      91.002  69.638  27.384  1.00  0.00     0.070 C 
HETATM    2  C2  UNL     1      90.379  70.553  28.352  1.00  0.00     0.029 A 
HETATM    3  N1  UNL     1      89.056  70.640  28.599  1.00  0.00    -0.344 N 
ATOM      4  H1  UNL     1      88.341  70.078  28.136  1.00  0.00     0.167 HD
HETATM    5  C3  UNL     1      88.806  71.566  29.535  1.00  0.00     0.137 A 
HETATM    6  N2  UNL     1      87.713  72.053  30.147  1.00  0.00    -0.176 N 
ATOM      7  H2  UNL     1      86.797  71.682  29.895  1.00  0.00     0.186 HD
HETATM    8  C4  UNL     1      87.797  73.028  31.094  1.00  0.00     0.681 A 
HETATM    9  N5  UNL     1      89.008  73.511  31.420  1.00  0.00    -0.176 N 
ATOM     10  H5  UNL     1      89.073  74.242  32.130  1.00  0.00     0.186 HD
HETATM   11  C9  UNL     1      90.145  73.062  30.838  1.00  0.00     0.130 A 
HETATM   12  C10 UNL     1      90.045  72.081  29.887  1.00  0.00     0.075 A 
HETATM   13  C11 UNL     1      91.046  71.463  29.160  1.00  0.00     0.084 A 
HETATM   14  C12 UNL     1      92.477  71.712  29.226  1.00  0.00     0.102 C 
HETATM   15  N7  UNL     1      93.619  71.889  29.281  1.00  0.00    -0.191 NA
ENDROOT
BRANCH  11  16
HETATM   16  N6  UNL     1      91.305  73.529  31.154  1.00  0.00    -0.384 N 
ATOM     17  H62 UNL     1      91.520  73.727  32.132  1.00  0.00     0.157 HD
ATOM     18  H61 UNL     1      92.023  73.711  30.454  1.00  0.00     0.157 HD
ENDBRANCH  11  16
BRANCH   8  19
HETATM   19  N3  UNL     1      86.760  73.493  31.682  1.00  0.00    -0.224 N 
ATOM     20  H3  UNL     1      86.586  73.160  32.630  1.00  0.00     0.177 HD
BRANCH  19  21
HETATM   21  C5  UNL     1      85.824  74.425  31.155  1.00  0.00     0.157 C 
BRANCH  21  22
HETATM   22  C6  UNL     1      84.600  73.668  30.643  1.00  0.00     0.136 C 
BRANCH  22  23
HETATM   23  N4  UNL     1      84.174  72.612  31.494  1.00  0.00    -0.419 N 
HETATM   24  C7  UNL     1      83.278  72.938  32.533  1.00  0.00     0.142 C 
HETATM   25  C8  UNL     1      84.131  71.307  30.979  1.00  0.00     0.142 C 
ENDBRANCH  22  23
ENDBRANCH  21  22
ENDBRANCH  19  21
ENDBRANCH   8  19
TORSDOF 5
ENDMDL
MODEL 5
REMARK VINA RESULT: -6.297842372      2.353      6.278
REMARK  5 active torsions:
REMARK  status: ('A' for Active; 'I' for Inactive)
REMARK    1  A    between atoms: C4_8  and  N3_9 
REMARK    2  A    between atoms: N3_9  and  C5_11 
REMARK    3  A    between atoms: C5_11  and  C6_12 
REMARK    4  A    between atoms: C6_12  and  N4_13 
REMARK    5  A    between atoms: C9_18  and  N6_19 
ROOT
HETATM    1  C1  UNL     1      83.727  69.351  30.163  1.00  0.00     0.070 C 
HETATM    2  C2  UNL     1      84.661  70.464  30.389  1.00  0.00     0.029 A 
HETATM    3  N1  UNL     1      85.914  70.540  29.895  1.00  0.00    -0.344 N 
ATOM      4  H1  UNL     1      86.350  69.827  29.309  1.00  0.00     0.167 HD
HETATM    5  C3  UNL     1      86.509  71.677  30.278  1.00  0.00     0.137 A 
HETATM    6  N2  UNL     1      87.707  72.255  30.087  1.00  0.00    -0.176 N 
ATOM      7  H2  UNL     1      88.405  71.774  29.519  1.00  0.00     0.186 HD
HETATM    8  C4  UNL     1      88.014  73.465  30.630  1.00  0.00     0.681 A 
HETATM    9  N5  UNL     1      87.089  74.093  31.377  1.00  0.00    -0.176 N 
ATOM     10  H5  UNL     1      87.318  75.000  31.785  1.00  0.00     0.186 HD
HETATM   11  C9  UNL     1      85.865  73.562  31.607  1.00  0.00     0.130 A 
HETATM   12  C10 UNL     1      85.570  72.344  31.053  1.00  0.00     0.075 A 
HETATM   13  C11 UNL     1      84.406  71.603  31.138  1.00  0.00     0.084 A 
HETATM   14  C12 UNL     1      83.186  71.943  31.853  1.00  0.00     0.102 C 
HETATM   15  N7  UNL     1      82.204  72.210  32.404  1.00  0.00    -0.191 NA
ENDROOT
BRANCH  11  16
HETATM   16  N6  UNL     1      84.982  74.168  32.325  1.00  0.00    -0.384 N 
ATOM     17  H62 UNL     1      84.464  73.649  33.033  1.00  0.00     0.157 HD
ATOM     18  H61 UNL     1      84.779  75.160  32.207  1.00  0.00     0.157 HD
ENDBRANCH  11  16
BRANCH   8  19
HETATM   19  N3  UNL     1      89.153  74.021  30.449  1.00  0.00    -0.224 N 
ATOM     20  H3  UNL     1      89.278  74.527  29.573  1.00  0.00     0.177 HD
BRANCH  19  21
HETATM   21  C5  UNL     1      90.262  74.007  31.337  1.00  0.00     0.157 C 
BRANCH  21  22
HETATM   22  C6  UNL     1      91.264  72.952  30.870  1.00  0.00     0.136 C 
BRANCH  22  23
HETATM   23  N4  UNL     1      91.503  71.921  31.819  1.00  0.00    -0.419 N 
HETATM   24  C7  UNL     1      92.828  71.456  31.952  1.00  0.00     0.142 C 
HETATM   25  C8  UNL     1      90.662  71.828  32.940  1.00  0.00     0.142 C 
ENDBRANCH  22  23
ENDBRANCH  21  22
ENDBRANCH  19  21
ENDBRANCH   8  19
TORSDOF 5
ENDMDL
