MODEL 1
REMARK VINA RESULT: -6.881126738      0.000      0.000
REMARK  5 active torsions:
REMARK  status: ('A' for Active; 'I' for Inactive)
REMARK       I    between atoms: C1_2  and  N2_4 
REMARK       I    between atoms: N2_4  and  C2_6 
REMARK    1  A    between atoms: C2_6  and  C3_8 
REMARK    2  A    between atoms: C4_9  and  O3_10 
REMARK    3  A    between atoms: O3_10  and  C5_11 
REMARK       I    between atoms: C5_11  and  N3_13 
REMARK    4  A    between atoms: N3_13  and  C6_15 
REMARK    5  A    between atoms: C10_19  and  N4_20 
ROOT
HETATM    1  C5  UNL     1      84.628  71.860  31.204  1.00  0.00     0.365 C 
HETATM    2  O4  UNL     1      83.866  72.809  31.495  1.00  0.00    -0.238 OA
HETATM    3  N3  UNL     1      84.078  70.578  30.869  1.00  0.00    -0.330 N 
ATOM      4  H3  UNL     1      84.698  69.803  30.630  1.00  0.00     0.165 HD
ENDROOT
BRANCH   1   5
HETATM    5  O3  UNL     1      85.965  72.059  31.207  1.00  0.00    -0.274 OA
BRANCH   5   6
HETATM    6  C4  UNL     1      86.701  73.198  31.157  1.00  0.00     0.153 C 
HETATM    7  C3  UNL     1      87.658  73.542  30.345  1.00  0.00     0.099 C 
BRANCH   7   8
HETATM    8  C2  UNL     1      88.307  74.854  30.503  1.00  0.00     0.250 C 
HETATM    9  N2  UNL     1      89.533  74.947  31.195  1.00  0.00    -0.278 N 
HETATM   10  C1  UNL     1      90.161  76.204  31.349  1.00  0.00     0.335 C 
ATOM     11  H2  UNL     1      89.965  74.108  31.584  1.00  0.00     0.173 HD
HETATM   12  N1  UNL     1      89.586  77.380  30.823  1.00  0.00    -0.040 NA
HETATM   13  O1  UNL     1      91.239  76.289  31.958  1.00  0.00    -0.251 OA
HETATM   14  O2  UNL     1      87.767  75.884  30.021  1.00  0.00    -0.268 OA
ENDBRANCH   7   8
ENDBRANCH   5   6
ENDBRANCH   1   5
BRANCH   3  15
HETATM   15  C6  UNL     1      82.627  70.380  30.870  1.00  0.00     0.117 C 
HETATM   16  C7  UNL     1      82.386  69.078  30.110  1.00  0.00     0.027 C 
HETATM   17  C8  UNL     1      82.378  68.064  31.253  1.00  0.00     0.004 C 
HETATM   18  C9  UNL     1      81.522  68.796  32.268  1.00  0.00     0.035 C 
HETATM   19  C10 UNL     1      82.135  70.163  32.265  1.00  0.00     0.206 C 
BRANCH  19  20
HETATM   20  N4  UNL     1      81.196  71.214  32.585  1.00  0.00    -0.073 N 
ATOM     21  H43 UNL     1      80.306  71.107  32.097  1.00  0.00     0.274 HD
ATOM     22  H42 UNL     1      80.841  71.145  33.539  1.00  0.00     0.274 HD
ATOM     23  H41 UNL     1      81.641  72.112  32.396  1.00  0.00     0.274 HD
ENDBRANCH  19  20
ENDBRANCH   3  15
TORSDOF 5
ENDMDL
MODEL 2
REMARK VINA RESULT: -6.872956728      5.660      6.672
REMARK  5 active torsions:
REMARK  status: ('A' for Active; 'I' for Inactive)
REMARK       I    between atoms: C1_2  and  N2_4 
REMARK       I    between atoms: N2_4  and  C2_6 
REMARK    1  A    between atoms: C2_6  and  C3_8 
REMARK    2  A    between atoms: C4_9  and  O3_10 
REMARK    3  A    between atoms: O3_10  and  C5_11 
REMARK       I    between atoms: C5_11  and  N3_13 
REMARK    4  A    between atoms: N3_13  and  C6_15 
REMARK    5  A    between atoms: C10_19  and  N4_20 
ROOT
HETATM    1  C5  UNL     1      90.326  70.189  28.179  1.00  0.00     0.365 C 
HETATM    2  O4  UNL     1      91.472  70.417  27.731  1.00  0.00    -0.238 OA
HETATM    3  N3  UNL     1      89.432  69.331  27.455  1.00  0.00    -0.330 N 
ATOM      4  H3  UNL     1      88.498  69.144  27.820  1.00  0.00     0.165 HD
ENDROOT
BRANCH   1   5
HETATM    5  O3  UNL     1      89.946  70.755  29.347  1.00  0.00    -0.274 OA
BRANCH   5   6
HETATM    6  C4  UNL     1      90.213  71.974  29.879  1.00  0.00     0.153 C 
HETATM    7  C3  UNL     1      89.575  72.647  30.791  1.00  0.00     0.099 C 
BRANCH   7   8
HETATM    8  C2  UNL     1      90.076  73.970  31.201  1.00  0.00     0.250 C 
HETATM    9  N2  UNL     1      89.387  75.133  30.799  1.00  0.00    -0.278 N 
HETATM   10  C1  UNL     1      89.864  76.405  31.190  1.00  0.00     0.335 C 
ATOM     11  H2  UNL     1      88.546  75.056  30.227  1.00  0.00     0.173 HD
HETATM   12  N1  UNL     1      91.025  76.541  31.981  1.00  0.00    -0.040 NA
HETATM   13  O1  UNL     1      89.260  77.430  30.839  1.00  0.00    -0.251 OA
HETATM   14  O2  UNL     1      91.115  74.056  31.907  1.00  0.00    -0.268 OA
ENDBRANCH   7   8
ENDBRANCH   5   6
ENDBRANCH   1   5
BRANCH   3  15
HETATM   15  C6  UNL     1      89.860  68.726  26.192  1.00  0.00     0.117 C 
HETATM   16  C7  UNL     1      89.873  67.219  26.439  1.00  0.00     0.027 C 
HETATM   17  C8  UNL     1      88.468  66.831  25.980  1.00  0.00     0.004 C 
HETATM   18  C9  UNL     1      88.366  67.627  24.694  1.00  0.00     0.035 C 
HETATM   19  C10 UNL     1      88.843  68.980  25.126  1.00  0.00     0.206 C 
BRANCH  19  20
HETATM   20  N4  UNL     1      89.475  69.731  24.064  1.00  0.00    -0.073 N 
ATOM     21  H43 UNL     1      90.043  70.503  24.414  1.00  0.00     0.274 HD
ATOM     22  H42 UNL     1      90.218  69.208  23.603  1.00  0.00     0.274 HD
ATOM     23  H41 UNL     1      88.751  70.040  23.415  1.00  0.00     0.274 HD
ENDBRANCH  19  20
ENDBRANCH   3  15
TORSDOF 5
ENDMDL
MODEL 3
REMARK VINA RESULT: -6.789503562      4.402      5.878
REMARK  5 active torsions:
REMARK  status: ('A' for Active; 'I' for Inactive)
REMARK       I    between atoms: C1_2  and  N2_4 
REMARK       I    between atoms: N2_4  and  C2_6 
REMARK    1  A    between atoms: C2_6  and  C3_8 
REMARK    2  A    between atoms: C4_9  and  O3_10 
REMARK    3  A    between atoms: O3_10  and  C5_11 
REMARK       I    between atoms: C5_11  and  N3_13 
REMARK    4  A    between atoms: N3_13  and  C6_15 
REMARK    5  A    between atoms: C10_19  and  N4_20 
ROOT
HETATM    1  C5  UNL     1      87.582  73.073  30.253  1.00  0.00     0.365 C 
HETATM    2  O4  UNL     1      87.534  73.832  29.259  1.00  0.00    -0.238 OA
HETATM    3  N3  UNL     1      86.369  72.674  30.907  1.00  0.00    -0.330 N 
ATOM      4  H3  UNL     1      86.406  72.054  31.717  1.00  0.00     0.165 HD
ENDROOT
BRANCH   1   5
HETATM    5  O3  UNL     1      88.782  72.636  30.696  1.00  0.00    -0.274 OA
BRANCH   5   6
HETATM    6  C4  UNL     1      89.128  71.525  31.395  1.00  0.00     0.153 C 
HETATM    7  C3  UNL     1      89.582  71.406  32.608  1.00  0.00     0.099 C 
BRANCH   7   8
HETATM    8  C2  UNL     1      89.886  70.068  33.141  1.00  0.00     0.250 C 
HETATM    9  N2  UNL     1      90.932  69.311  32.573  1.00  0.00    -0.278 N 
HETATM   10  C1  UNL     1      91.229  68.026  33.082  1.00  0.00     0.335 C 
ATOM     11  H2  UNL     1      91.474  69.691  31.797  1.00  0.00     0.173 HD
HETATM   12  N1  UNL     1      90.495  67.475  34.155  1.00  0.00    -0.040 NA
HETATM   13  O1  UNL     1      92.148  67.358  32.585  1.00  0.00    -0.251 OA
HETATM   14  O2  UNL     1      89.212  69.606  34.099  1.00  0.00    -0.268 OA
ENDBRANCH   7   8
ENDBRANCH   5   6
ENDBRANCH   1   5
BRANCH   3  15
HETATM   15  C6  UNL     1      85.077  73.156  30.413  1.00  0.00     0.117 C 
HETATM   16  C7  UNL     1      84.021  72.318  31.131  1.00  0.00     0.027 C 
HETATM   17  C8  UNL     1      83.719  73.196  32.344  1.00  0.00     0.004 C 
HETATM   18  C9  UNL     1      83.629  74.559  31.686  1.00  0.00     0.035 C 
HETATM   19  C10 UNL     1      84.860  74.575  30.832  1.00  0.00     0.206 C 
BRANCH  19  20
HETATM   20  N4  UNL     1      84.722  75.385  29.643  1.00  0.00    -0.073 N 
ATOM     21  H43 UNL     1      84.930  74.866  28.789  1.00  0.00     0.274 HD
ATOM     22  H42 UNL     1      83.750  75.613  29.434  1.00  0.00     0.274 HD
ATOM     23  H41 UNL     1      85.305  76.215  29.750  1.00  0.00     0.274 HD
ENDBRANCH  19  20
ENDBRANCH   3  15
TORSDOF 5
ENDMDL
MODEL 4
REMARK VINA RESULT: -6.751431171      1.269      1.837
REMARK  5 active torsions:
REMARK  status: ('A' for Active; 'I' for Inactive)
REMARK       I    between atoms: C1_2  and  N2_4 
REMARK       I    between atoms: N2_4  and  C2_6 
REMARK    1  A    between atoms: C2_6  and  C3_8 
REMARK    2  A    between atoms: C4_9  and  O3_10 
REMARK    3  A    between atoms: O3_10  and  C5_11 
REMARK       I    between atoms: C5_11  and  N3_13 
REMARK    4  A    between atoms: N3_13  and  C6_15 
REMARK    5  A    between atoms: C10_19  and  N4_20 
ROOT
HETATM    1  C5  UNL     1      84.994  71.540  30.737  1.00  0.00     0.365 C 
HETATM    2  O4  UNL     1      85.539  70.430  30.930  1.00  0.00    -0.238 OA
HETATM    3  N3  UNL     1      83.777  71.868  31.422  1.00  0.00    -0.330 N 
ATOM      4  H3  UNL     1      83.332  72.773  31.266  1.00  0.00     0.165 HD
ENDROOT
BRANCH   1   5
HETATM    5  O3  UNL     1      85.565  72.420  29.884  1.00  0.00    -0.274 OA
BRANCH   5   6
HETATM    6  C4  UNL     1      86.362  73.495  30.107  1.00  0.00     0.153 C 
HETATM    7  C3  UNL     1      87.658  73.577  30.179  1.00  0.00     0.099 C 
BRANCH   7   8
HETATM    8  C2  UNL     1      88.290  74.881  30.435  1.00  0.00     0.250 C 
HETATM    9  N2  UNL     1      89.513  74.939  31.137  1.00  0.00    -0.278 N 
HETATM   10  C1  UNL     1      90.125  76.189  31.386  1.00  0.00     0.335 C 
ATOM     11  H2  UNL     1      89.955  74.079  31.464  1.00  0.00     0.173 HD
HETATM   12  N1  UNL     1      89.536  77.393  30.945  1.00  0.00    -0.040 NA
HETATM   13  O1  UNL     1      91.200  76.242  32.002  1.00  0.00    -0.251 OA
HETATM   14  O2  UNL     1      87.739  75.937  30.029  1.00  0.00    -0.268 OA
ENDBRANCH   7   8
ENDBRANCH   5   6
ENDBRANCH   1   5
BRANCH   3  15
HETATM   15  C6  UNL     1      83.172  70.903  32.343  1.00  0.00     0.117 C 
HETATM   16  C7  UNL     1      82.083  71.671  33.089  1.00  0.00     0.027 C 
HETATM   17  C8  UNL     1      80.863  71.380  32.215  1.00  0.00     0.004 C 
HETATM   18  C9  UNL     1      81.043  69.895  31.972  1.00  0.00     0.035 C 
HETATM   19  C10 UNL     1      82.487  69.816  31.578  1.00  0.00     0.206 C 
BRANCH  19  20
HETATM   20  N4  UNL     1      83.107  68.557  31.922  1.00  0.00    -0.073 N 
ATOM     21  H43 UNL     1      82.492  67.952  32.467  1.00  0.00     0.274 HD
ATOM     22  H42 UNL     1      83.225  67.945  31.116  1.00  0.00     0.274 HD
ATOM     23  H41 UNL     1      83.988  68.753  32.399  1.00  0.00     0.274 HD
ENDBRANCH  19  20
ENDBRANCH   3  15
TORSDOF 5
ENDMDL
MODEL 5
REMARK VINA RESULT: -6.710832679      1.437      1.677
REMARK  5 active torsions:
REMARK  status: ('A' for Active; 'I' for Inactive)
REMARK       I    between atoms: C1_2  and  N2_4 
REMARK       I    between atoms: N2_4  and  C2_6 
REMARK    1  A    between atoms: C2_6  and  C3_8 
REMARK    2  A    between atoms: C4_9  and  O3_10 
REMARK    3  A    between atoms: O3_10  and  C5_11 
REMARK       I    between atoms: C5_11  and  N3_13 
REMARK    4  A    between atoms: N3_13  and  C6_15 
REMARK    5  A    between atoms: C10_19  and  N4_20 
ROOT
HETATM    1  C5  UNL     1      85.701  71.479  30.432  1.00  0.00     0.365 C 
HETATM    2  O4  UNL     1      85.105  72.463  29.939  1.00  0.00    -0.238 OA
HETATM    3  N3  UNL     1      84.964  70.302  30.790  1.00  0.00    -0.330 N 
ATOM      4  H3  UNL     1      85.449  69.499  31.192  1.00  0.00     0.165 HD
ENDROOT
BRANCH   1   5
HETATM    5  O3  UNL     1      87.039  71.541  30.620  1.00  0.00    -0.274 OA
BRANCH   5   6
HETATM    6  C4  UNL     1      87.853  72.582  30.925  1.00  0.00     0.153 C 
HETATM    7  C3  UNL     1      89.149  72.678  30.863  1.00  0.00     0.099 C 
BRANCH   7   8
HETATM    8  C2  UNL     1      89.804  73.937  31.256  1.00  0.00     0.250 C 
HETATM    9  N2  UNL     1      89.265  75.167  30.824  1.00  0.00    -0.278 N 
HETATM   10  C1  UNL     1      89.889  76.380  31.199  1.00  0.00     0.335 C 
ATOM     11  H2  UNL     1      88.427  75.182  30.243  1.00  0.00     0.173 HD
HETATM   12  N1  UNL     1      91.050  76.389  32.001  1.00  0.00    -0.040 NA
HETATM   13  O1  UNL     1      89.418  77.463  30.821  1.00  0.00    -0.251 OA
HETATM   14  O2  UNL     1      90.838  73.910  31.973  1.00  0.00    -0.268 OA
ENDBRANCH   7   8
ENDBRANCH   5   6
ENDBRANCH   1   5
BRANCH   3  15
HETATM   15  C6  UNL     1      83.515  70.252  30.580  1.00  0.00     0.117 C 
HETATM   16  C7  UNL     1      83.192  68.791  30.272  1.00  0.00     0.027 C 
HETATM   17  C8  UNL     1      82.861  68.261  31.667  1.00  0.00     0.004 C 
HETATM   18  C9  UNL     1      81.987  69.383  32.191  1.00  0.00     0.035 C 
HETATM   19  C10 UNL     1      82.797  70.596  31.845  1.00  0.00     0.206 C 
BRANCH  19  20
HETATM   20  N4  UNL     1      81.993  71.773  31.607  1.00  0.00    -0.073 N 
ATOM     21  H43 UNL     1      82.450  72.441  30.986  1.00  0.00     0.274 HD
ATOM     22  H42 UNL     1      81.177  71.580  31.027  1.00  0.00     0.274 HD
ATOM     23  H41 UNL     1      81.746  72.181  32.509  1.00  0.00     0.274 HD
ENDBRANCH  19  20
ENDBRANCH   3  15
TORSDOF 5
ENDMDL
