MODEL 1
REMARK VINA RESULT: -7.808610335      0.000      0.000
REMARK  4 active torsions:
REMARK  status: ('A' for Active; 'I' for Inactive)
REMARK    1  A    between atoms: C4_11  and  N4_12 
REMARK    2  A    between atoms: N4_12  and  C5_14 
REMARK    3  A    between atoms: C5_14  and  C6_15 
REMARK    4  A    between atoms: N5_16  and  N6_18 
ROOT
HETATM    1  N1  UNL     1      14.803   7.802  13.715  1.00  0.00    -0.234 N 
ATOM      2  H11 UNL     1      15.149   7.788  12.755  1.00  0.00     0.174 HD
ATOM      3  H12 UNL     1      15.019   6.874  14.076  1.00  0.00     0.174 HD
HETATM    4  C1  UNL     1      14.218   8.724  14.400  1.00  0.00     0.676 A 
HETATM    5  N2  UNL     1      13.763   8.742  15.664  1.00  0.00    -0.193 N 
ATOM      6  H2  UNL     1      13.830   7.952  16.306  1.00  0.00     0.184 HD
HETATM    7  C2  UNL     1      13.213   9.923  15.981  1.00  0.00     0.066 A 
HETATM    8  C3  UNL     1      13.323  10.702  14.856  1.00  0.00     0.117 A 
HETATM    9  N3  UNL     1      13.929   9.968  13.915  1.00  0.00    -0.186 N 
ATOM     10  H3  UNL     1      14.143  10.292  12.972  1.00  0.00     0.184 HD
HETATM   11  C4  UNL     1      12.884  12.074  14.659  1.00  0.00     0.146 C 
HETATM   12  N7  UNL     1      12.281  12.875  15.463  1.00  0.00    -0.281 N 
ATOM     13  H7  UNL     1      12.076  13.802  15.091  1.00  0.00     0.188 HD
HETATM   14  N8  UNL     1      11.865  12.643  16.795  1.00  0.00    -0.268 N 
ATOM     15  H8  UNL     1      11.547  13.448  17.335  1.00  0.00     0.190 HD
HETATM   16  C7  UNL     1      11.856  11.385  17.436  1.00  0.00     0.241 C 
HETATM   17  O1  UNL     1      10.940  11.291  18.328  1.00  0.00    -0.271 OA
HETATM   18  C8  UNL     1      12.652  10.169  17.310  1.00  0.00     0.164 C 
ENDROOT
BRANCH  11  19
HETATM   19  N4  UNL     1      13.159  12.632  13.380  1.00  0.00    -0.369 N 
ATOM     20  H4  UNL     1      13.992  13.214  13.296  1.00  0.00     0.161 HD
BRANCH  19  21
HETATM   21  C5  UNL     1      12.373  12.452  12.204  1.00  0.00     0.167 C 
BRANCH  21  22
HETATM   22  C6  UNL     1      13.120  11.789  11.111  1.00  0.00     0.099 C 
HETATM   23  N5  UNL     1      14.380  11.644  11.223  1.00  0.00    -0.321 N 
ATOM     24  H5  UNL     1      14.857  11.985  12.058  1.00  0.00     0.185 HD
BRANCH  23  25
HETATM   25  N6  UNL     1      15.105  11.028  10.222  1.00  0.00    -0.346 N 
ATOM     26  H62 UNL     1      14.728  10.184   9.791  1.00  0.00     0.176 HD
ATOM     27  H61 UNL     1      16.000  11.413   9.921  1.00  0.00     0.176 HD
ENDBRANCH  23  25
ENDBRANCH  21  22
ENDBRANCH  19  21
ENDBRANCH  11  19
TORSDOF 4
ENDMDL
MODEL 2
REMARK VINA RESULT: -7.705100799      1.772      4.377
REMARK  4 active torsions:
REMARK  status: ('A' for Active; 'I' for Inactive)
REMARK    1  A    between atoms: C4_11  and  N4_12 
REMARK    2  A    between atoms: N4_12  and  C5_14 
REMARK    3  A    between atoms: C5_14  and  C6_15 
REMARK    4  A    between atoms: N5_16  and  N6_18 
ROOT
HETATM    1  N1  UNL     1      12.775  12.690  10.836  1.00  0.00    -0.234 N 
ATOM      2  H11 UNL     1      13.002  12.128  10.016  1.00  0.00     0.174 HD
ATOM      3  H12 UNL     1      12.492  13.593  10.455  1.00  0.00     0.174 HD
HETATM    4  C1  UNL     1      12.805  12.418  12.095  1.00  0.00     0.676 A 
HETATM    5  N2  UNL     1      12.506  13.159  13.175  1.00  0.00    -0.193 N 
ATOM      6  H2  UNL     1      12.185  14.126  13.132  1.00  0.00     0.184 HD
HETATM    7  C2  UNL     1      12.679  12.475  14.315  1.00  0.00     0.066 A 
HETATM    8  C3  UNL     1      13.113  11.228  13.942  1.00  0.00     0.117 A 
HETATM    9  N3  UNL     1      13.184  11.208  12.606  1.00  0.00    -0.186 N 
ATOM     10  H3  UNL     1      13.479  10.406  12.048  1.00  0.00     0.184 HD
HETATM   11  C4  UNL     1      13.450  10.094  14.789  1.00  0.00     0.146 C 
HETATM   12  N7  UNL     1      13.444   9.987  16.070  1.00  0.00    -0.281 N 
ATOM     13  H7  UNL     1      13.724   9.078  16.438  1.00  0.00     0.188 HD
HETATM   14  N8  UNL     1      13.101  10.961  17.037  1.00  0.00    -0.268 N 
ATOM     15  H8  UNL     1      12.998  10.648  18.002  1.00  0.00     0.190 HD
HETATM   16  C7  UNL     1      12.890  12.331  16.771  1.00  0.00     0.241 C 
HETATM   17  O1  UNL     1      13.187  13.080  17.768  1.00  0.00    -0.271 OA
HETATM   18  C8  UNL     1      12.412  13.086  15.618  1.00  0.00     0.164 C 
ENDROOT
BRANCH  11  19
HETATM   19  N4  UNL     1      13.851   8.912  14.108  1.00  0.00    -0.369 N 
ATOM     20  H4  UNL     1      13.520   8.792  13.151  1.00  0.00     0.161 HD
BRANCH  19  21
HETATM   21  C5  UNL     1      14.675   7.879  14.644  1.00  0.00     0.167 C 
BRANCH  21  22
HETATM   22  C6  UNL     1      14.622   6.632  13.847  1.00  0.00     0.099 C 
HETATM   23  N5  UNL     1      14.010   5.622  14.322  1.00  0.00    -0.321 N 
ATOM     24  H5  UNL     1      13.567   5.682  15.240  1.00  0.00     0.185 HD
BRANCH  23  25
HETATM   25  N6  UNL     1      13.940   4.445  13.603  1.00  0.00    -0.346 N 
ATOM     26  H62 UNL     1      13.526   3.623  14.044  1.00  0.00     0.176 HD
ATOM     27  H61 UNL     1      14.297   4.401  12.649  1.00  0.00     0.176 HD
ENDBRANCH  23  25
ENDBRANCH  21  22
ENDBRANCH  19  21
ENDBRANCH  11  19
TORSDOF 4
ENDMDL
MODEL 3
REMARK VINA RESULT: -7.658144373      2.491      5.257
REMARK  4 active torsions:
REMARK  status: ('A' for Active; 'I' for Inactive)
REMARK    1  A    between atoms: C4_11  and  N4_12 
REMARK    2  A    between atoms: N4_12  and  C5_14 
REMARK    3  A    between atoms: C5_14  and  C6_15 
REMARK    4  A    between atoms: N5_16  and  N6_18 
ROOT
HETATM    1  N1  UNL     1      11.498  11.947  17.335  1.00  0.00    -0.234 N 
ATOM      2  H11 UNL     1      11.567  11.344  18.156  1.00  0.00     0.174 HD
ATOM      3  H12 UNL     1      10.956  12.749  17.654  1.00  0.00     0.174 HD
HETATM    4  C1  UNL     1      11.952  11.814  16.136  1.00  0.00     0.676 A 
HETATM    5  N2  UNL     1      11.862  12.607  15.056  1.00  0.00    -0.193 N 
ATOM      6  H2  UNL     1      11.374  13.504  15.045  1.00  0.00     0.184 HD
HETATM    7  C2  UNL     1      12.488  12.081  13.994  1.00  0.00     0.066 A 
HETATM    8  C3  UNL     1      13.009  10.885  14.421  1.00  0.00     0.117 A 
HETATM    9  N3  UNL     1      12.679  10.738  15.709  1.00  0.00    -0.186 N 
ATOM     10  H3  UNL     1      12.933   9.939  16.289  1.00  0.00     0.184 HD
HETATM   11  C4  UNL     1      13.783   9.913  13.665  1.00  0.00     0.146 C 
HETATM   12  N7  UNL     1      14.149   9.923  12.433  1.00  0.00    -0.281 N 
ATOM     13  H7  UNL     1      14.695   9.117  12.128  1.00  0.00     0.188 HD
HETATM   14  N8  UNL     1      13.896  10.901  11.443  1.00  0.00    -0.268 N 
ATOM     15  H8  UNL     1      14.402  10.820  10.561  1.00  0.00     0.190 HD
HETATM   16  C7  UNL     1      12.997  11.982  11.580  1.00  0.00     0.241 C 
HETATM   17  O1  UNL     1      12.486  12.345  10.462  1.00  0.00    -0.271 OA
HETATM   18  C8  UNL     1      12.518  12.776  12.706  1.00  0.00     0.164 C 
ENDROOT
BRANCH  11  19
HETATM   19  N4  UNL     1      14.211   8.767  14.390  1.00  0.00    -0.369 N 
ATOM     20  H4  UNL     1      13.694   8.534  15.238  1.00  0.00     0.161 HD
BRANCH  19  21
HETATM   21  C5  UNL     1      15.298   7.914  14.038  1.00  0.00     0.167 C 
BRANCH  21  22
HETATM   22  C6  UNL     1      14.853   6.612  13.495  1.00  0.00     0.099 C 
HETATM   23  N5  UNL     1      14.218   5.810  14.253  1.00  0.00    -0.321 N 
ATOM     24  H5  UNL     1      14.025   6.073  15.220  1.00  0.00     0.185 HD
BRANCH  23  25
HETATM   25  N6  UNL     1      13.787   4.588  13.776  1.00  0.00    -0.346 N 
ATOM     26  H62 UNL     1      12.969   4.154  14.203  1.00  0.00     0.176 HD
ATOM     27  H61 UNL     1      14.281   4.131  13.009  1.00  0.00     0.176 HD
ENDBRANCH  23  25
ENDBRANCH  21  22
ENDBRANCH  19  21
ENDBRANCH  11  19
TORSDOF 4
ENDMDL
MODEL 4
REMARK VINA RESULT: -7.401073491      2.868      5.117
REMARK  4 active torsions:
REMARK  status: ('A' for Active; 'I' for Inactive)
REMARK    1  A    between atoms: C4_11  and  N4_12 
REMARK    2  A    between atoms: N4_12  and  C5_14 
REMARK    3  A    between atoms: C5_14  and  C6_15 
REMARK    4  A    between atoms: N5_16  and  N6_18 
ROOT
HETATM    1  N1  UNL     1      14.459   6.771  15.544  1.00  0.00    -0.234 N 
ATOM      2  H11 UNL     1      13.802   6.668  16.318  1.00  0.00     0.174 HD
ATOM      3  H12 UNL     1      15.044   5.938  15.596  1.00  0.00     0.174 HD
HETATM    4  C1  UNL     1      14.599   7.696  14.658  1.00  0.00     0.676 A 
HETATM    5  N2  UNL     1      15.464   7.831  13.640  1.00  0.00    -0.193 N 
ATOM      6  H2  UNL     1      16.193   7.153  13.416  1.00  0.00     0.184 HD
HETATM    7  C2  UNL     1      15.256   8.963  12.953  1.00  0.00     0.066 A 
HETATM    8  C3  UNL     1      14.198   9.585  13.567  1.00  0.00     0.117 A 
HETATM    9  N3  UNL     1      13.814   8.812  14.590  1.00  0.00    -0.186 N 
ATOM     10  H3  UNL     1      13.046   9.026  15.226  1.00  0.00     0.184 HD
HETATM   11  C4  UNL     1      13.565  10.848  13.222  1.00  0.00     0.146 C 
HETATM   12  N7  UNL     1      13.844  11.686  12.288  1.00  0.00    -0.281 N 
ATOM     13  H7  UNL     1      13.248  12.513  12.245  1.00  0.00     0.188 HD
HETATM   14  N8  UNL     1      14.867  11.617  11.313  1.00  0.00    -0.268 N 
ATOM     15  H8  UNL     1      14.836  12.294  10.551  1.00  0.00     0.190 HD
HETATM   16  C7  UNL     1      15.926  10.683  11.313  1.00  0.00     0.241 C 
HETATM   17  O1  UNL     1      16.989  11.142  10.763  1.00  0.00    -0.271 OA
HETATM   18  C8  UNL     1      16.084   9.317  11.798  1.00  0.00     0.164 C 
ENDROOT
BRANCH  11  19
HETATM   19  N4  UNL     1      12.462  11.229  14.035  1.00  0.00    -0.369 N 
ATOM     20  H4  UNL     1      11.606  10.682  13.943  1.00  0.00     0.161 HD
BRANCH  19  21
HETATM   21  C5  UNL     1      12.445  12.308  14.967  1.00  0.00     0.167 C 
BRANCH  21  22
HETATM   22  C6  UNL     1      12.410  11.850  16.374  1.00  0.00     0.099 C 
HETATM   23  N5  UNL     1      11.306  11.881  17.007  1.00  0.00    -0.321 N 
ATOM     24  H5  UNL     1      10.464  12.219  16.541  1.00  0.00     0.185 HD
BRANCH  23  25
HETATM   25  N6  UNL     1      11.241  11.459  18.320  1.00  0.00    -0.346 N 
ATOM     26  H62 UNL     1      10.593  10.709  18.564  1.00  0.00     0.176 HD
ATOM     27  H61 UNL     1      11.831  11.891  19.031  1.00  0.00     0.176 HD
ENDBRANCH  23  25
ENDBRANCH  21  22
ENDBRANCH  19  21
ENDBRANCH  11  19
TORSDOF 4
ENDMDL
MODEL 5
REMARK VINA RESULT: -7.388417830      1.712      3.551
REMARK  4 active torsions:
REMARK  status: ('A' for Active; 'I' for Inactive)
REMARK    1  A    between atoms: C4_11  and  N4_12 
REMARK    2  A    between atoms: N4_12  and  C5_14 
REMARK    3  A    between atoms: C5_14  and  C6_15 
REMARK    4  A    between atoms: N5_16  and  N6_18 
ROOT
HETATM    1  N1  UNL     1      12.736  12.754  10.840  1.00  0.00    -0.234 N 
ATOM      2  H11 UNL     1      12.920  12.192  10.008  1.00  0.00     0.174 HD
ATOM      3  H12 UNL     1      12.481  13.672  10.475  1.00  0.00     0.174 HD
HETATM    4  C1  UNL     1      12.787  12.466  12.095  1.00  0.00     0.676 A 
HETATM    5  N2  UNL     1      12.545  13.206  13.190  1.00  0.00    -0.193 N 
ATOM      6  H2  UNL     1      12.261  14.186  13.166  1.00  0.00     0.184 HD
HETATM    7  C2  UNL     1      12.718  12.503  14.318  1.00  0.00     0.066 A 
HETATM    8  C3  UNL     1      13.093  11.243  13.921  1.00  0.00     0.117 A 
HETATM    9  N3  UNL     1      13.129  11.237  12.583  1.00  0.00    -0.186 N 
ATOM     10  H3  UNL     1      13.378  10.430  12.010  1.00  0.00     0.184 HD
HETATM   11  C4  UNL     1      13.405  10.088  14.747  1.00  0.00     0.146 C 
HETATM   12  N7  UNL     1      13.426   9.967  16.026  1.00  0.00    -0.281 N 
ATOM     13  H7  UNL     1      13.678   9.043  16.378  1.00  0.00     0.188 HD
HETATM   14  N8  UNL     1      13.146  10.942  17.012  1.00  0.00    -0.268 N 
ATOM     15  H8  UNL     1      13.055  10.622  17.977  1.00  0.00     0.190 HD
HETATM   16  C7  UNL     1      12.984  12.323  16.766  1.00  0.00     0.241 C 
HETATM   17  O1  UNL     1      13.336  13.047  17.763  1.00  0.00    -0.271 OA
HETATM   18  C8  UNL     1      12.508  13.109  15.633  1.00  0.00     0.164 C 
ENDROOT
BRANCH  11  19
HETATM   19  N4  UNL     1      13.741   8.899  14.044  1.00  0.00    -0.369 N 
ATOM     20  H4  UNL     1      12.970   8.355  13.655  1.00  0.00     0.161 HD
BRANCH  19  21
HETATM   21  C5  UNL     1      15.059   8.396  13.834  1.00  0.00     0.167 C 
BRANCH  21  22
HETATM   22  C6  UNL     1      15.605   8.755  12.506  1.00  0.00     0.099 C 
HETATM   23  N5  UNL     1      16.306   9.811  12.392  1.00  0.00    -0.321 N 
ATOM     24  H5  UNL     1      16.482  10.395  13.210  1.00  0.00     0.185 HD
BRANCH  23  25
HETATM   25  N6  UNL     1      16.831  10.173  11.166  1.00  0.00    -0.346 N 
ATOM     26  H62 UNL     1      17.618   9.641  10.793  1.00  0.00     0.176 HD
ATOM     27  H61 UNL     1      16.437  10.957  10.647  1.00  0.00     0.176 HD
ENDBRANCH  23  25
ENDBRANCH  21  22
ENDBRANCH  19  21
ENDBRANCH  11  19
TORSDOF 4
ENDMDL
