MODEL 1
REMARK VINA RESULT: -6.545929842      0.000      0.000
REMARK  4 active torsions:
REMARK  status: ('A' for Active; 'I' for Inactive)
REMARK    1  A    between atoms: C2_2  and  C3_3 
REMARK    2  A    between atoms: C3_3  and  C4_4 
REMARK    3  A    between atoms: C4_4  and  C6_6 
REMARK    4  A    between atoms: C22_22  and  O1_23 
ROOT
HETATM    1  C6  UNL     1      -6.622  20.021  -2.867  1.00  0.00    -0.006 C 
HETATM    2  C7  UNL     1      -6.606  20.818  -4.125  1.00  0.00     0.006 C 
HETATM    3  C8  UNL     1      -5.265  20.541  -4.793  1.00  0.00     0.010 C 
HETATM    4  C9  UNL     1      -4.928  19.172  -4.247  1.00  0.00     0.019 C 
HETATM    5  C10 UNL     1      -3.499  18.841  -4.380  1.00  0.00    -0.068 C 
HETATM    6  C11 UNL     1      -3.099  18.457  -5.591  1.00  0.00    -0.022 C 
HETATM    7  C12 UNL     1      -1.713  18.084  -5.932  1.00  0.00     0.032 C 
HETATM    8  C13 UNL     1      -0.770  18.323  -4.821  1.00  0.00    -0.005 C 
HETATM    9  C14 UNL     1       0.624  18.599  -5.312  1.00  0.00     0.009 C 
HETATM   10  C15 UNL     1       1.013  20.047  -5.168  1.00  0.00    -0.018 C 
HETATM   11  C16 UNL     1       2.444  20.208  -5.609  1.00  0.00     0.010 C 
HETATM   12  C17 UNL     1       0.882  20.553  -3.770  1.00  0.00     0.005 C 
HETATM   13  C18 UNL     1      -0.083  19.656  -2.974  1.00  0.00     0.006 C 
HETATM   14  C19 UNL     1      -1.248  19.394  -3.828  1.00  0.00     0.005 C 
HETATM   15  C20 UNL     1      -2.511  18.922  -3.235  1.00  0.00     0.009 C 
HETATM   16  C21 UNL     1      -2.342  17.510  -2.694  1.00  0.00     0.023 C 
HETATM   17  C22 UNL     1      -3.131  19.788  -2.205  1.00  0.00     0.131 C 
HETATM   18  C23 UNL     1      -4.500  19.401  -1.790  1.00  0.00     0.038 C 
HETATM   19  C24 UNL     1      -5.476  19.079  -2.861  1.00  0.00     0.001 C 
ENDROOT
BRANCH   1  20
HETATM   20  C4  UNL     1      -7.972  19.378  -2.584  1.00  0.00    -0.014 C 
HETATM   21  C5  UNL     1      -9.111  20.196  -3.036  1.00  0.00     0.010 C 
BRANCH  20  22
HETATM   22  C3  UNL     1      -7.996  19.060  -1.131  1.00  0.00     0.004 C 
BRANCH  22  23
HETATM   23  C2  UNL     1      -8.447  17.721  -0.711  1.00  0.00    -0.004 C 
HETATM   24  C1  UNL     1      -9.799  17.258  -1.119  1.00  0.00     0.005 C 
ENDBRANCH  22  23
ENDBRANCH  20  22
ENDBRANCH   1  20
BRANCH  17  25
HETATM   25  O1  UNL     1      -2.404  19.800  -0.989  1.00  0.00    -0.394 OA
ATOM     26  H1  UNL     1      -2.669  20.504  -0.410  1.00  0.00     0.210 HD
ENDBRANCH  17  25
TORSDOF 4
ENDMDL
MODEL 2
REMARK VINA RESULT: -6.396823550      1.678      7.389
REMARK  4 active torsions:
REMARK  status: ('A' for Active; 'I' for Inactive)
REMARK    1  A    between atoms: C2_2  and  C3_3 
REMARK    2  A    between atoms: C3_3  and  C4_4 
REMARK    3  A    between atoms: C4_4  and  C6_6 
REMARK    4  A    between atoms: C22_22  and  O1_23 
ROOT
HETATM    1  C6  UNL     1       0.934  20.756  -4.501  1.00  0.00    -0.006 C 
HETATM    2  C7  UNL     1       0.655  21.964  -3.676  1.00  0.00     0.006 C 
HETATM    3  C8  UNL     1      -0.590  21.647  -2.857  1.00  0.00     0.010 C 
HETATM    4  C9  UNL     1      -0.527  20.139  -2.775  1.00  0.00     0.019 C 
HETATM    5  C10 UNL     1      -1.819  19.533  -2.415  1.00  0.00    -0.068 C 
HETATM    6  C11 UNL     1      -2.152  19.590  -1.126  1.00  0.00    -0.022 C 
HETATM    7  C12 UNL     1      -3.401  19.042  -0.562  1.00  0.00     0.032 C 
HETATM    8  C13 UNL     1      -4.327  18.551  -1.602  1.00  0.00    -0.005 C 
HETATM    9  C14 UNL     1      -5.763  18.631  -1.164  1.00  0.00     0.009 C 
HETATM   10  C15 UNL     1      -6.519  19.737  -1.853  1.00  0.00    -0.018 C 
HETATM   11  C16 UNL     1      -7.957  19.687  -1.411  1.00  0.00     0.010 C 
HETATM   12  C17 UNL     1      -6.470  19.641  -3.343  1.00  0.00     0.005 C 
HETATM   13  C18 UNL     1      -5.269  18.781  -3.775  1.00  0.00     0.006 C 
HETATM   14  C19 UNL     1      -4.112  19.204  -2.976  1.00  0.00     0.005 C 
HETATM   15  C20 UNL     1      -2.746  18.877  -3.418  1.00  0.00     0.009 C 
HETATM   16  C21 UNL     1      -2.509  17.377  -3.326  1.00  0.00     0.023 C 
HETATM   17  C22 UNL     1      -2.337  19.373  -4.753  1.00  0.00     0.131 C 
HETATM   18  C23 UNL     1      -0.899  19.221  -5.075  1.00  0.00     0.038 C 
HETATM   19  C24 UNL     1       0.082  19.632  -4.040  1.00  0.00     0.001 C 
ENDROOT
BRANCH   1  20
HETATM   20  C4  UNL     1       2.417  20.429  -4.597  1.00  0.00    -0.014 C 
HETATM   21  C5  UNL     1       2.972  20.642  -5.945  1.00  0.00     0.010 C 
BRANCH  20  22
HETATM   22  C3  UNL     1       2.580  19.039  -4.090  1.00  0.00     0.004 C 
BRANCH  22  23
HETATM   23  C2  UNL     1       2.786  17.954  -5.065  1.00  0.00    -0.004 C 
HETATM   24  C1  UNL     1       1.683  16.989  -5.311  1.00  0.00     0.005 C 
ENDBRANCH  22  23
ENDBRANCH  20  22
ENDBRANCH   1  20
BRANCH  17  25
HETATM   25  O1  UNL     1      -2.991  18.697  -5.812  1.00  0.00    -0.394 OA
ATOM     26  H1  UNL     1      -3.835  18.345  -5.558  1.00  0.00     0.210 HD
ENDBRANCH  17  25
TORSDOF 4
ENDMDL
MODEL 3
REMARK VINA RESULT: -5.992094507      1.656      7.489
REMARK  4 active torsions:
REMARK  status: ('A' for Active; 'I' for Inactive)
REMARK    1  A    between atoms: C2_2  and  C3_3 
REMARK    2  A    between atoms: C3_3  and  C4_4 
REMARK    3  A    between atoms: C4_4  and  C6_6 
REMARK    4  A    between atoms: C22_22  and  O1_23 
ROOT
HETATM    1  C6  UNL     1       0.817  20.355  -4.199  1.00  0.00    -0.006 C 
HETATM    2  C7  UNL     1       0.577  21.594  -3.408  1.00  0.00     0.006 C 
HETATM    3  C8  UNL     1      -0.738  21.384  -2.667  1.00  0.00     0.010 C 
HETATM    4  C9  UNL     1      -0.794  19.877  -2.564  1.00  0.00     0.019 C 
HETATM    5  C10 UNL     1      -2.149  19.375  -2.282  1.00  0.00    -0.068 C 
HETATM    6  C11 UNL     1      -2.558  19.477  -1.018  1.00  0.00    -0.022 C 
HETATM    7  C12 UNL     1      -3.878  19.034  -0.530  1.00  0.00     0.032 C 
HETATM    8  C13 UNL     1      -4.770  18.596  -1.622  1.00  0.00    -0.005 C 
HETATM    9  C14 UNL     1      -6.221  18.790  -1.279  1.00  0.00     0.009 C 
HETATM   10  C15 UNL     1      -6.846  19.938  -2.029  1.00  0.00    -0.018 C 
HETATM   11  C16 UNL     1      -8.309  20.002  -1.680  1.00  0.00     0.010 C 
HETATM   12  C17 UNL     1      -6.709  19.814  -3.510  1.00  0.00     0.005 C 
HETATM   13  C18 UNL     1      -5.551  18.860  -3.854  1.00  0.00     0.006 C 
HETATM   14  C19 UNL     1      -4.419  19.209  -2.986  1.00  0.00     0.005 C 
HETATM   15  C20 UNL     1      -3.056  18.773  -3.335  1.00  0.00     0.009 C 
HETATM   16  C21 UNL     1      -2.940  17.262  -3.211  1.00  0.00     0.023 C 
HETATM   17  C22 UNL     1      -2.527  19.216  -4.646  1.00  0.00     0.131 C 
HETATM   18  C23 UNL     1      -1.086  18.952  -4.872  1.00  0.00     0.038 C 
HETATM   19  C24 UNL     1      -0.145  19.305  -3.781  1.00  0.00     0.001 C 
ENDROOT
BRANCH   1  20
HETATM   20  C4  UNL     1       2.274  19.917  -4.194  1.00  0.00    -0.014 C 
HETATM   21  C5  UNL     1       3.098  20.651  -3.219  1.00  0.00     0.010 C 
BRANCH  20  22
HETATM   22  C3  UNL     1       2.756  20.029  -5.598  1.00  0.00     0.004 C 
BRANCH  22  23
HETATM   23  C2  UNL     1       1.775  20.326  -6.657  1.00  0.00    -0.004 C 
HETATM   24  C1  UNL     1       1.264  19.212  -7.496  1.00  0.00     0.005 C 
ENDBRANCH  22  23
ENDBRANCH  20  22
ENDBRANCH   1  20
BRANCH  17  25
HETATM   25  O1  UNL     1      -3.160  18.573  -5.738  1.00  0.00    -0.394 OA
ATOM     26  H1  UNL     1      -2.551  18.089  -6.283  1.00  0.00     0.210 HD
ENDBRANCH  17  25
TORSDOF 4
ENDMDL
MODEL 4
REMARK VINA RESULT: -5.704951750      1.201      7.196
REMARK  4 active torsions:
REMARK  status: ('A' for Active; 'I' for Inactive)
REMARK    1  A    between atoms: C2_2  and  C3_3 
REMARK    2  A    between atoms: C3_3  and  C4_4 
REMARK    3  A    between atoms: C4_4  and  C6_6 
REMARK    4  A    between atoms: C22_22  and  O1_23 
ROOT
HETATM    1  C6  UNL     1      -0.216  17.617  -5.087  1.00  0.00    -0.006 C 
HETATM    2  C7  UNL     1      -1.074  16.740  -5.931  1.00  0.00     0.006 C 
HETATM    3  C8  UNL     1      -2.516  17.137  -5.637  1.00  0.00     0.010 C 
HETATM    4  C9  UNL     1      -2.354  18.573  -5.194  1.00  0.00     0.019 C 
HETATM    5  C10 UNL     1      -3.518  19.072  -4.442  1.00  0.00    -0.068 C 
HETATM    6  C11 UNL     1      -4.579  19.415  -5.171  1.00  0.00    -0.022 C 
HETATM    7  C12 UNL     1      -5.842  19.936  -4.611  1.00  0.00     0.032 C 
HETATM    8  C13 UNL     1      -5.867  19.899  -3.135  1.00  0.00    -0.005 C 
HETATM    9  C14 UNL     1      -7.265  19.767  -2.596  1.00  0.00     0.009 C 
HETATM   10  C15 UNL     1      -7.547  18.395  -2.044  1.00  0.00    -0.018 C 
HETATM   11  C16 UNL     1      -8.934  18.386  -1.460  1.00  0.00     0.010 C 
HETATM   12  C17 UNL     1      -6.578  17.978  -0.987  1.00  0.00     0.005 C 
HETATM   13  C18 UNL     1      -5.283  18.801  -1.107  1.00  0.00     0.006 C 
HETATM   14  C19 UNL     1      -4.921  18.851  -2.529  1.00  0.00     0.005 C 
HETATM   15  C20 UNL     1      -3.549  19.200  -2.933  1.00  0.00     0.009 C 
HETATM   16  C21 UNL     1      -3.259  20.657  -2.606  1.00  0.00     0.023 C 
HETATM   17  C22 UNL     1      -2.459  18.339  -2.417  1.00  0.00     0.131 C 
HETATM   18  C23 UNL     1      -1.123  18.578  -3.013  1.00  0.00     0.038 C 
HETATM   19  C24 UNL     1      -1.043  18.695  -4.490  1.00  0.00     0.001 C 
ENDROOT
BRANCH   1  20
HETATM   20  C4  UNL     1       1.033  18.102  -5.807  1.00  0.00    -0.014 C 
HETATM   21  C5  UNL     1       2.190  18.273  -4.911  1.00  0.00     0.010 C 
BRANCH  20  22
HETATM   22  C3  UNL     1       0.649  19.340  -6.539  1.00  0.00     0.004 C 
BRANCH  22  23
HETATM   23  C2  UNL     1       1.493  20.538  -6.387  1.00  0.00    -0.004 C 
HETATM   24  C1  UNL     1       0.839  21.868  -6.272  1.00  0.00     0.005 C 
ENDBRANCH  22  23
ENDBRANCH  20  22
ENDBRANCH   1  20
BRANCH  17  25
HETATM   25  O1  UNL     1      -2.240  18.507  -1.028  1.00  0.00    -0.394 OA
ATOM     26  H1  UNL     1      -1.852  19.347  -0.816  1.00  0.00     0.210 HD
ENDBRANCH  17  25
TORSDOF 4
ENDMDL
MODEL 5
REMARK VINA RESULT: -5.674654296      1.096      1.473
REMARK  4 active torsions:
REMARK  status: ('A' for Active; 'I' for Inactive)
REMARK    1  A    between atoms: C2_2  and  C3_3 
REMARK    2  A    between atoms: C3_3  and  C4_4 
REMARK    3  A    between atoms: C4_4  and  C6_6 
REMARK    4  A    between atoms: C22_22  and  O1_23 
ROOT
HETATM    1  C6  UNL     1      -5.845  20.038  -2.502  1.00  0.00    -0.006 C 
HETATM    2  C7  UNL     1      -6.055  20.009  -3.976  1.00  0.00     0.006 C 
HETATM    3  C8  UNL     1      -4.720  19.611  -4.594  1.00  0.00     0.010 C 
HETATM    4  C9  UNL     1      -4.082  18.832  -3.467  1.00  0.00     0.019 C 
HETATM    5  C10 UNL     1      -2.624  18.696  -3.623  1.00  0.00    -0.068 C 
HETATM    6  C11 UNL     1      -2.213  17.775  -4.494  1.00  0.00    -0.022 C 
HETATM    7  C12 UNL     1      -0.798  17.484  -4.794  1.00  0.00     0.032 C 
HETATM    8  C13 UNL     1       0.129  18.427  -4.136  1.00  0.00    -0.005 C 
HETATM    9  C14 UNL     1       1.410  18.590  -4.906  1.00  0.00     0.009 C 
HETATM   10  C15 UNL     1       1.499  19.919  -5.609  1.00  0.00    -0.018 C 
HETATM   11  C16 UNL     1       2.842  20.019  -6.282  1.00  0.00     0.010 C 
HETATM   12  C17 UNL     1       1.334  21.082  -4.688  1.00  0.00     0.005 C 
HETATM   13  C18 UNL     1       0.616  20.636  -3.401  1.00  0.00     0.006 C 
HETATM   14  C19 UNL     1      -0.510  19.782  -3.798  1.00  0.00     0.005 C 
HETATM   15  C20 UNL     1      -1.618  19.533  -2.860  1.00  0.00     0.009 C 
HETATM   16  C21 UNL     1      -1.136  18.690  -1.689  1.00  0.00     0.023 C 
HETATM   17  C22 UNL     1      -2.353  20.719  -2.361  1.00  0.00     0.131 C 
HETATM   18  C23 UNL     1      -3.591  20.427  -1.601  1.00  0.00     0.038 C 
HETATM   19  C24 UNL     1      -4.530  19.433  -2.176  1.00  0.00     0.001 C 
ENDROOT
BRANCH   1  20
HETATM   20  C4  UNL     1      -7.018  19.465  -1.720  1.00  0.00    -0.014 C 
HETATM   21  C5  UNL     1      -6.672  18.250  -0.964  1.00  0.00     0.010 C 
BRANCH  20  22
HETATM   22  C3  UNL     1      -8.127  19.276  -2.694  1.00  0.00     0.004 C 
BRANCH  22  23
HETATM   23  C2  UNL     1      -9.440  18.837  -2.188  1.00  0.00    -0.004 C 
HETATM   24  C1  UNL     1      -9.547  17.511  -1.525  1.00  0.00     0.005 C 
ENDBRANCH  22  23
ENDBRANCH  20  22
ENDBRANCH   1  20
BRANCH  17  25
HETATM   25  O1  UNL     1      -1.585  21.501  -1.463  1.00  0.00    -0.394 OA
ATOM     26  H1  UNL     1      -0.652  21.436  -1.625  1.00  0.00     0.210 HD
ENDBRANCH  17  25
TORSDOF 4
ENDMDL
