MODEL 1
REMARK VINA RESULT: -6.667620414      0.000      0.000
REMARK  6 active torsions:
REMARK  status: ('A' for Active; 'I' for Inactive)
REMARK    1  A    between atoms: C2_2  and  O1_5 
REMARK    2  A    between atoms: O1_5  and  C5_6 
REMARK    3  A    between atoms: C5_6  and  O3_8 
REMARK    4  A    between atoms: O3_8  and  C6_9 
REMARK    5  A    between atoms: C8_11  and  C9_12 
REMARK    6  A    between atoms: C10_13  and  C11_14 
ROOT
HETATM    1  C6  UNL     1      16.037   5.984   1.794  1.00  0.00     0.196 A 
HETATM    2  C7  UNL     1      15.201   5.137   1.113  1.00  0.00     0.078 A 
HETATM    3  C8  UNL     1      15.935   4.026   0.793  1.00  0.00    -0.009 A 
HETATM    4  C12 UNL     1      17.208   4.250   1.301  1.00  0.00     0.156 A 
HETATM    5  O6  UNL     1      17.209   5.406   1.873  1.00  0.00    -0.299 OA
ENDROOT
BRANCH   1   6
HETATM    6  O3  UNL     1      15.678   7.226   2.296  1.00  0.00    -0.231 OA
BRANCH   6   7
HETATM    7  C5  UNL     1      14.536   7.324   3.080  1.00  0.00     0.414 C 
HETATM    8  O2  UNL     1      14.202   6.395   3.874  1.00  0.00    -0.229 OA
BRANCH   7   9
HETATM    9  O1  UNL     1      13.697   8.428   3.052  1.00  0.00    -0.288 OA
BRANCH   9  10
HETATM   10  C2  UNL     1      12.962   8.812   1.922  1.00  0.00     0.062 C 
HETATM   11  C1  UNL     1      11.718   9.611   2.287  1.00  0.00     0.046 C 
HETATM   12  C3  UNL     1      12.519   7.661   1.079  1.00  0.00     0.046 C 
HETATM   13  C4  UNL     1      13.853   9.777   1.132  1.00  0.00     0.046 C 
ENDBRANCH   9  10
ENDBRANCH   7   9
ENDBRANCH   6   7
ENDBRANCH   1   6
BRANCH   3  14
HETATM   14  C9  UNL     1      15.467   2.870   0.074  1.00  0.00     0.020 C 
HETATM   15  C10 UNL     1      14.189   2.735  -0.202  1.00  0.00     0.085 C 
BRANCH  15  16
HETATM   16  C11 UNL     1      13.682   1.581  -0.926  1.00  0.00     0.198 C 
HETATM   17  O4  UNL     1      14.246   0.476  -0.858  1.00  0.00    -0.645 OA
HETATM   18  O5  UNL     1      12.535   1.688  -1.724  1.00  0.00    -0.645 OA
ENDBRANCH  15  16
ENDBRANCH   3  14
TORSDOF 6
ENDMDL
MODEL 2
REMARK VINA RESULT: -6.639731049      1.266      1.708
REMARK  6 active torsions:
REMARK  status: ('A' for Active; 'I' for Inactive)
REMARK    1  A    between atoms: C2_2  and  O1_5 
REMARK    2  A    between atoms: O1_5  and  C5_6 
REMARK    3  A    between atoms: C5_6  and  O3_8 
REMARK    4  A    between atoms: O3_8  and  C6_9 
REMARK    5  A    between atoms: C8_11  and  C9_12 
REMARK    6  A    between atoms: C10_13  and  C11_14 
ROOT
HETATM    1  C6  UNL     1      16.342   5.368   1.567  1.00  0.00     0.196 A 
HETATM    2  C7  UNL     1      15.211   5.046   0.862  1.00  0.00     0.078 A 
HETATM    3  C8  UNL     1      15.390   3.776   0.383  1.00  0.00    -0.009 A 
HETATM    4  C12 UNL     1      16.643   3.374   0.825  1.00  0.00     0.156 A 
HETATM    5  O6  UNL     1      17.152   4.342   1.509  1.00  0.00    -0.299 OA
ENDROOT
BRANCH   1   6
HETATM    6  O3  UNL     1      16.562   6.575   2.215  1.00  0.00    -0.231 OA
BRANCH   6   7
HETATM    7  C5  UNL     1      15.514   7.155   2.919  1.00  0.00     0.414 C 
HETATM    8  O2  UNL     1      14.752   6.459   3.655  1.00  0.00    -0.229 OA
BRANCH   7   9
HETATM    9  O1  UNL     1      15.234   8.512   2.869  1.00  0.00    -0.288 OA
BRANCH   9  10
HETATM   10  C2  UNL     1      14.744   9.159   1.726  1.00  0.00     0.062 C 
HETATM   11  C1  UNL     1      13.734   8.306   0.970  1.00  0.00     0.046 C 
HETATM   12  C3  UNL     1      15.811   9.549   0.756  1.00  0.00     0.046 C 
HETATM   13  C4  UNL     1      13.960  10.381   2.220  1.00  0.00     0.046 C 
ENDBRANCH   9  10
ENDBRANCH   7   9
ENDBRANCH   6   7
ENDBRANCH   1   6
BRANCH   3  14
HETATM   14  C9  UNL     1      14.458   3.024  -0.416  1.00  0.00     0.020 C 
HETATM   15  C10 UNL     1      13.279   3.527  -0.706  1.00  0.00     0.085 C 
BRANCH  15  16
HETATM   16  C11 UNL     1      12.313   2.796  -1.509  1.00  0.00     0.198 C 
HETATM   17  O4  UNL     1      12.486   1.601  -1.800  1.00  0.00    -0.645 OA
HETATM   18  O5  UNL     1      11.154   3.429  -1.979  1.00  0.00    -0.645 OA
ENDBRANCH  15  16
ENDBRANCH   3  14
TORSDOF 6
ENDMDL
MODEL 3
REMARK VINA RESULT: -6.569119538      1.476      1.942
REMARK  6 active torsions:
REMARK  status: ('A' for Active; 'I' for Inactive)
REMARK    1  A    between atoms: C2_2  and  O1_5 
REMARK    2  A    between atoms: O1_5  and  C5_6 
REMARK    3  A    between atoms: C5_6  and  O3_8 
REMARK    4  A    between atoms: O3_8  and  C6_9 
REMARK    5  A    between atoms: C8_11  and  C9_12 
REMARK    6  A    between atoms: C10_13  and  C11_14 
ROOT
HETATM    1  C6  UNL     1      15.202   7.169   0.506  1.00  0.00     0.196 A 
HETATM    2  C7  UNL     1      14.470   6.297  -0.260  1.00  0.00     0.078 A 
HETATM    3  C8  UNL     1      14.667   5.047   0.263  1.00  0.00    -0.009 A 
HETATM    4  C12 UNL     1      15.524   5.216   1.343  1.00  0.00     0.156 A 
HETATM    5  O6  UNL     1      15.803   6.472   1.436  1.00  0.00    -0.299 OA
ENDROOT
BRANCH   1   6
HETATM    6  O3  UNL     1      15.274   8.540   0.306  1.00  0.00    -0.231 OA
BRANCH   6   7
HETATM    7  C5  UNL     1      14.623   9.380   1.200  1.00  0.00     0.414 C 
HETATM    8  O2  UNL     1      14.997   9.471   2.407  1.00  0.00    -0.229 OA
BRANCH   7   9
HETATM    9  O1  UNL     1      13.538  10.166   0.841  1.00  0.00    -0.288 OA
BRANCH   9  10
HETATM   10  C2  UNL     1      12.219   9.885   1.223  1.00  0.00     0.062 C 
HETATM   11  C1  UNL     1      11.924  10.329   2.649  1.00  0.00     0.046 C 
HETATM   12  C3  UNL     1      11.865   8.437   1.126  1.00  0.00     0.046 C 
HETATM   13  C4  UNL     1      11.316  10.744   0.330  1.00  0.00     0.046 C 
ENDBRANCH   9  10
ENDBRANCH   7   9
ENDBRANCH   6   7
ENDBRANCH   1   6
BRANCH   3  14
HETATM   14  C9  UNL     1      14.095   3.819  -0.219  1.00  0.00     0.020 C 
HETATM   15  C10 UNL     1      14.775   2.696  -0.143  1.00  0.00     0.085 C 
BRANCH  15  16
HETATM   16  C11 UNL     1      14.229   1.437  -0.620  1.00  0.00     0.198 C 
HETATM   17  O4  UNL     1      14.737   0.350  -0.303  1.00  0.00    -0.645 OA
HETATM   18  O5  UNL     1      13.106   1.421  -1.459  1.00  0.00    -0.645 OA
ENDBRANCH  15  16
ENDBRANCH   3  14
TORSDOF 6
ENDMDL
MODEL 4
REMARK VINA RESULT: -6.490526688      1.245      1.985
REMARK  6 active torsions:
REMARK  status: ('A' for Active; 'I' for Inactive)
REMARK    1  A    between atoms: C2_2  and  O1_5 
REMARK    2  A    between atoms: O1_5  and  C5_6 
REMARK    3  A    between atoms: C5_6  and  O3_8 
REMARK    4  A    between atoms: O3_8  and  C6_9 
REMARK    5  A    between atoms: C8_11  and  C9_12 
REMARK    6  A    between atoms: C10_13  and  C11_14 
ROOT
HETATM    1  C6  UNL     1      15.943   5.334   1.763  1.00  0.00     0.196 A 
HETATM    2  C7  UNL     1      14.844   4.983   1.021  1.00  0.00     0.078 A 
HETATM    3  C8  UNL     1      15.151   3.810   0.387  1.00  0.00    -0.009 A 
HETATM    4  C12 UNL     1      16.446   3.492   0.777  1.00  0.00     0.156 A 
HETATM    5  O6  UNL     1      16.857   4.415   1.578  1.00  0.00    -0.299 OA
ENDROOT
BRANCH   1   6
HETATM    6  O3  UNL     1      16.041   6.467   2.558  1.00  0.00    -0.231 OA
BRANCH   6   7
HETATM    7  C5  UNL     1      14.881   7.000   3.105  1.00  0.00     0.414 C 
HETATM    8  O2  UNL     1      14.458   6.627   4.239  1.00  0.00    -0.229 OA
BRANCH   7   9
HETATM    9  O1  UNL     1      14.119   7.964   2.460  1.00  0.00    -0.288 OA
BRANCH   9  10
HETATM   10  C2  UNL     1      14.658   9.136   1.913  1.00  0.00     0.062 C 
HETATM   11  C1  UNL     1      15.465   8.866   0.651  1.00  0.00     0.046 C 
HETATM   12  C3  UNL     1      15.543   9.883   2.856  1.00  0.00     0.046 C 
HETATM   13  C4  UNL     1      13.467   9.992   1.463  1.00  0.00     0.046 C 
ENDBRANCH   9  10
ENDBRANCH   7   9
ENDBRANCH   6   7
ENDBRANCH   1   6
BRANCH   3  14
HETATM   14  C9  UNL     1      14.295   3.069  -0.501  1.00  0.00     0.020 C 
HETATM   15  C10 UNL     1      13.067   3.477  -0.730  1.00  0.00     0.085 C 
BRANCH  15  16
HETATM   16  C11 UNL     1      12.174   2.753  -1.621  1.00  0.00     0.198 C 
HETATM   17  O4  UNL     1      11.149   3.282  -2.078  1.00  0.00    -0.645 OA
HETATM   18  O5  UNL     1      12.453   1.429  -1.985  1.00  0.00    -0.645 OA
ENDBRANCH  15  16
ENDBRANCH   3  14
TORSDOF 6
ENDMDL
MODEL 5
REMARK VINA RESULT: -6.455492100      1.741      2.567
REMARK  6 active torsions:
REMARK  status: ('A' for Active; 'I' for Inactive)
REMARK    1  A    between atoms: C2_2  and  O1_5 
REMARK    2  A    between atoms: O1_5  and  C5_6 
REMARK    3  A    between atoms: C5_6  and  O3_8 
REMARK    4  A    between atoms: O3_8  and  C6_9 
REMARK    5  A    between atoms: C8_11  and  C9_12 
REMARK    6  A    between atoms: C10_13  and  C11_14 
ROOT
HETATM    1  C6  UNL     1      14.955   7.291   1.155  1.00  0.00     0.196 A 
HETATM    2  C7  UNL     1      15.471   6.072   1.514  1.00  0.00     0.078 A 
HETATM    3  C8  UNL     1      15.158   5.197   0.509  1.00  0.00    -0.009 A 
HETATM    4  C12 UNL     1      14.452   5.934  -0.433  1.00  0.00     0.156 A 
HETATM    5  O6  UNL     1      14.363   7.147  -0.003  1.00  0.00    -0.299 OA
ENDROOT
BRANCH   1   6
HETATM    6  O3  UNL     1      15.055   8.453   1.908  1.00  0.00    -0.231 OA
BRANCH   6   7
HETATM    7  C5  UNL     1      14.806   9.671   1.291  1.00  0.00     0.414 C 
HETATM    8  O2  UNL     1      15.721  10.536   1.149  1.00  0.00    -0.229 OA
BRANCH   7   9
HETATM    9  O1  UNL     1      13.559  10.020   0.792  1.00  0.00    -0.288 OA
BRANCH   9  10
HETATM   10  C2  UNL     1      12.432  10.223   1.601  1.00  0.00     0.062 C 
HETATM   11  C1  UNL     1      11.390  11.104   0.927  1.00  0.00     0.046 C 
HETATM   12  C3  UNL     1      12.749  10.840   2.923  1.00  0.00     0.046 C 
HETATM   13  C4  UNL     1      11.765   8.852   1.767  1.00  0.00     0.046 C 
ENDBRANCH   9  10
ENDBRANCH   7   9
ENDBRANCH   6   7
ENDBRANCH   1   6
BRANCH   3  14
HETATM   14  C9  UNL     1      15.498   3.800   0.454  1.00  0.00     0.020 C 
HETATM   15  C10 UNL     1      14.731   2.957  -0.201  1.00  0.00     0.085 C 
BRANCH  15  16
HETATM   16  C11 UNL     1      15.043   1.540  -0.277  1.00  0.00     0.198 C 
HETATM   17  O4  UNL     1      16.093   1.083   0.202  1.00  0.00    -0.645 OA
HETATM   18  O5  UNL     1      14.158   0.648  -0.899  1.00  0.00    -0.645 OA
ENDBRANCH  15  16
ENDBRANCH   3  14
TORSDOF 6
ENDMDL
