MODEL 1
REMARK VINA RESULT: -8.341961641      0.000      0.000
REMARK  8 active torsions:
REMARK  status: ('A' for Active; 'I' for Inactive)
REMARK    1  A    between atoms: O1_2  and  C2_3 
REMARK    2  A    between atoms: C2_3  and  C3_5 
REMARK    3  A    between atoms: C3_5  and  C4_6 
REMARK    4  A    between atoms: C4_6  and  O3_7 
REMARK    5  A    between atoms: O3_7  and  C5_8 
REMARK    6  A    between atoms: C5_8  and  C6_10 
REMARK    7  A    between atoms: C16_20  and  O5_22 
REMARK    8  A    between atoms: C24_31  and  O7_32 
ROOT
HETATM    1  C6  UNL     1     -28.939 -28.220   8.581  1.00  0.00     0.052 C 
HETATM    2  C7  UNL     1     -30.393 -28.201   8.829  1.00  0.00     0.026 C 
HETATM    3  C8  UNL     1     -28.156 -27.109   9.273  1.00  0.00     0.028 C 
HETATM    4  C9  UNL     1     -28.027 -27.193  10.713  1.00  0.00    -0.046 C 
HETATM    5  C10 UNL     1     -26.662 -26.629  11.122  1.00  0.00     0.015 C 
HETATM    6  C11 UNL     1     -29.029 -26.232  11.365  1.00  0.00     0.015 C 
HETATM    7  C12 UNL     1     -28.276 -28.563  11.247  1.00  0.00     0.018 C 
HETATM    8  C13 UNL     1     -27.874 -29.719  10.326  1.00  0.00    -0.031 C 
HETATM    9  C14 UNL     1     -26.321 -29.628  10.382  1.00  0.00     0.016 C 
HETATM   10  C15 UNL     1     -28.265 -29.557   8.902  1.00  0.00     0.046 C 
HETATM   11  C16 UNL     1     -28.797 -30.757   8.235  1.00  0.00     0.061 C 
HETATM   12  C17 UNL     1     -29.528 -30.669   6.959  1.00  0.00     0.046 C 
HETATM   13  C18 UNL     1     -29.598 -31.686   9.095  1.00  0.00     0.052 C 
HETATM   14  C19 UNL     1     -28.842 -32.091  10.333  1.00  0.00    -0.004 C 
HETATM   15  C20 UNL     1     -27.790 -33.146   9.929  1.00  0.00     0.021 C 
HETATM   16  C21 UNL     1     -29.845 -32.900  11.076  1.00  0.00     0.017 A 
HETATM   17  C22 UNL     1     -30.695 -32.356  12.000  1.00  0.00    -0.024 A 
HETATM   18  C23 UNL     1     -31.529 -33.317  12.516  1.00  0.00     0.152 A 
HETATM   19  O6  UNL     1     -31.197 -34.436  11.920  1.00  0.00    -0.299 OA
HETATM   20  C24 UNL     1     -30.219 -34.253  11.069  1.00  0.00     0.190 A 
HETATM   21  C25 UNL     1     -30.498 -30.893  12.225  1.00  0.00     0.042 C 
HETATM   22  C26 UNL     1     -28.993 -30.750  12.360  1.00  0.00     0.011 C 
HETATM   23  C27 UNL     1     -28.251 -30.960  11.073  1.00  0.00     0.007 C 
ENDROOT
BRANCH   1  24
HETATM   24  C5  UNL     1     -28.681 -27.796   7.162  1.00  0.00     0.267 C 
HETATM   25  O4  UNL     1     -29.396 -26.941   6.601  1.00  0.00    -0.264 OA
BRANCH  24  26
HETATM   26  O3  UNL     1     -27.639 -28.354   6.443  1.00  0.00    -0.320 OA
BRANCH  26  27
HETATM   27  C4  UNL     1     -27.618 -28.550   5.065  1.00  0.00     0.188 C 
BRANCH  27  28
HETATM   28  C3  UNL     1     -26.258 -28.818   4.478  1.00  0.00     0.138 C 
BRANCH  28  29
HETATM   29  C2  UNL     1     -25.896 -30.234   4.773  1.00  0.00     0.260 C 
HETATM   30  O2  UNL     1     -26.794 -31.113   4.852  1.00  0.00    -0.265 OA
BRANCH  29  31
HETATM   31  O1  UNL     1     -24.577 -30.608   4.962  1.00  0.00    -0.326 OA
HETATM   32  C1  UNL     1     -23.549 -29.791   4.407  1.00  0.00     0.213 C 
ENDBRANCH  29  31
ENDBRANCH  28  29
ENDBRANCH  27  28
ENDBRANCH  26  27
ENDBRANCH  24  26
ENDBRANCH   1  24
BRANCH  11  33
HETATM   33  O5  UNL     1     -27.669 -31.569   7.868  1.00  0.00    -0.390 OA
ATOM     34  H5  UNL     1     -27.994 -32.451   7.733  1.00  0.00     0.210 HD
ENDBRANCH  11  33
BRANCH  20  35
HETATM   35  O7  UNL     1     -29.633 -35.217  10.280  1.00  0.00    -0.340 OA
ATOM     36  H7  UNL     1     -30.114 -35.866   9.781  1.00  0.00     0.220 HD
ENDBRANCH  20  35
TORSDOF 8
ENDMDL
MODEL 2
REMARK VINA RESULT: -7.871248214      1.953      3.129
REMARK  8 active torsions:
REMARK  status: ('A' for Active; 'I' for Inactive)
REMARK    1  A    between atoms: O1_2  and  C2_3 
REMARK    2  A    between atoms: C2_3  and  C3_5 
REMARK    3  A    between atoms: C3_5  and  C4_6 
REMARK    4  A    between atoms: C4_6  and  O3_7 
REMARK    5  A    between atoms: O3_7  and  C5_8 
REMARK    6  A    between atoms: C5_8  and  C6_10 
REMARK    7  A    between atoms: C16_20  and  O5_22 
REMARK    8  A    between atoms: C24_31  and  O7_32 
ROOT
HETATM    1  C6  UNL     1     -29.031 -27.785   9.054  1.00  0.00     0.052 C 
HETATM    2  C7  UNL     1     -30.483 -27.835   9.310  1.00  0.00     0.026 C 
HETATM    3  C8  UNL     1     -28.273 -26.742   9.867  1.00  0.00     0.028 C 
HETATM    4  C9  UNL     1     -28.129 -26.990  11.287  1.00  0.00    -0.046 C 
HETATM    5  C10 UNL     1     -26.777 -26.440  11.753  1.00  0.00     0.015 C 
HETATM    6  C11 UNL     1     -29.151 -26.139  12.052  1.00  0.00     0.015 C 
HETATM    7  C12 UNL     1     -28.338 -28.418  11.658  1.00  0.00     0.018 C 
HETATM    8  C13 UNL     1     -27.913 -29.448  10.607  1.00  0.00    -0.031 C 
HETATM    9  C14 UNL     1     -26.363 -29.322  10.666  1.00  0.00     0.016 C 
HETATM   10  C15 UNL     1     -28.320 -29.132   9.213  1.00  0.00     0.046 C 
HETATM   11  C16 UNL     1     -28.825 -30.260   8.414  1.00  0.00     0.061 C 
HETATM   12  C17 UNL     1     -29.569 -30.044   7.160  1.00  0.00     0.046 C 
HETATM   13  C18 UNL     1     -29.594 -31.304   9.163  1.00  0.00     0.052 C 
HETATM   14  C19 UNL     1     -28.818 -31.830  10.342  1.00  0.00    -0.004 C 
HETATM   15  C20 UNL     1     -27.741 -32.802   9.812  1.00  0.00     0.021 C 
HETATM   16  C21 UNL     1     -29.793 -32.747  10.991  1.00  0.00     0.017 A 
HETATM   17  C22 UNL     1     -30.650 -32.338  11.976  1.00  0.00    -0.024 A 
HETATM   18  C23 UNL     1     -31.454 -33.374  12.381  1.00  0.00     0.152 A 
HETATM   19  O6  UNL     1     -31.097 -34.407  11.656  1.00  0.00    -0.299 OA
HETATM   20  C24 UNL     1     -30.131 -34.100  10.828  1.00  0.00     0.190 A 
HETATM   21  C25 UNL     1     -30.490 -30.906  12.369  1.00  0.00     0.042 C 
HETATM   22  C26 UNL     1     -28.988 -30.739  12.512  1.00  0.00     0.011 C 
HETATM   23  C27 UNL     1     -28.251 -30.778  11.206  1.00  0.00     0.007 C 
ENDROOT
BRANCH   1  24
HETATM   24  C5  UNL     1     -28.796 -27.192   7.693  1.00  0.00     0.267 C 
HETATM   25  O4  UNL     1     -27.826 -27.543   6.992  1.00  0.00    -0.264 OA
BRANCH  24  26
HETATM   26  O3  UNL     1     -29.657 -26.233   7.190  1.00  0.00    -0.320 OA
BRANCH  26  27
HETATM   27  C4  UNL     1     -29.289 -24.966   6.746  1.00  0.00     0.188 C 
BRANCH  27  28
HETATM   28  C3  UNL     1     -28.405 -24.190   7.684  1.00  0.00     0.138 C 
BRANCH  28  29
HETATM   29  C2  UNL     1     -27.201 -23.746   6.927  1.00  0.00     0.260 C 
HETATM   30  O2  UNL     1     -26.659 -24.516   6.090  1.00  0.00    -0.265 OA
BRANCH  29  31
HETATM   31  O1  UNL     1     -26.658 -22.488   7.126  1.00  0.00    -0.326 OA
HETATM   32  C1  UNL     1     -27.413 -21.347   6.726  1.00  0.00     0.213 C 
ENDBRANCH  29  31
ENDBRANCH  28  29
ENDBRANCH  27  28
ENDBRANCH  26  27
ENDBRANCH  24  26
ENDBRANCH   1  24
BRANCH  11  33
HETATM   33  O5  UNL     1     -27.679 -30.992   7.949  1.00  0.00    -0.390 OA
ATOM     34  H5  UNL     1     -27.475 -31.640   8.612  1.00  0.00     0.210 HD
ENDBRANCH  11  33
BRANCH  20  35
HETATM   35  O7  UNL     1     -29.527 -34.949   9.929  1.00  0.00    -0.340 OA
ATOM     36  H7  UNL     1     -29.750 -35.002   9.007  1.00  0.00     0.220 HD
ENDBRANCH  20  35
TORSDOF 8
ENDMDL
MODEL 3
REMARK VINA RESULT: -7.694441794     16.540     20.131
REMARK  8 active torsions:
REMARK  status: ('A' for Active; 'I' for Inactive)
REMARK    1  A    between atoms: O1_2  and  C2_3 
REMARK    2  A    between atoms: C2_3  and  C3_5 
REMARK    3  A    between atoms: C3_5  and  C4_6 
REMARK    4  A    between atoms: C4_6  and  O3_7 
REMARK    5  A    between atoms: O3_7  and  C5_8 
REMARK    6  A    between atoms: C5_8  and  C6_10 
REMARK    7  A    between atoms: C16_20  and  O5_22 
REMARK    8  A    between atoms: C24_31  and  O7_32 
ROOT
HETATM    1  C6  UNL     1     -15.693 -20.235   0.741  1.00  0.00     0.052 C 
HETATM    2  C7  UNL     1     -16.333 -21.040  -0.316  1.00  0.00     0.026 C 
HETATM    3  C8  UNL     1     -14.169 -20.304   0.765  1.00  0.00     0.028 C 
HETATM    4  C9  UNL     1     -13.463 -19.652  -0.318  1.00  0.00    -0.046 C 
HETATM    5  C10 UNL     1     -12.147 -19.080   0.221  1.00  0.00     0.015 C 
HETATM    6  C11 UNL     1     -13.012 -20.709  -1.334  1.00  0.00     0.015 C 
HETATM    7  C12 UNL     1     -14.290 -18.638  -1.033  1.00  0.00     0.018 C 
HETATM    8  C13 UNL     1     -15.325 -17.900  -0.178  1.00  0.00    -0.031 C 
HETATM    9  C14 UNL     1     -14.409 -17.005   0.705  1.00  0.00     0.016 C 
HETATM   10  C15 UNL     1     -16.109 -18.761   0.746  1.00  0.00     0.046 C 
HETATM   11  C16 UNL     1     -17.548 -18.467   0.840  1.00  0.00     0.061 C 
HETATM   12  C17 UNL     1     -18.493 -19.428   1.437  1.00  0.00     0.046 C 
HETATM   13  C18 UNL     1     -18.205 -17.985  -0.417  1.00  0.00     0.052 C 
HETATM   14  C19 UNL     1     -17.486 -16.797  -1.001  1.00  0.00    -0.004 C 
HETATM   15  C20 UNL     1     -17.855 -15.554  -0.163  1.00  0.00     0.021 C 
HETATM   16  C21 UNL     1     -18.223 -16.564  -2.272  1.00  0.00     0.017 A 
HETATM   17  C22 UNL     1     -17.850 -17.136  -3.457  1.00  0.00    -0.024 A 
HETATM   18  C23 UNL     1     -18.712 -16.774  -4.463  1.00  0.00     0.152 A 
HETATM   19  O6  UNL     1     -19.602 -15.989  -3.905  1.00  0.00    -0.299 OA
HETATM   20  C24 UNL     1     -19.366 -15.830  -2.627  1.00  0.00     0.190 A 
HETATM   21  C25 UNL     1     -16.619 -17.977  -3.370  1.00  0.00     0.042 C 
HETATM   22  C26 UNL     1     -15.654 -17.119  -2.572  1.00  0.00     0.011 C 
HETATM   23  C27 UNL     1     -16.028 -16.979  -1.126  1.00  0.00     0.007 C 
ENDROOT
BRANCH   1  24
HETATM   24  C5  UNL     1     -15.946 -20.887   2.071  1.00  0.00     0.267 C 
HETATM   25  O4  UNL     1     -16.369 -22.057   2.149  1.00  0.00    -0.264 OA
BRANCH  24  26
HETATM   26  O3  UNL     1     -15.718 -20.192   3.246  1.00  0.00    -0.320 OA
BRANCH  26  27
HETATM   27  C4  UNL     1     -16.548 -20.191   4.363  1.00  0.00     0.188 C 
BRANCH  27  28
HETATM   28  C3  UNL     1     -16.920 -18.829   4.883  1.00  0.00     0.138 C 
BRANCH  28  29
HETATM   29  C2  UNL     1     -16.246 -18.634   6.197  1.00  0.00     0.260 C 
HETATM   30  O2  UNL     1     -16.607 -19.305   7.200  1.00  0.00    -0.265 OA
BRANCH  29  31
HETATM   31  O1  UNL     1     -15.217 -17.719   6.342  1.00  0.00    -0.326 OA
HETATM   32  C1  UNL     1     -15.543 -16.369   6.666  1.00  0.00     0.213 C 
ENDBRANCH  29  31
ENDBRANCH  28  29
ENDBRANCH  27  28
ENDBRANCH  26  27
ENDBRANCH  24  26
ENDBRANCH   1  24
BRANCH  11  33
HETATM   33  O5  UNL     1     -17.691 -17.338   1.718  1.00  0.00    -0.390 OA
ATOM     34  H5  UNL     1     -16.880 -16.846   1.672  1.00  0.00     0.210 HD
ENDBRANCH  11  33
BRANCH  20  35
HETATM   35  O7  UNL     1     -20.106 -15.072  -1.749  1.00  0.00    -0.340 OA
ATOM     36  H7  UNL     1     -19.961 -15.044  -0.810  1.00  0.00     0.220 HD
ENDBRANCH  20  35
TORSDOF 8
ENDMDL
MODEL 4
REMARK VINA RESULT: -7.509372826     15.217     19.477
REMARK  8 active torsions:
REMARK  status: ('A' for Active; 'I' for Inactive)
REMARK    1  A    between atoms: O1_2  and  C2_3 
REMARK    2  A    between atoms: C2_3  and  C3_5 
REMARK    3  A    between atoms: C3_5  and  C4_6 
REMARK    4  A    between atoms: C4_6  and  O3_7 
REMARK    5  A    between atoms: O3_7  and  C5_8 
REMARK    6  A    between atoms: C5_8  and  C6_10 
REMARK    7  A    between atoms: C16_20  and  O5_22 
REMARK    8  A    between atoms: C24_31  and  O7_32 
ROOT
HETATM    1  C6  UNL     1     -17.875 -19.262   1.434  1.00  0.00     0.052 C 
HETATM    2  C7  UNL     1     -18.284 -18.099   0.625  1.00  0.00     0.026 C 
HETATM    3  C8  UNL     1     -18.951 -20.328   1.614  1.00  0.00     0.028 C 
HETATM    4  C9  UNL     1     -19.298 -21.116   0.450  1.00  0.00    -0.046 C 
HETATM    5  C10 UNL     1     -19.654 -22.537   0.901  1.00  0.00     0.015 C 
HETATM    6  C11 UNL     1     -20.608 -20.585  -0.145  1.00  0.00     0.015 C 
HETATM    7  C12 UNL     1     -18.254 -21.086  -0.614  1.00  0.00     0.018 C 
HETATM    8  C13 UNL     1     -16.808 -20.954  -0.124  1.00  0.00    -0.031 C 
HETATM    9  C14 UNL     1     -16.575 -22.352   0.517  1.00  0.00     0.016 C 
HETATM   10  C15 UNL     1     -16.594 -19.946   0.947  1.00  0.00     0.046 C 
HETATM   11  C16 UNL     1     -15.391 -19.109   0.818  1.00  0.00     0.061 C 
HETATM   12  C17 UNL     1     -15.229 -17.868   1.595  1.00  0.00     0.046 C 
HETATM   13  C18 UNL     1     -14.976 -18.765  -0.580  1.00  0.00     0.052 C 
HETATM   14  C19 UNL     1     -14.828 -19.996  -1.436  1.00  0.00    -0.004 C 
HETATM   15  C20 UNL     1     -13.498 -20.685  -1.059  1.00  0.00     0.021 C 
HETATM   16  C21 UNL     1     -14.531 -19.425  -2.777  1.00  0.00     0.017 A 
HETATM   17  C22 UNL     1     -15.507 -19.136  -3.690  1.00  0.00    -0.024 A 
HETATM   18  C23 UNL     1     -14.962 -18.600  -4.831  1.00  0.00     0.152 A 
HETATM   19  O6  UNL     1     -13.668 -18.562  -4.624  1.00  0.00    -0.299 OA
HETATM   20  C24 UNL     1     -13.358 -19.031  -3.441  1.00  0.00     0.190 A 
HETATM   21  C25 UNL     1     -16.888 -19.482  -3.238  1.00  0.00     0.042 C 
HETATM   22  C26 UNL     1     -16.737 -20.879  -2.662  1.00  0.00     0.011 C 
HETATM   23  C27 UNL     1     -15.978 -20.917  -1.369  1.00  0.00     0.007 C 
ENDROOT
BRANCH   1  24
HETATM   24  C5  UNL     1     -17.765 -18.840   2.873  1.00  0.00     0.267 C 
HETATM   25  O4  UNL     1     -18.137 -17.710   3.247  1.00  0.00    -0.264 OA
BRANCH  24  26
HETATM   26  O3  UNL     1     -17.241 -19.705   3.817  1.00  0.00    -0.320 OA
BRANCH  26  27
HETATM   27  C4  UNL     1     -16.103 -19.474   4.586  1.00  0.00     0.188 C 
BRANCH  27  28
HETATM   28  C3  UNL     1     -16.261 -19.740   6.058  1.00  0.00     0.138 C 
BRANCH  28  29
HETATM   29  C2  UNL     1     -16.568 -18.448   6.734  1.00  0.00     0.260 C 
HETATM   30  O2  UNL     1     -17.763 -18.082   6.887  1.00  0.00    -0.265 OA
BRANCH  29  31
HETATM   31  O1  UNL     1     -15.554 -17.631   7.205  1.00  0.00    -0.326 OA
HETATM   32  C1  UNL     1     -15.592 -16.242   6.886  1.00  0.00     0.213 C 
ENDBRANCH  29  31
ENDBRANCH  28  29
ENDBRANCH  27  28
ENDBRANCH  26  27
ENDBRANCH  24  26
ENDBRANCH   1  24
BRANCH  11  33
HETATM   33  O5  UNL     1     -14.281 -19.892   1.288  1.00  0.00    -0.390 OA
ATOM     34  H5  UNL     1     -14.561 -20.800   1.286  1.00  0.00     0.210 HD
ENDBRANCH  11  33
BRANCH  20  35
HETATM   35  O7  UNL     1     -12.093 -19.132  -2.910  1.00  0.00    -0.340 OA
ATOM     36  H7  UNL     1     -11.690 -18.474  -2.356  1.00  0.00     0.220 HD
ENDBRANCH  20  35
TORSDOF 8
ENDMDL
MODEL 5
REMARK VINA RESULT: -7.445904236     15.663     19.822
REMARK  8 active torsions:
REMARK  status: ('A' for Active; 'I' for Inactive)
REMARK    1  A    between atoms: O1_2  and  C2_3 
REMARK    2  A    between atoms: C2_3  and  C3_5 
REMARK    3  A    between atoms: C3_5  and  C4_6 
REMARK    4  A    between atoms: C4_6  and  O3_7 
REMARK    5  A    between atoms: O3_7  and  C5_8 
REMARK    6  A    between atoms: C5_8  and  C6_10 
REMARK    7  A    between atoms: C16_20  and  O5_22 
REMARK    8  A    between atoms: C24_31  and  O7_32 
ROOT
HETATM    1  C6  UNL     1     -17.275 -19.310   2.039  1.00  0.00     0.052 C 
HETATM    2  C7  UNL     1     -18.485 -18.910   1.297  1.00  0.00     0.026 C 
HETATM    3  C8  UNL     1     -17.323 -20.713   2.635  1.00  0.00     0.028 C 
HETATM    4  C9  UNL     1     -17.260 -21.825   1.710  1.00  0.00    -0.046 C 
HETATM    5  C10 UNL     1     -16.500 -22.979   2.372  1.00  0.00     0.015 C 
HETATM    6  C11 UNL     1     -18.672 -22.388   1.504  1.00  0.00     0.015 C 
HETATM    7  C12 UNL     1     -16.706 -21.450   0.377  1.00  0.00     0.018 C 
HETATM    8  C13 UNL     1     -15.653 -20.337   0.383  1.00  0.00    -0.031 C 
HETATM    9  C14 UNL     1     -14.445 -21.064   1.041  1.00  0.00     0.016 C 
HETATM   10  C15 UNL     1     -15.975 -19.168   1.242  1.00  0.00     0.046 C 
HETATM   11  C16 UNL     1     -15.674 -17.845   0.674  1.00  0.00     0.061 C 
HETATM   12  C17 UNL     1     -16.239 -16.612   1.251  1.00  0.00     0.046 C 
HETATM   13  C18 UNL     1     -15.844 -17.710  -0.808  1.00  0.00     0.052 C 
HETATM   14  C19 UNL     1     -15.073 -18.767  -1.556  1.00  0.00    -0.004 C 
HETATM   15  C20 UNL     1     -13.582 -18.366  -1.550  1.00  0.00     0.021 C 
HETATM   16  C21 UNL     1     -15.471 -18.520  -2.968  1.00  0.00     0.017 A 
HETATM   17  C22 UNL     1     -16.535 -19.146  -3.556  1.00  0.00    -0.024 A 
HETATM   18  C23 UNL     1     -16.693 -18.720  -4.852  1.00  0.00     0.152 A 
HETATM   19  O6  UNL     1     -15.739 -17.846  -5.059  1.00  0.00    -0.299 OA
HETATM   20  C24 UNL     1     -14.993 -17.689  -3.994  1.00  0.00     0.190 A 
HETATM   21  C25 UNL     1     -17.233 -20.126  -2.672  1.00  0.00     0.042 C 
HETATM   22  C26 UNL     1     -16.099 -20.919  -2.049  1.00  0.00     0.011 C 
HETATM   23  C27 UNL     1     -15.291 -20.137  -1.056  1.00  0.00     0.007 C 
ENDROOT
BRANCH   1  24
HETATM   24  C5  UNL     1     -17.220 -18.542   3.330  1.00  0.00     0.267 C 
HETATM   25  O4  UNL     1     -18.204 -17.897   3.743  1.00  0.00    -0.264 OA
BRANCH  24  26
HETATM   26  O3  UNL     1     -16.064 -18.533   4.090  1.00  0.00    -0.320 OA
BRANCH  26  27
HETATM   27  C4  UNL     1     -15.822 -19.327   5.208  1.00  0.00     0.188 C 
BRANCH  27  28
HETATM   28  C3  UNL     1     -16.382 -18.798   6.501  1.00  0.00     0.138 C 
BRANCH  28  29
HETATM   29  C2  UNL     1     -15.982 -17.369   6.631  1.00  0.00     0.260 C 
HETATM   30  O2  UNL     1     -16.856 -16.483   6.828  1.00  0.00    -0.265 OA
BRANCH  29  31
HETATM   31  O1  UNL     1     -14.654 -16.989   6.541  1.00  0.00    -0.326 OA
HETATM   32  C1  UNL     1     -13.861 -16.989   7.726  1.00  0.00     0.213 C 
ENDBRANCH  29  31
ENDBRANCH  28  29
ENDBRANCH  27  28
ENDBRANCH  26  27
ENDBRANCH  24  26
ENDBRANCH   1  24
BRANCH  11  33
HETATM   33  O5  UNL     1     -14.263 -17.624   0.845  1.00  0.00    -0.390 OA
ATOM     34  H5  UNL     1     -13.945 -17.226   0.044  1.00  0.00     0.210 HD
ENDBRANCH  11  33
BRANCH  20  35
HETATM   35  O7  UNL     1     -13.911 -16.848  -3.873  1.00  0.00    -0.340 OA
ATOM     36  H7  UNL     1     -13.941 -15.989  -3.469  1.00  0.00     0.220 HD
ENDBRANCH  20  35
TORSDOF 8
ENDMDL
