MODEL 1
REMARK VINA RESULT: -9.350094055      0.000      0.000
REMARK  13 active torsions:
REMARK  status: ('A' for Active; 'I' for Inactive)
REMARK    1  A    between atoms: C6_8  and  C7_9 
REMARK    2  A    between atoms: C7_9  and  C8_10 
REMARK    3  A    between atoms: C8_10  and  C9_11 
REMARK    4  A    between atoms: C9_11  and  C10_12 
REMARK    5  A    between atoms: C10_12  and  C11_13 
REMARK    6  A    between atoms: C11_13  and  N2_16 
REMARK       I    between atoms: N2_16  and  C14_18 
REMARK    7  A    between atoms: C14_18  and  C15_20 
REMARK    8  A    between atoms: C18_24  and  S1_25 
REMARK    9  A    between atoms: C22_33  and  N5_34 
REMARK       I    between atoms: N5_34  and  C23_35 
REMARK   10  A    between atoms: C23_35  and  C24_37 
REMARK   11  A    between atoms: C24_37  and  C25_38 
REMARK   12  A    between atoms: C25_38  and  C26_39 
REMARK   13  A    between atoms: C26_39  and  N6_40 
ROOT
HETATM    1  C1  UNL     1      19.864  21.517  13.809  1.00  0.00     0.089 C 
HETATM    2  C2  UNL     1      18.756  21.982  14.684  1.00  0.00     0.079 A 
HETATM    3  N1  UNL     1      19.071  22.791  15.704  1.00  0.00    -0.345 N 
ATOM      4  H1  UNL     1      20.040  23.068  15.863  1.00  0.00     0.167 HD
HETATM    5  C3  UNL     1      18.086  23.237  16.524  1.00  0.00     0.048 A 
HETATM    6  C4  UNL     1      18.393  24.083  17.589  1.00  0.00     0.031 A 
HETATM    7  C5  UNL     1      17.369  24.524  18.407  1.00  0.00     0.009 A 
HETATM    8  C6  UNL     1      16.045  24.180  18.237  1.00  0.00    -0.057 A 
HETATM    9  C20 UNL     1      15.760  23.337  17.171  1.00  0.00     0.026 A 
HETATM   10  C21 UNL     1      16.778  22.892  16.349  1.00  0.00     0.050 A 
HETATM   11  C22 UNL     1      16.452  22.035  15.267  1.00  0.00     0.196 A 
HETATM   12  N7  UNL     1      17.479  21.629  14.494  1.00  0.00    -0.320 N 
ATOM     13  H7  UNL     1      17.267  21.010  13.710  1.00  0.00     0.169 HD
ENDROOT
BRANCH   8  14
HETATM   14  C7  UNL     1      14.972  24.689  19.119  1.00  0.00     0.038 C 
BRANCH  14  15
HETATM   15  C8  UNL     1      14.988  24.028  20.505  1.00  0.00     0.005 C 
BRANCH  15  16
HETATM   16  C9  UNL     1      14.434  22.652  20.499  1.00  0.00     0.003 C 
BRANCH  16  17
HETATM   17  C10 UNL     1      13.026  22.453  20.126  1.00  0.00     0.030 C 
BRANCH  17  18
HETATM   18  C11 UNL     1      12.652  21.537  19.030  1.00  0.00     0.026 C 
HETATM   19  C12 UNL     1      13.872  20.658  18.650  1.00  0.00     0.038 C 
HETATM   20  C13 UNL     1      12.361  22.321  17.759  1.00  0.00     0.038 C 
BRANCH  18  21
HETATM   21  N2  UNL     1      11.571  20.642  19.352  1.00  0.00    -0.347 N 
HETATM   22  C14 UNL     1      10.268  21.003  19.723  1.00  0.00     0.270 C 
HETATM   23  O1  UNL     1       9.953  22.211  19.798  1.00  0.00    -0.266 OA
ATOM     24  H2  UNL     1      11.774  19.644  19.306  1.00  0.00     0.163 HD
BRANCH  22  25
HETATM   25  C15 UNL     1       9.291  19.961  20.020  1.00  0.00     0.118 A 
HETATM   26  C16 UNL     1       9.527  18.691  20.528  1.00  0.00     0.128 A 
HETATM   27  N3  UNL     1       8.357  18.038  20.672  1.00  0.00    -0.336 N 
HETATM   28  C17 UNL     1       8.215  16.666  21.180  1.00  0.00     0.158 C 
HETATM   29  C18 UNL     1       7.372  18.872  20.265  1.00  0.00     0.205 A 
HETATM   30  N4  UNL     1       7.951  20.020  19.877  1.00  0.00    -0.327 N 
ATOM     31  H4  UNL     1       7.443  20.829  19.521  1.00  0.00     0.168 HD
BRANCH  29  32
HETATM   32  S1  UNL     1       5.661  18.506  20.263  1.00  0.00     0.203 S 
HETATM   33  C19 UNL     1       5.350  17.221  19.072  1.00  0.00     0.170 C 
HETATM   34  O2  UNL     1       5.210  18.017  21.611  1.00  0.00    -0.220 OA
HETATM   35  O3  UNL     1       4.859  19.736  19.939  1.00  0.00    -0.220 OA
ENDBRANCH  29  32
ENDBRANCH  22  25
ENDBRANCH  18  21
ENDBRANCH  17  18
ENDBRANCH  16  17
ENDBRANCH  15  16
ENDBRANCH  14  15
ENDBRANCH   8  14
BRANCH  11  36
HETATM   36  N5  UNL     1      15.310  21.721  15.087  1.00  0.00    -0.351 NA
HETATM   37  C23 UNL     1      14.199  21.038  14.878  1.00  0.00     0.293 C 
HETATM   38  O4  UNL     1      13.256  21.593  14.176  1.00  0.00    -0.257 OA
BRANCH  37  39
HETATM   39  C24 UNL     1      13.850  19.662  15.356  1.00  0.00     0.121 C 
BRANCH  39  40
HETATM   40  C25 UNL     1      12.406  19.369  15.199  1.00  0.00     0.040 C 
BRANCH  40  41
HETATM   41  C26 UNL     1      11.702  18.854  16.425  1.00  0.00     0.274 C 
BRANCH  41  42
HETATM   42  N6  UNL     1      11.027  17.630  16.042  1.00  0.00     0.097 N 
HETATM   43  C27 UNL     1      11.355  17.181  14.724  1.00  0.00     0.273 C 
HETATM   44  C28 UNL     1      10.110  16.500  14.185  1.00  0.00     0.033 C 
HETATM   45  C29 UNL     1       8.989  17.239  14.861  1.00  0.00     0.043 C 
HETATM   46  C30 UNL     1       9.600  17.723  16.136  1.00  0.00     0.152 C 
HETATM   47  C31 UNL     1       9.142  16.839  17.281  1.00  0.00     0.049 C 
HETATM   48  C32 UNL     1       9.133  19.127  16.459  1.00  0.00     0.049 C 
ENDBRANCH  41  42
ENDBRANCH  40  41
ENDBRANCH  39  40
ENDBRANCH  37  39
ENDBRANCH  11  36
TORSDOF 13
ENDMDL
MODEL 2
REMARK VINA RESULT: -9.283114323      3.673     10.151
REMARK  13 active torsions:
REMARK  status: ('A' for Active; 'I' for Inactive)
REMARK    1  A    between atoms: C6_8  and  C7_9 
REMARK    2  A    between atoms: C7_9  and  C8_10 
REMARK    3  A    between atoms: C8_10  and  C9_11 
REMARK    4  A    between atoms: C9_11  and  C10_12 
REMARK    5  A    between atoms: C10_12  and  C11_13 
REMARK    6  A    between atoms: C11_13  and  N2_16 
REMARK       I    between atoms: N2_16  and  C14_18 
REMARK    7  A    between atoms: C14_18  and  C15_20 
REMARK    8  A    between atoms: C18_24  and  S1_25 
REMARK    9  A    between atoms: C22_33  and  N5_34 
REMARK       I    between atoms: N5_34  and  C23_35 
REMARK   10  A    between atoms: C23_35  and  C24_37 
REMARK   11  A    between atoms: C24_37  and  C25_38 
REMARK   12  A    between atoms: C25_38  and  C26_39 
REMARK   13  A    between atoms: C26_39  and  N6_40 
ROOT
HETATM    1  C1  UNL     1       4.086  12.631  15.945  1.00  0.00     0.089 C 
HETATM    2  C2  UNL     1       4.956  13.832  16.043  1.00  0.00     0.079 A 
HETATM    3  N1  UNL     1       5.853  14.027  15.066  1.00  0.00    -0.345 N 
ATOM      4  H1  UNL     1       5.924  13.367  14.292  1.00  0.00     0.167 HD
HETATM    5  C3  UNL     1       6.664  15.114  15.119  1.00  0.00     0.048 A 
HETATM    6  C4  UNL     1       7.600  15.337  14.110  1.00  0.00     0.031 A 
HETATM    7  C5  UNL     1       8.413  16.453  14.189  1.00  0.00     0.009 A 
HETATM    8  C6  UNL     1       8.356  17.376  15.212  1.00  0.00    -0.057 A 
HETATM    9  C20 UNL     1       7.418  17.136  16.206  1.00  0.00     0.026 A 
HETATM   10  C21 UNL     1       6.602  16.022  16.134  1.00  0.00     0.050 A 
HETATM   11  C22 UNL     1       5.651  15.810  17.165  1.00  0.00     0.196 A 
HETATM   12  N7  UNL     1       4.879  14.711  17.050  1.00  0.00    -0.320 N 
ATOM     13  H7  UNL     1       4.189  14.536  17.781  1.00  0.00     0.169 HD
ENDROOT
BRANCH   8  14
HETATM   14  C7  UNL     1       9.227  18.571  15.253  1.00  0.00     0.038 C 
BRANCH  14  15
HETATM   15  C8  UNL     1      10.719  18.212  15.242  1.00  0.00     0.005 C 
BRANCH  15  16
HETATM   16  C9  UNL     1      11.604  19.403  15.236  1.00  0.00     0.003 C 
BRANCH  16  17
HETATM   17  C10 UNL     1      13.021  19.239  15.591  1.00  0.00     0.030 C 
BRANCH  17  18
HETATM   18  C11 UNL     1      14.032  20.220  15.155  1.00  0.00     0.026 C 
HETATM   19  C12 UNL     1      13.474  21.046  13.966  1.00  0.00     0.038 C 
HETATM   20  C13 UNL     1      15.242  19.510  14.565  1.00  0.00     0.038 C 
BRANCH  18  21
HETATM   21  N2  UNL     1      14.423  21.159  16.175  1.00  0.00    -0.347 N 
HETATM   22  C14 UNL     1      14.757  20.860  17.504  1.00  0.00     0.270 C 
HETATM   23  O1  UNL     1      14.734  19.673  17.900  1.00  0.00    -0.266 OA
ATOM     24  H2  UNL     1      14.459  22.141  15.903  1.00  0.00     0.163 HD
BRANCH  22  25
HETATM   25  C15 UNL     1      15.130  21.939  18.411  1.00  0.00     0.118 A 
HETATM   26  C16 UNL     1      14.552  22.263  19.632  1.00  0.00     0.128 A 
HETATM   27  N3  UNL     1      15.194  23.320  20.168  1.00  0.00    -0.336 N 
HETATM   28  C17 UNL     1      14.858  23.945  21.454  1.00  0.00     0.158 C 
HETATM   29  C18 UNL     1      16.177  23.678  19.310  1.00  0.00     0.205 A 
HETATM   30  N4  UNL     1      16.122  22.840  18.262  1.00  0.00    -0.327 N 
ATOM     31  H4  UNL     1      16.750  22.879  17.459  1.00  0.00     0.168 HD
BRANCH  29  32
HETATM   32  S1  UNL     1      17.309  24.991  19.545  1.00  0.00     0.203 S 
HETATM   33  C19 UNL     1      18.324  25.142  18.091  1.00  0.00     0.170 C 
HETATM   34  O2  UNL     1      16.592  26.294  19.755  1.00  0.00    -0.220 OA
HETATM   35  O3  UNL     1      18.158  24.743  20.762  1.00  0.00    -0.220 OA
ENDBRANCH  29  32
ENDBRANCH  22  25
ENDBRANCH  18  21
ENDBRANCH  17  18
ENDBRANCH  16  17
ENDBRANCH  15  16
ENDBRANCH  14  15
ENDBRANCH   8  14
BRANCH  11  36
HETATM   36  N5  UNL     1       5.572  16.595  18.066  1.00  0.00    -0.351 NA
HETATM   37  C23 UNL     1       5.545  17.159  19.261  1.00  0.00     0.293 C 
HETATM   38  O4  UNL     1       4.760  18.178  19.444  1.00  0.00    -0.257 OA
BRANCH  37  39
HETATM   39  C24 UNL     1       6.323  16.781  20.483  1.00  0.00     0.121 C 
BRANCH  39  40
HETATM   40  C25 UNL     1       7.786  16.841  20.250  1.00  0.00     0.040 C 
BRANCH  40  41
HETATM   41  C26 UNL     1       8.267  17.971  19.381  1.00  0.00     0.274 C 
BRANCH  41  42
HETATM   42  N6  UNL     1       8.733  19.018  20.269  1.00  0.00     0.097 N 
HETATM   43  C27 UNL     1       7.916  20.192  20.251  1.00  0.00     0.273 C 
HETATM   44  C28 UNL     1       8.849  21.363  20.501  1.00  0.00     0.033 C 
HETATM   45  C29 UNL     1      10.150  20.904  19.901  1.00  0.00     0.043 C 
HETATM   46  C30 UNL     1      10.084  19.415  20.008  1.00  0.00     0.152 C 
HETATM   47  C31 UNL     1      10.946  18.955  21.170  1.00  0.00     0.049 C 
HETATM   48  C32 UNL     1      10.650  18.759  18.765  1.00  0.00     0.049 C 
ENDBRANCH  41  42
ENDBRANCH  40  41
ENDBRANCH  39  40
ENDBRANCH  37  39
ENDBRANCH  11  36
TORSDOF 13
ENDMDL
MODEL 3
REMARK VINA RESULT: -9.086660559      3.945     10.713
REMARK  13 active torsions:
REMARK  status: ('A' for Active; 'I' for Inactive)
REMARK    1  A    between atoms: C6_8  and  C7_9 
REMARK    2  A    between atoms: C7_9  and  C8_10 
REMARK    3  A    between atoms: C8_10  and  C9_11 
REMARK    4  A    between atoms: C9_11  and  C10_12 
REMARK    5  A    between atoms: C10_12  and  C11_13 
REMARK    6  A    between atoms: C11_13  and  N2_16 
REMARK       I    between atoms: N2_16  and  C14_18 
REMARK    7  A    between atoms: C14_18  and  C15_20 
REMARK    8  A    between atoms: C18_24  and  S1_25 
REMARK    9  A    between atoms: C22_33  and  N5_34 
REMARK       I    between atoms: N5_34  and  C23_35 
REMARK   10  A    between atoms: C23_35  and  C24_37 
REMARK   11  A    between atoms: C24_37  and  C25_38 
REMARK   12  A    between atoms: C25_38  and  C26_39 
REMARK   13  A    between atoms: C26_39  and  N6_40 
ROOT
HETATM    1  C1  UNL     1       3.241  12.101  16.239  1.00  0.00     0.089 C 
HETATM    2  C2  UNL     1       3.973  13.387  16.094  1.00  0.00     0.079 A 
HETATM    3  N1  UNL     1       5.102  13.378  15.372  1.00  0.00    -0.345 N 
ATOM      4  H1  UNL     1       5.434  12.513  14.945  1.00  0.00     0.167 HD
HETATM    5  C3  UNL     1       5.796  14.533  15.215  1.00  0.00     0.048 A 
HETATM    6  C4  UNL     1       6.970  14.546  14.463  1.00  0.00     0.031 A 
HETATM    7  C5  UNL     1       7.657  15.738  14.318  1.00  0.00     0.009 A 
HETATM    8  C6  UNL     1       7.250  16.932  14.874  1.00  0.00    -0.057 A 
HETATM    9  C20 UNL     1       6.079  16.899  15.617  1.00  0.00     0.026 A 
HETATM   10  C21 UNL     1       5.387  15.711  15.767  1.00  0.00     0.050 A 
HETATM   11  C22 UNL     1       4.192  15.713  16.530  1.00  0.00     0.196 A 
HETATM   12  N7  UNL     1       3.554  14.532  16.646  1.00  0.00    -0.320 N 
ATOM     13  H7  UNL     1       2.692  14.509  17.193  1.00  0.00     0.169 HD
ENDROOT
BRANCH   8  14
HETATM   14  C7  UNL     1       7.999  18.194  14.679  1.00  0.00     0.038 C 
BRANCH  14  15
HETATM   15  C8  UNL     1       9.415  18.134  15.268  1.00  0.00     0.005 C 
BRANCH  15  16
HETATM   16  C9  UNL     1       9.613  19.068  16.403  1.00  0.00     0.003 C 
BRANCH  16  17
HETATM   17  C10 UNL     1      10.755  19.992  16.373  1.00  0.00     0.030 C 
BRANCH  17  18
HETATM   18  C11 UNL     1      12.083  19.576  16.865  1.00  0.00     0.026 C 
HETATM   19  C12 UNL     1      12.921  19.019  15.685  1.00  0.00     0.038 C 
HETATM   20  C13 UNL     1      11.952  18.390  17.808  1.00  0.00     0.038 C 
BRANCH  18  21
HETATM   21  N2  UNL     1      12.850  20.638  17.463  1.00  0.00    -0.347 N 
HETATM   22  C14 UNL     1      14.134  20.534  18.018  1.00  0.00     0.270 C 
HETATM   23  O1  UNL     1      14.724  19.431  18.020  1.00  0.00    -0.266 OA
ATOM     24  H2  UNL     1      12.415  21.560  17.486  1.00  0.00     0.163 HD
BRANCH  22  25
HETATM   25  C15 UNL     1      14.768  21.716  18.588  1.00  0.00     0.118 A 
HETATM   26  C16 UNL     1      14.343  22.472  19.673  1.00  0.00     0.128 A 
HETATM   27  N3  UNL     1      15.215  23.476  19.892  1.00  0.00    -0.336 N 
HETATM   28  C17 UNL     1      15.089  24.483  20.956  1.00  0.00     0.158 C 
HETATM   29  C18 UNL     1      16.195  23.376  18.964  1.00  0.00     0.205 A 
HETATM   30  N4  UNL     1      15.910  22.316  18.191  1.00  0.00    -0.327 N 
ATOM     31  H4  UNL     1      16.482  22.005  17.406  1.00  0.00     0.168 HD
BRANCH  29  32
HETATM   32  S1  UNL     1      17.578  24.438  18.822  1.00  0.00     0.203 S 
HETATM   33  C19 UNL     1      17.043  25.989  18.133  1.00  0.00     0.170 C 
HETATM   34  O2  UNL     1      18.194  24.708  20.165  1.00  0.00    -0.220 OA
HETATM   35  O3  UNL     1      18.637  23.810  17.958  1.00  0.00    -0.220 OA
ENDBRANCH  29  32
ENDBRANCH  22  25
ENDBRANCH  18  21
ENDBRANCH  17  18
ENDBRANCH  16  17
ENDBRANCH  15  16
ENDBRANCH  14  15
ENDBRANCH   8  14
BRANCH  11  36
HETATM   36  N5  UNL     1       3.808  16.736  17.022  1.00  0.00    -0.351 NA
HETATM   37  C23 UNL     1       3.260  17.633  17.822  1.00  0.00     0.293 C 
HETATM   38  O4  UNL     1       2.738  18.698  17.290  1.00  0.00    -0.257 OA
BRANCH  37  39
HETATM   39  C24 UNL     1       3.154  17.603  19.316  1.00  0.00     0.121 C 
BRANCH  39  40
HETATM   40  C25 UNL     1       4.479  17.448  19.963  1.00  0.00     0.040 C 
BRANCH  40  41
HETATM   41  C26 UNL     1       5.655  17.979  19.188  1.00  0.00     0.274 C 
BRANCH  41  42
HETATM   42  N6  UNL     1       6.605  18.487  20.158  1.00  0.00     0.097 N 
HETATM   43  C27 UNL     1       6.816  19.899  20.070  1.00  0.00     0.273 C 
HETATM   44  C28 UNL     1       8.260  20.139  20.469  1.00  0.00     0.033 C 
HETATM   45  C29 UNL     1       8.956  18.881  20.028  1.00  0.00     0.043 C 
HETATM   46  C30 UNL     1       7.882  17.843  20.083  1.00  0.00     0.152 C 
HETATM   47  C31 UNL     1       8.061  16.999  21.332  1.00  0.00     0.049 C 
HETATM   48  C32 UNL     1       7.984  16.897  18.904  1.00  0.00     0.049 C 
ENDBRANCH  41  42
ENDBRANCH  40  41
ENDBRANCH  39  40
ENDBRANCH  37  39
ENDBRANCH  11  36
TORSDOF 13
ENDMDL
MODEL 4
REMARK VINA RESULT: -8.973803633      3.800     11.032
REMARK  13 active torsions:
REMARK  status: ('A' for Active; 'I' for Inactive)
REMARK    1  A    between atoms: C6_8  and  C7_9 
REMARK    2  A    between atoms: C7_9  and  C8_10 
REMARK    3  A    between atoms: C8_10  and  C9_11 
REMARK    4  A    between atoms: C9_11  and  C10_12 
REMARK    5  A    between atoms: C10_12  and  C11_13 
REMARK    6  A    between atoms: C11_13  and  N2_16 
REMARK       I    between atoms: N2_16  and  C14_18 
REMARK    7  A    between atoms: C14_18  and  C15_20 
REMARK    8  A    between atoms: C18_24  and  S1_25 
REMARK    9  A    between atoms: C22_33  and  N5_34 
REMARK       I    between atoms: N5_34  and  C23_35 
REMARK   10  A    between atoms: C23_35  and  C24_37 
REMARK   11  A    between atoms: C24_37  and  C25_38 
REMARK   12  A    between atoms: C25_38  and  C26_39 
REMARK   13  A    between atoms: C26_39  and  N6_40 
ROOT
HETATM    1  C1  UNL     1       3.515  12.666  15.889  1.00  0.00     0.089 C 
HETATM    2  C2  UNL     1       4.521  13.756  15.994  1.00  0.00     0.079 A 
HETATM    3  N1  UNL     1       5.444  13.841  15.027  1.00  0.00    -0.345 N 
ATOM      4  H1  UNL     1       5.446  13.174  14.255  1.00  0.00     0.167 HD
HETATM    5  C3  UNL     1       6.378  14.824  15.088  1.00  0.00     0.048 A 
HETATM    6  C4  UNL     1       7.345  14.932  14.089  1.00  0.00     0.031 A 
HETATM    7  C5  UNL     1       8.282  15.945  14.176  1.00  0.00     0.009 A 
HETATM    8  C6  UNL     1       8.324  16.870  15.197  1.00  0.00    -0.057 A 
HETATM    9  C20 UNL     1       7.353  16.746  16.180  1.00  0.00     0.026 A 
HETATM   10  C21 UNL     1       6.412  15.736  16.101  1.00  0.00     0.050 A 
HETATM   11  C22 UNL     1       5.432  15.640  17.122  1.00  0.00     0.196 A 
HETATM   12  N7  UNL     1       4.537  14.640  17.000  1.00  0.00    -0.320 N 
ATOM     13  H7  UNL     1       3.823  14.550  17.724  1.00  0.00     0.169 HD
ENDROOT
BRANCH   8  14
HETATM   14  C7  UNL     1       9.329  17.955  15.245  1.00  0.00     0.038 C 
BRANCH  14  15
HETATM   15  C8  UNL     1      10.740  17.465  14.890  1.00  0.00     0.005 C 
BRANCH  15  16
HETATM   16  C9  UNL     1      11.811  18.231  15.573  1.00  0.00     0.003 C 
BRANCH  16  17
HETATM   17  C10 UNL     1      12.128  19.586  15.101  1.00  0.00     0.030 C 
BRANCH  17  18
HETATM   18  C11 UNL     1      12.536  20.644  16.045  1.00  0.00     0.026 C 
HETATM   19  C12 UNL     1      13.043  19.998  17.361  1.00  0.00     0.038 C 
HETATM   20  C13 UNL     1      11.327  21.458  16.485  1.00  0.00     0.038 C 
BRANCH  18  21
HETATM   21  N2  UNL     1      13.590  21.496  15.559  1.00  0.00    -0.347 N 
HETATM   22  C14 UNL     1      14.886  21.100  15.198  1.00  0.00     0.270 C 
HETATM   23  O1  UNL     1      15.217  19.897  15.285  1.00  0.00    -0.266 OA
ATOM     24  H2  UNL     1      13.372  22.488  15.468  1.00  0.00     0.163 HD
BRANCH  22  25
HETATM   25  C15 UNL     1      15.837  22.100  14.724  1.00  0.00     0.118 A 
HETATM   26  C16 UNL     1      15.665  23.021  13.700  1.00  0.00     0.128 A 
HETATM   27  N3  UNL     1      16.775  23.777  13.582  1.00  0.00    -0.336 N 
HETATM   28  C17 UNL     1      16.959  24.854  12.600  1.00  0.00     0.158 C 
HETATM   29  C18 UNL     1      17.657  23.355  14.517  1.00  0.00     0.205 A 
HETATM   30  N4  UNL     1      17.077  22.349  15.192  1.00  0.00    -0.327 N 
ATOM     31  H4  UNL     1      17.518  21.839  15.958  1.00  0.00     0.168 HD
BRANCH  29  32
HETATM   32  S1  UNL     1      19.252  24.020  14.790  1.00  0.00     0.203 S 
HETATM   33  C19 UNL     1      19.093  25.534  15.711  1.00  0.00     0.170 C 
HETATM   34  O2  UNL     1      20.105  23.073  15.586  1.00  0.00    -0.220 OA
HETATM   35  O3  UNL     1      19.952  24.264  13.481  1.00  0.00    -0.220 OA
ENDBRANCH  29  32
ENDBRANCH  22  25
ENDBRANCH  18  21
ENDBRANCH  17  18
ENDBRANCH  16  17
ENDBRANCH  15  16
ENDBRANCH  14  15
ENDBRANCH   8  14
BRANCH  11  36
HETATM   36  N5  UNL     1       5.437  16.432  18.021  1.00  0.00    -0.351 NA
HETATM   37  C23 UNL     1       5.405  16.999  19.214  1.00  0.00     0.293 C 
HETATM   38  O4  UNL     1       4.867  18.177  19.322  1.00  0.00    -0.257 OA
BRANCH  37  39
HETATM   39  C24 UNL     1       5.925  16.462  20.511  1.00  0.00     0.121 C 
BRANCH  39  40
HETATM   40  C25 UNL     1       7.072  17.253  21.019  1.00  0.00     0.040 C 
BRANCH  40  41
HETATM   41  C26 UNL     1       8.023  17.774  19.975  1.00  0.00     0.274 C 
BRANCH  41  42
HETATM   42  N6  UNL     1       8.673  18.940  20.541  1.00  0.00     0.097 N 
HETATM   43  C27 UNL     1       7.873  20.124  20.491  1.00  0.00     0.273 C 
HETATM   44  C28 UNL     1       8.839  21.283  20.321  1.00  0.00     0.033 C 
HETATM   45  C29 UNL     1       9.976  20.677  19.547  1.00  0.00     0.043 C 
HETATM   46  C30 UNL     1       9.935  19.232  19.929  1.00  0.00     0.152 C 
HETATM   47  C31 UNL     1      11.030  18.947  20.940  1.00  0.00     0.049 C 
HETATM   48  C32 UNL     1      10.214  18.349  18.730  1.00  0.00     0.049 C 
ENDBRANCH  41  42
ENDBRANCH  40  41
ENDBRANCH  39  40
ENDBRANCH  37  39
ENDBRANCH  11  36
TORSDOF 13
ENDMDL
MODEL 5
REMARK VINA RESULT: -8.954375646      2.641      4.835
REMARK  13 active torsions:
REMARK  status: ('A' for Active; 'I' for Inactive)
REMARK    1  A    between atoms: C6_8  and  C7_9 
REMARK    2  A    between atoms: C7_9  and  C8_10 
REMARK    3  A    between atoms: C8_10  and  C9_11 
REMARK    4  A    between atoms: C9_11  and  C10_12 
REMARK    5  A    between atoms: C10_12  and  C11_13 
REMARK    6  A    between atoms: C11_13  and  N2_16 
REMARK       I    between atoms: N2_16  and  C14_18 
REMARK    7  A    between atoms: C14_18  and  C15_20 
REMARK    8  A    between atoms: C18_24  and  S1_25 
REMARK    9  A    between atoms: C22_33  and  N5_34 
REMARK       I    between atoms: N5_34  and  C23_35 
REMARK   10  A    between atoms: C23_35  and  C24_37 
REMARK   11  A    between atoms: C24_37  and  C25_38 
REMARK   12  A    between atoms: C25_38  and  C26_39 
REMARK   13  A    between atoms: C26_39  and  N6_40 
ROOT
HETATM    1  C1  UNL     1      19.903  28.381  18.366  1.00  0.00     0.089 C 
HETATM    2  C2  UNL     1      19.119  27.124  18.234  1.00  0.00     0.079 A 
HETATM    3  N1  UNL     1      18.125  26.920  19.109  1.00  0.00    -0.345 N 
ATOM      4  H1  UNL     1      17.927  27.609  19.835  1.00  0.00     0.167 HD
HETATM    5  C3  UNL     1      17.386  25.785  19.019  1.00  0.00     0.048 A 
HETATM    6  C4  UNL     1      16.346  25.556  19.918  1.00  0.00     0.031 A 
HETATM    7  C5  UNL     1      15.607  24.392  19.801  1.00  0.00     0.009 A 
HETATM    8  C6  UNL     1      15.834  23.430  18.839  1.00  0.00    -0.057 A 
HETATM    9  C20 UNL     1      16.874  23.677  17.954  1.00  0.00     0.026 A 
HETATM   10  C21 UNL     1      17.616  24.839  18.064  1.00  0.00     0.050 A 
HETATM   11  C22 UNL     1      18.669  25.061  17.141  1.00  0.00     0.196 A 
HETATM   12  N7  UNL     1      19.363  26.207  17.289  1.00  0.00    -0.320 N 
ATOM     13  H7  UNL     1      20.127  26.388  16.637  1.00  0.00     0.169 HD
ENDROOT
BRANCH   8  14
HETATM   14  C7  UNL     1      15.009  22.207  18.730  1.00  0.00     0.038 C 
BRANCH  14  15
HETATM   15  C8  UNL     1      13.595  22.399  19.296  1.00  0.00     0.005 C 
BRANCH  15  16
HETATM   16  C9  UNL     1      12.801  21.146  19.314  1.00  0.00     0.003 C 
BRANCH  16  17
HETATM   17  C10 UNL     1      11.380  21.199  18.942  1.00  0.00     0.030 C 
BRANCH  17  18
HETATM   18  C11 UNL     1      10.372  20.412  19.679  1.00  0.00     0.026 C 
HETATM   19  C12 UNL     1       9.413  21.372  20.430  1.00  0.00     0.038 C 
HETATM   20  C13 UNL     1      11.032  19.614  20.794  1.00  0.00     0.038 C 
BRANCH  18  21
HETATM   21  N2  UNL     1       9.557  19.568  18.844  1.00  0.00    -0.347 N 
HETATM   22  C14 UNL     1      10.003  18.529  18.014  1.00  0.00     0.270 C 
HETATM   23  O1  UNL     1      11.223  18.261  17.952  1.00  0.00    -0.266 OA
ATOM     24  H2  UNL     1       8.552  19.744  18.857  1.00  0.00     0.163 HD
BRANCH  22  25
HETATM   25  C15 UNL     1       9.035  17.772  17.228  1.00  0.00     0.118 A 
HETATM   26  C16 UNL     1       9.201  17.238  15.957  1.00  0.00     0.128 A 
HETATM   27  N3  UNL     1       8.075  16.597  15.587  1.00  0.00    -0.336 N 
HETATM   28  C17 UNL     1       7.880  15.912  14.301  1.00  0.00     0.158 C 
HETATM   29  C18 UNL     1       7.189  16.710  16.603  1.00  0.00     0.205 A 
HETATM   30  N4  UNL     1       7.782  17.418  17.577  1.00  0.00    -0.327 N 
ATOM     31  H4  UNL     1       7.341  17.657  18.466  1.00  0.00     0.168 HD
BRANCH  29  32
HETATM   32  S1  UNL     1       5.573  16.038  16.627  1.00  0.00     0.203 S 
HETATM   33  C19 UNL     1       4.911  16.195  18.271  1.00  0.00     0.170 C 
HETATM   34  O2  UNL     1       4.666  16.776  15.683  1.00  0.00    -0.220 OA
HETATM   35  O3  UNL     1       5.594  14.598  16.198  1.00  0.00    -0.220 OA
ENDBRANCH  29  32
ENDBRANCH  22  25
ENDBRANCH  18  21
ENDBRANCH  17  18
ENDBRANCH  16  17
ENDBRANCH  15  16
ENDBRANCH  14  15
ENDBRANCH   8  14
BRANCH  11  36
HETATM   36  N5  UNL     1      18.889  24.248  16.289  1.00  0.00    -0.351 NA
HETATM   37  C23 UNL     1      18.788  23.435  15.253  1.00  0.00     0.293 C 
HETATM   38  O4  UNL     1      19.426  22.303  15.292  1.00  0.00    -0.257 OA
BRANCH  37  39
HETATM   39  C24 UNL     1      18.017  23.639  13.985  1.00  0.00     0.121 C 
BRANCH  39  40
HETATM   40  C25 UNL     1      17.074  22.525  13.725  1.00  0.00     0.040 C 
BRANCH  40  41
HETATM   41  C26 UNL     1      15.624  22.814  14.005  1.00  0.00     0.274 C 
BRANCH  41  42
HETATM   42  N6  UNL     1      15.205  21.900  15.050  1.00  0.00     0.097 N 
HETATM   43  C27 UNL     1      16.208  20.950  15.417  1.00  0.00     0.273 C 
HETATM   44  C28 UNL     1      15.470  19.685  15.816  1.00  0.00     0.033 C 
HETATM   45  C29 UNL     1      14.233  19.721  14.963  1.00  0.00     0.043 C 
HETATM   46  C30 UNL     1      14.012  21.180  14.719  1.00  0.00     0.152 C 
HETATM   47  C31 UNL     1      12.894  21.677  15.618  1.00  0.00     0.049 C 
HETATM   48  C32 UNL     1      13.562  21.427  13.294  1.00  0.00     0.049 C 
ENDBRANCH  41  42
ENDBRANCH  40  41
ENDBRANCH  39  40
ENDBRANCH  37  39
ENDBRANCH  11  36
TORSDOF 13
ENDMDL
