MODEL 1
REMARK VINA RESULT: -6.272583217      0.000      0.000
REMARK  8 active torsions:
REMARK  status: ('A' for Active; 'I' for Inactive)
REMARK    1  A    between atoms: O1_1  and  N1_3 
REMARK    2  A    between atoms: C1_5  and  O2_6 
REMARK    3  A    between atoms: C1_5  and  O3_8 
REMARK    4  A    between atoms: O3_8  and  C2_9 
REMARK    5  A    between atoms: C2_9  and  C3_10 
REMARK    6  A    between atoms: C4_11  and  O4_12 
REMARK    7  A    between atoms: C6_15  and  O5_16 
REMARK    8  A    between atoms: C7_19  and  O6_20 
ROOT
HETATM    1  C3  UNL     1       9.056   3.001  34.653  1.00  0.00     0.072 C 
HETATM    2  C4  UNL     1       8.056   2.642  33.547  1.00  0.00     0.130 C 
HETATM    3  C5  UNL     1       8.931   2.113  32.450  1.00  0.00     0.085 C 
HETATM    4  C6  UNL     1      10.116   1.469  33.145  1.00  0.00     0.144 C 
HETATM    5  S1  UNL     1      10.074  -0.318  32.858  1.00  0.00    -0.053 SA
HETATM    6  C7  UNL     1       9.960   1.795  34.623  1.00  0.00     0.172 C 
ENDROOT
BRANCH   1   7
HETATM    7  C2  UNL     1       8.281   3.123  35.920  1.00  0.00     0.189 C 
BRANCH   7   8
HETATM    8  O3  UNL     1       7.137   3.916  35.828  1.00  0.00    -0.315 OA
BRANCH   8   9
HETATM    9  C1  UNL     1       6.000   3.605  36.558  1.00  0.00     0.282 C 
HETATM   10  N1  UNL     1       5.670   4.415  37.519  1.00  0.00    -0.227 N 
ATOM     11  H1  UNL     1       6.246   5.236  37.704  1.00  0.00     0.198 HD
BRANCH  10  12
HETATM   12  O1  UNL     1       4.562   4.182  38.289  1.00  0.00    -0.286 OA
ATOM     13  H1  UNL     1       4.498   3.407  38.835  1.00  0.00     0.244 HD
ENDBRANCH  10  12
BRANCH   9  14
HETATM   14  O2  UNL     1       5.232   2.460  36.274  1.00  0.00    -0.326 OA
ATOM     15  H2  UNL     1       5.325   1.997  35.449  1.00  0.00     0.221 HD
ENDBRANCH   9  14
ENDBRANCH   8   9
ENDBRANCH   7   8
ENDBRANCH   1   7
BRANCH   2  16
HETATM   16  O4  UNL     1       7.305   1.560  34.045  1.00  0.00    -0.395 OA
ATOM     17  H4  UNL     1       6.637   1.945  34.601  1.00  0.00     0.210 HD
ENDBRANCH   2  16
BRANCH   6  18
HETATM   18  O6  UNL     1      11.232   2.062  35.120  1.00  0.00    -0.391 OA
ATOM     19  H6  UNL     1      11.612   2.851  34.752  1.00  0.00     0.210 HD
ENDBRANCH   6  18
BRANCH   4  20
HETATM   20  O5  UNL     1      11.287   2.012  32.618  1.00  0.00    -0.376 OA
ATOM     21  H5  UNL     1      11.783   1.315  32.205  1.00  0.00     0.211 HD
ENDBRANCH   4  20
TORSDOF 8
ENDMDL
MODEL 2
REMARK VINA RESULT: -6.033633809      3.290      5.885
REMARK  8 active torsions:
REMARK  status: ('A' for Active; 'I' for Inactive)
REMARK    1  A    between atoms: O1_1  and  N1_3 
REMARK    2  A    between atoms: C1_5  and  O2_6 
REMARK    3  A    between atoms: C1_5  and  O3_8 
REMARK    4  A    between atoms: O3_8  and  C2_9 
REMARK    5  A    between atoms: C2_9  and  C3_10 
REMARK    6  A    between atoms: C4_11  and  O4_12 
REMARK    7  A    between atoms: C6_15  and  O5_16 
REMARK    8  A    between atoms: C7_19  and  O6_20 
ROOT
HETATM    1  C3  UNL     1       6.734   3.880  35.208  1.00  0.00     0.072 C 
HETATM    2  C4  UNL     1       6.457   2.861  36.320  1.00  0.00     0.130 C 
HETATM    3  C5  UNL     1       5.982   3.714  37.458  1.00  0.00     0.085 C 
HETATM    4  C6  UNL     1       5.280   4.897  36.819  1.00  0.00     0.144 C 
HETATM    5  S1  UNL     1       3.514   4.823  37.212  1.00  0.00    -0.053 SA
HETATM    6  C7  UNL     1       5.518   4.765  35.322  1.00  0.00     0.172 C 
ENDROOT
BRANCH   1   7
HETATM    7  C2  UNL     1       6.791   3.123  33.925  1.00  0.00     0.189 C 
BRANCH   7   8
HETATM    8  O3  UNL     1       7.664   2.036  33.931  1.00  0.00    -0.315 OA
BRANCH   8   9
HETATM    9  C1  UNL     1       9.032   2.225  33.802  1.00  0.00     0.282 C 
HETATM   10  N1  UNL     1       9.547   2.064  32.620  1.00  0.00    -0.227 N 
ATOM     11  H1  UNL     1       8.942   1.807  31.840  1.00  0.00     0.198 HD
BRANCH  10  12
HETATM   12  O1  UNL     1      10.889   2.232  32.406  1.00  0.00    -0.286 OA
ATOM     13  H1  UNL     1      11.472   1.485  32.342  1.00  0.00     0.244 HD
ENDBRANCH  10  12
BRANCH   9  14
HETATM   14  O2  UNL     1       9.834   2.577  34.905  1.00  0.00    -0.326 OA
ATOM     15  H2  UNL     1      10.170   3.460  35.007  1.00  0.00     0.221 HD
ENDBRANCH   9  14
ENDBRANCH   8   9
ENDBRANCH   7   8
ENDBRANCH   1   7
BRANCH   2  16
HETATM   16  O4  UNL     1       5.359   2.099  35.877  1.00  0.00    -0.395 OA
ATOM     17  H4  UNL     1       4.799   1.987  36.636  1.00  0.00     0.210 HD
ENDBRANCH   2  16
BRANCH   6  18
HETATM   18  O6  UNL     1       5.736   6.047  34.827  1.00  0.00    -0.391 OA
ATOM     19  H6  UNL     1       5.373   6.724  35.385  1.00  0.00     0.210 HD
ENDBRANCH   6  18
BRANCH   4  20
HETATM   20  O5  UNL     1       5.836   6.069  37.328  1.00  0.00    -0.376 OA
ATOM     21  H5  UNL     1       5.153   6.560  37.769  1.00  0.00     0.211 HD
ENDBRANCH   4  20
TORSDOF 8
ENDMDL
MODEL 3
REMARK VINA RESULT: -5.920814907      3.867      5.402
REMARK  8 active torsions:
REMARK  status: ('A' for Active; 'I' for Inactive)
REMARK    1  A    between atoms: O1_1  and  N1_3 
REMARK    2  A    between atoms: C1_5  and  O2_6 
REMARK    3  A    between atoms: C1_5  and  O3_8 
REMARK    4  A    between atoms: O3_8  and  C2_9 
REMARK    5  A    between atoms: C2_9  and  C3_10 
REMARK    6  A    between atoms: C4_11  and  O4_12 
REMARK    7  A    between atoms: C6_15  and  O5_16 
REMARK    8  A    between atoms: C7_19  and  O6_20 
ROOT
HETATM    1  C3  UNL     1       5.023   4.085  36.450  1.00  0.00     0.072 C 
HETATM    2  C4  UNL     1       6.275   3.720  35.643  1.00  0.00     0.130 C 
HETATM    3  C5  UNL     1       6.104   2.253  35.386  1.00  0.00     0.085 C 
HETATM    4  C6  UNL     1       4.607   2.024  35.300  1.00  0.00     0.144 C 
HETATM    5  S1  UNL     1       4.176   1.538  33.610  1.00  0.00    -0.053 SA
HETATM    6  C7  UNL     1       3.960   3.348  35.675  1.00  0.00     0.172 C 
ENDROOT
BRANCH   1   7
HETATM    7  C2  UNL     1       4.877   5.566  36.386  1.00  0.00     0.189 C 
BRANCH   7   8
HETATM    8  O3  UNL     1       6.081   6.270  36.407  1.00  0.00    -0.315 OA
BRANCH   8   9
HETATM    9  C1  UNL     1       6.221   7.454  35.698  1.00  0.00     0.282 C 
HETATM   10  N1  UNL     1       6.834   8.434  36.290  1.00  0.00    -0.227 N 
ATOM     11  H1  UNL     1       7.186   8.306  37.239  1.00  0.00     0.198 HD
BRANCH  10  12
HETATM   12  O1  UNL     1       7.016   9.636  35.660  1.00  0.00    -0.286 OA
ATOM     13  H1  UNL     1       6.742  10.450  36.069  1.00  0.00     0.244 HD
ENDBRANCH  10  12
BRANCH   9  14
HETATM   14  O2  UNL     1       5.719   7.593  34.389  1.00  0.00    -0.326 OA
ATOM     15  H2  UNL     1       4.795   7.749  34.231  1.00  0.00     0.221 HD
ENDBRANCH   9  14
ENDBRANCH   8   9
ENDBRANCH   7   8
ENDBRANCH   1   7
BRANCH   2  16
HETATM   16  O4  UNL     1       6.142   4.384  34.409  1.00  0.00    -0.395 OA
ATOM     17  H4  UNL     1       6.874   4.092  33.878  1.00  0.00     0.210 HD
ENDBRANCH   2  16
BRANCH   6  18
HETATM   18  O6  UNL     1       2.838   3.054  36.446  1.00  0.00    -0.391 OA
ATOM     19  H6  UNL     1       2.680   3.698  37.125  1.00  0.00     0.210 HD
ENDBRANCH   6  18
BRANCH   4  20
HETATM   20  O5  UNL     1       4.263   1.010  36.194  1.00  0.00    -0.376 OA
ATOM     21  H5  UNL     1       4.476   0.174  35.797  1.00  0.00     0.211 HD
ENDBRANCH   4  20
TORSDOF 8
ENDMDL
MODEL 4
REMARK VINA RESULT: -5.844502031      2.999      5.326
REMARK  8 active torsions:
REMARK  status: ('A' for Active; 'I' for Inactive)
REMARK    1  A    between atoms: O1_1  and  N1_3 
REMARK    2  A    between atoms: C1_5  and  O2_6 
REMARK    3  A    between atoms: C1_5  and  O3_8 
REMARK    4  A    between atoms: O3_8  and  C2_9 
REMARK    5  A    between atoms: C2_9  and  C3_10 
REMARK    6  A    between atoms: C4_11  and  O4_12 
REMARK    7  A    between atoms: C6_15  and  O5_16 
REMARK    8  A    between atoms: C7_19  and  O6_20 
ROOT
HETATM    1  C3  UNL     1       7.554   2.042  34.210  1.00  0.00     0.072 C 
HETATM    2  C4  UNL     1       6.067   2.063  33.832  1.00  0.00     0.130 C 
HETATM    3  C5  UNL     1       5.395   2.503  35.098  1.00  0.00     0.085 C 
HETATM    4  C6  UNL     1       6.390   3.412  35.795  1.00  0.00     0.144 C 
HETATM    5  S1  UNL     1       5.733   5.099  35.826  1.00  0.00    -0.053 SA
HETATM    6  C7  UNL     1       7.671   3.334  34.979  1.00  0.00     0.172 C 
ENDROOT
BRANCH   1   7
HETATM    7  C2  UNL     1       8.329   2.042  32.938  1.00  0.00     0.189 C 
BRANCH   7   8
HETATM    8  O3  UNL     1       9.564   2.686  33.009  1.00  0.00    -0.315 OA
BRANCH   8   9
HETATM    9  C1  UNL     1      10.736   1.957  33.144  1.00  0.00     0.282 C 
HETATM   10  N1  UNL     1      11.040   1.533  34.334  1.00  0.00    -0.227 N 
ATOM     11  H1  UNL     1      10.421   1.745  35.116  1.00  0.00     0.198 HD
BRANCH  10  12
HETATM   12  O1  UNL     1      12.179   0.805  34.554  1.00  0.00    -0.286 OA
ATOM     13  H1  UNL     1      12.209  -0.126  34.369  1.00  0.00     0.244 HD
ENDBRANCH  10  12
BRANCH   9  14
HETATM   14  O2  UNL     1      11.567   1.686  32.039  1.00  0.00    -0.326 OA
ATOM     15  H2  UNL     1      11.538   2.227  31.258  1.00  0.00     0.221 HD
ENDBRANCH   9  14
ENDBRANCH   8   9
ENDBRANCH   7   8
ENDBRANCH   1   7
BRANCH   2  16
HETATM   16  O4  UNL     1       5.926   3.104  32.895  1.00  0.00    -0.395 OA
ATOM     17  H4  UNL     1       5.222   2.837  32.316  1.00  0.00     0.210 HD
ENDBRANCH   2  16
BRANCH   6  18
HETATM   18  O6  UNL     1       8.732   3.331  35.879  1.00  0.00    -0.391 OA
ATOM     19  H6  UNL     1       9.002   4.205  36.132  1.00  0.00     0.210 HD
ENDBRANCH   6  18
BRANCH   4  20
HETATM   20  O5  UNL     1       6.578   2.946  37.096  1.00  0.00    -0.376 OA
ATOM     21  H5  UNL     1       7.508   2.968  37.291  1.00  0.00     0.211 HD
ENDBRANCH   4  20
TORSDOF 8
ENDMDL
MODEL 5
REMARK VINA RESULT: -5.437631579      3.972      5.832
REMARK  8 active torsions:
REMARK  status: ('A' for Active; 'I' for Inactive)
REMARK    1  A    between atoms: O1_1  and  N1_3 
REMARK    2  A    between atoms: C1_5  and  O2_6 
REMARK    3  A    between atoms: C1_5  and  O3_8 
REMARK    4  A    between atoms: O3_8  and  C2_9 
REMARK    5  A    between atoms: C2_9  and  C3_10 
REMARK    6  A    between atoms: C4_11  and  O4_12 
REMARK    7  A    between atoms: C6_15  and  O5_16 
REMARK    8  A    between atoms: C7_19  and  O6_20 
ROOT
HETATM    1  C3  UNL     1       6.958   3.947  35.365  1.00  0.00     0.072 C 
HETATM    2  C4  UNL     1       6.690   2.994  36.537  1.00  0.00     0.130 C 
HETATM    3  C5  UNL     1       6.057   3.883  37.565  1.00  0.00     0.085 C 
HETATM    4  C6  UNL     1       5.302   4.941  36.784  1.00  0.00     0.144 C 
HETATM    5  S1  UNL     1       3.525   4.731  37.060  1.00  0.00    -0.053 SA
HETATM    6  C7  UNL     1       5.664   4.719  35.323  1.00  0.00     0.172 C 
ENDROOT
BRANCH   1   7
HETATM    7  C2  UNL     1       7.180   3.103  34.157  1.00  0.00     0.189 C 
BRANCH   7   8
HETATM    8  O3  UNL     1       6.049   2.918  33.362  1.00  0.00    -0.315 OA
BRANCH   8   9
HETATM    9  C1  UNL     1       6.043   1.970  32.350  1.00  0.00     0.282 C 
HETATM   10  N1  UNL     1       7.070   1.940  31.555  1.00  0.00    -0.227 N 
ATOM     11  H1  UNL     1       7.833   2.602  31.696  1.00  0.00     0.198 HD
BRANCH  10  12
HETATM   12  O1  UNL     1       7.144   1.034  30.530  1.00  0.00    -0.286 OA
ATOM     13  H1  UNL     1       6.796   1.238  29.670  1.00  0.00     0.244 HD
ENDBRANCH  10  12
BRANCH   9  14
HETATM   14  O2  UNL     1       4.969   1.074  32.186  1.00  0.00    -0.326 OA
ATOM     15  H2  UNL     1       5.036   0.328  31.602  1.00  0.00     0.221 HD
ENDBRANCH   9  14
ENDBRANCH   8   9
ENDBRANCH   7   8
ENDBRANCH   1   7
BRANCH   2  16
HETATM   16  O4  UNL     1       5.701   2.100  36.085  1.00  0.00    -0.395 OA
ATOM     17  H4  UNL     1       5.833   1.298  36.577  1.00  0.00     0.210 HD
ENDBRANCH   2  16
BRANCH   6  18
HETATM   18  O6  UNL     1       5.804   5.974  34.738  1.00  0.00    -0.391 OA
ATOM     19  H6  UNL     1       5.376   6.036  33.893  1.00  0.00     0.210 HD
ENDBRANCH   6  18
BRANCH   4  20
HETATM   20  O5  UNL     1       5.712   6.196  37.231  1.00  0.00    -0.376 OA
ATOM     21  H5  UNL     1       5.093   6.845  36.917  1.00  0.00     0.211 HD
ENDBRANCH   4  20
TORSDOF 8
ENDMDL
