MODEL 1
REMARK VINA RESULT: -7.209066225      0.000      0.000
REMARK  8 active torsions:
REMARK  status: ('A' for Active; 'I' for Inactive)
REMARK    1  A    between atoms: C2_2  and  N2_7 
REMARK    2  A    between atoms: N1_3  and  O1_5 
REMARK    3  A    between atoms: N2_7  and  O2_9 
REMARK    4  A    between atoms: O2_9  and  C3_10 
REMARK    5  A    between atoms: C3_10  and  N4_14 
REMARK    6  A    between atoms: N4_14  and  C4_16 
REMARK    7  A    between atoms: C8_20  and  O3_21 
REMARK    8  A    between atoms: C9_23  and  O4_24 
ROOT
HETATM    1  C3  UNL     1       7.054   3.314  34.258  1.00  0.00     0.237 C 
HETATM    2  N3  UNL     1       6.684   2.312  33.556  1.00  0.00    -0.364 N 
ATOM      3  H31 UNL     1       5.685   2.164  33.415  1.00  0.00     0.159 HD
ATOM      4  H32 UNL     1       7.395   1.696  33.161  1.00  0.00     0.159 HD
ENDROOT
BRANCH   1   5
HETATM    5  O2  UNL     1       8.409   3.515  34.450  1.00  0.00    -0.200 OA
BRANCH   5   6
HETATM    6  N2  UNL     1       9.230   2.610  35.067  1.00  0.00    -0.244 N 
ATOM      7  H2  UNL     1       9.065   2.331  36.035  1.00  0.00     0.196 HD
BRANCH   6   8
HETATM    8  C2  UNL     1      10.314   2.068  34.332  1.00  0.00     0.118 C 
HETATM    9  C1  UNL     1      10.305   2.081  32.849  1.00  0.00     0.093 C 
HETATM   10  N1  UNL     1      11.334   1.552  34.929  1.00  0.00    -0.256 N 
ATOM     11  H1  UNL     1      12.107   1.165  34.388  1.00  0.00     0.195 HD
BRANCH  10  12
HETATM   12  O1  UNL     1      11.366   1.528  36.288  1.00  0.00    -0.288 OA
ATOM     13  H1  UNL     1      11.198   0.710  36.743  1.00  0.00     0.244 HD
ENDBRANCH  10  12
ENDBRANCH   6   8
ENDBRANCH   5   6
ENDBRANCH   1   5
BRANCH   1  14
HETATM   14  N4  UNL     1       6.066   4.171  34.807  1.00  0.00    -0.344 N 
ATOM     15  H4  UNL     1       5.906   5.067  34.348  1.00  0.00     0.164 HD
BRANCH  14  16
HETATM   16  C4  UNL     1       5.281   3.867  35.958  1.00  0.00     0.058 C 
HETATM   17  C5  UNL     1       6.077   3.092  36.948  1.00  0.00     0.041 C 
HETATM   18  C6  UNL     1       4.026   3.095  35.643  1.00  0.00     0.036 C 
HETATM   19  C7  UNL     1       3.172   3.352  36.867  1.00  0.00     0.037 C 
HETATM   20  C8  UNL     1       3.406   4.814  37.130  1.00  0.00     0.149 C 
HETATM   21  C9  UNL     1       4.737   5.163  36.514  1.00  0.00     0.174 C 
BRANCH  20  22
HETATM   22  O3  UNL     1       3.407   5.093  38.511  1.00  0.00    -0.393 OA
ATOM     23  H3  UNL     1       4.014   4.530  38.976  1.00  0.00     0.210 HD
ENDBRANCH  20  22
BRANCH  21  24
HETATM   24  O4  UNL     1       5.616   5.739  37.411  1.00  0.00    -0.390 OA
ATOM     25  H4  UNL     1       5.189   6.401  37.942  1.00  0.00     0.210 HD
ENDBRANCH  21  24
ENDBRANCH  14  16
ENDBRANCH   1  14
TORSDOF 8
ENDMDL
MODEL 2
REMARK VINA RESULT: -6.938745893      1.535      1.781
REMARK  8 active torsions:
REMARK  status: ('A' for Active; 'I' for Inactive)
REMARK    1  A    between atoms: C2_2  and  N2_7 
REMARK    2  A    between atoms: N1_3  and  O1_5 
REMARK    3  A    between atoms: N2_7  and  O2_9 
REMARK    4  A    between atoms: O2_9  and  C3_10 
REMARK    5  A    between atoms: C3_10  and  N4_14 
REMARK    6  A    between atoms: N4_14  and  C4_16 
REMARK    7  A    between atoms: C8_20  and  O3_21 
REMARK    8  A    between atoms: C9_23  and  O4_24 
ROOT
HETATM    1  C3  UNL     1       8.303   2.684  34.206  1.00  0.00     0.237 C 
HETATM    2  N3  UNL     1       9.150   3.384  34.859  1.00  0.00    -0.364 N 
ATOM      3  H31 UNL     1       8.811   4.201  35.368  1.00  0.00     0.159 HD
ATOM      4  H32 UNL     1      10.132   3.107  34.852  1.00  0.00     0.159 HD
ENDROOT
BRANCH   1   5
HETATM    5  O2  UNL     1       8.763   1.577  33.516  1.00  0.00    -0.200 OA
BRANCH   5   6
HETATM    6  N2  UNL     1       9.983   1.523  32.896  1.00  0.00    -0.244 N 
ATOM      7  H2  UNL     1      10.233   2.201  32.176  1.00  0.00     0.196 HD
BRANCH   6   8
HETATM    8  C2  UNL     1      10.891   0.502  33.277  1.00  0.00     0.118 C 
HETATM    9  C1  UNL     1      11.032  -0.729  32.463  1.00  0.00     0.093 C 
HETATM   10  N1  UNL     1      11.614   0.616  34.338  1.00  0.00    -0.256 N 
ATOM     11  H1  UNL     1      12.264  -0.125  34.601  1.00  0.00     0.195 HD
BRANCH  10  12
HETATM   12  O1  UNL     1      11.503   1.735  35.103  1.00  0.00    -0.288 OA
ATOM     13  H1  UNL     1      12.075   1.844  35.854  1.00  0.00     0.244 HD
ENDBRANCH  10  12
ENDBRANCH   6   8
ENDBRANCH   5   6
ENDBRANCH   1   5
BRANCH   1  14
HETATM   14  N4  UNL     1       6.938   3.070  34.216  1.00  0.00    -0.344 N 
ATOM     15  H4  UNL     1       6.484   3.231  33.318  1.00  0.00     0.164 HD
BRANCH  14  16
HETATM   16  C4  UNL     1       6.157   3.248  35.396  1.00  0.00     0.058 C 
HETATM   17  C5  UNL     1       6.974   2.988  36.612  1.00  0.00     0.041 C 
HETATM   18  C6  UNL     1       4.933   2.371  35.444  1.00  0.00     0.036 C 
HETATM   19  C7  UNL     1       4.062   3.087  36.456  1.00  0.00     0.037 C 
HETATM   20  C8  UNL     1       4.241   4.532  36.080  1.00  0.00     0.149 C 
HETATM   21  C9  UNL     1       5.563   4.637  35.362  1.00  0.00     0.174 C 
BRANCH  20  22
HETATM   22  O3  UNL     1       4.224   5.363  37.217  1.00  0.00    -0.393 OA
ATOM     23  H3  UNL     1       4.769   6.131  37.093  1.00  0.00     0.210 HD
ENDBRANCH  20  22
BRANCH  21  24
HETATM   24  O4  UNL     1       6.415   5.568  35.928  1.00  0.00    -0.390 OA
ATOM     25  H4  UNL     1       6.718   6.199  35.286  1.00  0.00     0.210 HD
ENDBRANCH  21  24
ENDBRANCH  14  16
ENDBRANCH   1  14
TORSDOF 8
ENDMDL
MODEL 3
REMARK VINA RESULT: -6.683044175      1.223      1.556
REMARK  8 active torsions:
REMARK  status: ('A' for Active; 'I' for Inactive)
REMARK    1  A    between atoms: C2_2  and  N2_7 
REMARK    2  A    between atoms: N1_3  and  O1_5 
REMARK    3  A    between atoms: N2_7  and  O2_9 
REMARK    4  A    between atoms: O2_9  and  C3_10 
REMARK    5  A    between atoms: C3_10  and  N4_14 
REMARK    6  A    between atoms: N4_14  and  C4_16 
REMARK    7  A    between atoms: C8_20  and  O3_21 
REMARK    8  A    between atoms: C9_23  and  O4_24 
ROOT
HETATM    1  C3  UNL     1       6.868   3.176  34.203  1.00  0.00     0.237 C 
HETATM    2  N3  UNL     1       6.464   2.752  33.067  1.00  0.00    -0.364 N 
ATOM      3  H31 UNL     1       5.595   3.132  32.691  1.00  0.00     0.159 HD
ATOM      4  H32 UNL     1       7.020   2.052  32.574  1.00  0.00     0.159 HD
ENDROOT
BRANCH   1   5
HETATM    5  O2  UNL     1       8.046   2.660  34.713  1.00  0.00    -0.200 OA
BRANCH   5   6
HETATM    6  N2  UNL     1       9.271   2.847  34.129  1.00  0.00    -0.244 N 
ATOM      7  H2  UNL     1       9.630   3.787  33.961  1.00  0.00     0.196 HD
BRANCH   6   8
HETATM    8  C2  UNL     1      10.027   1.705  33.764  1.00  0.00     0.118 C 
HETATM    9  C1  UNL     1      11.201   1.286  34.567  1.00  0.00     0.093 C 
HETATM   10  N1  UNL     1       9.717   1.003  32.728  1.00  0.00    -0.256 N 
ATOM     11  H1  UNL     1      10.270   0.184  32.476  1.00  0.00     0.195 HD
BRANCH  10  12
HETATM   12  O1  UNL     1       8.646   1.367  31.974  1.00  0.00    -0.288 OA
ATOM     13  H1  UNL     1       8.334   2.264  32.013  1.00  0.00     0.244 HD
ENDBRANCH  10  12
ENDBRANCH   6   8
ENDBRANCH   5   6
ENDBRANCH   1   5
BRANCH   1  14
HETATM   14  N4  UNL     1       6.096   4.149  34.888  1.00  0.00    -0.344 N 
ATOM     15  H4  UNL     1       6.133   5.109  34.548  1.00  0.00     0.164 HD
BRANCH  14  16
HETATM   16  C4  UNL     1       5.273   3.877  36.020  1.00  0.00     0.058 C 
HETATM   17  C5  UNL     1       6.028   3.111  37.049  1.00  0.00     0.041 C 
HETATM   18  C6  UNL     1       4.017   3.117  35.682  1.00  0.00     0.036 C 
HETATM   19  C7  UNL     1       3.131   3.409  36.874  1.00  0.00     0.037 C 
HETATM   20  C8  UNL     1       3.377   4.873  37.117  1.00  0.00     0.149 C 
HETATM   21  C9  UNL     1       4.731   5.191  36.535  1.00  0.00     0.174 C 
BRANCH  20  22
HETATM   22  O3  UNL     1       3.341   5.177  38.491  1.00  0.00    -0.393 OA
ATOM     23  H3  UNL     1       3.829   5.969  38.683  1.00  0.00     0.210 HD
ENDBRANCH  20  22
BRANCH  21  24
HETATM   24  O4  UNL     1       5.591   5.773  37.447  1.00  0.00    -0.390 OA
ATOM     25  H4  UNL     1       6.478   5.451  37.344  1.00  0.00     0.210 HD
ENDBRANCH  21  24
ENDBRANCH  14  16
ENDBRANCH   1  14
TORSDOF 8
ENDMDL
MODEL 4
REMARK VINA RESULT: -6.615403117      2.479      6.060
REMARK  8 active torsions:
REMARK  status: ('A' for Active; 'I' for Inactive)
REMARK    1  A    between atoms: C2_2  and  N2_7 
REMARK    2  A    between atoms: N1_3  and  O1_5 
REMARK    3  A    between atoms: N2_7  and  O2_9 
REMARK    4  A    between atoms: O2_9  and  C3_10 
REMARK    5  A    between atoms: C3_10  and  N4_14 
REMARK    6  A    between atoms: N4_14  and  C4_16 
REMARK    7  A    between atoms: C8_20  and  O3_21 
REMARK    8  A    between atoms: C9_23  and  O4_24 
ROOT
HETATM    1  C3  UNL     1       5.946   5.086  35.615  1.00  0.00     0.237 C 
HETATM    2  N3  UNL     1       5.737   6.329  35.401  1.00  0.00    -0.364 N 
ATOM      3  H31 UNL     1       5.643   6.642  34.434  1.00  0.00     0.159 HD
ATOM      4  H32 UNL     1       5.672   6.964  36.196  1.00  0.00     0.159 HD
ENDROOT
BRANCH   1   5
HETATM    5  O2  UNL     1       6.074   4.661  36.925  1.00  0.00    -0.200 OA
BRANCH   5   6
HETATM    6  N2  UNL     1       5.197   3.802  37.532  1.00  0.00    -0.244 N 
ATOM      7  H2  UNL     1       5.534   2.980  38.033  1.00  0.00     0.196 HD
BRANCH   6   8
HETATM    8  C2  UNL     1       3.809   4.080  37.448  1.00  0.00     0.118 C 
HETATM    9  C1  UNL     1       2.961   3.407  36.435  1.00  0.00     0.093 C 
HETATM   10  N1  UNL     1       3.249   4.924  38.246  1.00  0.00    -0.256 N 
ATOM     11  H1  UNL     1       2.250   5.115  38.175  1.00  0.00     0.195 HD
BRANCH  10  12
HETATM   12  O1  UNL     1       4.005   5.555  39.183  1.00  0.00    -0.288 OA
ATOM     13  H1  UNL     1       3.816   6.462  39.399  1.00  0.00     0.244 HD
ENDBRANCH  10  12
ENDBRANCH   6   8
ENDBRANCH   5   6
ENDBRANCH   1   5
BRANCH   1  14
HETATM   14  N4  UNL     1       6.036   4.203  34.509  1.00  0.00    -0.344 N 
ATOM     15  H4  UNL     1       5.417   4.370  33.716  1.00  0.00     0.164 HD
BRANCH  14  16
HETATM   16  C4  UNL     1       6.934   3.098  34.427  1.00  0.00     0.058 C 
HETATM   17  C5  UNL     1       6.321   1.878  35.021  1.00  0.00     0.041 C 
HETATM   18  C6  UNL     1       8.257   3.347  35.102  1.00  0.00     0.036 C 
HETATM   19  C7  UNL     1       9.151   2.310  34.455  1.00  0.00     0.037 C 
HETATM   20  C8  UNL     1       8.739   2.376  33.010  1.00  0.00     0.149 C 
HETATM   21  C9  UNL     1       7.333   2.920  32.981  1.00  0.00     0.174 C 
BRANCH  20  22
HETATM   22  O3  UNL     1       8.795   1.107  32.403  1.00  0.00    -0.393 OA
ATOM     23  H3  UNL     1       8.094   0.545  32.710  1.00  0.00     0.210 HD
ENDBRANCH  20  22
BRANCH  21  24
HETATM   24  O4  UNL     1       6.448   2.100  32.306  1.00  0.00    -0.390 OA
ATOM     25  H4  UNL     1       5.582   2.127  32.695  1.00  0.00     0.210 HD
ENDBRANCH  21  24
ENDBRANCH  14  16
ENDBRANCH   1  14
TORSDOF 8
ENDMDL
MODEL 5
REMARK VINA RESULT: -6.539885686      1.291      1.417
REMARK  8 active torsions:
REMARK  status: ('A' for Active; 'I' for Inactive)
REMARK    1  A    between atoms: C2_2  and  N2_7 
REMARK    2  A    between atoms: N1_3  and  O1_5 
REMARK    3  A    between atoms: N2_7  and  O2_9 
REMARK    4  A    between atoms: O2_9  and  C3_10 
REMARK    5  A    between atoms: C3_10  and  N4_14 
REMARK    6  A    between atoms: N4_14  and  C4_16 
REMARK    7  A    between atoms: C8_20  and  O3_21 
REMARK    8  A    between atoms: C9_23  and  O4_24 
ROOT
HETATM    1  C3  UNL     1       6.738   2.489  33.310  1.00  0.00     0.237 C 
HETATM    2  N3  UNL     1       5.933   2.294  32.336  1.00  0.00    -0.364 N 
ATOM      3  H31 UNL     1       5.134   2.920  32.237  1.00  0.00     0.159 HD
ATOM      4  H32 UNL     1       6.114   1.523  31.692  1.00  0.00     0.159 HD
ENDROOT
BRANCH   1   5
HETATM    5  O2  UNL     1       7.822   1.641  33.443  1.00  0.00    -0.200 OA
BRANCH   5   6
HETATM    6  N2  UNL     1       8.997   1.798  32.758  1.00  0.00    -0.244 N 
ATOM      7  H2  UNL     1       8.996   2.064  31.774  1.00  0.00     0.196 HD
BRANCH   6   8
HETATM    8  C2  UNL     1      10.217   1.583  33.450  1.00  0.00     0.118 C 
HETATM    9  C1  UNL     1      11.215   0.611  32.941  1.00  0.00     0.093 C 
HETATM   10  N1  UNL     1      10.491   2.224  34.535  1.00  0.00    -0.256 N 
ATOM     11  H1  UNL     1      11.371   2.060  35.022  1.00  0.00     0.195 HD
BRANCH  10  12
HETATM   12  O1  UNL     1       9.592   3.120  35.022  1.00  0.00    -0.288 OA
ATOM     13  H1  UNL     1       9.251   3.796  34.447  1.00  0.00     0.244 HD
ENDBRANCH  10  12
ENDBRANCH   6   8
ENDBRANCH   5   6
ENDBRANCH   1   5
BRANCH   1  14
HETATM   14  N4  UNL     1       6.487   3.561  34.204  1.00  0.00    -0.344 N 
ATOM     15  H4  UNL     1       6.853   4.480  33.959  1.00  0.00     0.164 HD
BRANCH  14  16
HETATM   16  C4  UNL     1       5.758   3.442  35.424  1.00  0.00     0.058 C 
HETATM   17  C5  UNL     1       6.631   2.920  36.511  1.00  0.00     0.041 C 
HETATM   18  C6  UNL     1       4.546   2.554  35.316  1.00  0.00     0.036 C 
HETATM   19  C7  UNL     1       3.715   2.995  36.503  1.00  0.00     0.037 C 
HETATM   20  C8  UNL     1       3.862   4.491  36.470  1.00  0.00     0.149 C 
HETATM   21  C9  UNL     1       5.150   4.788  35.743  1.00  0.00     0.174 C 
BRANCH  20  22
HETATM   22  O3  UNL     1       3.888   5.032  37.770  1.00  0.00    -0.393 OA
ATOM     23  H3  UNL     1       3.781   5.975  37.755  1.00  0.00     0.210 HD
ENDBRANCH  20  22
BRANCH  21  24
HETATM   24  O4  UNL     1       6.017   5.576  36.476  1.00  0.00    -0.390 OA
ATOM     25  H4  UNL     1       5.596   5.931  37.250  1.00  0.00     0.210 HD
ENDBRANCH  21  24
ENDBRANCH  14  16
ENDBRANCH   1  14
TORSDOF 8
ENDMDL
