MODEL 1
REMARK VINA RESULT: -7.230086081      0.000      0.000
REMARK  2 active torsions:
REMARK  status: ('A' for Active; 'I' for Inactive)
REMARK    1  A    between atoms: N1_3  and  O1_4 
REMARK    2  A    between atoms: C9_14  and  O4_16 
ROOT
HETATM    1  C1  UNL     1      26.663  35.439  46.204  1.00  0.00     0.034 C 
HETATM    2  C2  UNL     1      25.204  35.227  46.344  1.00  0.00     0.151 C 
HETATM    3  N1  UNL     1      24.634  35.103  44.992  1.00  0.00    -0.156 NA
HETATM    4  C3  UNL     1      24.477  33.694  44.767  1.00  0.00     0.136 C 
HETATM    5  C4  UNL     1      25.306  33.204  43.578  1.00  0.00     0.066 C 
HETATM    6  C5  UNL     1      23.032  33.321  44.556  1.00  0.00     0.066 C 
HETATM    7  O2  UNL     1      24.999  33.033  45.881  1.00  0.00    -0.324 OA
HETATM    8  C6  UNL     1      24.784  33.937  46.949  1.00  0.00     0.215 C 
HETATM    9  O3  UNL     1      23.395  33.988  47.112  1.00  0.00    -0.351 OA
HETATM   10  C7  UNL     1      23.066  33.209  48.181  1.00  0.00     0.174 C 
HETATM   11  C8  UNL     1      24.236  33.137  49.101  1.00  0.00     0.069 C 
HETATM   12  C9  UNL     1      25.405  33.540  48.206  1.00  0.00     0.114 C 
HETATM   13  C10 UNL     1      26.222  34.531  48.929  1.00  0.00     0.052 C 
ENDROOT
BRANCH  12  14
HETATM   14  O4  UNL     1      26.165  32.382  48.012  1.00  0.00    -0.385 OA
ATOM     15  H4  UNL     1      25.683  31.625  48.325  1.00  0.00     0.210 HD
ENDBRANCH  12  14
BRANCH   3  16
HETATM   16  O1  UNL     1      23.466  35.782  44.967  1.00  0.00    -0.310 OA
ATOM     17  H1  UNL     1      23.603  36.617  45.399  1.00  0.00     0.237 HD
ENDBRANCH   3  16
TORSDOF 2
ENDMDL
MODEL 2
REMARK VINA RESULT: -7.049533221      1.361      3.321
REMARK  2 active torsions:
REMARK  status: ('A' for Active; 'I' for Inactive)
REMARK    1  A    between atoms: N1_3  and  O1_4 
REMARK    2  A    between atoms: C9_14  and  O4_16 
ROOT
HETATM    1  C1  UNL     1      24.190  33.430  44.099  1.00  0.00     0.034 C 
HETATM    2  C2  UNL     1      24.858  33.198  45.401  1.00  0.00     0.151 C 
HETATM    3  N1  UNL     1      26.098  33.993  45.419  1.00  0.00    -0.156 NA
HETATM    4  C3  UNL     1      25.786  35.175  46.172  1.00  0.00     0.136 C 
HETATM    5  C4  UNL     1      25.947  36.448  45.339  1.00  0.00     0.066 C 
HETATM    6  C5  UNL     1      26.631  35.281  47.416  1.00  0.00     0.066 C 
HETATM    7  O2  UNL     1      24.430  35.115  46.500  1.00  0.00    -0.324 OA
HETATM    8  C6  UNL     1      24.162  33.729  46.600  1.00  0.00     0.215 C 
HETATM    9  O3  UNL     1      24.878  33.296  47.722  1.00  0.00    -0.351 OA
HETATM   10  C7  UNL     1      24.003  33.173  48.760  1.00  0.00     0.174 C 
HETATM   11  C8  UNL     1      22.641  32.918  48.212  1.00  0.00     0.069 C 
HETATM   12  C9  UNL     1      22.752  33.401  46.769  1.00  0.00     0.114 C 
HETATM   13  C10 UNL     1      22.159  32.377  45.891  1.00  0.00     0.052 C 
ENDROOT
BRANCH  12  14
HETATM   14  O4  UNL     1      21.983  34.567  46.688  1.00  0.00    -0.385 OA
ATOM     15  H4  UNL     1      21.084  34.376  46.930  1.00  0.00     0.210 HD
ENDBRANCH  12  14
BRANCH   3  16
HETATM   16  O1  UNL     1      27.068  33.240  45.983  1.00  0.00    -0.310 OA
ATOM     17  H1  UNL     1      27.837  33.287  45.426  1.00  0.00     0.237 HD
ENDBRANCH   3  16
TORSDOF 2
ENDMDL
MODEL 3
REMARK VINA RESULT: -6.772236210      1.703      2.882
REMARK  2 active torsions:
REMARK  status: ('A' for Active; 'I' for Inactive)
REMARK    1  A    between atoms: N1_3  and  O1_4 
REMARK    2  A    between atoms: C9_14  and  O4_16 
ROOT
HETATM    1  C1  UNL     1      24.215  33.534  43.756  1.00  0.00     0.034 C 
HETATM    2  C2  UNL     1      24.200  33.965  45.174  1.00  0.00     0.151 C 
HETATM    3  N1  UNL     1      22.794  34.062  45.601  1.00  0.00    -0.156 NA
HETATM    4  C3  UNL     1      22.523  32.849  46.317  1.00  0.00     0.136 C 
HETATM    5  C4  UNL     1      21.414  32.026  45.658  1.00  0.00     0.066 C 
HETATM    6  C5  UNL     1      22.157  33.120  47.754  1.00  0.00     0.066 C 
HETATM    7  O2  UNL     1      23.670  32.055  46.242  1.00  0.00    -0.324 OA
HETATM    8  C6  UNL     1      24.729  32.989  46.161  1.00  0.00     0.215 C 
HETATM    9  O3  UNL     1      24.751  33.629  47.405  1.00  0.00    -0.351 OA
HETATM   10  C7  UNL     1      25.763  33.088  48.141  1.00  0.00     0.174 C 
HETATM   11  C8  UNL     1      26.796  32.547  47.212  1.00  0.00     0.069 C 
HETATM   12  C9  UNL     1      26.034  32.395  45.899  1.00  0.00     0.114 C 
HETATM   13  C10 UNL     1      26.859  32.962  44.816  1.00  0.00     0.052 C 
ENDROOT
BRANCH  12  14
HETATM   14  O4  UNL     1      25.893  31.019  45.686  1.00  0.00    -0.385 OA
ATOM     15  H4  UNL     1      26.481  30.740  44.994  1.00  0.00     0.210 HD
ENDBRANCH  12  14
BRANCH   3  16
HETATM   16  O1  UNL     1      22.666  35.173  46.361  1.00  0.00    -0.310 OA
ATOM     17  H1  UNL     1      23.527  35.559  46.465  1.00  0.00     0.237 HD
ENDBRANCH   3  16
TORSDOF 2
ENDMDL
MODEL 4
REMARK VINA RESULT: -6.612137161      2.269      4.419
REMARK  2 active torsions:
REMARK  status: ('A' for Active; 'I' for Inactive)
REMARK    1  A    between atoms: N1_3  and  O1_4 
REMARK    2  A    between atoms: C9_14  and  O4_16 
ROOT
HETATM    1  C1  UNL     1      25.642  33.127  43.948  1.00  0.00     0.034 C 
HETATM    2  C2  UNL     1      25.502  34.351  44.771  1.00  0.00     0.151 C 
HETATM    3  N1  UNL     1      25.075  33.941  46.120  1.00  0.00    -0.156 NA
HETATM    4  C3  UNL     1      26.267  33.945  46.919  1.00  0.00     0.136 C 
HETATM    5  C4  UNL     1      26.585  32.561  47.487  1.00  0.00     0.066 C 
HETATM    6  C5  UNL     1      26.176  34.940  48.049  1.00  0.00     0.066 C 
HETATM    7  O2  UNL     1      27.335  34.255  46.074  1.00  0.00    -0.324 OA
HETATM    8  C6  UNL     1      26.758  35.080  45.080  1.00  0.00     0.215 C 
HETATM    9  O3  UNL     1      26.401  36.260  45.743  1.00  0.00    -0.351 OA
HETATM   10  C7  UNL     1      27.346  37.202  45.467  1.00  0.00     0.174 C 
HETATM   11  C8  UNL     1      27.982  36.876  44.159  1.00  0.00     0.069 C 
HETATM   12  C9  UNL     1      27.651  35.398  43.973  1.00  0.00     0.114 C 
HETATM   13  C10 UNL     1      27.159  35.204  42.597  1.00  0.00     0.052 C 
ENDROOT
BRANCH  12  14
HETATM   14  O4  UNL     1      28.857  34.706  44.124  1.00  0.00    -0.385 OA
ATOM     15  H4  UNL     1      29.216  34.497  43.269  1.00  0.00     0.210 HD
ENDBRANCH  12  14
BRANCH   3  16
HETATM   16  O1  UNL     1      24.141  34.820  46.547  1.00  0.00    -0.310 OA
ATOM     17  H1  UNL     1      24.043  35.490  45.880  1.00  0.00     0.237 HD
ENDBRANCH   3  16
TORSDOF 2
ENDMDL
MODEL 5
REMARK VINA RESULT: -6.525378739      1.499      3.814
REMARK  2 active torsions:
REMARK  status: ('A' for Active; 'I' for Inactive)
REMARK    1  A    between atoms: N1_3  and  O1_4 
REMARK    2  A    between atoms: C9_14  and  O4_16 
ROOT
HETATM    1  C1  UNL     1      26.615  33.879  44.587  1.00  0.00     0.034 C 
HETATM    2  C2  UNL     1      25.870  33.071  45.581  1.00  0.00     0.151 C 
HETATM    3  N1  UNL     1      26.525  33.247  46.888  1.00  0.00    -0.156 NA
HETATM    4  C3  UNL     1      25.736  34.221  47.587  1.00  0.00     0.136 C 
HETATM    5  C4  UNL     1      26.542  35.475  47.930  1.00  0.00     0.066 C 
HETATM    6  C5  UNL     1      25.138  33.650  48.848  1.00  0.00     0.066 C 
HETATM    7  O2  UNL     1      24.734  34.650  46.715  1.00  0.00    -0.324 OA
HETATM    8  C6  UNL     1      24.490  33.524  45.892  1.00  0.00     0.215 C 
HETATM    9  O3  UNL     1      23.920  32.567  46.738  1.00  0.00    -0.351 OA
HETATM   10  C7  UNL     1      22.574  32.563  46.525  1.00  0.00     0.174 C 
HETATM   11  C8  UNL     1      22.305  33.043  45.140  1.00  0.00     0.069 C 
HETATM   12  C9  UNL     1      23.590  33.782  44.775  1.00  0.00     0.114 C 
HETATM   13  C10 UNL     1      24.004  33.353  43.427  1.00  0.00     0.052 C 
ENDROOT
BRANCH  12  14
HETATM   14  O4  UNL     1      23.261  35.141  44.736  1.00  0.00    -0.385 OA
ATOM     15  H4  UNL     1      22.340  35.254  44.938  1.00  0.00     0.210 HD
ENDBRANCH  12  14
BRANCH   3  16
HETATM   16  O1  UNL     1      26.559  32.043  47.503  1.00  0.00    -0.310 OA
ATOM     17  H1  UNL     1      25.683  31.849  47.815  1.00  0.00     0.237 HD
ENDBRANCH   3  16
TORSDOF 2
ENDMDL
