MODEL 1
REMARK VINA RESULT: -6.051973145      0.000      0.000
REMARK  1 active torsions:
REMARK  status: ('A' for Active; 'I' for Inactive)
REMARK    1  A    between atoms: C3_4  and  O1_5 
ROOT
HETATM    1  C1  UNL     1      23.860  32.205  45.885  1.00  0.00     0.146 C 
HETATM    2  N1  UNL     1      24.591  33.432  45.903  1.00  0.00    -0.389 N 
HETATM    3  C2  UNL     1      24.237  34.296  44.846  1.00  0.00     0.150 C 
HETATM    4  C3  UNL     1      25.016  34.081  43.573  1.00  0.00     0.137 C 
HETATM    5  C4  UNL     1      26.491  33.981  43.829  1.00  0.00     0.053 C 
HETATM    6  C5  UNL     1      26.895  34.005  45.241  1.00  0.00     0.106 C 
HETATM    7  S1  UNL     1      26.818  35.698  45.963  1.00  0.00    -0.085 SA
HETATM    8  C6  UNL     1      26.426  35.144  47.609  1.00  0.00     0.138 C 
HETATM    9  N2  UNL     1      26.318  35.899  48.611  1.00  0.00    -0.380 N 
ATOM     10  H21 UNL     1      26.094  35.582  49.554  1.00  0.00     0.158 HD
ATOM     11  H22 UNL     1      26.426  36.912  48.673  1.00  0.00     0.158 HD
HETATM   12  N3  UNL     1      26.278  33.748  47.523  1.00  0.00    -0.339 N 
HETATM   13  C7  UNL     1      26.416  32.873  48.701  1.00  0.00     0.154 C 
HETATM   14  C8  UNL     1      25.983  33.299  46.187  1.00  0.00     0.114 C 
HETATM   15  C9  UNL     1      26.340  31.813  46.111  1.00  0.00     0.064 C 
ENDROOT
BRANCH   4  16
HETATM   16  O1  UNL     1      24.528  32.979  42.843  1.00  0.00    -0.394 OA
ATOM     17  H1  UNL     1      25.235  32.440  42.507  1.00  0.00     0.210 HD
ENDBRANCH   4  16
TORSDOF 1
ENDMDL
MODEL 2
REMARK VINA RESULT: -5.901404125      1.950      2.745
REMARK  1 active torsions:
REMARK  status: ('A' for Active; 'I' for Inactive)
REMARK    1  A    between atoms: C3_4  and  O1_5 
ROOT
HETATM    1  C1  UNL     1      27.244  33.201  45.437  1.00  0.00     0.146 C 
HETATM    2  N1  UNL     1      25.907  33.015  45.901  1.00  0.00    -0.389 N 
HETATM    3  C2  UNL     1      25.113  32.273  45.001  1.00  0.00     0.150 C 
HETATM    4  C3  UNL     1      24.421  33.101  43.947  1.00  0.00     0.137 C 
HETATM    5  C4  UNL     1      23.740  34.301  44.536  1.00  0.00     0.053 C 
HETATM    6  C5  UNL     1      23.948  34.509  45.975  1.00  0.00     0.106 C 
HETATM    7  S1  UNL     1      22.945  33.355  47.001  1.00  0.00    -0.085 SA
HETATM    8  C6  UNL     1      24.118  33.282  48.339  1.00  0.00     0.138 C 
HETATM    9  N2  UNL     1      23.933  32.665  49.421  1.00  0.00    -0.380 N 
ATOM     10  H21 UNL     1      24.605  32.623  50.186  1.00  0.00     0.158 HD
ATOM     11  H22 UNL     1      23.126  32.120  49.724  1.00  0.00     0.158 HD
HETATM   12  N3  UNL     1      25.230  34.035  47.920  1.00  0.00    -0.339 N 
HETATM   13  C7  UNL     1      26.194  34.606  48.877  1.00  0.00     0.154 C 
HETATM   14  C8  UNL     1      25.306  34.169  46.488  1.00  0.00     0.114 C 
HETATM   15  C9  UNL     1      26.202  35.372  46.185  1.00  0.00     0.064 C 
ENDROOT
BRANCH   4  16
HETATM   16  O1  UNL     1      25.296  33.447  42.899  1.00  0.00    -0.394 OA
ATOM     17  H1  UNL     1      25.799  32.699  42.600  1.00  0.00     0.210 HD
ENDBRANCH   4  16
TORSDOF 1
ENDMDL
MODEL 3
REMARK VINA RESULT: -5.813503012      2.087      3.168
REMARK  1 active torsions:
REMARK  status: ('A' for Active; 'I' for Inactive)
REMARK    1  A    between atoms: C3_4  and  O1_5 
ROOT
HETATM    1  C1  UNL     1      25.852  31.692  45.556  1.00  0.00     0.146 C 
HETATM    2  N1  UNL     1      25.367  33.000  45.859  1.00  0.00    -0.389 N 
HETATM    3  C2  UNL     1      24.381  32.999  46.868  1.00  0.00     0.150 C 
HETATM    4  C3  UNL     1      22.971  32.808  46.365  1.00  0.00     0.137 C 
HETATM    5  C4  UNL     1      22.667  33.699  45.197  1.00  0.00     0.053 C 
HETATM    6  C5  UNL     1      23.793  34.500  44.698  1.00  0.00     0.106 C 
HETATM    7  S1  UNL     1      24.163  35.940  45.784  1.00  0.00    -0.085 SA
HETATM    8  C6  UNL     1      25.907  35.955  45.428  1.00  0.00     0.138 C 
HETATM    9  N2  UNL     1      26.718  36.819  45.856  1.00  0.00    -0.380 N 
ATOM     10  H21 UNL     1      27.717  36.827  45.652  1.00  0.00     0.158 HD
ATOM     11  H22 UNL     1      26.546  37.627  46.455  1.00  0.00     0.158 HD
HETATM   12  N3  UNL     1      26.143  34.841  44.602  1.00  0.00    -0.339 N 
HETATM   13  C7  UNL     1      27.323  34.755  43.722  1.00  0.00     0.154 C 
HETATM   14  C8  UNL     1      25.125  33.831  44.724  1.00  0.00     0.114 C 
HETATM   15  C9  UNL     1      25.197  32.951  43.473  1.00  0.00     0.064 C 
ENDROOT
BRANCH   4  16
HETATM   16  O1  UNL     1      22.697  31.454  46.086  1.00  0.00    -0.394 OA
ATOM     17  H1  UNL     1      22.311  31.013  46.834  1.00  0.00     0.210 HD
ENDBRANCH   4  16
TORSDOF 1
ENDMDL
MODEL 4
REMARK VINA RESULT: -5.804420568      2.141      3.012
REMARK  1 active torsions:
REMARK  status: ('A' for Active; 'I' for Inactive)
REMARK    1  A    between atoms: C3_4  and  O1_5 
ROOT
HETATM    1  C1  UNL     1      27.246  32.450  46.329  1.00  0.00     0.146 C 
HETATM    2  N1  UNL     1      26.117  33.093  45.738  1.00  0.00    -0.389 N 
HETATM    3  C2  UNL     1      26.285  33.336  44.358  1.00  0.00     0.150 C 
HETATM    4  C3  UNL     1      26.954  34.648  44.031  1.00  0.00     0.137 C 
HETATM    5  C4  UNL     1      26.354  35.790  44.797  1.00  0.00     0.053 C 
HETATM    6  C5  UNL     1      25.323  35.426  45.777  1.00  0.00     0.106 C 
HETATM    7  S1  UNL     1      23.710  35.026  44.982  1.00  0.00    -0.085 SA
HETATM    8  C6  UNL     1      23.217  33.847  46.222  1.00  0.00     0.138 C 
HETATM    9  N2  UNL     1      22.102  33.262  46.249  1.00  0.00    -0.380 N 
ATOM     10  H21 UNL     1      21.820  32.587  46.960  1.00  0.00     0.158 HD
ATOM     11  H22 UNL     1      21.313  33.342  45.607  1.00  0.00     0.158 HD
HETATM   12  N3  UNL     1      24.305  33.738  47.107  1.00  0.00    -0.339 N 
HETATM   13  C7  UNL     1      24.144  33.247  48.487  1.00  0.00     0.154 C 
HETATM   14  C8  UNL     1      25.550  34.149  46.513  1.00  0.00     0.114 C 
HETATM   15  C9  UNL     1      26.521  34.469  47.653  1.00  0.00     0.064 C 
ENDROOT
BRANCH   4  16
HETATM   16  O1  UNL     1      28.352  34.575  44.195  1.00  0.00    -0.394 OA
ATOM     17  H1  UNL     1      28.787  34.317  43.391  1.00  0.00     0.210 HD
ENDBRANCH   4  16
TORSDOF 1
ENDMDL
MODEL 5
REMARK VINA RESULT: -5.751676021      1.934      2.709
REMARK  1 active torsions:
REMARK  status: ('A' for Active; 'I' for Inactive)
REMARK    1  A    between atoms: C3_4  and  O1_5 
ROOT
HETATM    1  C1  UNL     1      24.870  32.788  43.535  1.00  0.00     0.146 C 
HETATM    2  N1  UNL     1      24.993  33.027  44.938  1.00  0.00    -0.389 N 
HETATM    3  C2  UNL     1      23.778  33.430  45.533  1.00  0.00     0.150 C 
HETATM    4  C3  UNL     1      23.528  34.917  45.503  1.00  0.00     0.137 C 
HETATM    5  C4  UNL     1      24.731  35.696  45.949  1.00  0.00     0.053 C 
HETATM    6  C5  UNL     1      25.935  34.903  46.229  1.00  0.00     0.106 C 
HETATM    7  S1  UNL     1      25.830  34.016  47.840  1.00  0.00    -0.085 SA
HETATM    8  C6  UNL     1      26.833  32.639  47.320  1.00  0.00     0.138 C 
HETATM    9  N2  UNL     1      27.188  31.690  48.068  1.00  0.00    -0.380 N 
ATOM     10  H21 UNL     1      27.762  30.902  47.770  1.00  0.00     0.158 HD
ATOM     11  H22 UNL     1      26.984  31.533  49.055  1.00  0.00     0.158 HD
HETATM   12  N3  UNL     1      27.114  32.857  45.959  1.00  0.00    -0.339 N 
HETATM   13  C7  UNL     1      28.265  32.227  45.288  1.00  0.00     0.154 C 
HETATM   14  C8  UNL     1      26.167  33.738  45.328  1.00  0.00     0.114 C 
HETATM   15  C9  UNL     1      26.825  34.291  44.061  1.00  0.00     0.064 C 
ENDROOT
BRANCH   4  16
HETATM   16  O1  UNL     1      23.059  35.341  44.243  1.00  0.00    -0.394 OA
ATOM     17  H1  UNL     1      22.310  35.919  44.325  1.00  0.00     0.210 HD
ENDBRANCH   4  16
TORSDOF 1
ENDMDL
