MODEL 1
REMARK VINA RESULT: -5.934940121      0.000      0.000
REMARK  9 active torsions:
REMARK  status: ('A' for Active; 'I' for Inactive)
REMARK    1  A    between atoms: C2_2  and  C3_3 
REMARK    2  A    between atoms: C2_2  and  C4_6 
REMARK    3  A    between atoms: C3_3  and  O1_4 
REMARK    4  A    between atoms: C4_6  and  C5_7 
REMARK    5  A    between atoms: C9_11  and  O2_12 
REMARK    6  A    between atoms: N1_19  and  C15_20 
REMARK    7  A    between atoms: C15_20  and  C16_21 
REMARK    8  A    between atoms: N2_28  and  C23_29 
REMARK    9  A    between atoms: C23_29  and  C24_30 
ROOT
HETATM    1  C5  UNL     1      31.698  32.974  14.049  1.00  0.00    -0.016 C 
HETATM    2  C6  UNL     1      32.613  33.489  13.057  1.00  0.00    -0.018 A 
HETATM    3  C7  UNL     1      33.967  33.614  13.287  1.00  0.00     0.015 A 
HETATM    4  C8  UNL     1      34.749  34.145  12.270  1.00  0.00     0.040 A 
HETATM    5  C9  UNL     1      34.228  34.540  11.061  1.00  0.00     0.099 A 
HETATM    6  C10 UNL     1      32.864  34.400  10.860  1.00  0.00     0.111 A 
HETATM    7  C11 UNL     1      32.103  33.889  11.832  1.00  0.00     0.002 A 
HETATM    8  C12 UNL     1      30.709  33.774  11.353  1.00  0.00     0.040 C 
HETATM    9  C13 UNL     1      30.619  32.289  10.934  1.00  0.00     0.049 C 
HETATM   10  C14 UNL     1      30.550  31.316  12.036  1.00  0.00     0.274 C 
HETATM   11  N1  UNL     1      29.795  31.796  13.149  1.00  0.00     0.099 N 
HETATM   12  C19 UNL     1      30.276  33.051  13.603  1.00  0.00     0.271 C 
HETATM   13  C20 UNL     1      29.894  34.070  12.539  1.00  0.00     0.053 C 
HETATM   14  C21 UNL     1      28.411  33.946  12.476  1.00  0.00     0.005 C 
HETATM   15  C22 UNL     1      27.667  34.184  11.245  1.00  0.00     0.087 C 
HETATM   16  N2  UNL     1      27.659  35.415  10.601  1.00  0.00    -0.361 N 
HETATM   17  C27 UNL     1      28.781  36.218  10.497  1.00  0.00     0.028 C 
HETATM   18  C28 UNL     1      29.150  36.969  11.783  1.00  0.00     0.285 C 
HETATM   19  N3  UNL     1      30.454  36.457  12.149  1.00  0.00    -0.069 N 
ATOM     20  H31 UNL     1      31.095  37.178  12.478  1.00  0.00     0.277 HD
ATOM     21  H32 UNL     1      31.009  36.152  11.350  1.00  0.00     0.277 HD
HETATM   22  C29 UNL     1      30.218  35.413  13.117  1.00  0.00     0.250 C 
HETATM   23  C30 UNL     1      30.021  35.749   9.848  1.00  0.00     0.139 C 
HETATM   24  C31 UNL     1      29.839  35.848   8.362  1.00  0.00     0.139 C 
HETATM   25  O3  UNL     1      29.180  36.617   7.712  1.00  0.00    -0.297 OA
HETATM   26  C32 UNL     1      30.671  34.760   7.791  1.00  0.00     0.082 C 
HETATM   27  C33 UNL     1      30.347  33.684   8.846  1.00  0.00     0.048 C 
HETATM   28  C34 UNL     1      30.664  34.509  10.120  1.00  0.00     0.097 C 
HETATM   29  O4  UNL     1      32.076  34.691   9.809  1.00  0.00    -0.334 OA
ENDROOT
BRANCH   1  30
HETATM   30  C4  UNL     1      31.847  33.283  15.501  1.00  0.00    -0.010 C 
BRANCH  30  31
HETATM   31  C2  UNL     1      31.948  34.656  16.013  1.00  0.00     0.028 C 
HETATM   32  C1  UNL     1      33.187  34.999  16.787  1.00  0.00     0.016 C 
BRANCH  31  33
HETATM   33  C3  UNL     1      30.825  34.716  17.133  1.00  0.00     0.172 C 
BRANCH  33  34
HETATM   34  O1  UNL     1      31.016  35.838  17.898  1.00  0.00    -0.400 OA
ATOM     35  H1  UNL     1      30.174  36.146  18.211  1.00  0.00     0.209 HD
ENDBRANCH  33  34
ENDBRANCH  31  33
ENDBRANCH  30  31
ENDBRANCH   1  30
BRANCH  11  36
HETATM   36  C15 UNL     1      29.526  30.810  14.150  1.00  0.00     0.278 C 
BRANCH  36  37
HETATM   37  C16 UNL     1      28.497  31.343  15.120  1.00  0.00     0.014 A 
HETATM   38  C17 UNL     1      28.922  31.351  16.587  1.00  0.00     0.007 A 
HETATM   39  C18 UNL     1      27.887  30.340  16.120  1.00  0.00     0.007 A 
ENDBRANCH  36  37
ENDBRANCH  11  36
BRANCH   5  40
HETATM   40  O2  UNL     1      35.061  35.059  10.095  1.00  0.00    -0.358 OA
ATOM     41  H2  UNL     1      35.623  35.796  10.305  1.00  0.00     0.217 HD
ENDBRANCH   5  40
BRANCH  16  42
HETATM   42  C23 UNL     1      26.454  36.180  10.843  1.00  0.00     0.132 C 
BRANCH  42  43
HETATM   43  C24 UNL     1      25.655  36.539   9.651  1.00  0.00     0.004 A 
HETATM   44  C25 UNL     1      24.377  37.312  10.005  1.00  0.00     0.007 A 
HETATM   45  C26 UNL     1      25.429  37.888   9.135  1.00  0.00     0.007 A 
ENDBRANCH  42  43
ENDBRANCH  16  42
TORSDOF 9
ENDMDL
MODEL 2
REMARK VINA RESULT: -5.897906135      2.212      4.138
REMARK  9 active torsions:
REMARK  status: ('A' for Active; 'I' for Inactive)
REMARK    1  A    between atoms: C2_2  and  C3_3 
REMARK    2  A    between atoms: C2_2  and  C4_6 
REMARK    3  A    between atoms: C3_3  and  O1_4 
REMARK    4  A    between atoms: C4_6  and  C5_7 
REMARK    5  A    between atoms: C9_11  and  O2_12 
REMARK    6  A    between atoms: N1_19  and  C15_20 
REMARK    7  A    between atoms: C15_20  and  C16_21 
REMARK    8  A    between atoms: N2_28  and  C23_29 
REMARK    9  A    between atoms: C23_29  and  C24_30 
ROOT
HETATM    1  C5  UNL     1      29.870  31.388  14.332  1.00  0.00    -0.016 C 
HETATM    2  C6  UNL     1      30.603  32.390  15.071  1.00  0.00    -0.018 A 
HETATM    3  C7  UNL     1      30.857  32.282  16.422  1.00  0.00     0.015 A 
HETATM    4  C8  UNL     1      31.549  33.318  17.035  1.00  0.00     0.040 A 
HETATM    5  C9  UNL     1      31.984  34.428  16.351  1.00  0.00     0.099 A 
HETATM    6  C10 UNL     1      31.715  34.506  14.995  1.00  0.00     0.111 A 
HETATM    7  C11 UNL     1      31.051  33.514  14.395  1.00  0.00     0.002 A 
HETATM    8  C12 UNL     1      30.954  33.795  12.946  1.00  0.00     0.040 C 
HETATM    9  C13 UNL     1      32.110  32.951  12.362  1.00  0.00     0.049 C 
HETATM   10  C14 UNL     1      31.881  31.498  12.317  1.00  0.00     0.274 C 
HETATM   11  N1  UNL     1      30.525  31.162  12.021  1.00  0.00     0.099 N 
HETATM   12  C19 UNL     1      29.625  31.794  12.917  1.00  0.00     0.271 C 
HETATM   13  C20 UNL     1      29.634  33.274  12.565  1.00  0.00     0.053 C 
HETATM   14  C21 UNL     1      29.214  33.280  11.136  1.00  0.00     0.005 C 
HETATM   15  C22 UNL     1      29.678  34.294  10.198  1.00  0.00     0.087 C 
HETATM   16  N2  UNL     1      29.397  35.645  10.356  1.00  0.00    -0.361 N 
HETATM   17  C27 UNL     1      29.398  36.276  11.588  1.00  0.00     0.028 C 
HETATM   18  C28 UNL     1      28.166  35.988  12.454  1.00  0.00     0.285 C 
HETATM   19  N3  UNL     1      28.686  35.310  13.623  1.00  0.00    -0.069 N 
ATOM     20  H31 UNL     1      28.253  35.614  14.495  1.00  0.00     0.277 HD
ATOM     21  H32 UNL     1      29.641  35.581  13.858  1.00  0.00     0.277 HD
HETATM   22  C29 UNL     1      28.535  33.898  13.370  1.00  0.00     0.250 C 
HETATM   23  C30 UNL     1      30.593  36.298  12.454  1.00  0.00     0.139 C 
HETATM   24  C31 UNL     1      31.528  37.352  11.937  1.00  0.00     0.139 C 
HETATM   25  O3  UNL     1      31.290  38.384  11.364  1.00  0.00    -0.297 OA
HETATM   26  C32 UNL     1      32.889  36.872  12.278  1.00  0.00     0.082 C 
HETATM   27  C33 UNL     1      32.664  35.382  11.955  1.00  0.00     0.048 C 
HETATM   28  C34 UNL     1      31.377  35.159  12.790  1.00  0.00     0.097 C 
HETATM   29  O4  UNL     1      32.003  35.445  14.075  1.00  0.00    -0.334 OA
ENDROOT
BRANCH   1  30
HETATM   30  C4  UNL     1      28.704  30.666  14.918  1.00  0.00    -0.010 C 
BRANCH  30  31
HETATM   31  C2  UNL     1      28.839  29.389  15.630  1.00  0.00     0.028 C 
HETATM   32  C1  UNL     1      28.709  28.140  14.809  1.00  0.00     0.016 C 
BRANCH  31  33
HETATM   33  C3  UNL     1      27.537  29.331  16.536  1.00  0.00     0.172 C 
BRANCH  33  34
HETATM   34  O1  UNL     1      27.515  30.429  17.357  1.00  0.00    -0.400 OA
ATOM     35  H1  UNL     1      26.759  30.372  17.930  1.00  0.00     0.209 HD
ENDBRANCH  33  34
ENDBRANCH  31  33
ENDBRANCH  30  31
ENDBRANCH   1  30
BRANCH  11  36
HETATM   36  C15 UNL     1      30.305  29.773  11.760  1.00  0.00     0.278 C 
BRANCH  36  37
HETATM   37  C16 UNL     1      28.874  29.563  11.320  1.00  0.00     0.014 A 
HETATM   38  C17 UNL     1      28.447  28.105  11.158  1.00  0.00     0.007 A 
HETATM   39  C18 UNL     1      28.650  28.961   9.918  1.00  0.00     0.007 A 
ENDBRANCH  36  37
ENDBRANCH  11  36
BRANCH   5  40
HETATM   40  O2  UNL     1      32.666  35.419  17.022  1.00  0.00    -0.358 OA
ATOM     41  H2  UNL     1      32.337  36.310  17.004  1.00  0.00     0.217 HD
ENDBRANCH   5  40
BRANCH  16  42
HETATM   42  C23 UNL     1      28.327  36.112   9.499  1.00  0.00     0.132 C 
BRANCH  42  43
HETATM   43  C24 UNL     1      28.693  37.126   8.486  1.00  0.00     0.004 A 
HETATM   44  C25 UNL     1      27.554  38.114   8.198  1.00  0.00     0.007 A 
HETATM   45  C26 UNL     1      28.868  38.558   8.721  1.00  0.00     0.007 A 
ENDBRANCH  42  43
ENDBRANCH  16  42
TORSDOF 9
ENDMDL
MODEL 3
REMARK VINA RESULT: -5.879087271      3.040      6.603
REMARK  9 active torsions:
REMARK  status: ('A' for Active; 'I' for Inactive)
REMARK    1  A    between atoms: C2_2  and  C3_3 
REMARK    2  A    between atoms: C2_2  and  C4_6 
REMARK    3  A    between atoms: C3_3  and  O1_4 
REMARK    4  A    between atoms: C4_6  and  C5_7 
REMARK    5  A    between atoms: C9_11  and  O2_12 
REMARK    6  A    between atoms: N1_19  and  C15_20 
REMARK    7  A    between atoms: C15_20  and  C16_21 
REMARK    8  A    between atoms: N2_28  and  C23_29 
REMARK    9  A    between atoms: C23_29  and  C24_30 
ROOT
HETATM    1  C5  UNL     1      30.340  28.701  12.909  1.00  0.00    -0.016 C 
HETATM    2  C6  UNL     1      29.525  29.031  14.056  1.00  0.00    -0.018 A 
HETATM    3  C7  UNL     1      28.837  28.080  14.779  1.00  0.00     0.015 A 
HETATM    4  C8  UNL     1      28.065  28.514  15.848  1.00  0.00     0.040 A 
HETATM    5  C9  UNL     1      27.966  29.838  16.204  1.00  0.00     0.099 A 
HETATM    6  C10 UNL     1      28.670  30.769  15.459  1.00  0.00     0.111 A 
HETATM    7  C11 UNL     1      29.418  30.362  14.429  1.00  0.00     0.002 A 
HETATM    8  C12 UNL     1      30.122  31.523  13.844  1.00  0.00     0.040 C 
HETATM    9  C13 UNL     1      31.523  31.427  14.491  1.00  0.00     0.049 C 
HETATM   10  C14 UNL     1      32.395  30.362  13.973  1.00  0.00     0.274 C 
HETATM   11  N1  UNL     1      32.236  30.153  12.570  1.00  0.00     0.099 N 
HETATM   12  C19 UNL     1      30.880  29.915  12.228  1.00  0.00     0.271 C 
HETATM   13  C20 UNL     1      30.152  31.239  12.403  1.00  0.00     0.053 C 
HETATM   14  C21 UNL     1      30.886  32.147  11.479  1.00  0.00     0.005 C 
HETATM   15  C22 UNL     1      31.025  33.574  11.745  1.00  0.00     0.087 C 
HETATM   16  N2  UNL     1      29.933  34.430  11.825  1.00  0.00    -0.361 N 
HETATM   17  C27 UNL     1      28.739  34.072  12.426  1.00  0.00     0.028 C 
HETATM   18  C28 UNL     1      27.857  33.137  11.588  1.00  0.00     0.285 C 
HETATM   19  N3  UNL     1      27.765  31.920  12.367  1.00  0.00    -0.069 N 
ATOM     20  H31 UNL     1      26.831  31.512  12.371  1.00  0.00     0.277 HD
ATOM     21  H32 UNL     1      27.838  32.075  13.372  1.00  0.00     0.277 HD
HETATM   22  C29 UNL     1      28.777  31.033  11.847  1.00  0.00     0.250 C 
HETATM   23  C30 UNL     1      28.669  33.651  13.839  1.00  0.00     0.139 C 
HETATM   24  C31 UNL     1      28.708  34.881  14.698  1.00  0.00     0.139 C 
HETATM   25  O3  UNL     1      28.309  35.994  14.474  1.00  0.00    -0.297 OA
HETATM   26  C32 UNL     1      29.368  34.460  15.958  1.00  0.00     0.082 C 
HETATM   27  C33 UNL     1      30.443  33.552  15.329  1.00  0.00     0.048 C 
HETATM   28  C34 UNL     1      29.517  32.681  14.443  1.00  0.00     0.097 C 
HETATM   29  O4  UNL     1      28.772  32.107  15.556  1.00  0.00    -0.334 OA
ENDROOT
BRANCH   1  30
HETATM   30  C4  UNL     1      29.946  27.642  11.936  1.00  0.00    -0.010 C 
BRANCH  30  31
HETATM   31  C2  UNL     1      28.601  27.563  11.351  1.00  0.00     0.028 C 
HETATM   32  C1  UNL     1      27.923  26.225  11.390  1.00  0.00     0.016 C 
BRANCH  31  33
HETATM   33  C3  UNL     1      28.862  27.761   9.797  1.00  0.00     0.172 C 
BRANCH  33  34
HETATM   34  O1  UNL     1      27.995  28.707   9.315  1.00  0.00    -0.400 OA
ATOM     35  H1  UNL     1      27.106  28.384   9.401  1.00  0.00     0.209 HD
ENDBRANCH  33  34
ENDBRANCH  31  33
ENDBRANCH  30  31
ENDBRANCH   1  30
BRANCH  11  36
HETATM   36  C15 UNL     1      33.208  29.279  11.989  1.00  0.00     0.278 C 
BRANCH  36  37
HETATM   37  C16 UNL     1      33.090  29.322  10.483  1.00  0.00     0.014 A 
HETATM   38  C17 UNL     1      32.972  27.962   9.796  1.00  0.00     0.007 A 
HETATM   39  C18 UNL     1      34.267  28.749   9.667  1.00  0.00     0.007 A 
ENDBRANCH  36  37
ENDBRANCH  11  36
BRANCH   5  40
HETATM   40  O2  UNL     1      27.181  30.200  17.276  1.00  0.00    -0.358 OA
ATOM     41  H2  UNL     1      26.294  30.507  17.127  1.00  0.00     0.217 HD
ENDBRANCH   5  40
BRANCH  16  42
HETATM   42  C23 UNL     1      29.734  35.219  10.628  1.00  0.00     0.132 C 
BRANCH  42  43
HETATM   43  C24 UNL     1      30.411  36.533  10.589  1.00  0.00     0.004 A 
HETATM   44  C25 UNL     1      29.486  37.663  10.112  1.00  0.00     0.007 A 
HETATM   45  C26 UNL     1      30.124  37.680  11.450  1.00  0.00     0.007 A 
ENDBRANCH  42  43
ENDBRANCH  16  42
TORSDOF 9
ENDMDL
MODEL 4
REMARK VINA RESULT: -5.859261668      2.231      6.981
REMARK  9 active torsions:
REMARK  status: ('A' for Active; 'I' for Inactive)
REMARK    1  A    between atoms: C2_2  and  C3_3 
REMARK    2  A    between atoms: C2_2  and  C4_6 
REMARK    3  A    between atoms: C3_3  and  O1_4 
REMARK    4  A    between atoms: C4_6  and  C5_7 
REMARK    5  A    between atoms: C9_11  and  O2_12 
REMARK    6  A    between atoms: N1_19  and  C15_20 
REMARK    7  A    between atoms: C15_20  and  C16_21 
REMARK    8  A    between atoms: N2_28  and  C23_29 
REMARK    9  A    between atoms: C23_29  and  C24_30 
ROOT
HETATM    1  C5  UNL     1      30.561  34.307  11.778  1.00  0.00    -0.016 C 
HETATM    2  C6  UNL     1      31.530  34.830  12.713  1.00  0.00    -0.018 A 
HETATM    3  C7  UNL     1      32.602  35.602  12.321  1.00  0.00     0.015 A 
HETATM    4  C8  UNL     1      33.485  36.029  13.303  1.00  0.00     0.040 A 
HETATM    5  C9  UNL     1      33.328  35.714  14.632  1.00  0.00     0.099 A 
HETATM    6  C10 UNL     1      32.240  34.938  14.995  1.00  0.00     0.111 A 
HETATM    7  C11 UNL     1      31.383  34.523  14.057  1.00  0.00     0.002 A 
HETATM    8  C12 UNL     1      30.277  33.779  14.698  1.00  0.00     0.040 C 
HETATM    9  C13 UNL     1      29.165  34.848  14.794  1.00  0.00     0.049 C 
HETATM   10  C14 UNL     1      28.493  35.187  13.530  1.00  0.00     0.274 C 
HETATM   11  N1  UNL     1      28.333  34.058  12.670  1.00  0.00     0.099 N 
HETATM   12  C19 UNL     1      29.569  33.404  12.433  1.00  0.00     0.271 C 
HETATM   13  C20 UNL     1      29.951  32.718  13.737  1.00  0.00     0.053 C 
HETATM   14  C21 UNL     1      28.794  31.813  13.987  1.00  0.00     0.005 C 
HETATM   15  C22 UNL     1      28.366  31.461  15.336  1.00  0.00     0.087 C 
HETATM   16  N2  UNL     1      29.183  30.774  16.225  1.00  0.00    -0.361 N 
HETATM   17  C27 UNL     1      30.543  31.009  16.335  1.00  0.00     0.028 C 
HETATM   18  C28 UNL     1      31.388  30.412  15.203  1.00  0.00     0.285 C 
HETATM   19  N3  UNL     1      31.989  31.555  14.548  1.00  0.00    -0.069 N 
ATOM     20  H31 UNL     1      32.965  31.409  14.292  1.00  0.00     0.277 HD
ATOM     21  H32 UNL     1      32.140  32.347  15.172  1.00  0.00     0.277 HD
HETATM   22  C29 UNL     1      31.141  31.864  13.422  1.00  0.00     0.250 C 
HETATM   23  C30 UNL     1      31.081  32.340  16.678  1.00  0.00     0.139 C 
HETATM   24  C31 UNL     1      30.949  32.531  18.161  1.00  0.00     0.139 C 
HETATM   25  O3  UNL     1      30.977  31.721  19.051  1.00  0.00    -0.297 OA
HETATM   26  C32 UNL     1      30.768  33.990  18.355  1.00  0.00     0.082 C 
HETATM   27  C33 UNL     1      29.839  34.240  17.151  1.00  0.00     0.048 C 
HETATM   28  C34 UNL     1      30.697  33.560  16.054  1.00  0.00     0.097 C 
HETATM   29  O4  UNL     1      31.826  34.472  16.187  1.00  0.00    -0.334 OA
ENDROOT
BRANCH   1  30
HETATM   30  C4  UNL     1      30.949  33.823  10.422  1.00  0.00    -0.010 C 
BRANCH  30  31
HETATM   31  C2  UNL     1      31.725  32.594  10.211  1.00  0.00     0.028 C 
HETATM   32  C1  UNL     1      33.068  32.746   9.559  1.00  0.00     0.016 C 
BRANCH  31  33
HETATM   33  C3  UNL     1      30.898  31.820   9.099  1.00  0.00     0.172 C 
BRANCH  33  34
HETATM   34  O1  UNL     1      29.786  31.263   9.675  1.00  0.00    -0.400 OA
ATOM     35  H1  UNL     1      29.010  31.643   9.282  1.00  0.00     0.209 HD
ENDBRANCH  33  34
ENDBRANCH  31  33
ENDBRANCH  30  31
ENDBRANCH   1  30
BRANCH  11  36
HETATM   36  C15 UNL     1      27.503  34.297  11.530  1.00  0.00     0.278 C 
BRANCH  36  37
HETATM   37  C16 UNL     1      27.346  35.786  11.322  1.00  0.00     0.014 A 
HETATM   38  C17 UNL     1      26.195  36.201  10.408  1.00  0.00     0.007 A 
HETATM   39  C18 UNL     1      27.624  36.332   9.907  1.00  0.00     0.007 A 
ENDBRANCH  36  37
ENDBRANCH  11  36
BRANCH   5  40
HETATM   40  O2  UNL     1      34.243  36.171  15.554  1.00  0.00    -0.358 OA
ATOM     41  H2  UNL     1      34.120  37.024  15.955  1.00  0.00     0.217 HD
ENDBRANCH   5  40
BRANCH  16  42
HETATM   42  C23 UNL     1      28.857  29.367  16.333  1.00  0.00     0.132 C 
BRANCH  42  43
HETATM   43  C24 UNL     1      27.472  29.045  16.739  1.00  0.00     0.004 A 
HETATM   44  C25 UNL     1      27.075  27.601  16.401  1.00  0.00     0.007 A 
HETATM   45  C26 UNL     1      27.074  28.113  17.792  1.00  0.00     0.007 A 
ENDBRANCH  42  43
ENDBRANCH  16  42
TORSDOF 9
ENDMDL
MODEL 5
REMARK VINA RESULT: -5.820497863      2.178      3.474
REMARK  9 active torsions:
REMARK  status: ('A' for Active; 'I' for Inactive)
REMARK    1  A    between atoms: C2_2  and  C3_3 
REMARK    2  A    between atoms: C2_2  and  C4_6 
REMARK    3  A    between atoms: C3_3  and  O1_4 
REMARK    4  A    between atoms: C4_6  and  C5_7 
REMARK    5  A    between atoms: C9_11  and  O2_12 
REMARK    6  A    between atoms: N1_19  and  C15_20 
REMARK    7  A    between atoms: C15_20  and  C16_21 
REMARK    8  A    between atoms: N2_28  and  C23_29 
REMARK    9  A    between atoms: C23_29  and  C24_30 
ROOT
HETATM    1  C5  UNL     1      31.208  31.337  15.460  1.00  0.00    -0.016 C 
HETATM    2  C6  UNL     1      31.996  32.523  15.704  1.00  0.00    -0.018 A 
HETATM    3  C7  UNL     1      32.778  32.679  16.829  1.00  0.00     0.015 A 
HETATM    4  C8  UNL     1      33.473  33.873  16.973  1.00  0.00     0.040 A 
HETATM    5  C9  UNL     1      33.410  34.886  16.046  1.00  0.00     0.099 A 
HETATM    6  C10 UNL     1      32.616  34.698  14.926  1.00  0.00     0.111 A 
HETATM    7  C11 UNL     1      31.944  33.553  14.777  1.00  0.00     0.002 A 
HETATM    8  C12 UNL     1      31.236  33.565  13.480  1.00  0.00     0.040 C 
HETATM    9  C13 UNL     1      32.189  32.757  12.569  1.00  0.00     0.049 C 
HETATM   10  C14 UNL     1      32.207  31.303  12.791  1.00  0.00     0.274 C 
HETATM   11  N1  UNL     1      30.922  30.781  13.129  1.00  0.00     0.099 N 
HETATM   12  C19 UNL     1      30.358  31.462  14.239  1.00  0.00     0.271 C 
HETATM   13  C20 UNL     1      29.980  32.851  13.747  1.00  0.00     0.053 C 
HETATM   14  C21 UNL     1      29.033  32.563  12.633  1.00  0.00     0.005 C 
HETATM   15  C22 UNL     1      28.912  33.442  11.476  1.00  0.00     0.087 C 
HETATM   16  N2  UNL     1      28.495  34.763  11.579  1.00  0.00    -0.361 N 
HETATM   17  C27 UNL     1      28.879  35.595  12.616  1.00  0.00     0.028 C 
HETATM   18  C28 UNL     1      28.158  35.335  13.944  1.00  0.00     0.285 C 
HETATM   19  N3  UNL     1      29.203  34.930  14.860  1.00  0.00    -0.069 N 
ATOM     20  H31 UNL     1      29.107  35.334  15.791  1.00  0.00     0.277 HD
ATOM     21  H32 UNL     1      30.114  35.336  14.641  1.00  0.00     0.277 HD
HETATM   22  C29 UNL     1      29.203  33.487  14.858  1.00  0.00     0.250 C 
HETATM   23  C30 UNL     1      30.297  35.892  12.896  1.00  0.00     0.139 C 
HETATM   24  C31 UNL     1      30.760  36.932  11.918  1.00  0.00     0.139 C 
HETATM   25  O3  UNL     1      30.147  37.818  11.381  1.00  0.00    -0.297 OA
HETATM   26  C32 UNL     1      32.205  36.663  11.713  1.00  0.00     0.082 C 
HETATM   27  C33 UNL     1      32.122  35.125  11.689  1.00  0.00     0.048 C 
HETATM   28  C34 UNL     1      31.328  34.918  13.004  1.00  0.00     0.097 C 
HETATM   29  O4  UNL     1      32.355  35.487  13.868  1.00  0.00    -0.334 OA
ENDROOT
BRANCH   1  30
HETATM   30  C4  UNL     1      30.508  30.610  16.558  1.00  0.00    -0.010 C 
BRANCH  30  31
HETATM   31  C2  UNL     1      29.608  31.280  17.504  1.00  0.00     0.028 C 
HETATM   32  C1  UNL     1      29.986  31.224  18.955  1.00  0.00     0.016 C 
BRANCH  31  33
HETATM   33  C3  UNL     1      28.297  30.385  17.465  1.00  0.00     0.172 C 
BRANCH  33  34
HETATM   34  O1  UNL     1      27.638  30.607  16.283  1.00  0.00    -0.400 OA
ATOM     35  H1  UNL     1      26.750  30.884  16.472  1.00  0.00     0.209 HD
ENDBRANCH  33  34
ENDBRANCH  31  33
ENDBRANCH  30  31
ENDBRANCH   1  30
BRANCH  11  36
HETATM   36  C15 UNL     1      30.851  29.353  13.148  1.00  0.00     0.278 C 
BRANCH  36  37
HETATM   37  C16 UNL     1      29.409  28.920  13.280  1.00  0.00     0.014 A 
HETATM   38  C17 UNL     1      29.126  27.914  14.395  1.00  0.00     0.007 A 
HETATM   39  C18 UNL     1      29.081  27.450  12.948  1.00  0.00     0.007 A 
ENDBRANCH  36  37
ENDBRANCH  11  36
BRANCH   5  40
HETATM   40  O2  UNL     1      34.125  36.044  16.251  1.00  0.00    -0.358 OA
ATOM     41  H2  UNL     1      33.857  36.846  15.818  1.00  0.00     0.217 HD
ENDBRANCH   5  40
BRANCH  16  42
HETATM   42  C23 UNL     1      27.111  34.959  11.198  1.00  0.00     0.132 C 
BRANCH  42  43
HETATM   43  C24 UNL     1      26.727  36.333  10.810  1.00  0.00     0.004 A 
HETATM   44  C25 UNL     1      26.990  36.625   9.326  1.00  0.00     0.007 A 
HETATM   45  C26 UNL     1      25.632  36.705   9.915  1.00  0.00     0.007 A 
ENDBRANCH  42  43
ENDBRANCH  16  42
TORSDOF 9
ENDMDL
