MODEL 1
REMARK VINA RESULT: -5.843014451      0.000      0.000
REMARK  3 active torsions:
REMARK  status: ('A' for Active; 'I' for Inactive)
REMARK       I    between atoms: C2_2  and  N1_4 
REMARK    1  A    between atoms: N2_6  and  C3_8 
REMARK    2  A    between atoms: C6_14  and  N4_15 
REMARK    3  A    between atoms: N4_15  and  O2_17 
ROOT
HETATM    1  C3  UNL     1      -0.245  -2.962   1.053  1.00  0.00     0.150 A 
HETATM    2  N3  UNL     1       0.496  -2.472   2.040  1.00  0.00    -0.348 N 
ATOM      3  H3  UNL     1       0.175  -2.335   2.998  1.00  0.00     0.167 HD
HETATM    4  C4  UNL     1       1.749  -2.178   1.590  1.00  0.00     0.111 A 
HETATM    5  C5  UNL     1       1.810  -2.498   0.243  1.00  0.00     0.058 A 
HETATM    6 BR1  UNL     1       3.324  -2.296  -0.903  1.00  0.00    -0.047 Br
HETATM    7  C6  UNL     1       0.557  -2.986  -0.073  1.00  0.00     0.118 A 
ENDROOT
BRANCH   1   8
HETATM    8  N2  UNL     1      -1.588  -3.389   1.090  1.00  0.00    -0.281 N 
HETATM    9  N1  UNL     1      -2.512  -2.773   1.693  1.00  0.00    -0.269 N 
HETATM   10  C2  UNL     1      -3.826  -3.339   1.637  1.00  0.00     0.232 C 
ATOM     11  H1  UNL     1      -2.329  -1.907   2.200  1.00  0.00     0.190 HD
HETATM   12  C1  UNL     1      -4.208  -4.251   0.506  1.00  0.00     0.119 C 
HETATM   13  O1  UNL     1      -4.686  -3.080   2.537  1.00  0.00    -0.272 OA
ATOM     14  H2  UNL     1      -1.829  -4.251   0.600  1.00  0.00     0.188 HD
ENDBRANCH   1   8
BRANCH   7  15
HETATM   15  N4  UNL     1       0.153  -3.438  -1.344  1.00  0.00    -0.264 N 
ATOM     16  H4  UNL     1       0.756  -4.075  -1.865  1.00  0.00     0.194 HD
BRANCH  15  17
HETATM   17  O2  UNL     1      -1.021  -3.042  -1.886  1.00  0.00    -0.289 OA
ATOM     18  H2  UNL     1      -1.081  -2.799  -2.802  1.00  0.00     0.244 HD
ENDBRANCH  15  17
ENDBRANCH   7  15
TORSDOF 3
ENDMDL
MODEL 2
REMARK VINA RESULT: -5.730151617      3.236      5.084
REMARK  3 active torsions:
REMARK  status: ('A' for Active; 'I' for Inactive)
REMARK       I    between atoms: C2_2  and  N1_4 
REMARK    1  A    between atoms: N2_6  and  C3_8 
REMARK    2  A    between atoms: C6_14  and  N4_15 
REMARK    3  A    between atoms: N4_15  and  O2_17 
ROOT
HETATM    1  C3  UNL     1      -2.169  -3.260   0.812  1.00  0.00     0.150 A 
HETATM    2  N3  UNL     1      -2.759  -3.039   1.980  1.00  0.00    -0.348 N 
ATOM      3  H3  UNL     1      -2.305  -2.620   2.792  1.00  0.00     0.167 HD
HETATM    4  C4  UNL     1      -4.057  -3.451   1.939  1.00  0.00     0.111 A 
HETATM    5  C5  UNL     1      -4.310  -3.962   0.677  1.00  0.00     0.058 A 
HETATM    6 BR1  UNL     1      -5.965  -4.682   0.053  1.00  0.00    -0.047 Br
HETATM    7  C6  UNL     1      -3.119  -3.834  -0.012  1.00  0.00     0.118 A 
ENDROOT
BRANCH   1   8
HETATM    8  N2  UNL     1      -0.839  -2.983   0.431  1.00  0.00    -0.281 N 
HETATM    9  N1  UNL     1       0.111  -2.813   1.247  1.00  0.00    -0.269 N 
HETATM   10  C2  UNL     1       1.406  -2.538   0.700  1.00  0.00     0.232 C 
ATOM     11  H1  UNL     1      -0.039  -2.868   2.254  1.00  0.00     0.190 HD
HETATM   12  C1  UNL     1       1.745  -2.977  -0.696  1.00  0.00     0.119 C 
HETATM   13  O1  UNL     1       2.284  -1.923   1.384  1.00  0.00    -0.272 OA
ATOM     14  H2  UNL     1      -0.632  -2.917  -0.566  1.00  0.00     0.188 HD
ENDBRANCH   1   8
BRANCH   7  15
HETATM   15  N4  UNL     1      -2.901  -4.226  -1.347  1.00  0.00    -0.264 N 
ATOM     16  H4  UNL     1      -3.150  -5.171  -1.639  1.00  0.00     0.194 HD
BRANCH  15  17
HETATM   17  O2  UNL     1      -2.368  -3.371  -2.249  1.00  0.00    -0.289 OA
ATOM     18  H2  UNL     1      -2.915  -2.760  -2.729  1.00  0.00     0.244 HD
ENDBRANCH  15  17
ENDBRANCH   7  15
TORSDOF 3
ENDMDL
MODEL 3
REMARK VINA RESULT: -5.585328196      1.961      2.567
REMARK  3 active torsions:
REMARK  status: ('A' for Active; 'I' for Inactive)
REMARK       I    between atoms: C2_2  and  N1_4 
REMARK    1  A    between atoms: N2_6  and  C3_8 
REMARK    2  A    between atoms: C6_14  and  N4_15 
REMARK    3  A    between atoms: N4_15  and  O2_17 
ROOT
HETATM    1  C3  UNL     1      -1.094  -3.859   0.185  1.00  0.00     0.150 A 
HETATM    2  N3  UNL     1      -0.799  -4.537  -0.917  1.00  0.00    -0.348 N 
ATOM      3  H3  UNL     1      -1.419  -5.209  -1.372  1.00  0.00     0.167 HD
HETATM    4  C4  UNL     1       0.448  -4.209  -1.356  1.00  0.00     0.111 A 
HETATM    5  C5  UNL     1       0.979  -3.269  -0.487  1.00  0.00     0.058 A 
HETATM    6 BR1  UNL     1       2.700  -2.451  -0.613  1.00  0.00    -0.047 Br
HETATM    7  C6  UNL     1       0.002  -3.064   0.467  1.00  0.00     0.118 A 
ENDROOT
BRANCH   1   8
HETATM    8  N2  UNL     1      -2.274  -3.901   0.955  1.00  0.00    -0.281 N 
HETATM    9  N1  UNL     1      -2.359  -4.443   2.093  1.00  0.00    -0.269 N 
HETATM   10  C2  UNL     1      -3.632  -4.401   2.749  1.00  0.00     0.232 C 
ATOM     11  H1  UNL     1      -1.553  -4.892   2.529  1.00  0.00     0.190 HD
HETATM   12  C1  UNL     1      -4.625  -3.329   2.402  1.00  0.00     0.119 C 
HETATM   13  O1  UNL     1      -3.939  -5.265   3.629  1.00  0.00    -0.272 OA
ATOM     14  H2  UNL     1      -3.112  -3.466   0.569  1.00  0.00     0.188 HD
ENDBRANCH   1   8
BRANCH   7  15
HETATM   15  N4  UNL     1       0.101  -2.182   1.561  1.00  0.00    -0.264 N 
ATOM     16  H4  UNL     1      -0.590  -1.439   1.670  1.00  0.00     0.194 HD
BRANCH  15  17
HETATM   17  O2  UNL     1       1.095  -2.304   2.469  1.00  0.00    -0.289 OA
ATOM     18  H2  UNL     1       1.832  -1.706   2.473  1.00  0.00     0.244 HD
ENDBRANCH  15  17
ENDBRANCH   7  15
TORSDOF 3
ENDMDL
MODEL 4
REMARK VINA RESULT: -5.496232893      2.501      3.473
REMARK  3 active torsions:
REMARK  status: ('A' for Active; 'I' for Inactive)
REMARK       I    between atoms: C2_2  and  N1_4 
REMARK    1  A    between atoms: N2_6  and  C3_8 
REMARK    2  A    between atoms: C6_14  and  N4_15 
REMARK    3  A    between atoms: N4_15  and  O2_17 
ROOT
HETATM    1  C3  UNL     1      -2.530  -3.813  -0.866  1.00  0.00     0.150 A 
HETATM    2  N3  UNL     1      -2.033  -3.954  -2.089  1.00  0.00    -0.348 N 
ATOM      3  H3  UNL     1      -2.575  -4.220  -2.911  1.00  0.00     0.167 HD
HETATM    4  C4  UNL     1      -0.695  -3.693  -2.088  1.00  0.00     0.111 A 
HETATM    5  C5  UNL     1      -0.318  -3.367  -0.796  1.00  0.00     0.058 A 
HETATM    6 BR1  UNL     1       1.440  -2.908  -0.208  1.00  0.00    -0.047 Br
HETATM    7  C6  UNL     1      -1.477  -3.447  -0.048  1.00  0.00     0.118 A 
ENDROOT
BRANCH   1   8
HETATM    8  N2  UNL     1      -3.860  -3.988  -0.431  1.00  0.00    -0.281 N 
HETATM    9  N1  UNL     1      -4.492  -5.080  -0.505  1.00  0.00    -0.269 N 
HETATM   10  C2  UNL     1      -5.840  -5.093  -0.019  1.00  0.00     0.232 C 
ATOM     11  H1  UNL     1      -4.060  -5.918  -0.895  1.00  0.00     0.190 HD
HETATM   12  C1  UNL     1      -6.283  -4.089   1.005  1.00  0.00     0.119 C 
HETATM   13  O1  UNL     1      -6.676  -5.951  -0.445  1.00  0.00    -0.272 OA
ATOM     14  H2  UNL     1      -4.342  -3.182  -0.031  1.00  0.00     0.188 HD
ENDBRANCH   1   8
BRANCH   7  15
HETATM   15  N4  UNL     1      -1.576  -3.197   1.335  1.00  0.00    -0.264 N 
ATOM     16  H4  UNL     1      -0.818  -3.488   1.952  1.00  0.00     0.194 HD
BRANCH  15  17
HETATM   17  O2  UNL     1      -2.658  -2.578   1.857  1.00  0.00    -0.289 OA
ATOM     18  H2  UNL     1      -3.341  -2.228   1.297  1.00  0.00     0.244 HD
ENDBRANCH  15  17
ENDBRANCH   7  15
TORSDOF 3
ENDMDL
MODEL 5
REMARK VINA RESULT: -5.446654824      2.101      2.754
REMARK  3 active torsions:
REMARK  status: ('A' for Active; 'I' for Inactive)
REMARK       I    between atoms: C2_2  and  N1_4 
REMARK    1  A    between atoms: N2_6  and  C3_8 
REMARK    2  A    between atoms: C6_14  and  N4_15 
REMARK    3  A    between atoms: N4_15  and  O2_17 
ROOT
HETATM    1  C3  UNL     1      -1.315  -3.806  -0.407  1.00  0.00     0.150 A 
HETATM    2  N3  UNL     1      -0.825  -4.485  -1.436  1.00  0.00    -0.348 N 
ATOM      3  H3  UNL     1      -1.356  -5.145  -2.005  1.00  0.00     0.167 HD
HETATM    4  C4  UNL     1       0.489  -4.176  -1.625  1.00  0.00     0.111 A 
HETATM    5  C5  UNL     1       0.857  -3.248  -0.664  1.00  0.00     0.058 A 
HETATM    6 BR1  UNL     1       2.582  -2.459  -0.450  1.00  0.00    -0.047 Br
HETATM    7  C6  UNL     1      -0.282  -3.030   0.087  1.00  0.00     0.118 A 
ENDROOT
BRANCH   1   8
HETATM    8  N2  UNL     1      -2.622  -3.831   0.122  1.00  0.00    -0.281 N 
HETATM    9  N1  UNL     1      -3.587  -4.455  -0.403  1.00  0.00    -0.269 N 
HETATM   10  C2  UNL     1      -4.856  -4.381   0.258  1.00  0.00     0.232 C 
ATOM     11  H1  UNL     1      -3.468  -4.990  -1.263  1.00  0.00     0.190 HD
HETATM   12  C1  UNL     1      -4.925  -4.082   1.728  1.00  0.00     0.119 C 
HETATM   13  O1  UNL     1      -5.937  -4.566  -0.386  1.00  0.00    -0.272 OA
ATOM     14  H2  UNL     1      -2.800  -3.312   0.983  1.00  0.00     0.188 HD
ENDBRANCH   1   8
BRANCH   7  15
HETATM   15  N4  UNL     1      -0.382  -2.155   1.185  1.00  0.00    -0.264 N 
ATOM     16  H4  UNL     1      -1.147  -1.481   1.222  1.00  0.00     0.194 HD
BRANCH  15  17
HETATM   17  O2  UNL     1       0.520  -2.191   2.192  1.00  0.00    -0.289 OA
ATOM     18  H2  UNL     1       1.226  -2.826   2.196  1.00  0.00     0.244 HD
ENDBRANCH  15  17
ENDBRANCH   7  15
TORSDOF 3
ENDMDL
