MODEL 1
REMARK VINA RESULT: -10.249625213      0.000      0.000
REMARK  12 active torsions:
REMARK  status: ('A' for Active; 'I' for Inactive)
REMARK    1  A    between atoms: C2_2  and  C4_4 
REMARK    2  A    between atoms: C5_5  and  O1_6 
REMARK    3  A    between atoms: C7_9  and  O2_10 
REMARK    4  A    between atoms: O2_10  and  C8_11 
REMARK    5  A    between atoms: C11_14  and  N1_15 
REMARK    6  A    between atoms: C13_21  and  O4_22 
REMARK    7  A    between atoms: O4_22  and  C14_23 
REMARK    8  A    between atoms: C14_23  and  C15_24 
REMARK    9  A    between atoms: C14_23  and  C16_30 
REMARK   10  A    between atoms: C15_24  and  O5_25 
REMARK   11  A    between atoms: O5_25  and  S1_26 
REMARK   12  A    between atoms: C16_30  and  O9_32 
ROOT
HETATM    1  C4  UNL     1      12.542 -36.048  -0.285  1.00  0.00     0.052 C 
HETATM    2  C5  UNL     1      11.043 -35.769  -0.129  1.00  0.00     0.152 C 
HETATM    3  C6  UNL     1      10.795 -35.756   1.342  1.00  0.00     0.040 C 
HETATM    4  C7  UNL     1      11.601 -36.233   2.252  1.00  0.00     0.077 C 
HETATM    5  C13 UNL     1      12.939 -36.883   1.928  1.00  0.00     0.183 C 
HETATM    6  C18 UNL     1      12.760 -37.321   0.477  1.00  0.00     0.028 C 
HETATM    7  C19 UNL     1      13.785 -38.252  -0.029  1.00  0.00     0.014 C 
ENDROOT
BRANCH   5   8
HETATM    8  O4  UNL     1      13.882 -35.891   1.954  1.00  0.00    -0.369 OA
BRANCH   8   9
HETATM    9  C14 UNL     1      14.917 -36.050   2.866  1.00  0.00     0.176 C 
BRANCH   9  10
HETATM   10  C15 UNL     1      14.795 -37.272   3.703  1.00  0.00     0.227 C 
BRANCH  10  11
HETATM   11  O5  UNL     1      15.684 -37.235   4.751  1.00  0.00    -0.254 OA
BRANCH  11  12
HETATM   12  S1  UNL     1      16.910 -38.360   4.613  1.00  0.00     0.251 S 
HETATM   13  O6  UNL     1      16.737 -39.160   3.363  1.00  0.00    -0.572 OA
HETATM   14  O7  UNL     1      17.008 -39.232   5.828  1.00  0.00    -0.572 OA
HETATM   15  O8  UNL     1      18.361 -37.494   4.436  1.00  0.00    -0.572 OA
ENDBRANCH  11  12
ENDBRANCH  10  11
ENDBRANCH   9  10
BRANCH   9  16
HETATM   16  C16 UNL     1      16.270 -35.979   2.143  1.00  0.00     0.145 C 
HETATM   17  C17 UNL     1      16.140 -35.509   0.719  1.00  0.00     0.042 C 
BRANCH  16  18
HETATM   18  O9  UNL     1      17.185 -35.192   2.796  1.00  0.00    -0.393 OA
ATOM     19  H9  UNL     1      17.728 -35.681   3.403  1.00  0.00     0.210 HD
ENDBRANCH  16  18
ENDBRANCH   9  16
ENDBRANCH   8   9
ENDBRANCH   5   8
BRANCH   4  20
HETATM   20  O2  UNL     1      11.250 -36.155   3.572  1.00  0.00    -0.322 OA
BRANCH  20  21
HETATM   21  C8  UNL     1      10.440 -37.053   4.283  1.00  0.00     0.266 C 
HETATM   22  C9  UNL     1       9.612 -36.230   5.247  1.00  0.00     0.063 C 
HETATM   23  C10 UNL     1       8.445 -36.955   5.826  1.00  0.00     0.040 C 
HETATM   24  C11 UNL     1       7.773 -37.902   4.863  1.00  0.00     0.207 C 
HETATM   25  C12 UNL     1       8.878 -38.697   4.196  1.00  0.00     0.203 C 
HETATM   26  O3  UNL     1       9.683 -37.856   3.464  1.00  0.00    -0.359 OA
BRANCH  24  27
HETATM   27  N1  UNL     1       6.944 -37.221   3.892  1.00  0.00    -0.073 N 
ATOM     28  H13 UNL     1       5.993 -37.590   3.902  1.00  0.00     0.274 HD
ATOM     29  H12 UNL     1       6.753 -36.262   4.184  1.00  0.00     0.274 HD
ATOM     30  H11 UNL     1       7.335 -37.245   2.950  1.00  0.00     0.274 HD
ENDBRANCH  24  27
ENDBRANCH  20  21
ENDBRANCH   4  20
BRANCH   1  31
HETATM   31  C2  UNL     1      13.030 -35.976  -1.650  1.00  0.00    -0.086 C 
HETATM   32  C1  UNL     1      14.242 -36.287  -2.054  1.00  0.00     0.014 C 
HETATM   33  C3  UNL     1      12.065 -35.539  -2.728  1.00  0.00     0.043 C 
ENDBRANCH   1  31
BRANCH   2  34
HETATM   34  O1  UNL     1      10.272 -36.768  -0.710  1.00  0.00    -0.391 OA
ATOM     35  H1  UNL     1       9.420 -36.443  -0.978  1.00  0.00     0.210 HD
ENDBRANCH   2  34
TORSDOF 12
ENDMDL
MODEL 2
REMARK VINA RESULT: -9.702797673      1.017      1.250
REMARK  12 active torsions:
REMARK  status: ('A' for Active; 'I' for Inactive)
REMARK    1  A    between atoms: C2_2  and  C4_4 
REMARK    2  A    between atoms: C5_5  and  O1_6 
REMARK    3  A    between atoms: C7_9  and  O2_10 
REMARK    4  A    between atoms: O2_10  and  C8_11 
REMARK    5  A    between atoms: C11_14  and  N1_15 
REMARK    6  A    between atoms: C13_21  and  O4_22 
REMARK    7  A    between atoms: O4_22  and  C14_23 
REMARK    8  A    between atoms: C14_23  and  C15_24 
REMARK    9  A    between atoms: C14_23  and  C16_30 
REMARK   10  A    between atoms: C15_24  and  O5_25 
REMARK   11  A    between atoms: O5_25  and  S1_26 
REMARK   12  A    between atoms: C16_30  and  O9_32 
ROOT
HETATM    1  C4  UNL     1      12.616 -35.970  -0.468  1.00  0.00     0.052 C 
HETATM    2  C5  UNL     1      11.138 -35.570  -0.398  1.00  0.00     0.152 C 
HETATM    3  C6  UNL     1      10.839 -35.416   1.054  1.00  0.00     0.040 C 
HETATM    4  C7  UNL     1      11.573 -35.873   2.033  1.00  0.00     0.077 C 
HETATM    5  C13 UNL     1      12.868 -36.645   1.819  1.00  0.00     0.183 C 
HETATM    6  C18 UNL     1      12.709 -37.188   0.402  1.00  0.00     0.028 C 
HETATM    7  C19 UNL     1      13.677 -38.230   0.017  1.00  0.00     0.014 C 
ENDROOT
BRANCH   5   8
HETATM    8  O4  UNL     1      13.883 -35.726   1.806  1.00  0.00    -0.369 OA
BRANCH   8   9
HETATM    9  C14 UNL     1      14.891 -35.908   2.743  1.00  0.00     0.176 C 
BRANCH   9  10
HETATM   10  C15 UNL     1      14.696 -37.102   3.607  1.00  0.00     0.227 C 
BRANCH  10  11
HETATM   11  O5  UNL     1      15.581 -37.092   4.659  1.00  0.00    -0.254 OA
BRANCH  11  12
HETATM   12  S1  UNL     1      16.770 -38.257   4.528  1.00  0.00     0.251 S 
HETATM   13  O6  UNL     1      16.584 -39.044   3.272  1.00  0.00    -0.572 OA
HETATM   14  O7  UNL     1      16.825 -39.138   5.739  1.00  0.00    -0.572 OA
HETATM   15  O8  UNL     1      18.251 -37.440   4.371  1.00  0.00    -0.572 OA
ENDBRANCH  11  12
ENDBRANCH  10  11
ENDBRANCH   9  10
BRANCH   9  16
HETATM   16  C16 UNL     1      16.260 -35.918   2.048  1.00  0.00     0.145 C 
HETATM   17  C17 UNL     1      16.179 -35.482   0.609  1.00  0.00     0.042 C 
BRANCH  16  18
HETATM   18  O9  UNL     1      17.196 -35.156   2.699  1.00  0.00    -0.393 OA
ATOM     19  H9  UNL     1      17.653 -35.633   3.381  1.00  0.00     0.210 HD
ENDBRANCH  16  18
ENDBRANCH   9  16
ENDBRANCH   8   9
ENDBRANCH   5   8
BRANCH   4  20
HETATM   20  O2  UNL     1      11.181 -35.660   3.327  1.00  0.00    -0.322 OA
BRANCH  20  21
HETATM   21  C8  UNL     1      10.012 -36.135   3.942  1.00  0.00     0.266 C 
HETATM   22  C9  UNL     1       9.830 -37.569   3.491  1.00  0.00     0.063 C 
HETATM   23  C10 UNL     1       8.860 -38.350   4.310  1.00  0.00     0.040 C 
HETATM   24  C11 UNL     1       8.890 -38.013   5.781  1.00  0.00     0.207 C 
HETATM   25  C12 UNL     1       8.887 -36.500   5.879  1.00  0.00     0.203 C 
HETATM   26  O3  UNL     1      10.031 -35.993   5.309  1.00  0.00    -0.359 OA
BRANCH  24  27
HETATM   27  N1  UNL     1      10.025 -38.591   6.466  1.00  0.00    -0.073 N 
ATOM     28  H13 UNL     1      10.469 -39.309   5.894  1.00  0.00     0.274 HD
ATOM     29  H12 UNL     1      10.795 -37.924   6.523  1.00  0.00     0.274 HD
ATOM     30  H11 UNL     1       9.788 -38.954   7.389  1.00  0.00     0.274 HD
ENDBRANCH  24  27
ENDBRANCH  20  21
ENDBRANCH   4  20
BRANCH   1  31
HETATM   31  C2  UNL     1      13.157 -36.048  -1.813  1.00  0.00    -0.086 C 
HETATM   32  C1  UNL     1      14.337 -36.527  -2.144  1.00  0.00     0.014 C 
HETATM   33  C3  UNL     1      12.293 -35.572  -2.956  1.00  0.00     0.043 C 
ENDBRANCH   1  31
BRANCH   2  34
HETATM   34  O1  UNL     1      10.315 -36.555  -0.930  1.00  0.00    -0.391 OA
ATOM     35  H1  UNL     1       9.414 -36.448  -0.649  1.00  0.00     0.210 HD
ENDBRANCH   2  34
TORSDOF 12
ENDMDL
MODEL 3
REMARK VINA RESULT: -8.941337352      1.112      1.882
REMARK  12 active torsions:
REMARK  status: ('A' for Active; 'I' for Inactive)
REMARK    1  A    between atoms: C2_2  and  C4_4 
REMARK    2  A    between atoms: C5_5  and  O1_6 
REMARK    3  A    between atoms: C7_9  and  O2_10 
REMARK    4  A    between atoms: O2_10  and  C8_11 
REMARK    5  A    between atoms: C11_14  and  N1_15 
REMARK    6  A    between atoms: C13_21  and  O4_22 
REMARK    7  A    between atoms: O4_22  and  C14_23 
REMARK    8  A    between atoms: C14_23  and  C15_24 
REMARK    9  A    between atoms: C14_23  and  C16_30 
REMARK   10  A    between atoms: C15_24  and  O5_25 
REMARK   11  A    between atoms: O5_25  and  S1_26 
REMARK   12  A    between atoms: C16_30  and  O9_32 
ROOT
HETATM    1  C4  UNL     1      12.383 -35.862  -0.571  1.00  0.00     0.052 C 
HETATM    2  C5  UNL     1      10.908 -35.469  -0.434  1.00  0.00     0.152 C 
HETATM    3  C6  UNL     1      10.636 -35.459   1.032  1.00  0.00     0.040 C 
HETATM    4  C7  UNL     1      11.386 -36.013   1.947  1.00  0.00     0.077 C 
HETATM    5  C13 UNL     1      12.674 -36.762   1.633  1.00  0.00     0.183 C 
HETATM    6  C18 UNL     1      12.488 -37.161   0.172  1.00  0.00     0.028 C 
HETATM    7  C19 UNL     1      13.444 -38.161  -0.333  1.00  0.00     0.014 C 
ENDROOT
BRANCH   5   8
HETATM    8  O4  UNL     1      13.692 -35.847   1.692  1.00  0.00    -0.369 OA
BRANCH   8   9
HETATM    9  C14 UNL     1      14.899 -36.302   2.203  1.00  0.00     0.176 C 
BRANCH   9  10
HETATM   10  C15 UNL     1      15.651 -35.273   2.968  1.00  0.00     0.227 C 
BRANCH  10  11
HETATM   11  O5  UNL     1      16.993 -35.330   2.673  1.00  0.00    -0.254 OA
BRANCH  11  12
HETATM   12  S1  UNL     1      17.920 -35.903   3.938  1.00  0.00     0.251 S 
HETATM   13  O6  UNL     1      17.048 -36.551   4.964  1.00  0.00    -0.572 OA
HETATM   14  O7  UNL     1      18.782 -34.830   4.532  1.00  0.00    -0.572 OA
HETATM   15  O8  UNL     1      18.916 -37.127   3.309  1.00  0.00    -0.572 OA
ENDBRANCH  11  12
ENDBRANCH  10  11
ENDBRANCH   9  10
BRANCH   9  16
HETATM   16  C16 UNL     1      14.675 -37.581   3.025  1.00  0.00     0.145 C 
HETATM   17  C17 UNL     1      15.762 -38.600   2.811  1.00  0.00     0.042 C 
BRANCH  16  18
HETATM   18  O9  UNL     1      14.542 -37.337   4.368  1.00  0.00    -0.393 OA
ATOM     19  H9  UNL     1      14.086 -38.032   4.827  1.00  0.00     0.210 HD
ENDBRANCH  16  18
ENDBRANCH   9  16
ENDBRANCH   8   9
ENDBRANCH   5   8
BRANCH   4  20
HETATM   20  O2  UNL     1      11.019 -35.929   3.262  1.00  0.00    -0.322 OA
BRANCH  20  21
HETATM   21  C8  UNL     1      10.338 -36.901   4.011  1.00  0.00     0.266 C 
HETATM   22  C9  UNL     1       9.543 -36.164   5.068  1.00  0.00     0.063 C 
HETATM   23  C10 UNL     1       8.483 -36.985   5.721  1.00  0.00     0.040 C 
HETATM   24  C11 UNL     1       7.797 -37.953   4.789  1.00  0.00     0.207 C 
HETATM   25  C12 UNL     1       8.892 -38.649   4.005  1.00  0.00     0.203 C 
HETATM   26  O3  UNL     1       9.569 -37.735   3.234  1.00  0.00    -0.359 OA
BRANCH  24  27
HETATM   27  N1  UNL     1       6.841 -37.308   3.915  1.00  0.00    -0.073 N 
ATOM     28  H13 UNL     1       6.402 -37.985   3.291  1.00  0.00     0.274 HD
ATOM     29  H12 UNL     1       6.017 -37.004   4.435  1.00  0.00     0.274 HD
ATOM     30  H11 UNL     1       7.245 -36.534   3.388  1.00  0.00     0.274 HD
ENDBRANCH  24  27
ENDBRANCH  20  21
ENDBRANCH   4  20
BRANCH   1  31
HETATM   31  C2  UNL     1      12.899 -35.807  -1.927  1.00  0.00    -0.086 C 
HETATM   32  C1  UNL     1      12.205 -35.516  -3.006  1.00  0.00     0.014 C 
HETATM   33  C3  UNL     1      14.371 -36.073  -2.138  1.00  0.00     0.043 C 
ENDBRANCH   1  31
BRANCH   2  34
HETATM   34  O1  UNL     1      10.072 -36.395  -1.046  1.00  0.00    -0.391 OA
ATOM     35  H1  UNL     1       9.303 -36.577  -0.517  1.00  0.00     0.210 HD
ENDBRANCH   2  34
TORSDOF 12
ENDMDL
MODEL 4
REMARK VINA RESULT: -8.760946662      5.378      8.375
REMARK  12 active torsions:
REMARK  status: ('A' for Active; 'I' for Inactive)
REMARK    1  A    between atoms: C2_2  and  C4_4 
REMARK    2  A    between atoms: C5_5  and  O1_6 
REMARK    3  A    between atoms: C7_9  and  O2_10 
REMARK    4  A    between atoms: O2_10  and  C8_11 
REMARK    5  A    between atoms: C11_14  and  N1_15 
REMARK    6  A    between atoms: C13_21  and  O4_22 
REMARK    7  A    between atoms: O4_22  and  C14_23 
REMARK    8  A    between atoms: C14_23  and  C15_24 
REMARK    9  A    between atoms: C14_23  and  C16_30 
REMARK   10  A    between atoms: C15_24  and  O5_25 
REMARK   11  A    between atoms: O5_25  and  S1_26 
REMARK   12  A    between atoms: C16_30  and  O9_32 
ROOT
HETATM    1  C4  UNL     1      19.149 -41.388   5.465  1.00  0.00     0.052 C 
HETATM    2  C5  UNL     1      17.766 -41.642   4.856  1.00  0.00     0.152 C 
HETATM    3  C6  UNL     1      17.406 -40.377   4.152  1.00  0.00     0.040 C 
HETATM    4  C7  UNL     1      17.981 -39.218   4.333  1.00  0.00     0.077 C 
HETATM    5  C13 UNL     1      19.127 -38.995   5.310  1.00  0.00     0.183 C 
HETATM    6  C18 UNL     1      18.965 -40.151   6.293  1.00  0.00     0.028 C 
HETATM    7  C19 UNL     1      19.752 -40.036   7.533  1.00  0.00     0.014 C 
ENDROOT
BRANCH   5   8
HETATM    8  O4  UNL     1      20.289 -39.194   4.614  1.00  0.00    -0.369 OA
BRANCH   8   9
HETATM    9  C14 UNL     1      21.303 -38.271   4.831  1.00  0.00     0.176 C 
BRANCH   9  10
HETATM   10  C15 UNL     1      22.622 -38.693   4.292  1.00  0.00     0.227 C 
BRANCH  10  11
HETATM   11  O5  UNL     1      22.537 -38.959   2.946  1.00  0.00    -0.254 OA
BRANCH  11  12
HETATM   12  S1  UNL     1      23.693 -38.160   2.044  1.00  0.00     0.251 S 
HETATM   13  O6  UNL     1      24.241 -39.066   0.990  1.00  0.00    -0.572 OA
HETATM   14  O7  UNL     1      24.775 -37.584   2.906  1.00  0.00    -0.572 OA
HETATM   15  O8  UNL     1      22.902 -36.896   1.230  1.00  0.00    -0.572 OA
ENDBRANCH  11  12
ENDBRANCH  10  11
ENDBRANCH   9  10
BRANCH   9  16
HETATM   16  C16 UNL     1      20.880 -36.892   4.303  1.00  0.00     0.145 C 
HETATM   17  C17 UNL     1      21.961 -35.857   4.464  1.00  0.00     0.042 C 
BRANCH  16  18
HETATM   18  O9  UNL     1      20.476 -36.922   2.992  1.00  0.00    -0.393 OA
ATOM     19  H9  UNL     1      20.067 -36.112   2.712  1.00  0.00     0.210 HD
ENDBRANCH  16  18
ENDBRANCH   9  16
ENDBRANCH   8   9
ENDBRANCH   5   8
BRANCH   4  20
HETATM   20  O2  UNL     1      17.551 -38.133   3.619  1.00  0.00    -0.322 OA
BRANCH  20  21
HETATM   21  C8  UNL     1      16.231 -37.672   3.499  1.00  0.00     0.266 C 
HETATM   22  C9  UNL     1      16.293 -36.159   3.496  1.00  0.00     0.063 C 
HETATM   23  C10 UNL     1      15.047 -35.496   3.017  1.00  0.00     0.040 C 
HETATM   24  C11 UNL     1      14.353 -36.232   1.896  1.00  0.00     0.207 C 
HETATM   25  C12 UNL     1      14.303 -37.691   2.303  1.00  0.00     0.203 C 
HETATM   26  O3  UNL     1      15.579 -38.192   2.406  1.00  0.00    -0.359 OA
BRANCH  24  27
HETATM   27  N1  UNL     1      15.009 -36.055   0.619  1.00  0.00    -0.073 N 
ATOM     28  H13 UNL     1      15.100 -35.065   0.390  1.00  0.00     0.274 HD
ATOM     29  H12 UNL     1      15.997 -36.303   0.677  1.00  0.00     0.274 HD
ATOM     30  H11 UNL     1      14.549 -36.563  -0.136  1.00  0.00     0.274 HD
ENDBRANCH  24  27
ENDBRANCH  20  21
ENDBRANCH   4  20
BRANCH   1  31
HETATM   31  C2  UNL     1      19.753 -42.548   6.095  1.00  0.00    -0.086 C 
HETATM   32  C1  UNL     1      19.170 -43.346   6.964  1.00  0.00     0.014 C 
HETATM   33  C3  UNL     1      21.167 -42.911   5.709  1.00  0.00     0.043 C 
ENDBRANCH   1  31
BRANCH   2  34
HETATM   34  O1  UNL     1      16.815 -41.904   5.834  1.00  0.00    -0.391 OA
ATOM     35  H1  UNL     1      17.218 -42.154   6.658  1.00  0.00     0.210 HD
ENDBRANCH   2  34
TORSDOF 12
ENDMDL
MODEL 5
REMARK VINA RESULT: -8.563047449      5.324      8.387
REMARK  12 active torsions:
REMARK  status: ('A' for Active; 'I' for Inactive)
REMARK    1  A    between atoms: C2_2  and  C4_4 
REMARK    2  A    between atoms: C5_5  and  O1_6 
REMARK    3  A    between atoms: C7_9  and  O2_10 
REMARK    4  A    between atoms: O2_10  and  C8_11 
REMARK    5  A    between atoms: C11_14  and  N1_15 
REMARK    6  A    between atoms: C13_21  and  O4_22 
REMARK    7  A    between atoms: O4_22  and  C14_23 
REMARK    8  A    between atoms: C14_23  and  C15_24 
REMARK    9  A    between atoms: C14_23  and  C16_30 
REMARK   10  A    between atoms: C15_24  and  O5_25 
REMARK   11  A    between atoms: O5_25  and  S1_26 
REMARK   12  A    between atoms: C16_30  and  O9_32 
ROOT
HETATM    1  C4  UNL     1      19.290 -41.143   5.374  1.00  0.00     0.052 C 
HETATM    2  C5  UNL     1      17.836 -41.406   4.970  1.00  0.00     0.152 C 
HETATM    3  C6  UNL     1      17.416 -40.201   4.199  1.00  0.00     0.040 C 
HETATM    4  C7  UNL     1      18.033 -39.049   4.194  1.00  0.00     0.077 C 
HETATM    5  C13 UNL     1      19.299 -38.774   4.994  1.00  0.00     0.183 C 
HETATM    6  C18 UNL     1      19.239 -39.828   6.095  1.00  0.00     0.028 C 
HETATM    7  C19 UNL     1      20.181 -39.625   7.210  1.00  0.00     0.014 C 
ENDROOT
BRANCH   5   8
HETATM    8  O4  UNL     1      20.358 -39.076   4.180  1.00  0.00    -0.369 OA
BRANCH   8   9
HETATM    9  C14 UNL     1      21.069 -37.998   3.671  1.00  0.00     0.176 C 
BRANCH   9  10
HETATM   10  C15 UNL     1      21.005 -36.782   4.523  1.00  0.00     0.227 C 
BRANCH  10  11
HETATM   11  O5  UNL     1      22.158 -36.642   5.259  1.00  0.00    -0.254 OA
BRANCH  11  12
HETATM   12  S1  UNL     1      22.841 -35.124   5.129  1.00  0.00     0.251 S 
HETATM   13  O6  UNL     1      21.814 -34.072   5.400  1.00  0.00    -0.572 OA
HETATM   14  O7  UNL     1      23.513 -34.924   3.805  1.00  0.00    -0.572 OA
HETATM   15  O8  UNL     1      24.002 -34.994   6.363  1.00  0.00    -0.572 OA
ENDBRANCH  11  12
ENDBRANCH  10  11
ENDBRANCH   9  10
BRANCH   9  16
HETATM   16  C16 UNL     1      22.516 -38.415   3.370  1.00  0.00     0.145 C 
HETATM   17  C17 UNL     1      22.923 -39.658   4.115  1.00  0.00     0.042 C 
BRANCH  16  18
HETATM   18  O9  UNL     1      22.754 -38.593   2.031  1.00  0.00    -0.393 OA
ATOM     19  H9  UNL     1      22.425 -39.421   1.703  1.00  0.00     0.210 HD
ENDBRANCH  16  18
ENDBRANCH   9  16
ENDBRANCH   8   9
ENDBRANCH   5   8
BRANCH   4  20
HETATM   20  O2  UNL     1      17.538 -38.022   3.438  1.00  0.00    -0.322 OA
BRANCH  20  21
HETATM   21  C8  UNL     1      16.203 -37.595   3.366  1.00  0.00     0.266 C 
HETATM   22  C9  UNL     1      16.226 -36.081   3.354  1.00  0.00     0.063 C 
HETATM   23  C10 UNL     1      14.945 -35.453   2.920  1.00  0.00     0.040 C 
HETATM   24  C11 UNL     1      14.229 -36.212   1.830  1.00  0.00     0.207 C 
HETATM   25  C12 UNL     1      14.232 -37.670   2.244  1.00  0.00     0.203 C 
HETATM   26  O3  UNL     1      15.523 -38.138   2.302  1.00  0.00    -0.359 OA
BRANCH  24  27
HETATM   27  N1  UNL     1      14.831 -36.025   0.528  1.00  0.00    -0.073 N 
ATOM     28  H13 UNL     1      14.170 -36.252  -0.216  1.00  0.00     0.274 HD
ATOM     29  H12 UNL     1      14.971 -35.034   0.329  1.00  0.00     0.274 HD
ATOM     30  H11 UNL     1      15.701 -36.546   0.415  1.00  0.00     0.274 HD
ENDBRANCH  24  27
ENDBRANCH  20  21
ENDBRANCH   4  20
BRANCH   1  31
HETATM   31  C2  UNL     1      19.946 -42.258   6.032  1.00  0.00    -0.086 C 
HETATM   32  C1  UNL     1      19.405 -43.047   6.935  1.00  0.00     0.014 C 
HETATM   33  C3  UNL     1      21.367 -42.582   5.635  1.00  0.00     0.043 C 
ENDBRANCH   1  31
BRANCH   2  34
HETATM   34  O1  UNL     1      17.012 -41.545   6.080  1.00  0.00    -0.391 OA
ATOM     35  H1  UNL     1      16.768 -40.702   6.444  1.00  0.00     0.210 HD
ENDBRANCH   2  34
TORSDOF 12
ENDMDL
