MODEL 1
REMARK VINA RESULT: -9.348333674      0.000      0.000
REMARK  12 active torsions:
REMARK  status: ('A' for Active; 'I' for Inactive)
REMARK    1  A    between atoms: C2_2  and  C3_3 
REMARK    2  A    between atoms: C3_3  and  C4_4 
REMARK    3  A    between atoms: C6_6  and  O1_7 
REMARK    4  A    between atoms: C8_9  and  O2_10 
REMARK    5  A    between atoms: O2_10  and  C9_11 
REMARK    6  A    between atoms: C10_15  and  O3_16 
REMARK    7  A    between atoms: O3_16  and  C11_17 
REMARK    8  A    between atoms: C14_20  and  O4_21 
REMARK    9  A    between atoms: C17_28  and  O5_29 
REMARK   10  A    between atoms: C18_31  and  C19_32 
REMARK   11  A    between atoms: C19_32  and  O6_33 
REMARK   12  A    between atoms: C21_37  and  O8_38 
ROOT
HETATM    1  C9  UNL     1      10.654 -36.348   1.006  1.00  0.00     0.478 C 
HETATM    2  N1  UNL     1      11.751 -35.556   1.528  1.00  0.00     0.004 N 
ATOM      3  H11 UNL     1      11.619 -34.571   1.301  1.00  0.00     0.286 HD
ATOM      4  H12 UNL     1      12.606 -35.742   1.004  1.00  0.00     0.286 HD
HETATM    5  C10 UNL     1      11.978 -35.722   2.932  1.00  0.00     0.360 C 
HETATM    6  C17 UNL     1      10.700 -35.820   3.733  1.00  0.00     0.206 C 
HETATM    7  C18 UNL     1       9.690 -36.729   3.067  1.00  0.00     0.183 C 
HETATM    8  O7  UNL     1      10.239 -37.312   1.928  1.00  0.00    -0.328 OA
ENDROOT
BRANCH   1   9
HETATM    9  O2  UNL     1      11.123 -37.038  -0.116  1.00  0.00    -0.294 OA
BRANCH   9  10
HETATM   10  C8  UNL     1      12.044 -36.641  -1.042  1.00  0.00     0.110 A 
HETATM   11  C6  UNL     1      13.371 -37.002  -0.829  1.00  0.00     0.102 A 
HETATM   12  C5  UNL     1      14.298 -36.611  -1.748  1.00  0.00     0.049 A 
HETATM   13  C4  UNL     1      13.995 -35.879  -2.877  1.00  0.00    -0.019 A 
HETATM   14  C21 UNL     1      12.682 -35.518  -3.096  1.00  0.00     0.077 A 
HETATM   15  C20 UNL     1      11.715 -35.910  -2.162  1.00  0.00     0.077 A 
BRANCH  11  16
HETATM   16  O1  UNL     1      13.689 -37.743   0.311  1.00  0.00    -0.353 OA
HETATM   17  C7  UNL     1      14.060 -39.094   0.168  1.00  0.00     0.210 C 
ENDBRANCH  11  16
BRANCH  13  18
HETATM   18  C3  UNL     1      15.036 -35.471  -3.860  1.00  0.00     0.068 C 
BRANCH  18  19
HETATM   19  C2  UNL     1      14.711 -35.915  -5.242  1.00  0.00    -0.032 C 
HETATM   20  C1  UNL     1      15.580 -36.616  -5.951  1.00  0.00     0.007 C 
ENDBRANCH  18  19
ENDBRANCH  13  18
BRANCH  14  21
HETATM   21  O8  UNL     1      12.292 -34.778  -4.212  1.00  0.00    -0.355 OA
HETATM   22  C22 UNL     1      10.960 -34.857  -4.672  1.00  0.00     0.210 C 
ENDBRANCH  14  21
ENDBRANCH   9  10
ENDBRANCH   1   9
BRANCH   5  23
HETATM   23  O3  UNL     1      12.702 -36.873   3.167  1.00  0.00    -0.323 OA
BRANCH  23  24
HETATM   24  C11 UNL     1      14.013 -36.588   3.571  1.00  0.00     0.323 C 
HETATM   25  C12 UNL     1      14.521 -35.320   2.985  1.00  0.00     0.064 C 
HETATM   26  C13 UNL     1      15.708 -35.461   2.092  1.00  0.00     0.038 C 
HETATM   27  C14 UNL     1      16.698 -36.499   2.524  1.00  0.00     0.148 C 
HETATM   28  C15 UNL     1      16.175 -37.428   3.585  1.00  0.00     0.213 C 
HETATM   29  C16 UNL     1      17.032 -38.692   3.606  1.00  0.00     0.043 C 
HETATM   30  N2  UNL     1      14.805 -37.757   3.243  1.00  0.00    -0.043 N 
ATOM     31  H22 UNL     1      14.471 -38.612   3.689  1.00  0.00     0.280 HD
ATOM     32  H21 UNL     1      14.691 -38.066   2.278  1.00  0.00     0.280 HD
BRANCH  27  33
HETATM   33  O4  UNL     1      17.893 -35.942   2.981  1.00  0.00    -0.393 OA
ATOM     34  H4  UNL     1      18.644 -36.221   2.469  1.00  0.00     0.210 HD
ENDBRANCH  27  33
ENDBRANCH  23  24
ENDBRANCH   5  23
BRANCH   7  35
HETATM   35  C19 UNL     1       9.251 -37.847   3.988  1.00  0.00     0.199 C 
BRANCH  35  36
HETATM   36  O6  UNL     1       9.397 -37.491   5.327  1.00  0.00    -0.398 OA
ATOM     37  H6  UNL     1      10.118 -37.957   5.733  1.00  0.00     0.209 HD
ENDBRANCH  35  36
ENDBRANCH   7  35
BRANCH   6  38
HETATM   38  O5  UNL     1      10.160 -34.571   4.032  1.00  0.00    -0.389 OA
ATOM     39  H5  UNL     1       9.289 -34.631   4.408  1.00  0.00     0.210 HD
ENDBRANCH   6  38
TORSDOF 12
ENDMDL
MODEL 2
REMARK VINA RESULT: -8.910644250      0.934      2.414
REMARK  12 active torsions:
REMARK  status: ('A' for Active; 'I' for Inactive)
REMARK    1  A    between atoms: C2_2  and  C3_3 
REMARK    2  A    between atoms: C3_3  and  C4_4 
REMARK    3  A    between atoms: C6_6  and  O1_7 
REMARK    4  A    between atoms: C8_9  and  O2_10 
REMARK    5  A    between atoms: O2_10  and  C9_11 
REMARK    6  A    between atoms: C10_15  and  O3_16 
REMARK    7  A    between atoms: O3_16  and  C11_17 
REMARK    8  A    between atoms: C14_20  and  O4_21 
REMARK    9  A    between atoms: C17_28  and  O5_29 
REMARK   10  A    between atoms: C18_31  and  C19_32 
REMARK   11  A    between atoms: C19_32  and  O6_33 
REMARK   12  A    between atoms: C21_37  and  O8_38 
ROOT
HETATM    1  C9  UNL     1      10.566 -36.020   0.536  1.00  0.00     0.478 C 
HETATM    2  N1  UNL     1      11.706 -35.312   1.086  1.00  0.00     0.004 N 
ATOM      3  H11 UNL     1      11.572 -34.304   1.008  1.00  0.00     0.286 HD
ATOM      4  H12 UNL     1      12.521 -35.426   0.484  1.00  0.00     0.286 HD
HETATM    5  C10 UNL     1      12.025 -35.672   2.434  1.00  0.00     0.360 C 
HETATM    6  C17 UNL     1      10.802 -35.877   3.300  1.00  0.00     0.206 C 
HETATM    7  C18 UNL     1       9.738 -36.681   2.585  1.00  0.00     0.183 C 
HETATM    8  O7  UNL     1      10.201 -37.101   1.342  1.00  0.00    -0.328 OA
ENDROOT
BRANCH   1   9
HETATM    9  O2  UNL     1      10.950 -36.548  -0.701  1.00  0.00    -0.294 OA
BRANCH   9  10
HETATM   10  C8  UNL     1      12.111 -36.355  -1.392  1.00  0.00     0.110 A 
HETATM   11  C6  UNL     1      12.040 -35.644  -2.586  1.00  0.00     0.102 A 
HETATM   12  C5  UNL     1      13.194 -35.445  -3.284  1.00  0.00     0.049 A 
HETATM   13  C4  UNL     1      14.427 -35.908  -2.872  1.00  0.00    -0.019 A 
HETATM   14  C21 UNL     1      14.505 -36.613  -1.690  1.00  0.00     0.077 A 
HETATM   15  C20 UNL     1      13.330 -36.828  -0.959  1.00  0.00     0.077 A 
BRANCH  11  16
HETATM   16  O1  UNL     1      10.797 -35.171  -3.012  1.00  0.00    -0.353 OA
HETATM   17  C7  UNL     1      10.601 -34.895  -4.378  1.00  0.00     0.210 C 
ENDBRANCH  11  16
BRANCH  13  18
HETATM   18  C3  UNL     1      15.667 -35.670  -3.662  1.00  0.00     0.068 C 
BRANCH  18  19
HETATM   19  C2  UNL     1      15.396 -35.586  -5.122  1.00  0.00    -0.032 C 
HETATM   20  C1  UNL     1      15.519 -36.650  -5.897  1.00  0.00     0.007 C 
ENDBRANCH  18  19
ENDBRANCH  13  18
BRANCH  14  21
HETATM   21  O8  UNL     1      15.711 -37.115  -1.203  1.00  0.00    -0.355 OA
HETATM   22  C22 UNL     1      16.527 -36.306  -0.385  1.00  0.00     0.210 C 
ENDBRANCH  14  21
ENDBRANCH   9  10
ENDBRANCH   1   9
BRANCH   5  23
HETATM   23  O3  UNL     1      12.748 -36.847   2.457  1.00  0.00    -0.323 OA
BRANCH  23  24
HETATM   24  C11 UNL     1      13.864 -36.754   3.300  1.00  0.00     0.323 C 
HETATM   25  C12 UNL     1      14.442 -35.385   3.320  1.00  0.00     0.064 C 
HETATM   26  C13 UNL     1      15.846 -35.278   2.823  1.00  0.00     0.038 C 
HETATM   27  C14 UNL     1      16.726 -36.437   3.181  1.00  0.00     0.148 C 
HETATM   28  C15 UNL     1      15.974 -37.633   3.691  1.00  0.00     0.213 C 
HETATM   29  C16 UNL     1      16.862 -38.870   3.568  1.00  0.00     0.043 C 
HETATM   30  N2  UNL     1      14.787 -37.787   2.873  1.00  0.00    -0.043 N 
ATOM     31  H22 UNL     1      14.389 -38.726   2.908  1.00  0.00     0.280 HD
ATOM     32  H21 UNL     1      14.979 -37.769   1.871  1.00  0.00     0.280 HD
BRANCH  27  33
HETATM   33  O4  UNL     1      17.699 -36.098   4.123  1.00  0.00    -0.393 OA
ATOM     34  H4  UNL     1      18.406 -35.585   3.747  1.00  0.00     0.210 HD
ENDBRANCH  27  33
ENDBRANCH  23  24
ENDBRANCH   5  23
BRANCH   7  35
HETATM   35  C19 UNL     1       9.348 -37.915   3.370  1.00  0.00     0.199 C 
BRANCH  35  36
HETATM   36  O6  UNL     1       8.465 -37.604   4.401  1.00  0.00    -0.398 OA
ATOM     37  H6  UNL     1       7.573 -37.524   4.082  1.00  0.00     0.209 HD
ENDBRANCH  35  36
ENDBRANCH   7  35
BRANCH   6  38
HETATM   38  O5  UNL     1      10.300 -34.680   3.806  1.00  0.00    -0.389 OA
ATOM     39  H5  UNL     1      10.081 -34.059   3.120  1.00  0.00     0.210 HD
ENDBRANCH   6  38
TORSDOF 12
ENDMDL
MODEL 3
REMARK VINA RESULT: -8.759272735      1.748      4.985
REMARK  12 active torsions:
REMARK  status: ('A' for Active; 'I' for Inactive)
REMARK    1  A    between atoms: C2_2  and  C3_3 
REMARK    2  A    between atoms: C3_3  and  C4_4 
REMARK    3  A    between atoms: C6_6  and  O1_7 
REMARK    4  A    between atoms: C8_9  and  O2_10 
REMARK    5  A    between atoms: O2_10  and  C9_11 
REMARK    6  A    between atoms: C10_15  and  O3_16 
REMARK    7  A    between atoms: O3_16  and  C11_17 
REMARK    8  A    between atoms: C14_20  and  O4_21 
REMARK    9  A    between atoms: C17_28  and  O5_29 
REMARK   10  A    between atoms: C18_31  and  C19_32 
REMARK   11  A    between atoms: C19_32  and  O6_33 
REMARK   12  A    between atoms: C21_37  and  O8_38 
ROOT
HETATM    1  C9  UNL     1      14.972 -36.711   0.892  1.00  0.00     0.478 C 
HETATM    2  N1  UNL     1      14.255 -37.757   1.595  1.00  0.00     0.004 N 
ATOM      3  H11 UNL     1      14.411 -38.660   1.147  1.00  0.00     0.286 HD
ATOM      4  H12 UNL     1      13.250 -37.662   1.448  1.00  0.00     0.286 HD
HETATM    5  C10 UNL     1      14.551 -37.833   2.994  1.00  0.00     0.360 C 
HETATM    6  C17 UNL     1      16.014 -37.612   3.304  1.00  0.00     0.206 C 
HETATM    7  C18 UNL     1      16.583 -36.448   2.523  1.00  0.00     0.183 C 
HETATM    8  O7  UNL     1      15.582 -35.825   1.783  1.00  0.00    -0.328 OA
ENDROOT
BRANCH   1   9
HETATM    9  O2  UNL     1      14.037 -35.971   0.162  1.00  0.00    -0.294 OA
BRANCH   9  10
HETATM   10  C8  UNL     1      13.894 -35.869  -1.192  1.00  0.00     0.110 A 
HETATM   11  C6  UNL     1      12.610 -35.663  -1.691  1.00  0.00     0.102 A 
HETATM   12  C5  UNL     1      12.456 -35.559  -3.041  1.00  0.00     0.049 A 
HETATM   13  C4  UNL     1      13.499 -35.646  -3.940  1.00  0.00    -0.019 A 
HETATM   14  C21 UNL     1      14.773 -35.850  -3.453  1.00  0.00     0.077 A 
HETATM   15  C20 UNL     1      14.952 -35.959  -2.068  1.00  0.00     0.077 A 
BRANCH  11  16
HETATM   16  O1  UNL     1      11.548 -35.572  -0.790  1.00  0.00    -0.353 OA
HETATM   17  C7  UNL     1      10.660 -36.659  -0.666  1.00  0.00     0.210 C 
ENDBRANCH  11  16
BRANCH  13  18
HETATM   18  C3  UNL     1      13.291 -35.527  -5.409  1.00  0.00     0.068 C 
BRANCH  18  19
HETATM   19  C2  UNL     1      11.953 -34.972  -5.744  1.00  0.00    -0.032 C 
HETATM   20  C1  UNL     1      11.434 -35.133  -6.950  1.00  0.00     0.007 C 
ENDBRANCH  18  19
ENDBRANCH  13  18
BRANCH  14  21
HETATM   21  O8  UNL     1      15.882 -35.950  -4.293  1.00  0.00    -0.355 OA
HETATM   22  C22 UNL     1      17.059 -35.235  -3.987  1.00  0.00     0.210 C 
ENDBRANCH  14  21
ENDBRANCH   9  10
ENDBRANCH   1   9
BRANCH   5  23
HETATM   23  O3  UNL     1      13.833 -36.880   3.687  1.00  0.00    -0.323 OA
BRANCH  23  24
HETATM   24  C11 UNL     1      12.518 -36.775   3.215  1.00  0.00     0.323 C 
HETATM   25  C12 UNL     1      12.222 -35.426   2.666  1.00  0.00     0.064 C 
HETATM   26  C13 UNL     1      11.149 -34.670   3.376  1.00  0.00     0.038 C 
HETATM   27  C14 UNL     1      10.011 -35.512   3.867  1.00  0.00     0.148 C 
HETATM   28  C15 UNL     1      10.297 -36.987   3.846  1.00  0.00     0.213 C 
HETATM   29  C16 UNL     1       9.318 -37.698   4.778  1.00  0.00     0.043 C 
HETATM   30  N2  UNL     1      11.657 -37.177   4.310  1.00  0.00    -0.043 N 
ATOM     31  H22 UNL     1      11.843 -38.123   4.645  1.00  0.00     0.280 HD
ATOM     32  H21 UNL     1      11.859 -36.691   5.184  1.00  0.00     0.280 HD
BRANCH  27  33
HETATM   33  O4  UNL     1       8.831 -35.285   3.156  1.00  0.00    -0.393 OA
ATOM     34  H4  UNL     1       8.114 -35.012   3.717  1.00  0.00     0.210 HD
ENDBRANCH  27  33
ENDBRANCH  23  24
ENDBRANCH   5  23
BRANCH   7  35
HETATM   35  C19 UNL     1      17.195 -35.407   3.434  1.00  0.00     0.199 C 
BRANCH  35  36
HETATM   36  O6  UNL     1      18.454 -35.800   3.883  1.00  0.00    -0.398 OA
ATOM     37  H6  UNL     1      18.804 -35.186   4.518  1.00  0.00     0.209 HD
ENDBRANCH  35  36
ENDBRANCH   7  35
BRANCH   6  38
HETATM   38  O5  UNL     1      16.774 -38.769   3.145  1.00  0.00    -0.389 OA
ATOM     39  H5  UNL     1      17.691 -38.582   2.981  1.00  0.00     0.210 HD
ENDBRANCH   6  38
TORSDOF 12
ENDMDL
MODEL 4
REMARK VINA RESULT: -8.756268103      2.521      7.559
REMARK  12 active torsions:
REMARK  status: ('A' for Active; 'I' for Inactive)
REMARK    1  A    between atoms: C2_2  and  C3_3 
REMARK    2  A    between atoms: C3_3  and  C4_4 
REMARK    3  A    between atoms: C6_6  and  O1_7 
REMARK    4  A    between atoms: C8_9  and  O2_10 
REMARK    5  A    between atoms: O2_10  and  C9_11 
REMARK    6  A    between atoms: C10_15  and  O3_16 
REMARK    7  A    between atoms: O3_16  and  C11_17 
REMARK    8  A    between atoms: C14_20  and  O4_21 
REMARK    9  A    between atoms: C17_28  and  O5_29 
REMARK   10  A    between atoms: C18_31  and  C19_32 
REMARK   11  A    between atoms: C19_32  and  O6_33 
REMARK   12  A    between atoms: C21_37  and  O8_38 
ROOT
HETATM    1  C9  UNL     1      14.286 -37.666   2.241  1.00  0.00     0.478 C 
HETATM    2  N1  UNL     1      14.141 -38.241   0.917  1.00  0.00     0.004 N 
ATOM      3  H11 UNL     1      14.034 -39.253   0.977  1.00  0.00     0.286 HD
ATOM      4  H12 UNL     1      15.024 -38.190   0.408  1.00  0.00     0.286 HD
HETATM    5  C10 UNL     1      13.082 -37.669   0.142  1.00  0.00     0.360 C 
HETATM    6  C17 UNL     1      11.841 -37.380   0.955  1.00  0.00     0.206 C 
HETATM    7  C18 UNL     1      12.176 -36.733   2.281  1.00  0.00     0.183 C 
HETATM    8  O7  UNL     1      13.544 -36.490   2.369  1.00  0.00    -0.328 OA
ENDROOT
BRANCH   1   9
HETATM    9  O2  UNL     1      15.630 -37.318   2.410  1.00  0.00    -0.294 OA
BRANCH   9  10
HETATM   10  C8  UNL     1      16.602 -37.968   3.114  1.00  0.00     0.110 A 
HETATM   11  C6  UNL     1      17.697 -37.222   3.542  1.00  0.00     0.102 A 
HETATM   12  C5  UNL     1      18.672 -37.862   4.246  1.00  0.00     0.049 A 
HETATM   13  C4  UNL     1      18.636 -39.205   4.559  1.00  0.00    -0.019 A 
HETATM   14  C21 UNL     1      17.554 -39.950   4.139  1.00  0.00     0.077 A 
HETATM   15  C20 UNL     1      16.541 -39.311   3.414  1.00  0.00     0.077 A 
BRANCH  11  16
HETATM   16  O1  UNL     1      17.744 -35.862   3.230  1.00  0.00    -0.353 OA
HETATM   17  C7  UNL     1      17.519 -34.918   4.250  1.00  0.00     0.210 C 
ENDBRANCH  11  16
BRANCH  13  18
HETATM   18  C3  UNL     1      19.722 -39.868   5.332  1.00  0.00     0.068 C 
BRANCH  18  19
HETATM   19  C2  UNL     1      19.834 -39.335   6.716  1.00  0.00    -0.032 C 
HETATM   20  C1  UNL     1      19.415 -40.043   7.752  1.00  0.00     0.007 C 
ENDBRANCH  18  19
ENDBRANCH  13  18
BRANCH  14  21
HETATM   21  O8  UNL     1      17.440 -41.313   4.414  1.00  0.00    -0.355 OA
HETATM   22  C22 UNL     1      16.890 -41.735   5.643  1.00  0.00     0.210 C 
ENDBRANCH  14  21
ENDBRANCH   9  10
ENDBRANCH   1   9
BRANCH   5  23
HETATM   23  O3  UNL     1      13.492 -36.478  -0.423  1.00  0.00    -0.323 OA
BRANCH  23  24
HETATM   24  C11 UNL     1      14.303 -36.688  -1.546  1.00  0.00     0.323 C 
HETATM   25  C12 UNL     1      15.740 -36.443  -1.257  1.00  0.00     0.064 C 
HETATM   26  C13 UNL     1      16.368 -35.339  -2.040  1.00  0.00     0.038 C 
HETATM   27  C14 UNL     1      15.889 -35.223  -3.455  1.00  0.00     0.148 C 
HETATM   28  C15 UNL     1      14.646 -36.019  -3.739  1.00  0.00     0.213 C 
HETATM   29  C16 UNL     1      13.986 -35.476  -5.005  1.00  0.00     0.043 C 
HETATM   30  N2  UNL     1      13.757 -35.863  -2.605  1.00  0.00    -0.043 N 
ATOM     31  H22 UNL     1      12.782 -36.075  -2.822  1.00  0.00     0.280 HD
ATOM     32  H21 UNL     1      13.616 -34.891  -2.330  1.00  0.00     0.280 HD
BRANCH  27  33
HETATM   33  O4  UNL     1      16.866 -35.590  -4.382  1.00  0.00    -0.393 OA
ATOM     34  H4  UNL     1      16.798 -36.502  -4.641  1.00  0.00     0.210 HD
ENDBRANCH  27  33
ENDBRANCH  23  24
ENDBRANCH   5  23
BRANCH   7  35
HETATM   35  C19 UNL     1      11.464 -35.410   2.454  1.00  0.00     0.199 C 
BRANCH  35  36
HETATM   36  O6  UNL     1      10.207 -35.426   1.852  1.00  0.00    -0.398 OA
ATOM     37  H6  UNL     1       9.847 -34.550   1.777  1.00  0.00     0.209 HD
ENDBRANCH  35  36
ENDBRANCH   7  35
BRANCH   6  38
HETATM   38  O5  UNL     1      11.033 -38.504   1.112  1.00  0.00    -0.389 OA
ATOM     39  H5  UNL     1      10.161 -38.379   0.756  1.00  0.00     0.210 HD
ENDBRANCH   6  38
TORSDOF 12
ENDMDL
MODEL 5
REMARK VINA RESULT: -8.701089707      2.729      7.042
REMARK  12 active torsions:
REMARK  status: ('A' for Active; 'I' for Inactive)
REMARK    1  A    between atoms: C2_2  and  C3_3 
REMARK    2  A    between atoms: C3_3  and  C4_4 
REMARK    3  A    between atoms: C6_6  and  O1_7 
REMARK    4  A    between atoms: C8_9  and  O2_10 
REMARK    5  A    between atoms: O2_10  and  C9_11 
REMARK    6  A    between atoms: C10_15  and  O3_16 
REMARK    7  A    between atoms: O3_16  and  C11_17 
REMARK    8  A    between atoms: C14_20  and  O4_21 
REMARK    9  A    between atoms: C17_28  and  O5_29 
REMARK   10  A    between atoms: C18_31  and  C19_32 
REMARK   11  A    between atoms: C19_32  and  O6_33 
REMARK   12  A    between atoms: C21_37  and  O8_38 
ROOT
HETATM    1  C9  UNL     1      13.145 -36.116   2.040  1.00  0.00     0.478 C 
HETATM    2  N1  UNL     1      12.605 -36.052   3.385  1.00  0.00     0.004 N 
ATOM      3  H11 UNL     1      12.949 -35.223   3.868  1.00  0.00     0.286 HD
ATOM      4  H12 UNL     1      13.019 -36.778   3.970  1.00  0.00     0.286 HD
HETATM    5  C10 UNL     1      11.176 -36.113   3.447  1.00  0.00     0.360 C 
HETATM    6  C17 UNL     1      10.500 -35.325   2.348  1.00  0.00     0.206 C 
HETATM    7  C18 UNL     1      11.160 -35.555   1.006  1.00  0.00     0.183 C 
HETATM    8  O7  UNL     1      12.170 -36.506   1.119  1.00  0.00    -0.328 OA
ENDROOT
BRANCH   1   9
HETATM    9  O2  UNL     1      14.134 -37.105   2.025  1.00  0.00    -0.294 OA
BRANCH   9  10
HETATM   10  C8  UNL     1      15.375 -37.084   2.593  1.00  0.00     0.110 A 
HETATM   11  C6  UNL     1      16.334 -36.254   2.018  1.00  0.00     0.102 A 
HETATM   12  C5  UNL     1      17.576 -36.226   2.579  1.00  0.00     0.049 A 
HETATM   13  C4  UNL     1      17.935 -36.971   3.682  1.00  0.00    -0.019 A 
HETATM   14  C21 UNL     1      16.991 -37.795   4.257  1.00  0.00     0.077 A 
HETATM   15  C20 UNL     1      15.708 -37.838   3.696  1.00  0.00     0.077 A 
BRANCH  11  16
HETATM   16  O1  UNL     1      15.980 -35.495   0.901  1.00  0.00    -0.353 OA
HETATM   17  C7  UNL     1      16.338 -35.955  -0.381  1.00  0.00     0.210 C 
ENDBRANCH  11  16
BRANCH  13  18
HETATM   18  C3  UNL     1      19.304 -36.913   4.267  1.00  0.00     0.068 C 
BRANCH  18  19
HETATM   19  C2  UNL     1      20.268 -37.772   3.529  1.00  0.00    -0.032 C 
HETATM   20  C1  UNL     1      21.483 -37.336   3.242  1.00  0.00     0.007 C 
ENDBRANCH  18  19
ENDBRANCH  13  18
BRANCH  14  21
HETATM   21  O8  UNL     1      17.273 -38.581   5.374  1.00  0.00    -0.355 OA
HETATM   22  C22 UNL     1      17.282 -39.987   5.256  1.00  0.00     0.210 C 
ENDBRANCH  14  21
ENDBRANCH   9  10
ENDBRANCH   1   9
BRANCH   5  23
HETATM   23  O3  UNL     1      10.748 -37.421   3.341  1.00  0.00    -0.323 OA
BRANCH  23  24
HETATM   24  C11 UNL     1       9.915 -37.782   4.408  1.00  0.00     0.323 C 
HETATM   25  C12 UNL     1       8.718 -38.539   3.958  1.00  0.00     0.064 C 
HETATM   26  C13 UNL     1       7.406 -37.885   4.238  1.00  0.00     0.038 C 
HETATM   27  C14 UNL     1       7.341 -37.146   5.540  1.00  0.00     0.148 C 
HETATM   28  C15 UNL     1       8.684 -36.923   6.176  1.00  0.00     0.213 C 
HETATM   29  C16 UNL     1       8.571 -35.790   7.194  1.00  0.00     0.043 C 
HETATM   30  N2  UNL     1       9.613 -36.558   5.124  1.00  0.00    -0.043 N 
ATOM     31  H22 UNL     1      10.443 -36.073   5.467  1.00  0.00     0.280 HD
ATOM     32  H21 UNL     1       9.270 -35.810   4.521  1.00  0.00     0.280 HD
BRANCH  27  33
HETATM   33  O4  UNL     1       6.515 -37.776   6.472  1.00  0.00    -0.393 OA
ATOM     34  H4  UNL     1       6.950 -38.494   6.918  1.00  0.00     0.210 HD
ENDBRANCH  27  33
ENDBRANCH  23  24
ENDBRANCH   5  23
BRANCH   7  35
HETATM   35  C19 UNL     1      10.172 -36.054  -0.025  1.00  0.00     0.199 C 
BRANCH  35  36
HETATM   36  O6  UNL     1       9.573 -34.998  -0.709  1.00  0.00    -0.398 OA
ATOM     37  H6  UNL     1       8.653 -34.918  -0.484  1.00  0.00     0.209 HD
ENDBRANCH  35  36
ENDBRANCH   7  35
BRANCH   6  38
HETATM   38  O5  UNL     1      10.392 -33.970   2.652  1.00  0.00    -0.389 OA
ATOM     39  H5  UNL     1       9.883 -33.812   3.439  1.00  0.00     0.210 HD
ENDBRANCH   6  38
TORSDOF 12
ENDMDL
