MODEL 1
REMARK VINA RESULT: -7.088671732      0.000      0.000
REMARK  7 active torsions:
REMARK  status: ('A' for Active; 'I' for Inactive)
REMARK    1  A    between atoms: C3_3  and  N1_4 
REMARK    2  A    between atoms: C7_8  and  C8_9 
REMARK    3  A    between atoms: C8_9  and  O1_10 
REMARK    4  A    between atoms: C10_15  and  O2_16 
REMARK    5  A    between atoms: O2_16  and  C11_17 
REMARK    6  A    between atoms: C11_17  and  C12_18 
REMARK    7  A    between atoms: C15_22  and  N3_23 
ROOT
HETATM    1  C1  UNL     1      -2.908   3.673  14.897  1.00  0.00     0.054 C 
HETATM    2  C2  UNL     1      -4.154   4.173  14.264  1.00  0.00     0.011 A 
HETATM    3  C3  UNL     1      -5.363   3.708  14.767  1.00  0.00     0.112 A 
HETATM    4  N2  UNL     1      -6.487   4.165  14.193  1.00  0.00    -0.349 N 
ATOM      5  H2  UNL     1      -7.382   3.832  14.551  1.00  0.00     0.167 HD
HETATM    6  C9  UNL     1      -6.495   5.033  13.177  1.00  0.00     0.128 A 
HETATM    7  C10 UNL     1      -5.308   5.506  12.661  1.00  0.00     0.111 A 
HETATM    8  C15 UNL     1      -4.082   5.055  13.232  1.00  0.00     0.075 A 
ENDROOT
BRANCH   3   9
HETATM    9  N1  UNL     1      -5.440   2.789  15.837  1.00  0.00    -0.360 N 
HETATM   10  C4  UNL     1      -5.421   3.129  17.235  1.00  0.00     0.125 C 
HETATM   11  C5  UNL     1      -6.369   2.113  17.836  1.00  0.00     0.022 C 
HETATM   12  C6  UNL     1      -5.901   0.845  17.110  1.00  0.00     0.029 C 
HETATM   13  C7  UNL     1      -5.553   1.363  15.742  1.00  0.00     0.109 C 
BRANCH  13  14
HETATM   14  C8  UNL     1      -4.314   0.724  15.181  1.00  0.00     0.189 C 
BRANCH  14  15
HETATM   15  O1  UNL     1      -3.368   0.486  16.148  1.00  0.00    -0.399 OA
ATOM     16  H1  UNL     1      -3.335  -0.429  16.401  1.00  0.00     0.209 HD
ENDBRANCH  14  15
ENDBRANCH  13  14
ENDBRANCH   3   9
BRANCH   8  17
HETATM   17  N3  UNL     1      -2.849   5.513  12.737  1.00  0.00    -0.374 N 
HETATM   18  C16 UNL     1      -2.191   6.724  13.253  1.00  0.00     0.149 C 
HETATM   19  C17 UNL     1      -0.751   6.651  12.830  1.00  0.00     0.187 C 
HETATM   20  O3  UNL     1      -0.702   6.799  11.439  1.00  0.00    -0.388 OA
HETATM   21  C18 UNL     1      -1.566   5.960  10.785  1.00  0.00     0.187 C 
HETATM   22  C19 UNL     1      -2.103   4.847  11.674  1.00  0.00     0.149 C 
ENDBRANCH   8  17
BRANCH   7  23
HETATM   23  O2  UNL     1      -5.218   6.347  11.681  1.00  0.00    -0.344 OA
BRANCH  23  24
HETATM   24  C11 UNL     1      -5.573   6.914  10.570  1.00  0.00     0.218 C 
BRANCH  24  25
HETATM   25  C12 UNL     1      -6.563   8.057  10.534  1.00  0.00     0.118 C 
HETATM   26  C13 UNL     1      -6.002   9.406  10.264  1.00  0.00     0.053 C 
HETATM   27  C14 UNL     1      -7.527   7.731   9.391  1.00  0.00     0.053 C 
HETATM   28  F1  UNL     1      -7.233   8.044  11.746  1.00  0.00    -0.241 F 
ENDBRANCH  24  25
ENDBRANCH  23  24
ENDBRANCH   7  23
TORSDOF 7
ENDMDL
MODEL 2
REMARK VINA RESULT: -6.620377261      2.494      4.558
REMARK  7 active torsions:
REMARK  status: ('A' for Active; 'I' for Inactive)
REMARK    1  A    between atoms: C3_3  and  N1_4 
REMARK    2  A    between atoms: C7_8  and  C8_9 
REMARK    3  A    between atoms: C8_9  and  O1_10 
REMARK    4  A    between atoms: C10_15  and  O2_16 
REMARK    5  A    between atoms: O2_16  and  C11_17 
REMARK    6  A    between atoms: C11_17  and  C12_18 
REMARK    7  A    between atoms: C15_22  and  N3_23 
ROOT
HETATM    1  C1  UNL     1      -5.857   4.968  13.050  1.00  0.00     0.054 C 
HETATM    2  C2  UNL     1      -4.409   4.653  12.969  1.00  0.00     0.011 A 
HETATM    3  C3  UNL     1      -3.859   3.882  13.985  1.00  0.00     0.112 A 
HETATM    4  N2  UNL     1      -2.551   3.598  13.906  1.00  0.00    -0.349 N 
ATOM      5  H2  UNL     1      -2.133   3.032  14.645  1.00  0.00     0.167 HD
HETATM    6  C9  UNL     1      -1.765   4.017  12.909  1.00  0.00     0.128 A 
HETATM    7  C10 UNL     1      -2.288   4.785  11.891  1.00  0.00     0.111 A 
HETATM    8  C15 UNL     1      -3.674   5.116  11.924  1.00  0.00     0.075 A 
ENDROOT
BRANCH   3   9
HETATM    9  N1  UNL     1      -4.621   3.401  15.074  1.00  0.00    -0.360 N 
HETATM   10  C4  UNL     1      -4.965   4.153  16.251  1.00  0.00     0.125 C 
HETATM   11  C5  UNL     1      -6.357   3.650  16.570  1.00  0.00     0.022 C 
HETATM   12  C6  UNL     1      -6.152   2.143  16.372  1.00  0.00     0.029 C 
HETATM   13  C7  UNL     1      -5.194   2.094  15.214  1.00  0.00     0.109 C 
BRANCH  13  14
HETATM   14  C8  UNL     1      -4.152   1.023  15.371  1.00  0.00     0.189 C 
BRANCH  14  15
HETATM   15  O1  UNL     1      -3.136   1.406  16.212  1.00  0.00    -0.399 OA
ATOM     16  H1  UNL     1      -2.297   1.046  15.950  1.00  0.00     0.209 HD
ENDBRANCH  14  15
ENDBRANCH  13  14
ENDBRANCH   3   9
BRANCH   8  17
HETATM   17  N3  UNL     1      -4.248   5.897  10.906  1.00  0.00    -0.374 N 
HETATM   18  C16 UNL     1      -4.724   5.317   9.639  1.00  0.00     0.149 C 
HETATM   19  C17 UNL     1      -5.644   6.328   9.016  1.00  0.00     0.187 C 
HETATM   20  O3  UNL     1      -4.875   7.429   8.623  1.00  0.00    -0.388 OA
HETATM   21  C18 UNL     1      -4.060   7.891   9.623  1.00  0.00     0.187 C 
HETATM   22  C19 UNL     1      -4.429   7.342  10.994  1.00  0.00     0.149 C 
ENDBRANCH   8  17
BRANCH   7  23
HETATM   23  O2  UNL     1      -1.606   5.233  10.887  1.00  0.00    -0.344 OA
BRANCH  23  24
HETATM   24  C11 UNL     1      -0.886   5.150   9.810  1.00  0.00     0.218 C 
BRANCH  24  25
HETATM   25  C12 UNL     1       0.008   3.962   9.535  1.00  0.00     0.118 C 
HETATM   26  C13 UNL     1       0.606   3.888   8.176  1.00  0.00     0.053 C 
HETATM   27  C14 UNL     1       1.165   4.078  10.532  1.00  0.00     0.053 C 
HETATM   28  F1  UNL     1      -0.741   2.827   9.799  1.00  0.00    -0.241 F 
ENDBRANCH  24  25
ENDBRANCH  23  24
ENDBRANCH   7  23
TORSDOF 7
ENDMDL
MODEL 3
REMARK VINA RESULT: -6.596119014      3.425      4.607
REMARK  7 active torsions:
REMARK  status: ('A' for Active; 'I' for Inactive)
REMARK    1  A    between atoms: C3_3  and  N1_4 
REMARK    2  A    between atoms: C7_8  and  C8_9 
REMARK    3  A    between atoms: C8_9  and  O1_10 
REMARK    4  A    between atoms: C10_15  and  O2_16 
REMARK    5  A    between atoms: O2_16  and  C11_17 
REMARK    6  A    between atoms: C11_17  and  C12_18 
REMARK    7  A    between atoms: C15_22  and  N3_23 
ROOT
HETATM    1  C1  UNL     1      -1.508   2.644  10.892  1.00  0.00     0.054 C 
HETATM    2  C2  UNL     1      -2.148   3.575  11.854  1.00  0.00     0.011 A 
HETATM    3  C3  UNL     1      -3.289   3.136  12.514  1.00  0.00     0.112 A 
HETATM    4  N2  UNL     1      -3.863   3.980  13.385  1.00  0.00    -0.349 N 
ATOM      5  H2  UNL     1      -4.702   3.671  13.876  1.00  0.00     0.167 HD
HETATM    6  C9  UNL     1      -3.393   5.205  13.642  1.00  0.00     0.128 A 
HETATM    7  C10 UNL     1      -2.264   5.662  12.998  1.00  0.00     0.111 A 
HETATM    8  C15 UNL     1      -1.612   4.807  12.062  1.00  0.00     0.075 A 
ENDROOT
BRANCH   3   9
HETATM    9  N1  UNL     1      -3.849   1.857  12.297  1.00  0.00    -0.360 N 
HETATM   10  C4  UNL     1      -4.776   1.515  11.251  1.00  0.00     0.125 C 
HETATM   11  C5  UNL     1      -4.361   0.105  10.888  1.00  0.00     0.022 C 
HETATM   12  C6  UNL     1      -4.173  -0.490  12.290  1.00  0.00     0.029 C 
HETATM   13  C7  UNL     1      -3.605   0.669  13.062  1.00  0.00     0.109 C 
BRANCH  13  14
HETATM   14  C8  UNL     1      -4.157   0.758  14.457  1.00  0.00     0.189 C 
BRANCH  14  15
HETATM   15  O1  UNL     1      -4.462  -0.477  14.975  1.00  0.00    -0.399 OA
ATOM     16  H1  UNL     1      -4.861  -1.048  14.330  1.00  0.00     0.209 HD
ENDBRANCH  14  15
ENDBRANCH  13  14
ENDBRANCH   3   9
BRANCH   8  17
HETATM   17  N3  UNL     1      -0.458   5.234  11.384  1.00  0.00    -0.374 N 
HETATM   18  C16 UNL     1      -0.514   5.907  10.075  1.00  0.00     0.149 C 
HETATM   19  C17 UNL     1       0.809   6.592   9.880  1.00  0.00     0.187 C 
HETATM   20  O3  UNL     1       1.786   5.604   9.718  1.00  0.00    -0.388 OA
HETATM   21  C18 UNL     1       1.742   4.646  10.697  1.00  0.00     0.187 C 
HETATM   22  C19 UNL     1       0.897   5.058  11.895  1.00  0.00     0.149 C 
ENDBRANCH   8  17
BRANCH   7  23
HETATM   23  O2  UNL     1      -1.737   6.830  13.184  1.00  0.00    -0.344 OA
BRANCH  23  24
HETATM   24  C11 UNL     1      -1.661   8.122  13.102  1.00  0.00     0.218 C 
BRANCH  24  25
HETATM   25  C12 UNL     1      -0.987   8.954  14.171  1.00  0.00     0.118 C 
HETATM   26  C13 UNL     1      -1.280  10.410  14.155  1.00  0.00     0.053 C 
HETATM   27  C14 UNL     1      -1.500   8.403  15.504  1.00  0.00     0.053 C 
HETATM   28  F1  UNL     1       0.375   8.730  14.052  1.00  0.00    -0.241 F 
ENDBRANCH  24  25
ENDBRANCH  23  24
ENDBRANCH   7  23
TORSDOF 7
ENDMDL
MODEL 4
REMARK VINA RESULT: -6.534090897      3.048      7.379
REMARK  7 active torsions:
REMARK  status: ('A' for Active; 'I' for Inactive)
REMARK    1  A    between atoms: C3_3  and  N1_4 
REMARK    2  A    between atoms: C7_8  and  C8_9 
REMARK    3  A    between atoms: C8_9  and  O1_10 
REMARK    4  A    between atoms: C10_15  and  O2_16 
REMARK    5  A    between atoms: O2_16  and  C11_17 
REMARK    6  A    between atoms: C11_17  and  C12_18 
REMARK    7  A    between atoms: C15_22  and  N3_23 
ROOT
HETATM    1  C1  UNL     1      -6.391   6.738  11.754  1.00  0.00     0.054 C 
HETATM    2  C2  UNL     1      -5.461   5.876  10.984  1.00  0.00     0.011 A 
HETATM    3  C3  UNL     1      -5.320   6.132   9.625  1.00  0.00     0.112 A 
HETATM    4  N2  UNL     1      -4.476   5.352   8.933  1.00  0.00    -0.349 N 
ATOM      5  H2  UNL     1      -4.363   5.527   7.935  1.00  0.00     0.167 HD
HETATM    6  C9  UNL     1      -3.775   4.355   9.484  1.00  0.00     0.128 A 
HETATM    7  C10 UNL     1      -3.900   4.082  10.829  1.00  0.00     0.111 A 
HETATM    8  C15 UNL     1      -4.782   4.880  11.613  1.00  0.00     0.075 A 
ENDROOT
BRANCH   3   9
HETATM    9  N1  UNL     1      -6.026   7.165   8.968  1.00  0.00    -0.360 N 
HETATM   10  C4  UNL     1      -7.219   6.995   8.182  1.00  0.00     0.125 C 
HETATM   11  C5  UNL     1      -8.001   8.254   8.491  1.00  0.00     0.022 C 
HETATM   12  C6  UNL     1      -6.881   9.298   8.394  1.00  0.00     0.029 C 
HETATM   13  C7  UNL     1      -5.699   8.561   8.959  1.00  0.00     0.109 C 
BRANCH  13  14
HETATM   14  C8  UNL     1      -4.427   8.849   8.211  1.00  0.00     0.189 C 
BRANCH  14  15
HETATM   15  O1  UNL     1      -4.292   8.061   7.094  1.00  0.00    -0.399 OA
ATOM     16  H1  UNL     1      -3.421   7.690   7.020  1.00  0.00     0.209 HD
ENDBRANCH  14  15
ENDBRANCH  13  14
ENDBRANCH   3   9
BRANCH   8  17
HETATM   17  N3  UNL     1      -4.939   4.635  12.988  1.00  0.00    -0.374 N 
HETATM   18  C16 UNL     1      -4.074   5.257  14.005  1.00  0.00     0.149 C 
HETATM   19  C17 UNL     1      -4.788   5.131  15.320  1.00  0.00     0.187 C 
HETATM   20  O3  UNL     1      -4.813   3.777  15.671  1.00  0.00    -0.388 OA
HETATM   21  C18 UNL     1      -5.270   2.975  14.658  1.00  0.00     0.187 C 
HETATM   22  C19 UNL     1      -5.959   3.753  13.546  1.00  0.00     0.149 C 
ENDBRANCH   8  17
BRANCH   7  23
HETATM   23  O2  UNL     1      -3.262   3.141  11.447  1.00  0.00    -0.344 OA
BRANCH  23  24
HETATM   24  C11 UNL     1      -2.987   1.918  11.784  1.00  0.00     0.218 C 
BRANCH  24  25
HETATM   25  C12 UNL     1      -3.976   0.791  11.588  1.00  0.00     0.118 C 
HETATM   26  C13 UNL     1      -3.652  -0.191  10.521  1.00  0.00     0.053 C 
HETATM   27  C14 UNL     1      -3.998   0.028  12.915  1.00  0.00     0.053 C 
HETATM   28  F1  UNL     1      -5.208   1.378  11.351  1.00  0.00    -0.241 F 
ENDBRANCH  24  25
ENDBRANCH  23  24
ENDBRANCH   7  23
TORSDOF 7
ENDMDL
MODEL 5
REMARK VINA RESULT: -6.446313447      3.085      7.329
REMARK  7 active torsions:
REMARK  status: ('A' for Active; 'I' for Inactive)
REMARK    1  A    between atoms: C3_3  and  N1_4 
REMARK    2  A    between atoms: C7_8  and  C8_9 
REMARK    3  A    between atoms: C8_9  and  O1_10 
REMARK    4  A    between atoms: C10_15  and  O2_16 
REMARK    5  A    between atoms: O2_16  and  C11_17 
REMARK    6  A    between atoms: C11_17  and  C12_18 
REMARK    7  A    between atoms: C15_22  and  N3_23 
ROOT
HETATM    1  C1  UNL     1      -6.519   6.798  12.056  1.00  0.00     0.054 C 
HETATM    2  C2  UNL     1      -5.384   6.244  11.277  1.00  0.00     0.011 A 
HETATM    3  C3  UNL     1      -5.117   6.810  10.036  1.00  0.00     0.112 A 
HETATM    4  N2  UNL     1      -4.088   6.308   9.337  1.00  0.00    -0.349 N 
ATOM      5  H2  UNL     1      -3.880   6.713   8.424  1.00  0.00     0.167 HD
HETATM    6  C9  UNL     1      -3.320   5.304   9.773  1.00  0.00     0.128 A 
HETATM    7  C10 UNL     1      -3.568   4.727  11.000  1.00  0.00     0.111 A 
HETATM    8  C15 UNL     1      -4.648   5.221  11.786  1.00  0.00     0.075 A 
ENDROOT
BRANCH   3   9
HETATM    9  N1  UNL     1      -5.882   7.872   9.503  1.00  0.00    -0.360 N 
HETATM   10  C4  UNL     1      -6.037   9.172  10.098  1.00  0.00     0.125 C 
HETATM   11  C5  UNL     1      -6.086  10.085   8.892  1.00  0.00     0.022 C 
HETATM   12  C6  UNL     1      -7.027   9.283   7.984  1.00  0.00     0.029 C 
HETATM   13  C7  UNL     1      -6.636   7.863   8.284  1.00  0.00     0.109 C 
BRANCH  13  14
HETATM   14  C8  UNL     1      -7.821   6.939   8.347  1.00  0.00     0.189 C 
BRANCH  14  15
HETATM   15  O1  UNL     1      -7.508   5.664   7.944  1.00  0.00    -0.399 OA
ATOM     16  H1  UNL     1      -7.878   5.456   7.094  1.00  0.00     0.209 HD
ENDBRANCH  14  15
ENDBRANCH  13  14
ENDBRANCH   3   9
BRANCH   8  17
HETATM   17  N3  UNL     1      -4.935   4.660  13.043  1.00  0.00    -0.374 N 
HETATM   18  C16 UNL     1      -5.920   3.580  13.220  1.00  0.00     0.149 C 
HETATM   19  C17 UNL     1      -5.643   2.953  14.557  1.00  0.00     0.187 C 
HETATM   20  O3  UNL     1      -5.972   3.885  15.547  1.00  0.00    -0.388 OA
HETATM   21  C18 UNL     1      -5.406   5.113  15.329  1.00  0.00     0.187 C 
HETATM   22  C19 UNL     1      -4.298   5.083  14.286  1.00  0.00     0.149 C 
ENDBRANCH   8  17
BRANCH   7  23
HETATM   23  O2  UNL     1      -2.878   3.754  11.503  1.00  0.00    -0.344 OA
BRANCH  23  24
HETATM   24  C11 UNL     1      -2.315   2.585  11.522  1.00  0.00     0.218 C 
BRANCH  24  25
HETATM   25  C12 UNL     1      -3.121   1.311  11.638  1.00  0.00     0.118 C 
HETATM   26  C13 UNL     1      -4.399   1.268  10.882  1.00  0.00     0.053 C 
HETATM   27  C14 UNL     1      -2.224   0.205  11.075  1.00  0.00     0.053 C 
HETATM   28  F1  UNL     1      -3.347   1.102  12.989  1.00  0.00    -0.241 F 
ENDBRANCH  24  25
ENDBRANCH  23  24
ENDBRANCH   7  23
TORSDOF 7
ENDMDL
