MODEL 1
REMARK VINA RESULT: -8.156921477      0.000      0.000
REMARK  6 active torsions:
REMARK  status: ('A' for Active; 'I' for Inactive)
REMARK    1  A    between atoms: C4_6  and  N2_7 
REMARK    2  A    between atoms: C8_11  and  C9_12 
REMARK    3  A    between atoms: C9_12  and  O1_13 
REMARK    4  A    between atoms: C11_18  and  C12_19 
REMARK    5  A    between atoms: C12_19  and  C13_20 
REMARK    6  A    between atoms: C13_20  and  N4_21 
ROOT
HETATM    1  C1  UNL     1      -2.210   7.465  13.939  1.00  0.00     0.071 C 
HETATM    2  C2  UNL     1      -2.619   6.237  13.188  1.00  0.00     0.044 A 
HETATM    3  N1  UNL     1      -3.349   5.260  13.749  1.00  0.00    -0.353 N 
ATOM      4  H1  UNL     1      -3.636   5.363  14.722  1.00  0.00     0.166 HD
HETATM    5  C3  UNL     1      -3.719   4.152  13.087  1.00  0.00     0.104 A 
HETATM    6  C4  UNL     1      -4.456   3.130  13.596  1.00  0.00     0.134 A 
HETATM    7  N3  UNL     1      -4.766   2.053  12.805  1.00  0.00    -0.330 N 
ATOM      8  H3  UNL     1      -5.319   1.292  13.197  1.00  0.00     0.168 HD
HETATM    9  C11 UNL     1      -4.365   1.976  11.545  1.00  0.00     0.084 A 
HETATM   10  N5  UNL     1      -3.637   2.991  11.053  1.00  0.00    -0.344 N 
ATOM     11  H5  UNL     1      -3.326   2.935  10.084  1.00  0.00     0.167 HD
HETATM   12  C16 UNL     1      -3.297   4.069  11.765  1.00  0.00     0.067 A 
HETATM   13  C17 UNL     1      -2.547   5.056  11.159  1.00  0.00     0.076 A 
HETATM   14  C18 UNL     1      -2.188   6.177  11.871  1.00  0.00     0.140 A 
HETATM   15  F1  UNL     1      -1.448   7.166  11.305  1.00  0.00    -0.204 F 
ENDROOT
BRANCH   6  16
HETATM   16  N2  UNL     1      -4.901   3.180  14.943  1.00  0.00    -0.365 N 
HETATM   17  C5  UNL     1      -5.465   4.379  15.447  1.00  0.00     0.124 C 
HETATM   18  C6  UNL     1      -6.381   4.181  16.630  1.00  0.00     0.020 C 
HETATM   19  C7  UNL     1      -6.689   2.731  16.865  1.00  0.00     0.010 C 
HETATM   20  C8  UNL     1      -5.356   2.021  17.058  1.00  0.00     0.027 C 
HETATM   21  C10 UNL     1      -4.720   1.949  15.694  1.00  0.00     0.131 C 
BRANCH  20  22
HETATM   22  C9  UNL     1      -5.577   0.653  17.644  1.00  0.00     0.170 C 
BRANCH  22  23
HETATM   23  O1  UNL     1      -5.630  -0.316  16.648  1.00  0.00    -0.400 OA
ATOM     24  H1  UNL     1      -5.550  -1.189  17.015  1.00  0.00     0.209 HD
ENDBRANCH  22  23
ENDBRANCH  20  22
ENDBRANCH   6  16
BRANCH   9  25
HETATM   25  C12 UNL     1      -4.660   0.843  10.626  1.00  0.00     0.096 C 
BRANCH  25  26
HETATM   26  C13 UNL     1      -4.276  -0.479  11.236  1.00  0.00     0.123 C 
BRANCH  26  27
HETATM   27  N4  UNL     1      -3.028  -0.996  10.811  1.00  0.00    -0.420 N 
HETATM   28  C14 UNL     1      -2.713  -2.330  11.181  1.00  0.00     0.142 C 
HETATM   29  C15 UNL     1      -1.917  -0.126  10.982  1.00  0.00     0.142 C 
ENDBRANCH  26  27
ENDBRANCH  25  26
ENDBRANCH   9  25
TORSDOF 6
ENDMDL
MODEL 2
REMARK VINA RESULT: -7.479939226      2.077      5.358
REMARK  6 active torsions:
REMARK  status: ('A' for Active; 'I' for Inactive)
REMARK    1  A    between atoms: C4_6  and  N2_7 
REMARK    2  A    between atoms: C8_11  and  C9_12 
REMARK    3  A    between atoms: C9_12  and  O1_13 
REMARK    4  A    between atoms: C11_18  and  C12_19 
REMARK    5  A    between atoms: C12_19  and  C13_20 
REMARK    6  A    between atoms: C13_20  and  N4_21 
ROOT
HETATM    1  C1  UNL     1       0.082   3.331  10.315  1.00  0.00     0.071 C 
HETATM    2  C2  UNL     1      -0.949   3.561  11.374  1.00  0.00     0.044 A 
HETATM    3  N1  UNL     1      -1.991   2.734  11.558  1.00  0.00    -0.353 N 
ATOM      4  H1  UNL     1      -2.076   1.918  10.952  1.00  0.00     0.166 HD
HETATM    5  C3  UNL     1      -2.924   2.932  12.501  1.00  0.00     0.104 A 
HETATM    6  C4  UNL     1      -3.998   2.134  12.737  1.00  0.00     0.134 A 
HETATM    7  N3  UNL     1      -4.878   2.453  13.740  1.00  0.00    -0.330 N 
ATOM      8  H3  UNL     1      -5.681   1.847  13.908  1.00  0.00     0.168 HD
HETATM    9  C11 UNL     1      -4.713   3.528  14.495  1.00  0.00     0.084 A 
HETATM   10  N5  UNL     1      -3.649   4.310  14.253  1.00  0.00    -0.344 N 
ATOM     11  H5  UNL     1      -3.517   5.138  14.832  1.00  0.00     0.167 HD
HETATM   12  C16 UNL     1      -2.752   4.061  13.294  1.00  0.00     0.067 A 
HETATM   13  C17 UNL     1      -1.693   4.930  13.132  1.00  0.00     0.076 A 
HETATM   14  C18 UNL     1      -0.756   4.693  12.153  1.00  0.00     0.140 A 
HETATM   15  F1  UNL     1       0.297   5.530  11.966  1.00  0.00    -0.204 F 
ENDROOT
BRANCH   6  16
HETATM   16  N2  UNL     1      -4.207   0.975  11.945  1.00  0.00    -0.365 N 
HETATM   17  C5  UNL     1      -5.055   1.049  10.811  1.00  0.00     0.124 C 
HETATM   18  C6  UNL     1      -4.780  -0.004   9.765  1.00  0.00     0.020 C 
HETATM   19  C7  UNL     1      -3.507  -0.749  10.040  1.00  0.00     0.010 C 
HETATM   20  C8  UNL     1      -3.642  -1.358  11.429  1.00  0.00     0.027 C 
HETATM   21  C10 UNL     1      -3.505  -0.214  12.400  1.00  0.00     0.131 C 
BRANCH  20  22
HETATM   22  C9  UNL     1      -2.581  -2.403  11.643  1.00  0.00     0.170 C 
BRANCH  22  23
HETATM   23  O1  UNL     1      -2.991  -3.639  11.156  1.00  0.00    -0.400 OA
ATOM     24  H1  UNL     1      -3.415  -4.151  11.836  1.00  0.00     0.209 HD
ENDBRANCH  22  23
ENDBRANCH  20  22
ENDBRANCH   6  16
BRANCH   9  25
HETATM   25  C12 UNL     1      -5.622   3.941  15.599  1.00  0.00     0.096 C 
BRANCH  25  26
HETATM   26  C13 UNL     1      -6.410   2.774  16.133  1.00  0.00     0.123 C 
BRANCH  26  27
HETATM   27  N4  UNL     1      -5.749   2.007  17.123  1.00  0.00    -0.420 N 
HETATM   28  C14 UNL     1      -5.739   0.597  16.958  1.00  0.00     0.142 C 
HETATM   29  C15 UNL     1      -6.025   2.377  18.468  1.00  0.00     0.142 C 
ENDBRANCH  26  27
ENDBRANCH  25  26
ENDBRANCH   9  25
TORSDOF 6
ENDMDL
MODEL 3
REMARK VINA RESULT: -7.419943721      3.073      6.185
REMARK  6 active torsions:
REMARK  status: ('A' for Active; 'I' for Inactive)
REMARK    1  A    between atoms: C4_6  and  N2_7 
REMARK    2  A    between atoms: C8_11  and  C9_12 
REMARK    3  A    between atoms: C9_12  and  O1_13 
REMARK    4  A    between atoms: C11_18  and  C12_19 
REMARK    5  A    between atoms: C12_19  and  C13_20 
REMARK    6  A    between atoms: C13_20  and  N4_21 
ROOT
HETATM    1  C1  UNL     1      -4.655   0.881  16.228  1.00  0.00     0.071 C 
HETATM    2  C2  UNL     1      -4.744   2.124  15.400  1.00  0.00     0.044 A 
HETATM    3  N1  UNL     1      -4.260   2.193  14.150  1.00  0.00    -0.353 N 
ATOM      4  H1  UNL     1      -3.820   1.363  13.752  1.00  0.00     0.166 HD
HETATM    5  C3  UNL     1      -4.330   3.303  13.399  1.00  0.00     0.104 A 
HETATM    6  C4  UNL     1      -3.862   3.435  12.130  1.00  0.00     0.134 A 
HETATM    7  N3  UNL     1      -4.001   4.632  11.473  1.00  0.00    -0.330 N 
ATOM      8  H3  UNL     1      -3.646   4.720  10.521  1.00  0.00     0.168 HD
HETATM    9  C11 UNL     1      -4.584   5.675  12.042  1.00  0.00     0.084 A 
HETATM   10  N5  UNL     1      -5.042   5.533  13.297  1.00  0.00    -0.344 N 
ATOM     11  H5  UNL     1      -5.492   6.334  13.739  1.00  0.00     0.167 HD
HETATM   12  C16 UNL     1      -4.940   4.399  13.996  1.00  0.00     0.067 A 
HETATM   13  C17 UNL     1      -5.448   4.361  15.279  1.00  0.00     0.076 A 
HETATM   14  C18 UNL     1      -5.358   3.204  16.017  1.00  0.00     0.140 A 
HETATM   15  F1  UNL     1      -5.845   3.134  17.283  1.00  0.00    -0.204 F 
ENDROOT
BRANCH   6  16
HETATM   16  N2  UNL     1      -3.230   2.337  11.490  1.00  0.00    -0.365 N 
HETATM   17  C5  UNL     1      -1.942   2.509  10.921  1.00  0.00     0.124 C 
HETATM   18  C6  UNL     1      -1.152   1.230  10.783  1.00  0.00     0.020 C 
HETATM   19  C7  UNL     1      -1.806   0.087  11.504  1.00  0.00     0.010 C 
HETATM   20  C8  UNL     1      -3.209  -0.053  10.931  1.00  0.00     0.027 C 
HETATM   21  C10 UNL     1      -4.001   1.105  11.480  1.00  0.00     0.131 C 
BRANCH  20  22
HETATM   22  C9  UNL     1      -3.804  -1.376  11.331  1.00  0.00     0.170 C 
BRANCH  22  23
HETATM   23  O1  UNL     1      -2.826  -2.361  11.411  1.00  0.00    -0.400 OA
ATOM     24  H1  UNL     1      -2.984  -2.942  12.147  1.00  0.00     0.209 HD
ENDBRANCH  22  23
ENDBRANCH  20  22
ENDBRANCH   6  16
BRANCH   9  25
HETATM   25  C12 UNL     1      -4.771   7.003  11.397  1.00  0.00     0.096 C 
BRANCH  25  26
HETATM   26  C13 UNL     1      -6.102   7.097  10.700  1.00  0.00     0.123 C 
BRANCH  26  27
HETATM   27  N4  UNL     1      -6.108   6.648   9.356  1.00  0.00    -0.420 N 
HETATM   28  C14 UNL     1      -4.928   6.850   8.594  1.00  0.00     0.142 C 
HETATM   29  C15 UNL     1      -7.277   6.966   8.612  1.00  0.00     0.142 C 
ENDBRANCH  26  27
ENDBRANCH  25  26
ENDBRANCH   9  25
TORSDOF 6
ENDMDL
MODEL 4
REMARK VINA RESULT: -7.417672845      3.891      6.839
REMARK  6 active torsions:
REMARK  status: ('A' for Active; 'I' for Inactive)
REMARK    1  A    between atoms: C4_6  and  N2_7 
REMARK    2  A    between atoms: C8_11  and  C9_12 
REMARK    3  A    between atoms: C9_12  and  O1_13 
REMARK    4  A    between atoms: C11_18  and  C12_19 
REMARK    5  A    between atoms: C12_19  and  C13_20 
REMARK    6  A    between atoms: C13_20  and  N4_21 
ROOT
HETATM    1  C1  UNL     1      -4.141   1.463  16.142  1.00  0.00     0.071 C 
HETATM    2  C2  UNL     1      -4.420   2.634  15.252  1.00  0.00     0.044 A 
HETATM    3  N1  UNL     1      -3.657   2.928  14.188  1.00  0.00    -0.353 N 
ATOM      4  H1  UNL     1      -2.861   2.327  13.979  1.00  0.00     0.166 HD
HETATM    5  C3  UNL     1      -3.895   3.978  13.386  1.00  0.00     0.104 A 
HETATM    6  C4  UNL     1      -3.163   4.327  12.295  1.00  0.00     0.134 A 
HETATM    7  N3  UNL     1      -3.520   5.428  11.559  1.00  0.00    -0.330 N 
ATOM      8  H3  UNL     1      -2.963   5.681  10.743  1.00  0.00     0.168 HD
HETATM    9  C11 UNL     1      -4.568   6.171  11.880  1.00  0.00     0.084 A 
HETATM   10  N5  UNL     1      -5.283   5.817  12.959  1.00  0.00    -0.344 N 
ATOM     11  H5  UNL     1      -6.091   6.386  13.210  1.00  0.00     0.167 HD
HETATM   12  C16 UNL     1      -4.993   4.759  13.723  1.00  0.00     0.067 A 
HETATM   13  C17 UNL     1      -5.798   4.483  14.809  1.00  0.00     0.076 A 
HETATM   14  C18 UNL     1      -5.522   3.398  15.608  1.00  0.00     0.140 A 
HETATM   15  F1  UNL     1      -6.292   3.101  16.687  1.00  0.00    -0.204 F 
ENDROOT
BRANCH   6  16
HETATM   16  N2  UNL     1      -2.033   3.554  11.924  1.00  0.00    -0.365 N 
HETATM   17  C5  UNL     1      -2.208   2.196  11.552  1.00  0.00     0.124 C 
HETATM   18  C6  UNL     1      -1.109   1.650  10.673  1.00  0.00     0.020 C 
HETATM   19  C7  UNL     1      -0.194   2.732  10.180  1.00  0.00     0.010 C 
HETATM   20  C8  UNL     1       0.365   3.434  11.410  1.00  0.00     0.027 C 
HETATM   21  C10 UNL     1      -0.764   4.262  11.968  1.00  0.00     0.131 C 
BRANCH  20  22
HETATM   22  C9  UNL     1       1.547   4.284  11.030  1.00  0.00     0.170 C 
BRANCH  22  23
HETATM   23  O1  UNL     1       2.635   4.025  11.857  1.00  0.00    -0.400 OA
ATOM     24  H1  UNL     1       2.702   3.098  12.055  1.00  0.00     0.209 HD
ENDBRANCH  22  23
ENDBRANCH  20  22
ENDBRANCH   6  16
BRANCH   9  25
HETATM   25  C12 UNL     1      -5.017   7.377  11.133  1.00  0.00     0.096 C 
BRANCH  25  26
HETATM   26  C13 UNL     1      -6.478   7.298  10.780  1.00  0.00     0.123 C 
BRANCH  26  27
HETATM   27  N4  UNL     1      -6.752   6.983   9.427  1.00  0.00    -0.420 N 
HETATM   28  C14 UNL     1      -5.651   6.928   8.532  1.00  0.00     0.142 C 
HETATM   29  C15 UNL     1      -7.862   7.663   8.854  1.00  0.00     0.142 C 
ENDBRANCH  26  27
ENDBRANCH  25  26
ENDBRANCH   9  25
TORSDOF 6
ENDMDL
MODEL 5
REMARK VINA RESULT: -7.366889662      2.870      3.699
REMARK  6 active torsions:
REMARK  status: ('A' for Active; 'I' for Inactive)
REMARK    1  A    between atoms: C4_6  and  N2_7 
REMARK    2  A    between atoms: C8_11  and  C9_12 
REMARK    3  A    between atoms: C9_12  and  O1_13 
REMARK    4  A    between atoms: C11_18  and  C12_19 
REMARK    5  A    between atoms: C12_19  and  C13_20 
REMARK    6  A    between atoms: C13_20  and  N4_21 
ROOT
HETATM    1  C1  UNL     1      -6.580   7.535  11.159  1.00  0.00     0.071 C 
HETATM    2  C2  UNL     1      -5.401   6.638  10.946  1.00  0.00     0.044 A 
HETATM    3  N1  UNL     1      -4.956   5.796  11.892  1.00  0.00    -0.353 N 
ATOM      4  H1  UNL     1      -5.446   5.766  12.786  1.00  0.00     0.166 HD
HETATM    5  C3  UNL     1      -3.897   4.990  11.715  1.00  0.00     0.104 A 
HETATM    6  C4  UNL     1      -3.400   4.117  12.629  1.00  0.00     0.134 A 
HETATM    7  N3  UNL     1      -2.308   3.349  12.315  1.00  0.00    -0.330 N 
ATOM      8  H3  UNL     1      -1.943   2.697  13.009  1.00  0.00     0.168 HD
HETATM    9  C11 UNL     1      -1.715   3.431  11.134  1.00  0.00     0.084 A 
HETATM   10  N5  UNL     1      -2.214   4.298  10.238  1.00  0.00    -0.344 N 
ATOM     11  H5  UNL     1      -1.760   4.364   9.328  1.00  0.00     0.167 HD
HETATM   12  C16 UNL     1      -3.273   5.077  10.476  1.00  0.00     0.067 A 
HETATM   13  C17 UNL     1      -3.705   5.932   9.482  1.00  0.00     0.076 A 
HETATM   14  C18 UNL     1      -4.795   6.742   9.702  1.00  0.00     0.140 A 
HETATM   15  F1  UNL     1      -5.244   7.596   8.746  1.00  0.00    -0.204 F 
ENDROOT
BRANCH   6  16
HETATM   16  N2  UNL     1      -4.010   4.004  13.905  1.00  0.00    -0.365 N 
HETATM   17  C5  UNL     1      -4.694   5.120  14.453  1.00  0.00     0.124 C 
HETATM   18  C6  UNL     1      -5.738   4.761  15.482  1.00  0.00     0.020 C 
HETATM   19  C7  UNL     1      -5.998   3.284  15.525  1.00  0.00     0.010 C 
HETATM   20  C8  UNL     1      -4.666   2.608  15.815  1.00  0.00     0.027 C 
HETATM   21  C10 UNL     1      -3.862   2.707  14.544  1.00  0.00     0.131 C 
BRANCH  20  22
HETATM   22  C9  UNL     1      -4.888   1.177  16.225  1.00  0.00     0.170 C 
BRANCH  22  23
HETATM   23  O1  UNL     1      -3.693   0.466  16.226  1.00  0.00    -0.400 OA
ATOM     24  H1  UNL     1      -3.829  -0.433  15.948  1.00  0.00     0.209 HD
ENDBRANCH  22  23
ENDBRANCH  20  22
ENDBRANCH   6  16
BRANCH   9  25
HETATM   25  C12 UNL     1      -0.529   2.634  10.720  1.00  0.00     0.096 C 
BRANCH  25  26
HETATM   26  C13 UNL     1       0.245   3.320   9.626  1.00  0.00     0.123 C 
BRANCH  26  27
HETATM   27  N4  UNL     1       1.616   3.540   9.907  1.00  0.00    -0.420 N 
HETATM   28  C14 UNL     1       1.931   4.353  11.027  1.00  0.00     0.142 C 
HETATM   29  C15 UNL     1       2.427   3.854   8.782  1.00  0.00     0.142 C 
ENDBRANCH  26  27
ENDBRANCH  25  26
ENDBRANCH   9  25
TORSDOF 6
ENDMDL
