MODEL 1
REMARK VINA RESULT: -8.184637426      0.000      0.000
REMARK  6 active torsions:
REMARK  status: ('A' for Active; 'I' for Inactive)
REMARK    1  A    between atoms: O1_1  and  C1_3 
REMARK    2  A    between atoms: C1_3  and  C2_4 
REMARK    3  A    between atoms: C1_3  and  C13_18 
REMARK    4  A    between atoms: C2_4  and  N1_5 
REMARK    5  A    between atoms: N2_8  and  C5_9 
REMARK    6  A    between atoms: C16_21  and  N3_22 
ROOT
HETATM    1  C1  UNL     1      13.453 -10.415   9.855  1.00  0.00     0.189 C 
ENDROOT
BRANCH   1   2
HETATM    2  O1  UNL     1      13.969 -10.921  11.019  1.00  0.00    -0.386 OA
ATOM      3  H1  UNL     1      13.481 -11.623  11.432  1.00  0.00     0.210 HD
ENDBRANCH   1   2
BRANCH   1   4
HETATM    4  C2  UNL     1      14.421  -9.802   8.906  1.00  0.00     0.099 C 
BRANCH   4   5
HETATM    5  N1  UNL     1      14.319  -8.405   8.794  1.00  0.00    -0.368 N 
HETATM    6  C3  UNL     1      13.435  -7.765   9.709  1.00  0.00     0.147 C 
HETATM    7  C4  UNL     1      12.499  -6.754   9.113  1.00  0.00     0.143 C 
HETATM    8  N2  UNL     1      13.141  -5.879   8.181  1.00  0.00    -0.374 N 
HETATM    9  C11 UNL     1      14.376  -6.267   7.592  1.00  0.00     0.167 C 
HETATM   10  C12 UNL     1      14.598  -7.759   7.594  1.00  0.00     0.083 C 
BRANCH   8  11
HETATM   11  C5  UNL     1      12.553  -4.646   7.846  1.00  0.00     0.030 A 
HETATM   12  C6  UNL     1      11.684  -4.051   8.735  1.00  0.00     0.032 A 
HETATM   13  C7  UNL     1      11.098  -2.842   8.424  1.00  0.00     0.044 A 
HETATM   14  C8  UNL     1      11.361  -2.192   7.219  1.00  0.00     0.116 A 
HETATM   15  F1  UNL     1      10.774  -1.009   6.939  1.00  0.00    -0.206 F 
HETATM   16  C9  UNL     1      12.230  -2.789   6.330  1.00  0.00     0.044 A 
HETATM   17  C10 UNL     1      12.822  -4.015   6.650  1.00  0.00     0.032 A 
ENDBRANCH   8  11
ENDBRANCH   4   5
ENDBRANCH   1   4
BRANCH   1  18
HETATM   18  C13 UNL     1      12.659 -11.493   9.161  1.00  0.00    -0.025 A 
HETATM   19  C14 UNL     1      11.872 -11.189   8.067  1.00  0.00     0.012 A 
HETATM   20  C15 UNL     1      11.124 -12.148   7.409  1.00  0.00     0.031 A 
HETATM   21  C16 UNL     1      11.136 -13.463   7.828  1.00  0.00     0.041 A 
HETATM   22  C19 UNL     1      11.921 -13.767   8.918  1.00  0.00     0.031 A 
HETATM   23  C20 UNL     1      12.680 -12.796   9.587  1.00  0.00     0.012 A 
BRANCH  21  24
HETATM   24  N3  UNL     1      10.373 -14.470   7.169  1.00  0.00    -0.302 N 
HETATM   25  C17 UNL     1       9.045 -14.413   6.965  1.00  0.00     0.206 A 
HETATM   26  N4  UNL     1       8.717 -15.545   6.316  1.00  0.00    -0.295 N 
HETATM   27  N5  UNL     1       9.788 -16.285   6.120  1.00  0.00    -0.295 N 
ATOM     28  H4  UNL     1       7.773 -15.794   6.019  1.00  0.00     0.187 HD
HETATM   29  C18 UNL     1      10.821 -15.626   6.646  1.00  0.00     0.206 A 
ATOM     30  H5  UNL     1       9.820 -17.192   5.653  1.00  0.00     0.187 HD
ENDBRANCH  21  24
ENDBRANCH   1  18
TORSDOF 6
ENDMDL
MODEL 2
REMARK VINA RESULT: -8.134633307      0.198      1.156
REMARK  6 active torsions:
REMARK  status: ('A' for Active; 'I' for Inactive)
REMARK    1  A    between atoms: O1_1  and  C1_3 
REMARK    2  A    between atoms: C1_3  and  C2_4 
REMARK    3  A    between atoms: C1_3  and  C13_18 
REMARK    4  A    between atoms: C2_4  and  N1_5 
REMARK    5  A    between atoms: N2_8  and  C5_9 
REMARK    6  A    between atoms: C16_21  and  N3_22 
ROOT
HETATM    1  C1  UNL     1      13.302 -10.580   9.898  1.00  0.00     0.189 C 
ENDROOT
BRANCH   1   2
HETATM    2  O1  UNL     1      13.761 -11.150  11.056  1.00  0.00    -0.386 OA
ATOM      3  H1  UNL     1      13.105 -11.480  11.658  1.00  0.00     0.210 HD
ENDBRANCH   1   2
BRANCH   1   4
HETATM    4  C2  UNL     1      14.322  -9.965   9.006  1.00  0.00     0.099 C 
BRANCH   4   5
HETATM    5  N1  UNL     1      14.237  -8.567   8.903  1.00  0.00    -0.368 N 
HETATM    6  C3  UNL     1      13.315  -7.928   9.780  1.00  0.00     0.147 C 
HETATM    7  C4  UNL     1      12.417  -6.904   9.149  1.00  0.00     0.143 C 
HETATM    8  N2  UNL     1      13.110  -6.025   8.258  1.00  0.00    -0.374 N 
HETATM    9  C11 UNL     1      14.369  -6.419   7.725  1.00  0.00     0.167 C 
HETATM   10  C12 UNL     1      14.578  -7.912   7.724  1.00  0.00     0.083 C 
BRANCH   8  11
HETATM   11  C5  UNL     1      12.548  -4.785   7.907  1.00  0.00     0.030 A 
HETATM   12  C6  UNL     1      11.673  -4.171   8.777  1.00  0.00     0.032 A 
HETATM   13  C7  UNL     1      11.113  -2.954   8.451  1.00  0.00     0.044 A 
HETATM   14  C8  UNL     1      11.409  -2.314   7.248  1.00  0.00     0.116 A 
HETATM   15  F1  UNL     1      10.847  -1.122   6.952  1.00  0.00    -0.206 F 
HETATM   16  C9  UNL     1      12.284  -2.929   6.378  1.00  0.00     0.044 A 
HETATM   17  C10 UNL     1      12.850  -4.163   6.714  1.00  0.00     0.032 A 
ENDBRANCH   8  11
ENDBRANCH   4   5
ENDBRANCH   1   4
BRANCH   1  18
HETATM   18  C13 UNL     1      12.493 -11.599   9.136  1.00  0.00    -0.025 A 
HETATM   19  C14 UNL     1      12.512 -12.929   9.509  1.00  0.00     0.012 A 
HETATM   20  C15 UNL     1      11.790 -13.894   8.830  1.00  0.00     0.031 A 
HETATM   21  C16 UNL     1      11.012 -13.558   7.741  1.00  0.00     0.041 A 
HETATM   22  C19 UNL     1      10.992 -12.232   7.369  1.00  0.00     0.031 A 
HETATM   23  C20 UNL     1      11.724 -11.252   8.055  1.00  0.00     0.012 A 
BRANCH  21  24
HETATM   24  N3  UNL     1      10.260 -14.534   7.024  1.00  0.00    -0.302 N 
HETATM   25  C17 UNL     1      10.752 -15.703   6.578  1.00  0.00     0.206 A 
HETATM   26  N4  UNL     1       9.732 -16.326   5.960  1.00  0.00    -0.295 N 
HETATM   27  N5  UNL     1       8.645 -15.585   6.011  1.00  0.00    -0.295 N 
ATOM     28  H4  UNL     1       9.793 -17.243   5.516  1.00  0.00     0.187 HD
HETATM   29  C18 UNL     1       8.963 -14.470   6.670  1.00  0.00     0.206 A 
ATOM     30  H5  UNL     1       7.733 -15.820   5.621  1.00  0.00     0.187 HD
ENDBRANCH  21  24
ENDBRANCH   1  18
TORSDOF 6
ENDMDL
MODEL 3
REMARK VINA RESULT: -8.082886875      0.224      1.168
REMARK  6 active torsions:
REMARK  status: ('A' for Active; 'I' for Inactive)
REMARK    1  A    between atoms: O1_1  and  C1_3 
REMARK    2  A    between atoms: C1_3  and  C2_4 
REMARK    3  A    between atoms: C1_3  and  C13_18 
REMARK    4  A    between atoms: C2_4  and  N1_5 
REMARK    5  A    between atoms: N2_8  and  C5_9 
REMARK    6  A    between atoms: C16_21  and  N3_22 
ROOT
HETATM    1  C1  UNL     1      13.314 -10.608   9.948  1.00  0.00     0.189 C 
ENDROOT
BRANCH   1   2
HETATM    2  O1  UNL     1      13.783 -11.148  11.116  1.00  0.00    -0.386 OA
ATOM      3  H1  UNL     1      14.475 -11.795  11.039  1.00  0.00     0.210 HD
ENDBRANCH   1   2
BRANCH   1   4
HETATM    4  C2  UNL     1      14.321  -9.981   9.050  1.00  0.00     0.099 C 
BRANCH   4   5
HETATM    5  N1  UNL     1      14.227  -8.582   8.960  1.00  0.00    -0.368 N 
HETATM    6  C3  UNL     1      13.320  -7.954   9.861  1.00  0.00     0.147 C 
HETATM    7  C4  UNL     1      12.404  -6.930   9.257  1.00  0.00     0.143 C 
HETATM    8  N2  UNL     1      13.073  -6.042   8.357  1.00  0.00    -0.374 N 
HETATM    9  C11 UNL     1      14.323  -6.424   7.796  1.00  0.00     0.167 C 
HETATM   10  C12 UNL     1      14.540  -7.916   7.779  1.00  0.00     0.083 C 
BRANCH   8  11
HETATM   11  C5  UNL     1      12.498  -4.802   8.028  1.00  0.00     0.030 A 
HETATM   12  C6  UNL     1      12.806  -4.217   6.818  1.00  0.00     0.032 A 
HETATM   13  C7  UNL     1      12.251  -3.002   6.477  1.00  0.00     0.044 A 
HETATM   14  C8  UNL     1      11.374  -2.335   7.331  1.00  0.00     0.116 A 
HETATM   15  F1  UNL     1      10.843  -1.145   6.973  1.00  0.00    -0.206 F 
HETATM   16  C9  UNL     1      11.066  -2.920   8.540  1.00  0.00     0.044 A 
HETATM   17  C10 UNL     1      11.632  -4.154   8.881  1.00  0.00     0.032 A 
ENDBRANCH   8  11
ENDBRANCH   4   5
ENDBRANCH   1   4
BRANCH   1  18
HETATM   18  C13 UNL     1      12.535 -11.660   9.198  1.00  0.00    -0.025 A 
HETATM   19  C14 UNL     1      11.770 -11.317   8.101  1.00  0.00     0.012 A 
HETATM   20  C15 UNL     1      11.037 -12.252   7.393  1.00  0.00     0.031 A 
HETATM   21  C16 UNL     1      11.044 -13.582   7.763  1.00  0.00     0.041 A 
HETATM   22  C19 UNL     1      11.807 -13.925   8.856  1.00  0.00     0.031 A 
HETATM   23  C20 UNL     1      12.551 -12.979   9.575  1.00  0.00     0.012 A 
BRANCH  21  24
HETATM   24  N3  UNL     1      10.296 -14.564   7.051  1.00  0.00    -0.302 N 
HETATM   25  C17 UNL     1      10.799 -15.720   6.584  1.00  0.00     0.206 A 
HETATM   26  N4  UNL     1       9.779 -16.355   5.980  1.00  0.00    -0.295 N 
HETATM   27  N5  UNL     1       8.680 -15.634   6.060  1.00  0.00    -0.295 N 
ATOM     28  H4  UNL     1       9.847 -17.266   5.526  1.00  0.00     0.187 HD
HETATM   29  C18 UNL     1       8.991 -14.520   6.723  1.00  0.00     0.206 A 
ATOM     30  H5  UNL     1       7.765 -15.882   5.685  1.00  0.00     0.187 HD
ENDBRANCH  21  24
ENDBRANCH   1  18
TORSDOF 6
ENDMDL
MODEL 4
REMARK VINA RESULT: -8.050904978      0.721      1.255
REMARK  6 active torsions:
REMARK  status: ('A' for Active; 'I' for Inactive)
REMARK    1  A    between atoms: O1_1  and  C1_3 
REMARK    2  A    between atoms: C1_3  and  C2_4 
REMARK    3  A    between atoms: C1_3  and  C13_18 
REMARK    4  A    between atoms: C2_4  and  N1_5 
REMARK    5  A    between atoms: N2_8  and  C5_9 
REMARK    6  A    between atoms: C16_21  and  N3_22 
ROOT
HETATM    1  C1  UNL     1      13.562 -10.193   9.808  1.00  0.00     0.189 C 
ENDROOT
BRANCH   1   2
HETATM    2  O1  UNL     1      14.106 -10.931  10.826  1.00  0.00    -0.386 OA
ATOM      3  H1  UNL     1      14.921 -10.612  11.196  1.00  0.00     0.210 HD
ENDBRANCH   1   2
BRANCH   1   4
HETATM    4  C2  UNL     1      14.515  -9.600   8.830  1.00  0.00     0.099 C 
BRANCH   4   5
HETATM    5  N1  UNL     1      14.409  -8.206   8.690  1.00  0.00    -0.368 N 
HETATM    6  C3  UNL     1      13.572  -7.542   9.630  1.00  0.00     0.147 C 
HETATM    7  C4  UNL     1      12.609  -6.544   9.057  1.00  0.00     0.143 C 
HETATM    8  N2  UNL     1      13.206  -5.693   8.073  1.00  0.00    -0.374 N 
HETATM    9  C11 UNL     1      14.410  -6.099   7.434  1.00  0.00     0.167 C 
HETATM   10  C12 UNL     1      14.629  -7.590   7.462  1.00  0.00     0.083 C 
BRANCH   8  11
HETATM   11  C5  UNL     1      12.603  -4.468   7.737  1.00  0.00     0.030 A 
HETATM   12  C6  UNL     1      12.930  -3.862   6.543  1.00  0.00     0.032 A 
HETATM   13  C7  UNL     1      12.349  -2.660   6.196  1.00  0.00     0.044 A 
HETATM   14  C8  UNL     1      11.426  -2.029   7.029  1.00  0.00     0.116 A 
HETATM   15  F1  UNL     1      10.871  -0.852   6.666  1.00  0.00    -0.206 F 
HETATM   16  C9  UNL     1      11.100  -2.636   8.223  1.00  0.00     0.044 A 
HETATM   17  C10 UNL     1      11.693  -3.855   8.570  1.00  0.00     0.032 A 
ENDBRANCH   8  11
ENDBRANCH   4   5
ENDBRANCH   1   4
BRANCH   1  18
HETATM   18  C13 UNL     1      12.536 -11.032   9.089  1.00  0.00    -0.025 A 
HETATM   19  C14 UNL     1      11.638 -10.445   8.218  1.00  0.00     0.012 A 
HETATM   20  C15 UNL     1      10.677 -11.180   7.546  1.00  0.00     0.031 A 
HETATM   21  C16 UNL     1      10.580 -12.545   7.724  1.00  0.00     0.041 A 
HETATM   22  C19 UNL     1      11.475 -13.130   8.591  1.00  0.00     0.031 A 
HETATM   23  C20 UNL     1      12.449 -12.388   9.274  1.00  0.00     0.012 A 
BRANCH  21  24
HETATM   24  N3  UNL     1       9.598 -13.324   7.045  1.00  0.00    -0.302 N 
HETATM   25  C17 UNL     1       8.523 -12.819   6.415  1.00  0.00     0.206 A 
HETATM   26  N4  UNL     1       7.857 -13.873   5.910  1.00  0.00    -0.295 N 
HETATM   27  N5  UNL     1       8.480 -14.993   6.209  1.00  0.00    -0.295 N 
ATOM     28  H4  UNL     1       6.991 -13.813   5.373  1.00  0.00     0.187 HD
HETATM   29  C18 UNL     1       9.563 -14.663   6.914  1.00  0.00     0.206 A 
ATOM     30  H5  UNL     1       8.190 -15.936   5.949  1.00  0.00     0.187 HD
ENDBRANCH  21  24
ENDBRANCH   1  18
TORSDOF 6
ENDMDL
MODEL 5
REMARK VINA RESULT: -8.038887501      3.791      5.420
REMARK  6 active torsions:
REMARK  status: ('A' for Active; 'I' for Inactive)
REMARK    1  A    between atoms: O1_1  and  C1_3 
REMARK    2  A    between atoms: C1_3  and  C2_4 
REMARK    3  A    between atoms: C1_3  and  C13_18 
REMARK    4  A    between atoms: C2_4  and  N1_5 
REMARK    5  A    between atoms: N2_8  and  C5_9 
REMARK    6  A    between atoms: C16_21  and  N3_22 
ROOT
HETATM    1  C1  UNL     1      11.834 -10.355  10.046  1.00  0.00     0.189 C 
ENDROOT
BRANCH   1   2
HETATM    2  O1  UNL     1      12.107 -11.675  10.288  1.00  0.00    -0.386 OA
ATOM      3  H1  UNL     1      11.434 -12.175  10.735  1.00  0.00     0.210 HD
ENDBRANCH   1   2
BRANCH   1   4
HETATM    4  C2  UNL     1      11.583  -9.496  11.236  1.00  0.00     0.099 C 
BRANCH   4   5
HETATM    5  N1  UNL     1      11.160  -8.191  10.931  1.00  0.00    -0.368 N 
HETATM    6  C3  UNL     1      10.422  -8.036   9.723  1.00  0.00     0.147 C 
HETATM    7  C4  UNL     1      10.847  -6.899   8.840  1.00  0.00     0.143 C 
HETATM    8  N2  UNL     1      11.083  -5.687   9.564  1.00  0.00    -0.374 N 
HETATM    9  C11 UNL     1      11.326  -5.744  10.964  1.00  0.00     0.167 C 
HETATM   10  C12 UNL     1      11.838  -7.083  11.429  1.00  0.00     0.083 C 
BRANCH   8  11
HETATM   11  C5  UNL     1      11.080  -4.451   8.894  1.00  0.00     0.030 A 
HETATM   12  C6  UNL     1      11.615  -4.370   7.626  1.00  0.00     0.032 A 
HETATM   13  C7  UNL     1      11.621  -3.166   6.954  1.00  0.00     0.044 A 
HETATM   14  C8  UNL     1      11.093  -2.009   7.525  1.00  0.00     0.116 A 
HETATM   15  F1  UNL     1      11.110  -0.842   6.845  1.00  0.00    -0.206 F 
HETATM   16  C9  UNL     1      10.558  -2.091   8.793  1.00  0.00     0.044 A 
HETATM   17  C10 UNL     1      10.555  -3.315   9.471  1.00  0.00     0.032 A 
ENDBRANCH   8  11
ENDBRANCH   4   5
ENDBRANCH   1   4
BRANCH   1  18
HETATM   18  C13 UNL     1      12.943  -9.769   9.209  1.00  0.00    -0.025 A 
HETATM   19  C14 UNL     1      12.857  -9.773   7.830  1.00  0.00     0.012 A 
HETATM   20  C15 UNL     1      13.857  -9.252   7.029  1.00  0.00     0.031 A 
HETATM   21  C16 UNL     1      14.994  -8.702   7.586  1.00  0.00     0.041 A 
HETATM   22  C19 UNL     1      15.080  -8.698   8.960  1.00  0.00     0.031 A 
HETATM   23  C20 UNL     1      14.068  -9.225   9.775  1.00  0.00     0.012 A 
BRANCH  21  24
HETATM   24  N3  UNL     1      16.039  -8.161   6.782  1.00  0.00    -0.302 N 
HETATM   25  C17 UNL     1      17.000  -7.335   7.230  1.00  0.00     0.206 A 
HETATM   26  N4  UNL     1      17.780  -7.058   6.170  1.00  0.00    -0.295 N 
HETATM   27  N5  UNL     1      17.333  -7.680   5.100  1.00  0.00    -0.295 N 
ATOM     28  H4  UNL     1      18.601  -6.453   6.193  1.00  0.00     0.187 HD
HETATM   29  C18 UNL     1      16.252  -8.368   5.469  1.00  0.00     0.206 A 
ATOM     30  H5  UNL     1      17.738  -7.644   4.164  1.00  0.00     0.187 HD
ENDBRANCH  21  24
ENDBRANCH   1  18
TORSDOF 6
ENDMDL
