MODEL 1
REMARK VINA RESULT: -6.555810269      0.000      0.000
REMARK  11 active torsions:
REMARK  status: ('A' for Active; 'I' for Inactive)
REMARK    1  A    between atoms: C3_3  and  N1_4 
REMARK    2  A    between atoms: N1_4  and  C5_6 
REMARK    3  A    between atoms: C5_6  and  C6_7 
REMARK    4  A    between atoms: C6_7  and  O1_8 
REMARK    5  A    between atoms: C8_11  and  O2_12 
REMARK    6  A    between atoms: C9_14  and  O3_15 
REMARK    7  A    between atoms: C10_17  and  O4_18 
REMARK    8  A    between atoms: O4_18  and  C11_19 
REMARK    9  A    between atoms: C16_24  and  O5_25 
REMARK   10  A    between atoms: O5_25  and  C17_26 
REMARK       I    between atoms: C17_26  and  N2_28 
REMARK   11  A    between atoms: C20_31  and  O7_32 
ROOT
HETATM    1  C1  UNL     1      -7.212   5.882 -11.495  1.00  0.00     0.018 C 
HETATM    2  C2  UNL     1      -7.669   5.321 -10.541  1.00  0.00    -0.072 C 
HETATM    3  C3  UNL     1      -8.218   4.614  -9.365  1.00  0.00     0.153 C 
ENDROOT
BRANCH   3   4
HETATM    4  N1  UNL     1      -8.017   3.240  -9.548  1.00  0.00    -0.364 N 
HETATM    5  C4  UNL     1      -6.945   2.684  -8.826  1.00  0.00     0.155 C 
BRANCH   4   6
HETATM    6  C5  UNL     1      -8.872   2.426 -10.265  1.00  0.00     0.104 C 
BRANCH   6   7
HETATM    7  C6  UNL     1      -9.998   1.744  -9.470  1.00  0.00     0.120 C 
HETATM    8  C7  UNL     1     -10.078   2.203  -8.080  1.00  0.00     0.080 C 
HETATM    9  C8  UNL     1     -11.184   3.092  -7.670  1.00  0.00     0.152 C 
HETATM   10  C9  UNL     1     -12.072   3.565  -8.789  1.00  0.00     0.178 C 
HETATM   11  C10 UNL     1     -12.454   2.347  -9.582  1.00  0.00     0.185 C 
HETATM   12  C20 UNL     1     -11.254   1.830 -10.305  1.00  0.00     0.192 C 
BRANCH   7  13
HETATM   13  O1  UNL     1      -9.622   0.391  -9.440  1.00  0.00    -0.382 OA
ATOM     14  H1  UNL     1      -9.805   0.121  -8.548  1.00  0.00     0.211 HD
ENDBRANCH   7  13
BRANCH   9  15
HETATM   15  O2  UNL     1     -10.766   4.217  -6.939  1.00  0.00    -0.393 OA
ATOM     16  H2  UNL     1     -11.238   4.342  -6.125  1.00  0.00     0.210 HD
ENDBRANCH   9  15
BRANCH  10  17
HETATM   17  O3  UNL     1     -11.557   4.607  -9.522  1.00  0.00    -0.390 OA
ATOM     18  H3  UNL     1     -12.170   5.000 -10.132  1.00  0.00     0.210 HD
ENDBRANCH  10  17
BRANCH  11  19
HETATM   19  O4  UNL     1     -13.535   2.469 -10.364  1.00  0.00    -0.373 OA
BRANCH  19  20
HETATM   20  C11 UNL     1     -14.292   1.379 -10.632  1.00  0.00     0.152 C 
HETATM   21  C12 UNL     1     -14.608   0.567  -9.362  1.00  0.00     0.034 C 
HETATM   22  C13 UNL     1     -15.952   0.945  -8.799  1.00  0.00     0.003 C 
HETATM   23  C14 UNL     1     -16.063   2.450  -8.901  1.00  0.00     0.003 C 
HETATM   24  C15 UNL     1     -16.310   2.802 -10.353  1.00  0.00     0.035 C 
HETATM   25  C16 UNL     1     -15.618   1.776 -11.214  1.00  0.00     0.162 C 
BRANCH  25  26
HETATM   26  O5  UNL     1     -15.552   2.118 -12.564  1.00  0.00    -0.296 OA
BRANCH  26  27
HETATM   27  C17 UNL     1     -15.459   1.176 -13.569  1.00  0.00     0.362 C 
HETATM   28  O6  UNL     1     -15.450  -0.035 -13.202  1.00  0.00    -0.238 OA
HETATM   29  N2  UNL     1     -15.377   1.538 -14.953  1.00  0.00    -0.337 N 
HETATM   30  C18 UNL     1     -15.280   0.480 -15.931  1.00  0.00     0.154 C 
HETATM   31  C19 UNL     1     -15.395   2.924 -15.318  1.00  0.00     0.154 C 
ENDBRANCH  26  27
ENDBRANCH  25  26
ENDBRANCH  19  20
ENDBRANCH  11  19
BRANCH  12  32
HETATM   32  O7  UNL     1     -10.997   2.483 -11.509  1.00  0.00    -0.385 OA
HETATM   33  C21 UNL     1     -11.142   1.662 -12.626  1.00  0.00     0.202 C 
ENDBRANCH  12  32
ENDBRANCH   6   7
ENDBRANCH   4   6
ENDBRANCH   3   4
TORSDOF 11
ENDMDL
MODEL 2
REMARK VINA RESULT: -6.152605165      4.245      7.147
REMARK  11 active torsions:
REMARK  status: ('A' for Active; 'I' for Inactive)
REMARK    1  A    between atoms: C3_3  and  N1_4 
REMARK    2  A    between atoms: N1_4  and  C5_6 
REMARK    3  A    between atoms: C5_6  and  C6_7 
REMARK    4  A    between atoms: C6_7  and  O1_8 
REMARK    5  A    between atoms: C8_11  and  O2_12 
REMARK    6  A    between atoms: C9_14  and  O3_15 
REMARK    7  A    between atoms: C10_17  and  O4_18 
REMARK    8  A    between atoms: O4_18  and  C11_19 
REMARK    9  A    between atoms: C16_24  and  O5_25 
REMARK   10  A    between atoms: O5_25  and  C17_26 
REMARK       I    between atoms: C17_26  and  N2_28 
REMARK   11  A    between atoms: C20_31  and  O7_32 
ROOT
HETATM    1  C1  UNL     1     -14.334  -6.756  -7.287  1.00  0.00     0.018 C 
HETATM    2  C2  UNL     1     -14.044  -5.802  -6.624  1.00  0.00    -0.072 C 
HETATM    3  C3  UNL     1     -13.686  -4.614  -5.823  1.00  0.00     0.153 C 
ENDROOT
BRANCH   3   4
HETATM    4  N1  UNL     1     -12.787  -3.839  -6.568  1.00  0.00    -0.364 N 
HETATM    5  C4  UNL     1     -11.455  -4.294  -6.571  1.00  0.00     0.155 C 
BRANCH   4   6
HETATM    6  C5  UNL     1     -13.164  -2.780  -7.369  1.00  0.00     0.104 C 
BRANCH   6   7
HETATM    7  C6  UNL     1     -13.274  -1.406  -6.686  1.00  0.00     0.120 C 
HETATM    8  C7  UNL     1     -12.660  -1.378  -5.356  1.00  0.00     0.080 C 
HETATM    9  C8  UNL     1     -11.378  -0.669  -5.162  1.00  0.00     0.152 C 
HETATM   10  C9  UNL     1     -10.740  -0.147  -6.420  1.00  0.00     0.178 C 
HETATM   11  C10 UNL     1     -11.808   0.599  -7.169  1.00  0.00     0.185 C 
HETATM   12  C20 UNL     1     -12.820  -0.369  -7.686  1.00  0.00     0.192 C 
BRANCH   7  13
HETATM   13  O1  UNL     1     -14.655  -1.224  -6.511  1.00  0.00    -0.382 OA
ATOM     14  H1  UNL     1     -14.828  -0.378  -6.908  1.00  0.00     0.211 HD
ENDBRANCH   7  13
BRANCH   9  15
HETATM   15  O2  UNL     1     -10.416  -1.418  -4.463  1.00  0.00    -0.393 OA
ATOM     16  H2  UNL     1      -9.523  -1.242  -4.734  1.00  0.00     0.210 HD
ENDBRANCH   9  15
BRANCH  10  17
HETATM   17  O3  UNL     1     -10.062  -1.094  -7.150  1.00  0.00    -0.390 OA
ATOM     18  H3  UNL     1      -9.224  -0.803  -7.489  1.00  0.00     0.210 HD
ENDBRANCH  10  17
BRANCH  11  19
HETATM   19  O4  UNL     1     -11.381   1.468  -8.095  1.00  0.00    -0.373 OA
BRANCH  19  20
HETATM   20  C11 UNL     1     -11.196   2.766  -7.760  1.00  0.00     0.152 C 
HETATM   21  C12 UNL     1      -9.704   3.144  -7.703  1.00  0.00     0.034 C 
HETATM   22  C13 UNL     1      -9.254   3.764  -8.999  1.00  0.00     0.003 C 
HETATM   23  C14 UNL     1      -9.893   2.966 -10.113  1.00  0.00     0.003 C 
HETATM   24  C15 UNL     1     -11.360   3.338 -10.173  1.00  0.00     0.035 C 
HETATM   25  C16 UNL     1     -11.820   3.677  -8.777  1.00  0.00     0.162 C 
BRANCH  25  26
HETATM   26  O5  UNL     1     -13.202   3.794  -8.646  1.00  0.00    -0.296 OA
BRANCH  26  27
HETATM   27  C17 UNL     1     -13.858   5.009  -8.695  1.00  0.00     0.362 C 
HETATM   28  O6  UNL     1     -13.124   6.040  -8.697  1.00  0.00    -0.238 OA
HETATM   29  N2  UNL     1     -15.286   5.107  -8.741  1.00  0.00    -0.337 N 
HETATM   30  C18 UNL     1     -15.879   6.423  -8.786  1.00  0.00     0.154 C 
HETATM   31  C19 UNL     1     -16.072   3.909  -8.740  1.00  0.00     0.154 C 
ENDBRANCH  26  27
ENDBRANCH  25  26
ENDBRANCH  19  20
ENDBRANCH  11  19
BRANCH  12  32
HETATM   32  O7  UNL     1     -12.457  -0.974  -8.888  1.00  0.00    -0.385 OA
HETATM   33  C21 UNL     1     -13.115  -0.442  -9.995  1.00  0.00     0.202 C 
ENDBRANCH  12  32
ENDBRANCH   6   7
ENDBRANCH   4   6
ENDBRANCH   3   4
TORSDOF 11
ENDMDL
MODEL 3
REMARK VINA RESULT: -5.997171282      3.843      6.896
REMARK  11 active torsions:
REMARK  status: ('A' for Active; 'I' for Inactive)
REMARK    1  A    between atoms: C3_3  and  N1_4 
REMARK    2  A    between atoms: N1_4  and  C5_6 
REMARK    3  A    between atoms: C5_6  and  C6_7 
REMARK    4  A    between atoms: C6_7  and  O1_8 
REMARK    5  A    between atoms: C8_11  and  O2_12 
REMARK    6  A    between atoms: C9_14  and  O3_15 
REMARK    7  A    between atoms: C10_17  and  O4_18 
REMARK    8  A    between atoms: O4_18  and  C11_19 
REMARK    9  A    between atoms: C16_24  and  O5_25 
REMARK   10  A    between atoms: O5_25  and  C17_26 
REMARK       I    between atoms: C17_26  and  N2_28 
REMARK   11  A    between atoms: C20_31  and  O7_32 
ROOT
HETATM    1  C1  UNL     1     -15.533  -1.768  -5.488  1.00  0.00     0.018 C 
HETATM    2  C2  UNL     1     -14.797  -2.712  -5.495  1.00  0.00    -0.072 C 
HETATM    3  C3  UNL     1     -13.876  -3.868  -5.493  1.00  0.00     0.153 C 
ENDROOT
BRANCH   3   4
HETATM    4  N1  UNL     1     -12.562  -3.380  -5.516  1.00  0.00    -0.364 N 
HETATM    5  C4  UNL     1     -11.700  -3.921  -4.545  1.00  0.00     0.155 C 
BRANCH   4   6
HETATM    6  C5  UNL     1     -12.072  -2.536  -6.492  1.00  0.00     0.104 C 
BRANCH   6   7
HETATM    7  C6  UNL     1     -11.457  -1.211  -6.009  1.00  0.00     0.120 C 
HETATM    8  C7  UNL     1     -10.030  -1.325  -5.693  1.00  0.00     0.080 C 
HETATM    9  C8  UNL     1      -9.033  -0.727  -6.605  1.00  0.00     0.152 C 
HETATM   10  C9  UNL     1      -9.593  -0.162  -7.881  1.00  0.00     0.178 C 
HETATM   11  C10 UNL     1     -10.752   0.713  -7.495  1.00  0.00     0.185 C 
HETATM   12  C20 UNL     1     -11.870  -0.140  -6.991  1.00  0.00     0.192 C 
BRANCH   7  13
HETATM   13  O1  UNL     1     -12.130  -0.943  -4.807  1.00  0.00    -0.382 OA
ATOM     14  H1  UNL     1     -11.617  -0.250  -4.406  1.00  0.00     0.211 HD
ENDBRANCH   7  13
BRANCH   9  15
HETATM   15  O2  UNL     1      -7.978  -1.593  -6.936  1.00  0.00    -0.393 OA
ATOM     16  H2  UNL     1      -7.798  -1.639  -7.868  1.00  0.00     0.210 HD
ENDBRANCH   9  15
BRANCH  10  17
HETATM   17  O3  UNL     1      -9.860  -1.100  -8.850  1.00  0.00    -0.390 OA
ATOM     18  H3  UNL     1     -10.559  -0.860  -9.447  1.00  0.00     0.210 HD
ENDBRANCH  10  17
BRANCH  11  19
HETATM   19  O4  UNL     1     -11.141   1.613  -8.408  1.00  0.00    -0.373 OA
BRANCH  19  20
HETATM   20  C11 UNL     1     -11.069   2.934  -8.118  1.00  0.00     0.152 C 
HETATM   21  C12 UNL     1      -9.675   3.339  -7.603  1.00  0.00     0.034 C 
HETATM   22  C13 UNL     1      -8.825   3.883  -8.720  1.00  0.00     0.003 C 
HETATM   23  C14 UNL     1      -9.069   3.005  -9.926  1.00  0.00     0.003 C 
HETATM   24  C15 UNL     1     -10.435   3.347 -10.484  1.00  0.00     0.035 C 
HETATM   25  C16 UNL     1     -11.322   3.767  -9.340  1.00  0.00     0.162 C 
BRANCH  25  26
HETATM   26  O5  UNL     1     -12.672   3.868  -9.675  1.00  0.00    -0.296 OA
BRANCH  26  27
HETATM   27  C17 UNL     1     -13.501   4.839  -9.149  1.00  0.00     0.362 C 
HETATM   28  O6  UNL     1     -12.958   5.947  -8.870  1.00  0.00    -0.238 OA
HETATM   29  N2  UNL     1     -14.898   4.615  -8.928  1.00  0.00    -0.337 N 
HETATM   30  C18 UNL     1     -15.683   5.692  -8.371  1.00  0.00     0.154 C 
HETATM   31  C19 UNL     1     -15.467   3.343  -9.264  1.00  0.00     0.154 C 
ENDBRANCH  26  27
ENDBRANCH  25  26
ENDBRANCH  19  20
ENDBRANCH  11  19
BRANCH  12  32
HETATM   32  O7  UNL     1     -12.666  -0.679  -7.999  1.00  0.00    -0.385 OA
HETATM   33  C21 UNL     1     -13.857   0.016  -8.196  1.00  0.00     0.202 C 
ENDBRANCH  12  32
ENDBRANCH   6   7
ENDBRANCH   4   6
ENDBRANCH   3   4
TORSDOF 11
ENDMDL
MODEL 4
REMARK VINA RESULT: -5.733524310      2.581      4.047
REMARK  11 active torsions:
REMARK  status: ('A' for Active; 'I' for Inactive)
REMARK    1  A    between atoms: C3_3  and  N1_4 
REMARK    2  A    between atoms: N1_4  and  C5_6 
REMARK    3  A    between atoms: C5_6  and  C6_7 
REMARK    4  A    between atoms: C6_7  and  O1_8 
REMARK    5  A    between atoms: C8_11  and  O2_12 
REMARK    6  A    between atoms: C9_14  and  O3_15 
REMARK    7  A    between atoms: C10_17  and  O4_18 
REMARK    8  A    between atoms: O4_18  and  C11_19 
REMARK    9  A    between atoms: C16_24  and  O5_25 
REMARK   10  A    between atoms: O5_25  and  C17_26 
REMARK       I    between atoms: C17_26  and  N2_28 
REMARK   11  A    between atoms: C20_31  and  O7_32 
ROOT
HETATM    1  C1  UNL     1      -7.952   3.101 -14.381  1.00  0.00     0.018 C 
HETATM    2  C2  UNL     1      -7.549   2.379 -13.516  1.00  0.00    -0.072 C 
HETATM    3  C3  UNL     1      -7.064   1.494 -12.436  1.00  0.00     0.153 C 
ENDROOT
BRANCH   3   4
HETATM    4  N1  UNL     1      -7.140   2.199 -11.227  1.00  0.00    -0.364 N 
HETATM    5  C4  UNL     1      -5.913   2.403 -10.570  1.00  0.00     0.155 C 
BRANCH   4   6
HETATM    6  C5  UNL     1      -8.294   2.788 -10.751  1.00  0.00     0.104 C 
BRANCH   6   7
HETATM    7  C6  UNL     1      -9.136   1.956  -9.769  1.00  0.00     0.120 C 
HETATM    8  C7  UNL     1      -9.020   2.417  -8.382  1.00  0.00     0.080 C 
HETATM    9  C8  UNL     1     -10.150   3.137  -7.758  1.00  0.00     0.152 C 
HETATM   10  C9  UNL     1     -11.293   3.456  -8.683  1.00  0.00     0.178 C 
HETATM   11  C10 UNL     1     -11.631   2.184  -9.409  1.00  0.00     0.185 C 
HETATM   12  C20 UNL     1     -10.524   1.842 -10.352  1.00  0.00     0.192 C 
BRANCH   7  13
HETATM   13  O1  UNL     1      -8.562   0.676  -9.830  1.00  0.00    -0.382 OA
ATOM     14  H1  UNL     1      -9.177   0.126  -9.358  1.00  0.00     0.211 HD
ENDBRANCH   7  13
BRANCH   9  15
HETATM   15  O2  UNL     1      -9.775   4.321  -7.103  1.00  0.00    -0.393 OA
ATOM     16  H2  UNL     1     -10.307   5.073  -7.336  1.00  0.00     0.210 HD
ENDBRANCH   9  15
BRANCH  10  17
HETATM   17  O3  UNL     1     -11.086   4.553  -9.485  1.00  0.00    -0.390 OA
ATOM     18  H3  UNL     1     -11.074   4.363 -10.416  1.00  0.00     0.210 HD
ENDBRANCH  10  17
BRANCH  11  19
HETATM   19  O4  UNL     1     -12.845   2.131  -9.972  1.00  0.00    -0.373 OA
BRANCH  19  20
HETATM   20  C11 UNL     1     -13.932   1.907  -9.197  1.00  0.00     0.152 C 
HETATM   21  C12 UNL     1     -15.010   2.991  -9.384  1.00  0.00     0.034 C 
HETATM   22  C13 UNL     1     -16.049   2.554 -10.382  1.00  0.00     0.003 C 
HETATM   23  C14 UNL     1     -15.312   1.877 -11.515  1.00  0.00     0.003 C 
HETATM   24  C15 UNL     1     -14.863   0.514 -11.032  1.00  0.00     0.035 C 
HETATM   25  C16 UNL     1     -14.585   0.603  -9.553  1.00  0.00     0.162 C 
BRANCH  25  26
HETATM   26  O5  UNL     1     -13.928  -0.509  -9.029  1.00  0.00    -0.296 OA
BRANCH  26  27
HETATM   27  C17 UNL     1     -13.858  -0.766  -7.674  1.00  0.00     0.362 C 
HETATM   28  O6  UNL     1     -14.960  -0.812  -7.056  1.00  0.00    -0.238 OA
HETATM   29  N2  UNL     1     -12.612  -0.972  -6.998  1.00  0.00    -0.337 N 
HETATM   30  C18 UNL     1     -12.641  -1.232  -5.577  1.00  0.00     0.154 C 
HETATM   31  C19 UNL     1     -11.390  -0.914  -7.744  1.00  0.00     0.154 C 
ENDBRANCH  26  27
ENDBRANCH  25  26
ENDBRANCH  19  20
ENDBRANCH  11  19
BRANCH  12  32
HETATM   32  O7  UNL     1     -10.599   2.509 -11.572  1.00  0.00    -0.385 OA
HETATM   33  C21 UNL     1     -11.077   1.712 -12.611  1.00  0.00     0.202 C 
ENDBRANCH  12  32
ENDBRANCH   6   7
ENDBRANCH   4   6
ENDBRANCH   3   4
TORSDOF 11
ENDMDL
MODEL 5
REMARK VINA RESULT: -5.694200539      3.702      6.571
REMARK  11 active torsions:
REMARK  status: ('A' for Active; 'I' for Inactive)
REMARK    1  A    between atoms: C3_3  and  N1_4 
REMARK    2  A    between atoms: N1_4  and  C5_6 
REMARK    3  A    between atoms: C5_6  and  C6_7 
REMARK    4  A    between atoms: C6_7  and  O1_8 
REMARK    5  A    between atoms: C8_11  and  O2_12 
REMARK    6  A    between atoms: C9_14  and  O3_15 
REMARK    7  A    between atoms: C10_17  and  O4_18 
REMARK    8  A    between atoms: O4_18  and  C11_19 
REMARK    9  A    between atoms: C16_24  and  O5_25 
REMARK   10  A    between atoms: O5_25  and  C17_26 
REMARK       I    between atoms: C17_26  and  N2_28 
REMARK   11  A    between atoms: C20_31  and  O7_32 
ROOT
HETATM    1  C1  UNL     1     -15.551  -1.775  -5.508  1.00  0.00     0.018 C 
HETATM    2  C2  UNL     1     -14.563  -1.830  -4.833  1.00  0.00    -0.072 C 
HETATM    3  C3  UNL     1     -13.334  -1.892  -4.016  1.00  0.00     0.153 C 
ENDROOT
BRANCH   3   4
HETATM    4  N1  UNL     1     -12.294  -2.367  -4.826  1.00  0.00    -0.364 N 
HETATM    5  C4  UNL     1     -11.473  -3.349  -4.242  1.00  0.00     0.155 C 
BRANCH   4   6
HETATM    6  C5  UNL     1     -12.137  -2.027  -6.155  1.00  0.00     0.104 C 
BRANCH   6   7
HETATM    7  C6  UNL     1     -11.274  -0.787  -6.449  1.00  0.00     0.120 C 
HETATM    8  C7  UNL     1      -9.842  -1.026  -6.250  1.00  0.00     0.080 C 
HETATM    9  C8  UNL     1      -8.954  -1.144  -7.425  1.00  0.00     0.152 C 
HETATM   10  C9  UNL     1      -9.653  -1.145  -8.756  1.00  0.00     0.178 C 
HETATM   11  C10 UNL     1     -10.598   0.023  -8.749  1.00  0.00     0.185 C 
HETATM   12  C20 UNL     1     -11.711  -0.244  -7.789  1.00  0.00     0.192 C 
BRANCH   7  13
HETATM   13  O1  UNL     1     -11.679   0.145  -5.481  1.00  0.00    -0.382 OA
ATOM     14  H1  UNL     1     -10.862   0.500  -5.148  1.00  0.00     0.211 HD
ENDBRANCH   7  13
BRANCH   9  15
HETATM   15  O2  UNL     1      -8.100  -2.259  -7.380  1.00  0.00    -0.393 OA
ATOM     16  H2  UNL     1      -8.557  -3.090  -7.342  1.00  0.00     0.210 HD
ENDBRANCH   9  15
BRANCH  10  17
HETATM   17  O3  UNL     1     -10.212  -2.351  -9.105  1.00  0.00    -0.390 OA
ATOM     18  H3  UNL     1      -9.968  -2.662  -9.969  1.00  0.00     0.210 HD
ENDBRANCH  10  17
BRANCH  11  19
HETATM   19  O4  UNL     1     -11.021   0.447  -9.948  1.00  0.00    -0.373 OA
BRANCH  19  20
HETATM   20  C11 UNL     1     -10.795   1.728 -10.322  1.00  0.00     0.152 C 
HETATM   21  C12 UNL     1      -9.946   1.816 -11.604  1.00  0.00     0.034 C 
HETATM   22  C13 UNL     1     -10.820   1.969 -12.821  1.00  0.00     0.003 C 
HETATM   23  C14 UNL     1     -11.997   1.038 -12.637  1.00  0.00     0.003 C 
HETATM   24  C15 UNL     1     -12.921   1.653 -11.606  1.00  0.00     0.035 C 
HETATM   25  C16 UNL     1     -12.084   2.435 -10.625  1.00  0.00     0.162 C 
BRANCH  25  26
HETATM   26  O5  UNL     1     -12.776   2.843  -9.486  1.00  0.00    -0.296 OA
BRANCH  26  27
HETATM   27  C17 UNL     1     -13.069   4.167  -9.225  1.00  0.00     0.362 C 
HETATM   28  O6  UNL     1     -12.091   4.968  -9.237  1.00  0.00    -0.238 OA
HETATM   29  N2  UNL     1     -14.402   4.617  -8.954  1.00  0.00    -0.337 N 
HETATM   30  C18 UNL     1     -14.607   6.022  -8.688  1.00  0.00     0.154 C 
HETATM   31  C19 UNL     1     -15.477   3.669  -8.955  1.00  0.00     0.154 C 
ENDBRANCH  26  27
ENDBRANCH  25  26
ENDBRANCH  19  20
ENDBRANCH  11  19
BRANCH  12  32
HETATM   32  O7  UNL     1     -12.739  -1.019  -8.321  1.00  0.00    -0.385 OA
HETATM   33  C21 UNL     1     -13.933  -0.319  -8.483  1.00  0.00     0.202 C 
ENDBRANCH  12  32
ENDBRANCH   6   7
ENDBRANCH   4   6
ENDBRANCH   3   4
TORSDOF 11
ENDMDL
