MODEL 1
REMARK VINA RESULT: -7.006708529      0.000      0.000
REMARK  9 active torsions:
REMARK  status: ('A' for Active; 'I' for Inactive)
REMARK    1  A    between atoms: C3_3  and  N1_4 
REMARK    2  A    between atoms: N1_4  and  C4_6 
REMARK    3  A    between atoms: N3_10  and  C6_12 
REMARK    4  A    between atoms: N5_21  and  C12_22 
REMARK    5  A    between atoms: C14_24  and  C15_25 
REMARK    6  A    between atoms: C15_25  and  O2_26 
REMARK    7  A    between atoms: O2_26  and  C16_27 
REMARK    8  A    between atoms: C19_30  and  C20_31 
REMARK    9  A    between atoms: C20_31  and  O3_32 
ROOT
HETATM    1  C1  UNL     1      -8.398   3.692  -8.245  1.00  0.00     0.014 C 
HETATM    2  C2  UNL     1      -9.476   3.571  -7.729  1.00  0.00    -0.097 C 
HETATM    3  C3  UNL     1     -10.780   3.405  -7.089  1.00  0.00     0.231 C 
ENDROOT
BRANCH   3   4
HETATM    4  N1  UNL     1     -11.287   2.093  -7.390  1.00  0.00    -0.216 N 
ATOM      5  H1  UNL     1     -11.012   1.302  -6.808  1.00  0.00     0.178 HD
BRANCH   4   6
HETATM    6  C4  UNL     1     -12.085   1.904  -8.386  1.00  0.00     0.682 A 
HETATM    7  N2  UNL     1     -11.739   1.068  -9.373  1.00  0.00    -0.175 N 
HETATM    8  C5  UNL     1     -12.529   0.817 -10.458  1.00  0.00     0.148 A 
ATOM      9  H2  UNL     1     -10.837   0.594  -9.312  1.00  0.00     0.186 HD
HETATM   10  N3  UNL     1     -12.156   0.022 -11.360  1.00  0.00    -0.367 N 
HETATM   11  C10 UNL     1     -13.752   1.492 -10.494  1.00  0.00     0.123 A 
ATOM     12  H3  UNL     1     -11.241  -0.401 -11.211  1.00  0.00     0.161 HD
HETATM   13  N4  UNL     1     -14.767   1.511 -11.362  1.00  0.00    -0.346 N 
HETATM   14  C21 UNL     1     -14.108   2.356  -9.472  1.00  0.00     0.157 A 
HETATM   15  C11 UNL     1     -15.716   2.326 -10.939  1.00  0.00     0.188 A 
ATOM     16  H4  UNL     1     -14.803   0.973 -12.228  1.00  0.00     0.167 HD
HETATM   17  N5  UNL     1     -15.319   2.853  -9.773  1.00  0.00    -0.299 N 
HETATM   18  N6  UNL     1     -13.273   2.549  -8.436  1.00  0.00    -0.174 N 
ATOM     19  H6  UNL     1     -13.537   3.186  -7.684  1.00  0.00     0.186 HD
BRANCH  10  20
HETATM   20  C6  UNL     1     -12.810  -0.371 -12.544  1.00  0.00     0.109 C 
HETATM   21  C7  UNL     1     -12.264  -1.739 -13.027  1.00  0.00     0.053 C 
HETATM   22  C8  UNL     1     -12.668  -1.657 -14.485  1.00  0.00     0.169 C 
HETATM   23  O1  UNL     1     -12.566  -0.350 -14.869  1.00  0.00    -0.389 OA
HETATM   24  C9  UNL     1     -12.419   0.446 -13.758  1.00  0.00     0.192 C 
ENDBRANCH  10  20
BRANCH  17  25
HETATM   25  C12 UNL     1     -16.096   3.816  -8.968  1.00  0.00     0.231 C 
HETATM   26  C13 UNL     1     -16.973   4.695  -9.788  1.00  0.00     0.061 C 
HETATM   27  C14 UNL     1     -16.900   6.163  -9.435  1.00  0.00     0.016 C 
HETATM   28  C18 UNL     1     -15.523   6.672  -9.184  1.00  0.00     0.041 C 
HETATM   29  C19 UNL     1     -14.585   5.565  -8.750  1.00  0.00     0.148 C 
HETATM   30  O4  UNL     1     -15.232   4.518  -8.150  1.00  0.00    -0.359 OA
BRANCH  27  31
HETATM   31  C15 UNL     1     -17.769   6.471  -8.215  1.00  0.00     0.172 C 
BRANCH  31  32
HETATM   32  O2  UNL     1     -17.405   7.745  -7.788  1.00  0.00    -0.391 OA
BRANCH  32  33
HETATM   33  C16 UNL     1     -18.478   8.626  -7.798  1.00  0.00     0.163 C 
HETATM   34  C17 UNL     1     -18.765   9.153  -9.187  1.00  0.00     0.033 C 
ENDBRANCH  32  33
ENDBRANCH  31  32
ENDBRANCH  27  31
BRANCH  29  35
HETATM   35  C20 UNL     1     -13.591   6.124  -7.734  1.00  0.00     0.196 C 
BRANCH  35  36
HETATM   36  O3  UNL     1     -13.583   7.500  -7.721  1.00  0.00    -0.398 OA
ATOM     37  H3  UNL     1     -13.899   7.851  -6.897  1.00  0.00     0.209 HD
ENDBRANCH  35  36
ENDBRANCH  29  35
ENDBRANCH  17  25
ENDBRANCH   4   6
ENDBRANCH   3   4
TORSDOF 9
ENDMDL
MODEL 2
REMARK VINA RESULT: -6.887206270      1.097      1.560
REMARK  9 active torsions:
REMARK  status: ('A' for Active; 'I' for Inactive)
REMARK    1  A    between atoms: C3_3  and  N1_4 
REMARK    2  A    between atoms: N1_4  and  C4_6 
REMARK    3  A    between atoms: N3_10  and  C6_12 
REMARK    4  A    between atoms: N5_21  and  C12_22 
REMARK    5  A    between atoms: C14_24  and  C15_25 
REMARK    6  A    between atoms: C15_25  and  O2_26 
REMARK    7  A    between atoms: O2_26  and  C16_27 
REMARK    8  A    between atoms: C19_30  and  C20_31 
REMARK    9  A    between atoms: C20_31  and  O3_32 
ROOT
HETATM    1  C1  UNL     1     -11.942  -1.002  -5.223  1.00  0.00     0.014 C 
HETATM    2  C2  UNL     1     -11.333  -0.348  -6.026  1.00  0.00    -0.097 C 
HETATM    3  C3  UNL     1     -10.595   0.469  -6.987  1.00  0.00     0.231 C 
ENDROOT
BRANCH   3   4
HETATM    4  N1  UNL     1     -11.409   1.589  -7.376  1.00  0.00    -0.216 N 
ATOM      5  H1  UNL     1     -11.382   2.445  -6.824  1.00  0.00     0.178 HD
BRANCH   4   6
HETATM    6  C4  UNL     1     -12.171   1.523  -8.415  1.00  0.00     0.682 A 
HETATM    7  N2  UNL     1     -11.832   0.740  -9.447  1.00  0.00    -0.175 N 
HETATM    8  C5  UNL     1     -12.587   0.618 -10.579  1.00  0.00     0.148 A 
ATOM      9  H2  UNL     1     -10.964   0.207  -9.386  1.00  0.00     0.186 HD
HETATM   10  N3  UNL     1     -12.223  -0.131 -11.521  1.00  0.00    -0.367 N 
HETATM   11  C10 UNL     1     -13.764   1.369 -10.613  1.00  0.00     0.123 A 
ATOM     12  H3  UNL     1     -11.343  -0.622 -11.368  1.00  0.00     0.161 HD
HETATM   13  N4  UNL     1     -14.737   1.515 -11.517  1.00  0.00    -0.346 N 
HETATM   14  C21 UNL     1     -14.113   2.178  -9.544  1.00  0.00     0.157 A 
HETATM   15  C11 UNL     1     -15.654   2.356 -11.072  1.00  0.00     0.188 A 
ATOM     16  H4  UNL     1     -14.767   1.044 -12.422  1.00  0.00     0.167 HD
HETATM   17  N5  UNL     1     -15.278   2.771  -9.856  1.00  0.00    -0.299 N 
HETATM   18  N6  UNL     1     -13.315   2.244  -8.464  1.00  0.00    -0.174 N 
ATOM     19  H6  UNL     1     -13.573   2.840  -7.678  1.00  0.00     0.186 HD
BRANCH  10  20
HETATM   20  C6  UNL     1     -12.846  -0.397 -12.757  1.00  0.00     0.109 C 
HETATM   21  C7  UNL     1     -12.412  -1.787 -13.288  1.00  0.00     0.053 C 
HETATM   22  C8  UNL     1     -12.724  -1.591 -14.757  1.00  0.00     0.169 C 
HETATM   23  O1  UNL     1     -12.472  -0.284 -15.062  1.00  0.00    -0.389 OA
HETATM   24  C9  UNL     1     -12.309   0.436 -13.902  1.00  0.00     0.192 C 
ENDBRANCH  10  20
BRANCH  17  25
HETATM   25  C12 UNL     1     -16.031   3.721  -9.013  1.00  0.00     0.231 C 
HETATM   26  C13 UNL     1     -16.961   4.586  -9.788  1.00  0.00     0.061 C 
HETATM   27  C14 UNL     1     -16.895   6.054  -9.437  1.00  0.00     0.016 C 
HETATM   28  C18 UNL     1     -15.517   6.586  -9.252  1.00  0.00     0.041 C 
HETATM   29  C19 UNL     1     -14.540   5.495  -8.866  1.00  0.00     0.148 C 
HETATM   30  O4  UNL     1     -15.139   4.437  -8.237  1.00  0.00    -0.359 OA
BRANCH  27  31
HETATM   31  C15 UNL     1     -17.709   6.347  -8.176  1.00  0.00     0.172 C 
BRANCH  31  32
HETATM   32  O2  UNL     1     -17.394   7.651  -7.802  1.00  0.00    -0.391 OA
BRANCH  32  33
HETATM   33  C16 UNL     1     -18.510   8.475  -7.789  1.00  0.00     0.163 C 
HETATM   34  C17 UNL     1     -18.724   9.161  -9.120  1.00  0.00     0.033 C 
ENDBRANCH  32  33
ENDBRANCH  31  32
ENDBRANCH  27  31
BRANCH  29  35
HETATM   35  C20 UNL     1     -13.507   6.069  -7.899  1.00  0.00     0.196 C 
BRANCH  35  36
HETATM   36  O3  UNL     1     -13.626   7.434  -7.766  1.00  0.00    -0.398 OA
ATOM     37  H3  UNL     1     -13.415   7.891  -8.571  1.00  0.00     0.209 HD
ENDBRANCH  35  36
ENDBRANCH  29  35
ENDBRANCH  17  25
ENDBRANCH   4   6
ENDBRANCH   3   4
TORSDOF 9
ENDMDL
MODEL 3
REMARK VINA RESULT: -6.790477711      2.945      7.988
REMARK  9 active torsions:
REMARK  status: ('A' for Active; 'I' for Inactive)
REMARK    1  A    between atoms: C3_3  and  N1_4 
REMARK    2  A    between atoms: N1_4  and  C4_6 
REMARK    3  A    between atoms: N3_10  and  C6_12 
REMARK    4  A    between atoms: N5_21  and  C12_22 
REMARK    5  A    between atoms: C14_24  and  C15_25 
REMARK    6  A    between atoms: C15_25  and  O2_26 
REMARK    7  A    between atoms: O2_26  and  C16_27 
REMARK    8  A    between atoms: C19_30  and  C20_31 
REMARK    9  A    between atoms: C20_31  and  O3_32 
ROOT
HETATM    1  C1  UNL     1     -15.184   1.979 -14.871  1.00  0.00     0.014 C 
HETATM    2  C2  UNL     1     -14.578   1.285 -14.100  1.00  0.00    -0.097 C 
HETATM    3  C3  UNL     1     -13.862   0.429 -13.157  1.00  0.00     0.231 C 
ENDROOT
BRANCH   3   4
HETATM    4  N1  UNL     1     -14.509   0.497 -11.874  1.00  0.00    -0.216 N 
ATOM      5  H1  UNL     1     -15.090  -0.281 -11.561  1.00  0.00     0.178 HD
BRANCH   4   6
HETATM    6  C4  UNL     1     -14.365   1.530 -11.115  1.00  0.00     0.682 A 
HETATM    7  N2  UNL     1     -15.399   2.354 -10.900  1.00  0.00    -0.175 N 
HETATM    8  C5  UNL     1     -15.325   3.465 -10.110  1.00  0.00     0.148 A 
ATOM      9  H2  UNL     1     -16.289   2.140 -11.350  1.00  0.00     0.186 HD
HETATM   10  N3  UNL     1     -16.326   4.207  -9.941  1.00  0.00    -0.367 N 
HETATM   11  C10 UNL     1     -14.084   3.712  -9.517  1.00  0.00     0.123 A 
ATOM     12  H3  UNL     1     -17.169   3.913 -10.432  1.00  0.00     0.161 HD
HETATM   13  N4  UNL     1     -13.626   4.669  -8.705  1.00  0.00    -0.346 N 
HETATM   14  C21 UNL     1     -13.016   2.859  -9.741  1.00  0.00     0.157 A 
HETATM   15  C11 UNL     1     -12.354   4.456  -8.418  1.00  0.00     0.188 A 
ATOM     16  H4  UNL     1     -14.180   5.451  -8.356  1.00  0.00     0.167 HD
HETATM   17  N5  UNL     1     -11.968   3.342  -9.053  1.00  0.00    -0.299 N 
HETATM   18  N6  UNL     1     -13.171   1.784 -10.533  1.00  0.00    -0.174 N 
ATOM     19  H6  UNL     1     -12.383   1.157 -10.697  1.00  0.00     0.186 HD
BRANCH  10  20
HETATM   20  C6  UNL     1     -16.461   5.383  -9.177  1.00  0.00     0.109 C 
HETATM   21  C7  UNL     1     -17.594   5.216  -8.132  1.00  0.00     0.053 C 
HETATM   22  C8  UNL     1     -17.898   6.678  -7.872  1.00  0.00     0.169 C 
HETATM   23  O1  UNL     1     -17.714   7.353  -9.045  1.00  0.00    -0.389 OA
HETATM   24  C9  UNL     1     -17.059   6.544  -9.944  1.00  0.00     0.192 C 
ENDBRANCH  10  20
BRANCH  17  25
HETATM   25  C12 UNL     1     -10.614   2.758  -8.993  1.00  0.00     0.231 C 
HETATM   26  C13 UNL     1      -9.714   3.454  -8.035  1.00  0.00     0.061 C 
HETATM   27  C14 UNL     1      -8.340   3.774  -8.578  1.00  0.00     0.016 C 
HETATM   28  C18 UNL     1      -8.332   4.296  -9.973  1.00  0.00     0.041 C 
HETATM   29  C19 UNL     1      -9.557   3.854 -10.746  1.00  0.00     0.148 C 
HETATM   30  O4  UNL     1     -10.098   2.688 -10.273  1.00  0.00    -0.359 OA
BRANCH  27  31
HETATM   31  C15 UNL     1      -7.430   2.547  -8.507  1.00  0.00     0.172 C 
BRANCH  31  32
HETATM   32  O2  UNL     1      -6.545   2.656  -9.575  1.00  0.00    -0.391 OA
BRANCH  32  33
HETATM   33  C16 UNL     1      -6.140   1.415 -10.047  1.00  0.00     0.163 C 
HETATM   34  C17 UNL     1      -7.304   0.597 -10.562  1.00  0.00     0.033 C 
ENDBRANCH  32  33
ENDBRANCH  31  32
ENDBRANCH  27  31
BRANCH  29  35
HETATM   35  C20 UNL     1      -9.167   3.612 -12.203  1.00  0.00     0.196 C 
BRANCH  35  36
HETATM   36  O3  UNL     1      -8.200   4.493 -12.632  1.00  0.00    -0.398 OA
ATOM     37  H3  UNL     1      -7.441   4.044 -12.987  1.00  0.00     0.209 HD
ENDBRANCH  35  36
ENDBRANCH  29  35
ENDBRANCH  17  25
ENDBRANCH   4   6
ENDBRANCH   3   4
TORSDOF 9
ENDMDL
MODEL 4
REMARK VINA RESULT: -6.788566204      2.742      7.977
REMARK  9 active torsions:
REMARK  status: ('A' for Active; 'I' for Inactive)
REMARK    1  A    between atoms: C3_3  and  N1_4 
REMARK    2  A    between atoms: N1_4  and  C4_6 
REMARK    3  A    between atoms: N3_10  and  C6_12 
REMARK    4  A    between atoms: N5_21  and  C12_22 
REMARK    5  A    between atoms: C14_24  and  C15_25 
REMARK    6  A    between atoms: C15_25  and  O2_26 
REMARK    7  A    between atoms: O2_26  and  C16_27 
REMARK    8  A    between atoms: C19_30  and  C20_31 
REMARK    9  A    between atoms: C20_31  and  O3_32 
ROOT
HETATM    1  C1  UNL     1     -15.607   1.643 -14.405  1.00  0.00     0.014 C 
HETATM    2  C2  UNL     1     -15.411   1.622 -13.220  1.00  0.00    -0.097 C 
HETATM    3  C3  UNL     1     -15.195   1.586 -11.775  1.00  0.00     0.231 C 
ENDROOT
BRANCH   3   4
HETATM    4  N1  UNL     1     -16.267   2.287 -11.122  1.00  0.00    -0.216 N 
ATOM      5  H1  UNL     1     -17.229   1.979 -11.262  1.00  0.00     0.178 HD
BRANCH   4   6
HETATM    6  C4  UNL     1     -16.027   3.301 -10.361  1.00  0.00     0.682 A 
HETATM    7  N2  UNL     1     -16.995   4.191 -10.105  1.00  0.00    -0.175 N 
HETATM    8  C5  UNL     1     -16.819   5.287  -9.311  1.00  0.00     0.148 A 
ATOM      9  H2  UNL     1     -17.912   4.042 -10.526  1.00  0.00     0.186 HD
HETATM   10  N3  UNL     1     -17.761   6.094  -9.103  1.00  0.00    -0.367 N 
HETATM   11  C10 UNL     1     -15.544   5.446  -8.760  1.00  0.00     0.123 A 
ATOM     12  H3  UNL     1     -18.639   5.862  -9.566  1.00  0.00     0.161 HD
HETATM   13  N4  UNL     1     -14.996   6.362  -7.958  1.00  0.00    -0.346 N 
HETATM   14  C21 UNL     1     -14.545   4.524  -9.026  1.00  0.00     0.157 A 
HETATM   15  C11 UNL     1     -13.732   6.061  -7.716  1.00  0.00     0.188 A 
ATOM     16  H4  UNL     1     -15.483   7.177  -7.585  1.00  0.00     0.167 HD
HETATM   17  N5  UNL     1     -13.444   4.929  -8.371  1.00  0.00    -0.299 N 
HETATM   18  N6  UNL     1     -14.799   3.469  -9.819  1.00  0.00    -0.174 N 
ATOM     19  H6  UNL     1     -14.062   2.791 -10.014  1.00  0.00     0.186 HD
BRANCH  10  20
HETATM   20  C6  UNL     1     -17.790   7.270  -8.327  1.00  0.00     0.109 C 
HETATM   21  C7  UNL     1     -19.181   7.440  -7.664  1.00  0.00     0.053 C 
HETATM   22  C8  UNL     1     -19.138   8.931  -7.398  1.00  0.00     0.169 C 
HETATM   23  O1  UNL     1     -18.442   9.513  -8.417  1.00  0.00    -0.389 OA
HETATM   24  C9  UNL     1     -17.796   8.543  -9.147  1.00  0.00     0.192 C 
ENDBRANCH  10  20
BRANCH  17  25
HETATM   25  C12 UNL     1     -12.131   4.254  -8.362  1.00  0.00     0.231 C 
HETATM   26  C13 UNL     1     -11.359   4.451  -9.619  1.00  0.00     0.061 C 
HETATM   27  C14 UNL     1     -10.754   3.190 -10.191  1.00  0.00     0.016 C 
HETATM   28  C18 UNL     1     -11.652   2.002 -10.161  1.00  0.00     0.041 C 
HETATM   29  C19 UNL     1     -12.702   2.119  -9.075  1.00  0.00     0.148 C 
HETATM   30  O4  UNL     1     -12.313   2.923  -8.037  1.00  0.00    -0.359 OA
BRANCH  27  31
HETATM   31  C15 UNL     1      -9.451   2.839  -9.472  1.00  0.00     0.172 C 
BRANCH  31  32
HETATM   32  O2  UNL     1      -8.731   4.026  -9.368  1.00  0.00    -0.391 OA
BRANCH  32  33
HETATM   33  C16 UNL     1      -7.869   4.210 -10.440  1.00  0.00     0.163 C 
HETATM   34  C17 UNL     1      -7.679   5.675 -10.769  1.00  0.00     0.033 C 
ENDBRANCH  32  33
ENDBRANCH  31  32
ENDBRANCH  27  31
BRANCH  29  35
HETATM   35  C20 UNL     1     -12.975   0.733  -8.494  1.00  0.00     0.196 C 
BRANCH  35  36
HETATM   36  O3  UNL     1     -14.316   0.423  -8.503  1.00  0.00    -0.398 OA
ATOM     37  H3  UNL     1     -14.484  -0.426  -8.894  1.00  0.00     0.209 HD
ENDBRANCH  35  36
ENDBRANCH  29  35
ENDBRANCH  17  25
ENDBRANCH   4   6
ENDBRANCH   3   4
TORSDOF 9
ENDMDL
MODEL 5
REMARK VINA RESULT: -6.717702878      2.556      4.744
REMARK  9 active torsions:
REMARK  status: ('A' for Active; 'I' for Inactive)
REMARK    1  A    between atoms: C3_3  and  N1_4 
REMARK    2  A    between atoms: N1_4  and  C4_6 
REMARK    3  A    between atoms: N3_10  and  C6_12 
REMARK    4  A    between atoms: N5_21  and  C12_22 
REMARK    5  A    between atoms: C14_24  and  C15_25 
REMARK    6  A    between atoms: C15_25  and  O2_26 
REMARK    7  A    between atoms: O2_26  and  C16_27 
REMARK    8  A    between atoms: C19_30  and  C20_31 
REMARK    9  A    between atoms: C20_31  and  O3_32 
ROOT
HETATM    1  C1  UNL     1     -16.267   3.562 -16.141  1.00  0.00     0.014 C 
HETATM    2  C2  UNL     1     -15.918   2.524 -15.649  1.00  0.00    -0.097 C 
HETATM    3  C3  UNL     1     -15.518   1.254 -15.046  1.00  0.00     0.231 C 
ENDROOT
BRANCH   3   4
HETATM    4  N1  UNL     1     -16.087   1.159 -13.728  1.00  0.00    -0.216 N 
ATOM      5  H1  UNL     1     -17.097   1.076 -13.622  1.00  0.00     0.178 HD
BRANCH   4   6
HETATM    6  C4  UNL     1     -15.334   1.177 -12.680  1.00  0.00     0.682 A 
HETATM    7  N2  UNL     1     -14.547   0.130 -12.401  1.00  0.00    -0.175 N 
HETATM    8  C5  UNL     1     -13.724   0.076 -11.314  1.00  0.00     0.148 A 
ATOM      9  H2  UNL     1     -14.563  -0.669 -13.035  1.00  0.00     0.186 HD
HETATM   10  N3  UNL     1     -13.004  -0.933 -11.096  1.00  0.00    -0.367 N 
HETATM   11  C10 UNL     1     -13.740   1.195 -10.478  1.00  0.00     0.123 A 
ATOM     12  H3  UNL     1     -13.090  -1.680 -11.784  1.00  0.00     0.161 HD
HETATM   13  N4  UNL     1     -13.097   1.511  -9.350  1.00  0.00    -0.346 N 
HETATM   14  C21 UNL     1     -14.555   2.277 -10.768  1.00  0.00     0.157 A 
HETATM   15  C11 UNL     1     -13.464   2.711  -8.935  1.00  0.00     0.188 A 
ATOM     16  H4  UNL     1     -12.420   0.912  -8.878  1.00  0.00     0.167 HD
HETATM   17  N5  UNL     1     -14.364   3.192  -9.802  1.00  0.00    -0.299 N 
HETATM   18  N6  UNL     1     -15.338   2.253 -11.861  1.00  0.00    -0.174 N 
ATOM     19  H6  UNL     1     -15.937   3.051 -12.073  1.00  0.00     0.186 HD
BRANCH  10  20
HETATM   20  C6  UNL     1     -12.098  -1.187 -10.048  1.00  0.00     0.109 C 
HETATM   21  C7  UNL     1     -10.647  -1.227 -10.592  1.00  0.00     0.053 C 
HETATM   22  C8  UNL     1      -9.996  -2.025  -9.481  1.00  0.00     0.169 C 
HETATM   23  O1  UNL     1     -10.916  -2.926  -9.026  1.00  0.00    -0.389 OA
HETATM   24  C9  UNL     1     -12.158  -2.606  -9.520  1.00  0.00     0.192 C 
ENDBRANCH  10  20
BRANCH  17  25
HETATM   25  C12 UNL     1     -15.022   4.509  -9.699  1.00  0.00     0.231 C 
HETATM   26  C13 UNL     1     -14.515   5.333  -8.569  1.00  0.00     0.061 C 
HETATM   27  C14 UNL     1     -15.592   5.975  -7.725  1.00  0.00     0.016 C 
HETATM   28  C18 UNL     1     -16.746   5.086  -7.413  1.00  0.00     0.041 C 
HETATM   29  C19 UNL     1     -16.906   3.989  -8.444  1.00  0.00     0.148 C 
HETATM   30  O4  UNL     1     -16.392   4.325  -9.668  1.00  0.00    -0.359 OA
BRANCH  27  31
HETATM   31  C15 UNL     1     -16.117   7.247  -8.389  1.00  0.00     0.172 C 
BRANCH  31  32
HETATM   32  O2  UNL     1     -17.493   7.258  -8.180  1.00  0.00    -0.391 OA
BRANCH  32  33
HETATM   33  C16 UNL     1     -17.970   8.532  -7.902  1.00  0.00     0.163 C 
HETATM   34  C17 UNL     1     -18.647   9.158  -9.101  1.00  0.00     0.033 C 
ENDBRANCH  32  33
ENDBRANCH  31  32
ENDBRANCH  27  31
BRANCH  29  35
HETATM   35  C20 UNL     1     -18.393   3.703  -8.643  1.00  0.00     0.196 C 
BRANCH  35  36
HETATM   36  O3  UNL     1     -19.187   4.599  -7.962  1.00  0.00    -0.398 OA
ATOM     37  H3  UNL     1     -19.978   4.812  -8.443  1.00  0.00     0.209 HD
ENDBRANCH  35  36
ENDBRANCH  29  35
ENDBRANCH  17  25
ENDBRANCH   4   6
ENDBRANCH   3   4
TORSDOF 9
ENDMDL
