MODEL 1
REMARK VINA RESULT: -7.405806766      0.000      0.000
REMARK  5 active torsions:
REMARK  status: ('A' for Active; 'I' for Inactive)
REMARK    1  A    between atoms: C5_7  and  C6_8 
REMARK    2  A    between atoms: C6_8  and  N1_9 
REMARK    3  A    between atoms: N1_9  and  C7_12 
REMARK    4  A    between atoms: C7_12  and  C8_13 
REMARK    5  A    between atoms: C9_17  and  C10_18 
ROOT
HETATM    1  N1  UNL     1      24.451   5.994  12.952  1.00  0.00    -0.068 N 
ATOM      2  H11 UNL     1      24.761   6.238  12.012  1.00  0.00     0.277 HD
ATOM      3  H12 UNL     1      23.696   6.673  13.051  1.00  0.00     0.277 HD
ENDROOT
BRANCH   1   4
HETATM    4  C6  UNL     1      25.500   6.217  13.936  1.00  0.00     0.242 C 
BRANCH   4   5
HETATM    5  C5  UNL     1      26.232   7.446  13.406  1.00  0.00     0.067 C 
HETATM    6  C4  UNL     1      27.111   7.229  12.243  1.00  0.00     0.229 C 
HETATM    7  O1  UNL     1      27.105   6.015  11.614  1.00  0.00    -0.363 OA
HETATM    8  N4  UNL     1      26.829   8.251  11.257  1.00  0.00    -0.345 N 
HETATM    9  C3  UNL     1      28.367   5.975  10.954  1.00  0.00     0.215 C 
HETATM   10  C2  UNL     1      28.426   6.988   9.853  1.00  0.00     0.137 C 
HETATM   11  C1  UNL     1      28.234   6.248   8.513  1.00  0.00     0.055 C 
HETATM   12  F1  UNL     1      29.713   7.493   9.819  1.00  0.00    -0.239 F 
HETATM   13  C15 UNL     1      27.465   8.132   9.968  1.00  0.00     0.171 C 
HETATM   14  C14 UNL     1      25.958   9.167  11.855  1.00  0.00     0.078 C 
HETATM   15  C13 UNL     1      25.150   8.407  12.855  1.00  0.00     0.080 C 
HETATM   16  S1  UNL     1      25.850  10.770  11.539  1.00  0.00    -0.065 SA
ENDBRANCH   4   5
ENDBRANCH   1   4
BRANCH   1  17
HETATM   17  C7  UNL     1      23.951   4.624  13.011  1.00  0.00     0.310 C 
BRANCH  17  18
HETATM   18  C8  UNL     1      23.854   4.075  11.641  1.00  0.00     0.129 A 
HETATM   19  N2  UNL     1      22.720   3.801  10.988  1.00  0.00    -0.245 N 
HETATM   20  O2  UNL     1      23.017   3.246   9.834  1.00  0.00    -0.222 OA
ATOM     21  H2  UNL     1      21.778   3.992  11.329  1.00  0.00     0.196 HD
HETATM   22  C9  UNL     1      24.337   3.167   9.746  1.00  0.00     0.152 A 
HETATM   23  N3  UNL     1      24.873   3.684  10.872  1.00  0.00    -0.325 N 
ATOM     24  H3  UNL     1      25.866   3.762  11.092  1.00  0.00     0.169 HD
BRANCH  22  25
HETATM   25  C10 UNL     1      25.063   2.601   8.594  1.00  0.00     0.063 A 
HETATM   26  C11 UNL     1      24.550   2.819   7.213  1.00  0.00     0.013 A 
HETATM   27  C12 UNL     1      25.715   3.617   7.670  1.00  0.00     0.013 A 
ENDBRANCH  22  25
ENDBRANCH  17  18
ENDBRANCH   1  17
TORSDOF 5
ENDMDL
MODEL 2
REMARK VINA RESULT: -7.173886163      1.006      1.288
REMARK  5 active torsions:
REMARK  status: ('A' for Active; 'I' for Inactive)
REMARK    1  A    between atoms: C5_7  and  C6_8 
REMARK    2  A    between atoms: C6_8  and  N1_9 
REMARK    3  A    between atoms: N1_9  and  C7_12 
REMARK    4  A    between atoms: C7_12  and  C8_13 
REMARK    5  A    between atoms: C9_17  and  C10_18 
ROOT
HETATM    1  N1  UNL     1      24.739   6.759  13.892  1.00  0.00    -0.068 N 
ATOM      2  H11 UNL     1      24.665   7.228  12.989  1.00  0.00     0.277 HD
ATOM      3  H12 UNL     1      24.064   7.318  14.415  1.00  0.00     0.277 HD
ENDROOT
BRANCH   1   4
HETATM    4  C6  UNL     1      26.077   6.880  14.450  1.00  0.00     0.242 C 
BRANCH   4   5
HETATM    5  C5  UNL     1      26.684   8.045  13.673  1.00  0.00     0.067 C 
HETATM    6  C4  UNL     1      27.397   7.697  12.431  1.00  0.00     0.229 C 
HETATM    7  O1  UNL     1      27.343   6.414  11.963  1.00  0.00    -0.363 OA
HETATM    8  N4  UNL     1      26.943   8.583  11.379  1.00  0.00    -0.345 N 
HETATM    9  C3  UNL     1      28.500   6.311  11.137  1.00  0.00     0.215 C 
HETATM   10  C2  UNL     1      28.368   7.179   9.923  1.00  0.00     0.137 C 
HETATM   11  C1  UNL     1      28.014   6.273   8.726  1.00  0.00     0.055 C 
HETATM   12  F1  UNL     1      29.619   7.696   9.642  1.00  0.00    -0.239 F 
HETATM   13  C15 UNL     1      27.395   8.312  10.035  1.00  0.00     0.171 C 
HETATM   14  C14 UNL     1      26.135   9.552  11.979  1.00  0.00     0.078 C 
HETATM   15  C13 UNL     1      25.503   8.911  13.171  1.00  0.00     0.080 C 
HETATM   16  S1  UNL     1      25.929  11.101  11.489  1.00  0.00    -0.065 SA
ENDBRANCH   4   5
ENDBRANCH   1   4
BRANCH   1  17
HETATM   17  C7  UNL     1      24.325   5.363  13.804  1.00  0.00     0.310 C 
BRANCH  17  18
HETATM   18  C8  UNL     1      24.292   4.946  12.385  1.00  0.00     0.129 A 
HETATM   19  N2  UNL     1      24.675   5.691  11.343  1.00  0.00    -0.245 N 
HETATM   20  O2  UNL     1      24.424   5.032  10.234  1.00  0.00    -0.222 OA
ATOM     21  H2  UNL     1      25.093   6.620  11.399  1.00  0.00     0.196 HD
HETATM   22  C9  UNL     1      23.886   3.867  10.564  1.00  0.00     0.152 A 
HETATM   23  N3  UNL     1      23.799   3.800  11.909  1.00  0.00    -0.325 N 
ATOM     24  H3  UNL     1      23.428   3.024  12.457  1.00  0.00     0.169 HD
BRANCH  22  25
HETATM   25  C10 UNL     1      23.463   2.839   9.593  1.00  0.00     0.063 A 
HETATM   26  C11 UNL     1      24.238   2.642   8.337  1.00  0.00     0.013 A 
HETATM   27  C12 UNL     1      24.411   1.662   9.437  1.00  0.00     0.013 A 
ENDBRANCH  22  25
ENDBRANCH  17  18
ENDBRANCH   1  17
TORSDOF 5
ENDMDL
MODEL 3
REMARK VINA RESULT: -7.086472095      1.201      1.256
REMARK  5 active torsions:
REMARK  status: ('A' for Active; 'I' for Inactive)
REMARK    1  A    between atoms: C5_7  and  C6_8 
REMARK    2  A    between atoms: C6_8  and  N1_9 
REMARK    3  A    between atoms: N1_9  and  C7_12 
REMARK    4  A    between atoms: C7_12  and  C8_13 
REMARK    5  A    between atoms: C9_17  and  C10_18 
ROOT
HETATM    1  N1  UNL     1      25.435   5.665  13.336  1.00  0.00    -0.068 N 
ATOM      2  H11 UNL     1      25.685   5.587  14.322  1.00  0.00     0.277 HD
ATOM      3  H12 UNL     1      26.287   5.282  12.927  1.00  0.00     0.277 HD
ENDROOT
BRANCH   1   4
HETATM    4  C6  UNL     1      25.232   7.052  12.945  1.00  0.00     0.242 C 
BRANCH   4   5
HETATM    5  C5  UNL     1      26.624   7.665  13.069  1.00  0.00     0.067 C 
HETATM    6  C4  UNL     1      27.619   7.227  12.074  1.00  0.00     0.229 C 
HETATM    7  O1  UNL     1      27.221   6.445  11.026  1.00  0.00    -0.363 OA
HETATM    8  N4  UNL     1      28.280   8.400  11.540  1.00  0.00    -0.345 N 
HETATM    9  C3  UNL     1      28.423   5.798  10.618  1.00  0.00     0.215 C 
HETATM   10  C2  UNL     1      29.387   6.782  10.031  1.00  0.00     0.137 C 
HETATM   11  C1  UNL     1      29.345   6.634   8.496  1.00  0.00     0.055 C 
HETATM   12  F1  UNL     1      30.660   6.395  10.408  1.00  0.00    -0.239 F 
HETATM   13  C15 UNL     1      29.183   8.212  10.429  1.00  0.00     0.171 C 
HETATM   14  C14 UNL     1      27.853   9.493  12.300  1.00  0.00     0.078 C 
HETATM   15  C13 UNL     1      26.472   9.177  12.774  1.00  0.00     0.080 C 
HETATM   16  S1  UNL     1      28.704  10.852  12.629  1.00  0.00    -0.065 SA
ENDBRANCH   4   5
ENDBRANCH   1   4
BRANCH   1  17
HETATM   17  C7  UNL     1      24.271   4.847  13.014  1.00  0.00     0.310 C 
BRANCH  17  18
HETATM   18  C8  UNL     1      24.323   4.452  11.590  1.00  0.00     0.129 A 
HETATM   19  N2  UNL     1      23.280   4.399  10.755  1.00  0.00    -0.245 N 
HETATM   20  O2  UNL     1      23.685   3.925   9.598  1.00  0.00    -0.222 OA
ATOM     21  H2  UNL     1      22.326   4.682  10.979  1.00  0.00     0.196 HD
HETATM   22  C9  UNL     1      24.983   3.677   9.689  1.00  0.00     0.152 A 
HETATM   23  N3  UNL     1      25.396   4.004  10.932  1.00  0.00    -0.325 N 
ATOM     24  H3  UNL     1      26.344   3.924  11.299  1.00  0.00     0.169 HD
BRANCH  22  25
HETATM   25  C10 UNL     1      25.807   3.131   8.594  1.00  0.00     0.063 A 
HETATM   26  C11 UNL     1      25.433   3.404   7.178  1.00  0.00     0.013 A 
HETATM   27  C12 UNL     1      26.562   4.162   7.771  1.00  0.00     0.013 A 
ENDBRANCH  22  25
ENDBRANCH  17  18
ENDBRANCH   1  17
TORSDOF 5
ENDMDL
MODEL 4
REMARK VINA RESULT: -7.031837392      2.557      4.224
REMARK  5 active torsions:
REMARK  status: ('A' for Active; 'I' for Inactive)
REMARK    1  A    between atoms: C5_7  and  C6_8 
REMARK    2  A    between atoms: C6_8  and  N1_9 
REMARK    3  A    between atoms: N1_9  and  C7_12 
REMARK    4  A    between atoms: C7_12  and  C8_13 
REMARK    5  A    between atoms: C9_17  and  C10_18 
ROOT
HETATM    1  N1  UNL     1      27.296   7.608  10.171  1.00  0.00    -0.068 N 
ATOM      2  H11 UNL     1      27.519   8.343   9.500  1.00  0.00     0.277 HD
ATOM      3  H12 UNL     1      26.302   7.506   9.967  1.00  0.00     0.277 HD
ENDROOT
BRANCH   1   4
HETATM    4  C6  UNL     1      27.518   8.048  11.539  1.00  0.00     0.242 C 
BRANCH   4   5
HETATM    5  C5  UNL     1      26.110   8.314  12.062  1.00  0.00     0.067 C 
HETATM    6  C4  UNL     1      25.512   7.252  12.890  1.00  0.00     0.229 C 
HETATM    7  O1  UNL     1      26.279   6.188  13.275  1.00  0.00    -0.363 OA
HETATM    8  N4  UNL     1      24.951   7.859  14.080  1.00  0.00    -0.345 N 
HETATM    9  C3  UNL     1      25.322   5.170  13.556  1.00  0.00     0.215 C 
HETATM   10  C2  UNL     1      24.507   5.523  14.762  1.00  0.00     0.137 C 
HETATM   11  C1  UNL     1      25.034   4.696  15.953  1.00  0.00     0.055 C 
HETATM   12  F1  UNL     1      23.218   5.076  14.539  1.00  0.00    -0.239 F 
HETATM   13  C15 UNL     1      24.456   6.979  15.111  1.00  0.00     0.171 C 
HETATM   14  C14 UNL     1      25.027   9.244  13.907  1.00  0.00     0.078 C 
HETATM   15  C13 UNL     1      26.215   9.508  13.042  1.00  0.00     0.080 C 
HETATM   16  S1  UNL     1      24.004  10.368  14.517  1.00  0.00    -0.065 SA
ENDBRANCH   4   5
ENDBRANCH   1   4
BRANCH   1  17
HETATM   17  C7  UNL     1      28.031   6.381   9.882  1.00  0.00     0.310 C 
BRANCH  17  18
HETATM   18  C8  UNL     1      27.081   5.313   9.502  1.00  0.00     0.129 A 
HETATM   19  N2  UNL     1      26.863   4.868   8.260  1.00  0.00    -0.245 N 
HETATM   20  O2  UNL     1      25.893   3.981   8.291  1.00  0.00    -0.222 OA
ATOM     21  H2  UNL     1      27.367   5.166   7.425  1.00  0.00     0.196 HD
HETATM   22  C9  UNL     1      25.493   3.856   9.548  1.00  0.00     0.152 A 
HETATM   23  N3  UNL     1      26.230   4.685  10.317  1.00  0.00    -0.325 N 
ATOM     24  H3  UNL     1      26.153   4.807  11.326  1.00  0.00     0.169 HD
BRANCH  22  25
HETATM   25  C10 UNL     1      24.416   2.952   9.994  1.00  0.00     0.063 A 
HETATM   26  C11 UNL     1      23.566   2.256   8.988  1.00  0.00     0.013 A 
HETATM   27  C12 UNL     1      24.627   1.480   9.677  1.00  0.00     0.013 A 
ENDBRANCH  22  25
ENDBRANCH  17  18
ENDBRANCH   1  17
TORSDOF 5
ENDMDL
MODEL 5
REMARK VINA RESULT: -7.001326672      3.293      6.557
REMARK  5 active torsions:
REMARK  status: ('A' for Active; 'I' for Inactive)
REMARK    1  A    between atoms: C5_7  and  C6_8 
REMARK    2  A    between atoms: C6_8  and  N1_9 
REMARK    3  A    between atoms: N1_9  and  C7_12 
REMARK    4  A    between atoms: C7_12  and  C8_13 
REMARK    5  A    between atoms: C9_17  and  C10_18 
ROOT
HETATM    1  N1  UNL     1      26.634   7.309  10.459  1.00  0.00    -0.068 N 
ATOM      2  H11 UNL     1      25.683   6.942  10.431  1.00  0.00     0.277 HD
ATOM      3  H12 UNL     1      26.820   7.341   9.456  1.00  0.00     0.277 HD
ENDROOT
BRANCH   1   4
HETATM    4  C6  UNL     1      27.539   6.396  11.140  1.00  0.00     0.242 C 
BRANCH   4   5
HETATM    5  C5  UNL     1      26.679   5.160  11.388  1.00  0.00     0.067 C 
HETATM    6  C4  UNL     1      25.991   5.096  12.689  1.00  0.00     0.229 C 
HETATM    7  O1  UNL     1      26.020   6.183  13.518  1.00  0.00    -0.363 OA
HETATM    8  N4  UNL     1      24.606   4.740  12.459  1.00  0.00    -0.345 N 
HETATM    9  C3  UNL     1      25.765   5.628  14.806  1.00  0.00     0.215 C 
HETATM   10  C2  UNL     1      24.365   5.103  14.893  1.00  0.00     0.137 C 
HETATM   11  C1  UNL     1      23.524   6.122  15.689  1.00  0.00     0.055 C 
HETATM   12  F1  UNL     1      24.396   3.959  15.669  1.00  0.00    -0.239 F 
HETATM   13  C15 UNL     1      23.708   4.779  13.587  1.00  0.00     0.171 C 
HETATM   14  C14 UNL     1      24.488   4.412  11.105  1.00  0.00     0.078 C 
HETATM   15  C13 UNL     1      25.512   5.217  10.374  1.00  0.00     0.080 C 
HETATM   16  S1  UNL     1      23.444   3.339  10.442  1.00  0.00    -0.065 SA
ENDBRANCH   4   5
ENDBRANCH   1   4
BRANCH   1  17
HETATM   17  C7  UNL     1      26.675   8.641  11.055  1.00  0.00     0.310 C 
BRANCH  17  18
HETATM   18  C8  UNL     1      25.652   8.739  12.118  1.00  0.00     0.129 A 
HETATM   19  N2  UNL     1      24.378   8.349  12.013  1.00  0.00    -0.245 N 
HETATM   20  O2  UNL     1      23.743   8.667  13.119  1.00  0.00    -0.222 OA
ATOM     21  H2  UNL     1      23.964   7.882  11.206  1.00  0.00     0.196 HD
HETATM   22  C9  UNL     1      24.609   9.255  13.932  1.00  0.00     0.152 A 
HETATM   23  N3  UNL     1      25.809   9.305  13.317  1.00  0.00    -0.325 N 
ATOM     24  H3  UNL     1      26.670   9.699  13.695  1.00  0.00     0.169 HD
BRANCH  22  25
HETATM   25  C10 UNL     1      24.278   9.760  15.278  1.00  0.00     0.063 A 
HETATM   26  C11 UNL     1      25.245  10.632  16.001  1.00  0.00     0.013 A 
HETATM   27  C12 UNL     1      24.056  11.261  15.375  1.00  0.00     0.013 A 
ENDBRANCH  22  25
ENDBRANCH  17  18
ENDBRANCH   1  17
TORSDOF 5
ENDMDL
