MODEL 1
REMARK VINA RESULT: -5.926627346      0.000      0.000
REMARK  1 active torsions:
REMARK  status: ('A' for Active; 'I' for Inactive)
REMARK    1  A    between atoms: O1_1  and  C1_3 
ROOT
HETATM    1  C1  UNL     1      -1.024 -26.292  51.712  1.00  0.00     0.126 C 
HETATM    2  C2  UNL     1      -1.175 -26.002  50.240  1.00  0.00     0.021 C 
HETATM    3  C3  UNL     1      -1.731 -27.168  49.467  1.00  0.00     0.039 C 
HETATM    4  C4  UNL     1      -0.800 -28.338  49.666  1.00  0.00     0.124 C 
HETATM    5  C5  UNL     1      -0.759 -28.722  51.130  1.00  0.00     0.039 C 
HETATM    6  C6  UNL     1      -0.257 -27.571  51.941  1.00  0.00     0.021 C 
HETATM    7  C7  UNL     1       1.174 -27.297  51.462  1.00  0.00     0.057 C 
HETATM    8  C8  UNL     1       1.071 -27.012  49.982  1.00  0.00     0.119 C 
HETATM    9 BR1  UNL     1       2.849 -26.707  49.315  1.00  0.00    -0.054 Br
HETATM   10  C9  UNL     1       0.252 -25.781  49.714  1.00  0.00     0.057 C 
HETATM   11  O2  UNL     1       0.505 -28.063  49.285  1.00  0.00    -0.363 OA
ENDROOT
BRANCH   1  12
HETATM   12  O1  UNL     1      -2.196 -26.211  52.419  1.00  0.00    -0.395 OA
ATOM     13  H1  UNL     1      -2.894 -26.756  52.074  1.00  0.00     0.210 HD
ENDBRANCH   1  12
TORSDOF 1
ENDMDL
MODEL 2
REMARK VINA RESULT: -5.694323101      1.242      2.312
REMARK  1 active torsions:
REMARK  status: ('A' for Active; 'I' for Inactive)
REMARK    1  A    between atoms: O1_1  and  C1_3 
ROOT
HETATM    1  C1  UNL     1      -1.418 -27.016  49.306  1.00  0.00     0.126 C 
HETATM    2  C2  UNL     1      -0.728 -28.334  49.553  1.00  0.00     0.021 C 
HETATM    3  C3  UNL     1      -0.682 -28.707  51.011  1.00  0.00     0.039 C 
HETATM    4  C4  UNL     1       0.042 -27.605  51.744  1.00  0.00     0.124 C 
HETATM    5  C5  UNL     1      -0.728 -26.308  51.615  1.00  0.00     0.039 C 
HETATM    6  C6  UNL     1      -0.840 -25.927  50.175  1.00  0.00     0.021 C 
HETATM    7  C7  UNL     1       0.593 -25.702  49.674  1.00  0.00     0.057 C 
HETATM    8  C8  UNL     1       1.326 -27.001  49.915  1.00  0.00     0.119 C 
HETATM    9 BR1  UNL     1       3.149 -26.762  49.348  1.00  0.00    -0.054 Br
HETATM   10  C9  UNL     1       0.730 -28.125  49.117  1.00  0.00     0.057 C 
HETATM   11  O2  UNL     1       1.315 -27.369  51.247  1.00  0.00    -0.363 OA
ENDROOT
BRANCH   1  12
HETATM   12  O1  UNL     1      -2.786 -27.088  49.339  1.00  0.00    -0.395 OA
ATOM     13  H1  UNL     1      -3.150 -27.784  48.804  1.00  0.00     0.210 HD
ENDBRANCH   1  12
TORSDOF 1
ENDMDL
MODEL 3
REMARK VINA RESULT: -5.494755328      1.377      2.472
REMARK  1 active torsions:
REMARK  status: ('A' for Active; 'I' for Inactive)
REMARK    1  A    between atoms: O1_1  and  C1_3 
ROOT
HETATM    1  C1  UNL     1      -0.239 -28.609  50.659  1.00  0.00     0.126 C 
HETATM    2  C2  UNL     1       0.228 -27.493  51.559  1.00  0.00     0.021 C 
HETATM    3  C3  UNL     1      -0.550 -26.219  51.364  1.00  0.00     0.039 C 
HETATM    4  C4  UNL     1      -0.404 -25.807  49.921  1.00  0.00     0.124 C 
HETATM    5  C5  UNL     1      -1.004 -26.865  49.020  1.00  0.00     0.039 C 
HETATM    6  C6  UNL     1      -0.290 -28.163  49.218  1.00  0.00     0.021 C 
HETATM    7  C7  UNL     1       1.166 -27.924  48.798  1.00  0.00     0.057 C 
HETATM    8  C8  UNL     1       1.672 -26.799  49.672  1.00  0.00     0.119 C 
HETATM    9 BR1  UNL     1       3.486 -26.422  49.154  1.00  0.00    -0.054 Br
HETATM   10  C9  UNL     1       1.669 -27.186  51.123  1.00  0.00     0.057 C 
HETATM   11  O2  UNL     1       0.918 -25.650  49.533  1.00  0.00    -0.363 OA
ENDROOT
BRANCH   1  12
HETATM   12  O1  UNL     1      -1.381 -29.232  51.090  1.00  0.00    -0.395 OA
ATOM     13  H1  UNL     1      -1.247 -30.126  51.382  1.00  0.00     0.210 HD
ENDBRANCH   1  12
TORSDOF 1
ENDMDL
MODEL 4
REMARK VINA RESULT: -5.404756286      2.221      3.123
REMARK  1 active torsions:
REMARK  status: ('A' for Active; 'I' for Inactive)
REMARK    1  A    between atoms: O1_1  and  C1_3 
ROOT
HETATM    1  C1  UNL     1      -1.065 -28.508  50.742  1.00  0.00     0.126 C 
HETATM    2  C2  UNL     1      -1.551 -27.476  49.756  1.00  0.00     0.021 C 
HETATM    3  C3  UNL     1      -0.428 -26.777  49.037  1.00  0.00     0.039 C 
HETATM    4  C4  UNL     1       0.445 -26.120  50.077  1.00  0.00     0.124 C 
HETATM    5  C5  UNL     1       1.050 -27.173  50.982  1.00  0.00     0.039 C 
HETATM    6  C6  UNL     1      -0.037 -27.924  51.680  1.00  0.00     0.021 C 
HETATM    7  C7  UNL     1      -0.785 -26.901  52.544  1.00  0.00     0.057 C 
HETATM    8  C8  UNL     1      -1.282 -25.837  51.592  1.00  0.00     0.119 C 
HETATM    9 BR1  UNL     1      -2.190 -24.496  52.630  1.00  0.00    -0.054 Br
HETATM   10  C9  UNL     1      -2.256 -26.400  50.598  1.00  0.00     0.057 C 
HETATM   11  O2  UNL     1      -0.251 -25.240  50.891  1.00  0.00    -0.363 OA
ENDROOT
BRANCH   1  12
HETATM   12  O1  UNL     1      -0.685 -29.693  50.167  1.00  0.00    -0.395 OA
ATOM     13  H1  UNL     1      -0.712 -30.436  50.760  1.00  0.00     0.210 HD
ENDBRANCH   1  12
TORSDOF 1
ENDMDL
MODEL 5
REMARK VINA RESULT: -5.176688771      2.335      3.454
REMARK  1 active torsions:
REMARK  status: ('A' for Active; 'I' for Inactive)
REMARK    1  A    between atoms: O1_1  and  C1_3 
ROOT
HETATM    1  C1  UNL     1       0.909 -26.834  51.142  1.00  0.00     0.126 C 
HETATM    2  C2  UNL     1      -0.023 -27.937  51.575  1.00  0.00     0.021 C 
HETATM    3  C3  UNL     1      -0.629 -28.681  50.414  1.00  0.00     0.039 C 
HETATM    4  C4  UNL     1      -1.376 -27.681  49.568  1.00  0.00     0.124 C 
HETATM    5  C5  UNL     1      -0.414 -26.652  49.014  1.00  0.00     0.039 C 
HETATM    6  C6  UNL     1       0.248 -25.922  50.139  1.00  0.00     0.021 C 
HETATM    7  C7  UNL     1      -0.869 -25.196  50.899  1.00  0.00     0.057 C 
HETATM    8  C8  UNL     1      -1.837 -26.269  51.343  1.00  0.00     0.119 C 
HETATM    9 BR1  UNL     1      -3.289 -25.407  52.264  1.00  0.00    -0.054 Br
HETATM   10  C9  UNL     1      -1.188 -27.237  52.291  1.00  0.00     0.057 C 
HETATM   11  O2  UNL     1      -2.345 -26.987  50.277  1.00  0.00    -0.363 OA
ENDROOT
BRANCH   1  12
HETATM   12  O1  UNL     1       2.152 -27.271  50.763  1.00  0.00    -0.395 OA
ATOM     13  H1  UNL     1       2.826 -27.134  51.419  1.00  0.00     0.210 HD
ENDBRANCH   1  12
TORSDOF 1
ENDMDL
