MODEL 1
REMARK VINA RESULT: -6.882961777      0.000      0.000
REMARK  1 active torsions:
REMARK  status: ('A' for Active; 'I' for Inactive)
REMARK    1  A    between atoms: C9_10  and  O1_11 
ROOT
HETATM    1  C1  UNL     1      -1.052 -27.922  53.320  1.00  0.00     0.310 C 
HETATM    2  N1  UNL     1      -1.152 -27.612  51.918  1.00  0.00     0.091 N 
HETATM    3  C2  UNL     1      -1.238 -26.160  51.737  1.00  0.00     0.279 C 
HETATM    4  C3  UNL     1       0.189 -26.185  51.259  1.00  0.00     0.049 C 
HETATM    5  C4  UNL     1       0.468 -25.513  49.954  1.00  0.00     0.013 C 
HETATM    6  C5  UNL     1       1.466 -26.334  49.194  1.00  0.00    -0.006 C 
HETATM    7  C6  UNL     1       2.731 -26.484  49.951  1.00  0.00     0.005 C 
HETATM    8  C7  UNL     1       3.680 -27.486  49.396  1.00  0.00     0.003 C 
HETATM    9  C8  UNL     1       3.192 -28.164  48.150  1.00  0.00     0.032 C 
HETATM   10  C9  UNL     1       1.783 -28.624  48.207  1.00  0.00     0.124 C 
HETATM   11  C10 UNL     1       0.819 -27.612  48.769  1.00  0.00     0.039 C 
HETATM   12  C11 UNL     1      -0.063 -28.225  49.816  1.00  0.00     0.123 C 
HETATM   13 CL1  UNL     1      -1.794 -28.140  49.380  1.00  0.00    -0.122 Cl
HETATM   14  C12 UNL     1       0.098 -27.666  51.177  1.00  0.00     0.247 C 
ENDROOT
BRANCH  10  15
HETATM   15  O1  UNL     1       1.415 -29.066  46.934  1.00  0.00    -0.395 OA
ATOM     16  H1  UNL     1       1.441 -30.016  46.930  1.00  0.00     0.210 HD
ENDBRANCH  10  15
TORSDOF 1
ENDMDL
MODEL 2
REMARK VINA RESULT: -4.456600079      9.344     11.559
REMARK  1 active torsions:
REMARK  status: ('A' for Active; 'I' for Inactive)
REMARK    1  A    between atoms: C9_10  and  O1_11 
ROOT
HETATM    1  C1  UNL     1       6.617 -29.064  44.287  1.00  0.00     0.310 C 
HETATM    2  N1  UNL     1       7.893 -28.404  44.203  1.00  0.00     0.091 N 
HETATM    3  C2  UNL     1       8.828 -29.228  43.430  1.00  0.00     0.279 C 
HETATM    4  C3  UNL     1       8.660 -28.261  42.289  1.00  0.00     0.049 C 
HETATM    5  C4  UNL     1       9.913 -27.717  41.685  1.00  0.00     0.013 C 
HETATM    6  C5  UNL     1       9.700 -26.269  41.359  1.00  0.00    -0.006 C 
HETATM    7  C6  UNL     1       8.576 -26.088  40.409  1.00  0.00     0.005 C 
HETATM    8  C7  UNL     1       8.128 -24.682  40.224  1.00  0.00     0.003 C 
HETATM    9  C8  UNL     1       8.907 -23.684  41.029  1.00  0.00     0.032 C 
HETATM   10  C9  UNL     1       9.137 -24.072  42.442  1.00  0.00     0.124 C 
HETATM   11  C10 UNL     1       9.591 -25.496  42.632  1.00  0.00     0.039 C 
HETATM   12  C11 UNL     1       8.787 -26.184  43.695  1.00  0.00     0.123 C 
HETATM   13 CL1  UNL     1       9.800 -26.740  45.059  1.00  0.00    -0.122 Cl
HETATM   14  C12 UNL     1       7.977 -27.330  43.225  1.00  0.00     0.247 C 
ENDROOT
BRANCH  10  15
HETATM   15  O1  UNL     1      10.017 -23.148  43.012  1.00  0.00    -0.395 OA
ATOM     16  H1  UNL     1      10.659 -23.625  43.524  1.00  0.00     0.210 HD
ENDBRANCH  10  15
TORSDOF 1
ENDMDL
MODEL 3
REMARK VINA RESULT: -4.217508575      8.806     10.998
REMARK  1 active torsions:
REMARK  status: ('A' for Active; 'I' for Inactive)
REMARK    1  A    between atoms: C9_10  and  O1_11 
ROOT
HETATM    1  C1  UNL     1       5.888 -28.187  45.467  1.00  0.00     0.310 C 
HETATM    2  N1  UNL     1       7.212 -28.039  44.922  1.00  0.00     0.091 N 
HETATM    3  C2  UNL     1       7.735 -29.351  44.526  1.00  0.00     0.279 C 
HETATM    4  C3  UNL     1       7.493 -28.959  43.093  1.00  0.00     0.049 C 
HETATM    5  C4  UNL     1       8.643 -29.124  42.153  1.00  0.00     0.013 C 
HETATM    6  C5  UNL     1       8.660 -27.961  41.206  1.00  0.00    -0.006 C 
HETATM    7  C6  UNL     1       7.399 -27.875  40.432  1.00  0.00     0.005 C 
HETATM    8  C7  UNL     1       7.221 -26.618  39.658  1.00  0.00     0.003 C 
HETATM    9  C8  UNL     1       8.364 -25.655  39.787  1.00  0.00     0.032 C 
HETATM   10  C9  UNL     1       8.852 -25.455  41.174  1.00  0.00     0.124 C 
HETATM   11  C10 UNL     1       9.033 -26.727  41.961  1.00  0.00     0.039 C 
HETATM   12  C11 UNL     1       8.392 -26.624  43.313  1.00  0.00     0.123 C 
HETATM   13 CL1  UNL     1       9.574 -26.822  44.640  1.00  0.00    -0.122 Cl
HETATM   14  C12 UNL     1       7.272 -27.562  43.549  1.00  0.00     0.247 C 
ENDROOT
BRANCH  10  15
HETATM   15  O1  UNL     1      10.017 -24.686  41.122  1.00  0.00    -0.395 OA
ATOM     16  H1  UNL     1       9.833 -23.902  40.618  1.00  0.00     0.210 HD
ENDBRANCH  10  15
TORSDOF 1
ENDMDL
MODEL 4
REMARK VINA RESULT: -4.164993005      9.597     11.050
REMARK  1 active torsions:
REMARK  status: ('A' for Active; 'I' for Inactive)
REMARK    1  A    between atoms: C9_10  and  O1_11 
ROOT
HETATM    1  C1  UNL     1       9.601 -30.240  42.833  1.00  0.00     0.310 C 
HETATM    2  N1  UNL     1       8.579 -29.265  42.554  1.00  0.00     0.091 N 
HETATM    3  C2  UNL     1       7.603 -29.244  43.648  1.00  0.00     0.279 C 
HETATM    4  C3  UNL     1       8.212 -27.944  44.101  1.00  0.00     0.049 C 
HETATM    5  C4  UNL     1       7.269 -26.807  44.324  1.00  0.00     0.013 C 
HETATM    6  C5  UNL     1       7.912 -25.546  43.831  1.00  0.00    -0.006 C 
HETATM    7  C6  UNL     1       9.186 -25.275  44.539  1.00  0.00     0.005 C 
HETATM    8  C7  UNL     1      10.017 -24.193  43.947  1.00  0.00     0.003 C 
HETATM    9  C8  UNL     1       9.408 -23.550  42.736  1.00  0.00     0.032 C 
HETATM   10  C9  UNL     1       8.848 -24.502  41.745  1.00  0.00     0.124 C 
HETATM   11  C10 UNL     1       8.007 -25.600  42.341  1.00  0.00     0.039 C 
HETATM   12  C11 UNL     1       8.408 -26.942  41.806  1.00  0.00     0.123 C 
HETATM   13 CL1  UNL     1       7.069 -27.758  40.947  1.00  0.00    -0.122 Cl
HETATM   14  C12 UNL     1       8.950 -27.882  42.812  1.00  0.00     0.247 C 
ENDROOT
BRANCH  10  15
HETATM   15  O1  UNL     1       8.164 -23.769  40.772  1.00  0.00    -0.395 OA
ATOM     16  H1  UNL     1       8.785 -23.195  40.340  1.00  0.00     0.210 HD
ENDBRANCH  10  15
TORSDOF 1
ENDMDL
MODEL 5
REMARK VINA RESULT: -4.051648525     11.014     12.033
REMARK  1 active torsions:
REMARK  status: ('A' for Active; 'I' for Inactive)
REMARK    1  A    between atoms: C9_10  and  O1_11 
ROOT
HETATM    1  C1  UNL     1      10.017 -24.041  41.217  1.00  0.00     0.310 C 
HETATM    2  N1  UNL     1       8.968 -24.904  41.693  1.00  0.00     0.091 N 
HETATM    3  C2  UNL     1       7.861 -24.915  40.732  1.00  0.00     0.279 C 
HETATM    4  C3  UNL     1       8.306 -26.290  40.310  1.00  0.00     0.049 C 
HETATM    5  C4  UNL     1       7.259 -27.355  40.293  1.00  0.00     0.013 C 
HETATM    6  C5  UNL     1       7.861 -28.630  40.800  1.00  0.00    -0.006 C 
HETATM    7  C6  UNL     1       9.009 -29.056  39.966  1.00  0.00     0.005 C 
HETATM    8  C7  UNL     1       9.824 -30.163  40.535  1.00  0.00     0.003 C 
HETATM    9  C8  UNL     1       9.328 -30.668  41.857  1.00  0.00     0.032 C 
HETATM   10  C9  UNL     1       8.974 -29.606  42.832  1.00  0.00     0.124 C 
HETATM   11  C10 UNL     1       8.149 -28.484  42.259  1.00  0.00     0.039 C 
HETATM   12  C11 UNL     1       8.717 -27.147  42.636  1.00  0.00     0.123 C 
HETATM   13 CL1  UNL     1       7.565 -26.164  43.585  1.00  0.00    -0.122 Cl
HETATM   14  C12 UNL     1       9.196 -26.328  41.500  1.00  0.00     0.247 C 
ENDROOT
BRANCH  10  15
HETATM   15  O1  UNL     1       8.365 -30.211  43.935  1.00  0.00    -0.395 OA
ATOM     16  H1  UNL     1       8.846 -29.960  44.715  1.00  0.00     0.210 HD
ENDBRANCH  10  15
TORSDOF 1
ENDMDL
