MODEL 1
REMARK VINA RESULT: -7.861160712      0.000      0.000
REMARK  8 active torsions:
REMARK  status: ('A' for Active; 'I' for Inactive)
REMARK    1  A    between atoms: C3_3  and  N1_4 
REMARK       I    between atoms: N1_4  and  C4_6 
REMARK       I    between atoms: C4_6  and  N2_7 
REMARK    2  A    between atoms: N5_12  and  C6_14 
REMARK    3  A    between atoms: C6_14  and  C7_15 
REMARK    4  A    between atoms: C7_15  and  C8_16 
REMARK    5  A    between atoms: C8_16  and  C9_17 
REMARK    6  A    between atoms: C9_17  and  C10_18 
REMARK    7  A    between atoms: C10_18  and  C11_19 
REMARK    8  A    between atoms: C11_19  and  N6_20 
ROOT
HETATM    1  C1  UNL     1     -16.150  45.561  49.722  1.00  0.00     0.014 C 
HETATM    2  C2  UNL     1     -16.941  45.414  48.811  1.00  0.00    -0.097 C 
HETATM    3  C3  UNL     1     -17.882  45.241  47.700  1.00  0.00     0.231 C 
ENDROOT
BRANCH   3   4
HETATM    4  N1  UNL     1     -17.388  44.334  46.692  1.00  0.00    -0.216 N 
HETATM    5  C4  UNL     1     -16.904  43.049  47.003  1.00  0.00     0.676 C 
HETATM    6  N2  UNL     1     -17.702  41.990  47.468  1.00  0.00    -0.166 N 
HETATM    7  N5  UNL     1     -15.645  42.808  46.854  1.00  0.00    -0.226 N 
HETATM    8  C5  UNL     1     -18.922  41.760  47.257  1.00  0.00     0.215 C 
ATOM      9  H2  UNL     1     -17.225  41.311  48.062  1.00  0.00     0.186 HD
HETATM   10  N3  UNL     1     -19.718  42.604  46.458  1.00  0.00    -0.066 NA
HETATM   11  N4  UNL     1     -19.507  40.609  47.845  1.00  0.00    -0.066 NA
ATOM     12  H5  UNL     1     -15.273  41.884  47.073  1.00  0.00     0.177 HD
ATOM     13  H1  UNL     1     -17.390  44.636  45.718  1.00  0.00     0.178 HD
BRANCH   7  14
HETATM   14  C6  UNL     1     -14.769  43.841  46.381  1.00  0.00     0.138 C 
BRANCH  14  15
HETATM   15  C7  UNL     1     -13.786  43.217  45.446  1.00  0.00     0.020 C 
BRANCH  15  16
HETATM   16  C8  UNL     1     -12.687  42.503  46.171  1.00  0.00     0.002 C 
BRANCH  16  17
HETATM   17  C9  UNL     1     -12.554  41.085  45.685  1.00  0.00     0.002 C 
BRANCH  17  18
HETATM   18  C10 UNL     1     -12.689  41.119  44.165  1.00  0.00     0.019 C 
BRANCH  18  19
HETATM   19  C11 UNL     1     -13.070  39.735  43.684  1.00  0.00     0.117 C 
BRANCH  19  20
HETATM   20  N6  UNL     1     -12.547  39.548  42.362  1.00  0.00    -0.409 N 
HETATM   21  C12 UNL     1     -13.518  39.419  41.343  1.00  0.00     0.144 C 
HETATM   22  C13 UNL     1     -13.603  38.137  40.620  1.00  0.00     0.251 C 
HETATM   23  N7  UNL     1     -12.524  37.218  40.781  1.00  0.00    -0.072 N 
HETATM   24  C14 UNL     1     -11.303  38.015  40.967  1.00  0.00     0.251 C 
ATOM     25  H72 UNL     1     -12.681  36.544  41.531  1.00  0.00     0.277 HD
ATOM     26  H71 UNL     1     -12.452  36.547  40.017  1.00  0.00     0.277 HD
HETATM   27  C15 UNL     1     -11.428  38.670  42.299  1.00  0.00     0.144 C 
ENDBRANCH  19  20
ENDBRANCH  18  19
ENDBRANCH  17  18
ENDBRANCH  16  17
ENDBRANCH  15  16
ENDBRANCH  14  15
ENDBRANCH   7  14
ENDBRANCH   3   4
TORSDOF 8
ENDMDL
MODEL 2
REMARK VINA RESULT: -7.722085980      1.795      8.458
REMARK  8 active torsions:
REMARK  status: ('A' for Active; 'I' for Inactive)
REMARK    1  A    between atoms: C3_3  and  N1_4 
REMARK       I    between atoms: N1_4  and  C4_6 
REMARK       I    between atoms: C4_6  and  N2_7 
REMARK    2  A    between atoms: N5_12  and  C6_14 
REMARK    3  A    between atoms: C6_14  and  C7_15 
REMARK    4  A    between atoms: C7_15  and  C8_16 
REMARK    5  A    between atoms: C8_16  and  C9_17 
REMARK    6  A    between atoms: C9_17  and  C10_18 
REMARK    7  A    between atoms: C10_18  and  C11_19 
REMARK    8  A    between atoms: C11_19  and  N6_20 
ROOT
HETATM    1  C1  UNL     1     -12.734  42.680  38.222  1.00  0.00     0.014 C 
HETATM    2  C2  UNL     1     -13.254  41.957  39.048  1.00  0.00    -0.097 C 
HETATM    3  C3  UNL     1     -13.872  41.070  40.038  1.00  0.00     0.231 C 
ENDROOT
BRANCH   3   4
HETATM    4  N1  UNL     1     -12.898  40.391  40.858  1.00  0.00    -0.216 N 
HETATM    5  C4  UNL     1     -13.205  39.229  41.591  1.00  0.00     0.676 C 
HETATM    6  N2  UNL     1     -13.491  37.979  41.015  1.00  0.00    -0.166 N 
HETATM    7  N5  UNL     1     -13.227  39.295  42.879  1.00  0.00    -0.226 N 
HETATM    8  C5  UNL     1     -13.094  37.496  39.922  1.00  0.00     0.215 C 
ATOM      9  H2  UNL     1     -14.110  37.378  41.560  1.00  0.00     0.186 HD
HETATM   10  N3  UNL     1     -12.236  38.202  39.056  1.00  0.00    -0.066 NA
HETATM   11  N4  UNL     1     -13.528  36.195  39.557  1.00  0.00    -0.066 NA
ATOM     12  H5  UNL     1     -13.446  38.465  43.430  1.00  0.00     0.177 HD
ATOM     13  H1  UNL     1     -11.951  40.768  40.909  1.00  0.00     0.178 HD
BRANCH   7  14
HETATM   14  C6  UNL     1     -12.942  40.538  43.537  1.00  0.00     0.138 C 
BRANCH  14  15
HETATM   15  C7  UNL     1     -12.301  40.226  44.850  1.00  0.00     0.020 C 
BRANCH  15  16
HETATM   16  C8  UNL     1     -12.675  41.212  45.913  1.00  0.00     0.002 C 
BRANCH  16  17
HETATM   17  C9  UNL     1     -13.090  42.526  45.306  1.00  0.00     0.002 C 
BRANCH  17  18
HETATM   18  C10 UNL     1     -14.035  43.198  46.298  1.00  0.00     0.019 C 
BRANCH  18  19
HETATM   19  C11 UNL     1     -15.293  43.609  45.564  1.00  0.00     0.117 C 
BRANCH  19  20
HETATM   20  N6  UNL     1     -16.404  43.514  46.466  1.00  0.00    -0.409 N 
HETATM   21  C12 UNL     1     -16.778  44.725  47.091  1.00  0.00     0.144 C 
HETATM   22  C13 UNL     1     -16.634  44.826  48.555  1.00  0.00     0.251 C 
HETATM   23  N7  UNL     1     -16.413  43.619  49.280  1.00  0.00    -0.072 N 
HETATM   24  C14 UNL     1     -17.123  42.550  48.563  1.00  0.00     0.251 C 
ATOM     25  H72 UNL     1     -15.424  43.415  49.426  1.00  0.00     0.277 HD
ATOM     26  H71 UNL     1     -16.678  43.687  50.262  1.00  0.00     0.277 HD
HETATM   27  C15 UNL     1     -16.392  42.346  47.281  1.00  0.00     0.144 C 
ENDBRANCH  19  20
ENDBRANCH  18  19
ENDBRANCH  17  18
ENDBRANCH  16  17
ENDBRANCH  15  16
ENDBRANCH  14  15
ENDBRANCH   7  14
ENDBRANCH   3   4
TORSDOF 8
ENDMDL
MODEL 3
REMARK VINA RESULT: -7.708101705      0.693      1.211
REMARK  8 active torsions:
REMARK  status: ('A' for Active; 'I' for Inactive)
REMARK    1  A    between atoms: C3_3  and  N1_4 
REMARK       I    between atoms: N1_4  and  C4_6 
REMARK       I    between atoms: C4_6  and  N2_7 
REMARK    2  A    between atoms: N5_12  and  C6_14 
REMARK    3  A    between atoms: C6_14  and  C7_15 
REMARK    4  A    between atoms: C7_15  and  C8_16 
REMARK    5  A    between atoms: C8_16  and  C9_17 
REMARK    6  A    between atoms: C9_17  and  C10_18 
REMARK    7  A    between atoms: C10_18  and  C11_19 
REMARK    8  A    between atoms: C11_19  and  N6_20 
ROOT
HETATM    1  C1  UNL     1     -16.111  45.489  49.773  1.00  0.00     0.014 C 
HETATM    2  C2  UNL     1     -16.924  45.411  48.873  1.00  0.00    -0.097 C 
HETATM    3  C3  UNL     1     -17.891  45.321  47.776  1.00  0.00     0.231 C 
ENDROOT
BRANCH   3   4
HETATM    4  N1  UNL     1     -17.448  44.447  46.717  1.00  0.00    -0.216 N 
HETATM    5  C4  UNL     1     -16.977  43.143  46.960  1.00  0.00     0.676 C 
HETATM    6  N2  UNL     1     -17.778  42.079  47.411  1.00  0.00    -0.166 N 
HETATM    7  N5  UNL     1     -15.727  42.887  46.759  1.00  0.00    -0.226 N 
HETATM    8  C5  UNL     1     -19.008  41.878  47.233  1.00  0.00     0.215 C 
ATOM      9  H2  UNL     1     -17.293  41.370  47.961  1.00  0.00     0.186 HD
HETATM   10  N3  UNL     1     -19.815  42.766  46.496  1.00  0.00    -0.066 NA
HETATM   11  N4  UNL     1     -19.593  40.715  47.795  1.00  0.00    -0.066 NA
ATOM     12  H5  UNL     1     -15.365  41.949  46.929  1.00  0.00     0.177 HD
ATOM     13  H1  UNL     1     -17.477  44.787  45.756  1.00  0.00     0.178 HD
BRANCH   7  14
HETATM   14  C6  UNL     1     -14.850  43.923  46.297  1.00  0.00     0.138 C 
BRANCH  14  15
HETATM   15  C7  UNL     1     -13.819  43.294  45.419  1.00  0.00     0.020 C 
BRANCH  15  16
HETATM   16  C8  UNL     1     -12.749  42.603  46.205  1.00  0.00     0.002 C 
BRANCH  16  17
HETATM   17  C9  UNL     1     -12.647  41.151  45.817  1.00  0.00     0.002 C 
BRANCH  17  18
HETATM   18  C10 UNL     1     -12.432  41.106  44.307  1.00  0.00     0.019 C 
BRANCH  18  19
HETATM   19  C11 UNL     1     -11.367  40.075  44.003  1.00  0.00     0.117 C 
BRANCH  19  20
HETATM   20  N6  UNL     1     -11.930  39.072  43.146  1.00  0.00    -0.409 N 
HETATM   21  C12 UNL     1     -10.991  38.236  42.500  1.00  0.00     0.144 C 
HETATM   22  C13 UNL     1     -10.904  38.295  41.029  1.00  0.00     0.251 C 
HETATM   23  N7  UNL     1     -11.955  38.959  40.332  1.00  0.00    -0.072 N 
HETATM   24  C14 UNL     1     -13.187  38.746  41.107  1.00  0.00     0.251 C 
ATOM     25  H72 UNL     1     -11.759  39.944  40.155  1.00  0.00     0.277 HD
ATOM     26  H71 UNL     1     -12.039  38.666  39.359  1.00  0.00     0.277 HD
HETATM   27  C15 UNL     1     -13.031  39.526  42.366  1.00  0.00     0.144 C 
ENDBRANCH  19  20
ENDBRANCH  18  19
ENDBRANCH  17  18
ENDBRANCH  16  17
ENDBRANCH  15  16
ENDBRANCH  14  15
ENDBRANCH   7  14
ENDBRANCH   3   4
TORSDOF 8
ENDMDL
MODEL 4
REMARK VINA RESULT: -7.679909186      1.753      8.594
REMARK  8 active torsions:
REMARK  status: ('A' for Active; 'I' for Inactive)
REMARK    1  A    between atoms: C3_3  and  N1_4 
REMARK       I    between atoms: N1_4  and  C4_6 
REMARK       I    between atoms: C4_6  and  N2_7 
REMARK    2  A    between atoms: N5_12  and  C6_14 
REMARK    3  A    between atoms: C6_14  and  C7_15 
REMARK    4  A    between atoms: C7_15  and  C8_16 
REMARK    5  A    between atoms: C8_16  and  C9_17 
REMARK    6  A    between atoms: C9_17  and  C10_18 
REMARK    7  A    between atoms: C10_18  and  C11_19 
REMARK    8  A    between atoms: C11_19  and  N6_20 
ROOT
HETATM    1  C1  UNL     1     -12.722  42.607  38.051  1.00  0.00     0.014 C 
HETATM    2  C2  UNL     1     -13.233  42.020  38.984  1.00  0.00    -0.097 C 
HETATM    3  C3  UNL     1     -13.840  41.296  40.104  1.00  0.00     0.231 C 
ENDROOT
BRANCH   3   4
HETATM    4  N1  UNL     1     -12.859  40.657  40.949  1.00  0.00    -0.216 N 
HETATM    5  C4  UNL     1     -13.158  39.528  41.735  1.00  0.00     0.676 C 
HETATM    6  N2  UNL     1     -13.444  38.253  41.218  1.00  0.00    -0.166 N 
HETATM    7  N5  UNL     1     -13.174  39.653  43.019  1.00  0.00    -0.226 N 
HETATM    8  C5  UNL     1     -13.051  37.722  40.145  1.00  0.00     0.215 C 
ATOM      9  H2  UNL     1     -14.057  37.675  41.793  1.00  0.00     0.186 HD
HETATM   10  N3  UNL     1     -12.200  38.391  39.244  1.00  0.00    -0.066 NA
HETATM   11  N4  UNL     1     -13.482  36.405  39.843  1.00  0.00    -0.066 NA
ATOM     12  H5  UNL     1     -13.387  38.848  43.608  1.00  0.00     0.177 HD
ATOM     13  H1  UNL     1     -11.914  41.039  40.977  1.00  0.00     0.178 HD
BRANCH   7  14
HETATM   14  C6  UNL     1     -12.890  40.926  43.618  1.00  0.00     0.138 C 
BRANCH  14  15
HETATM   15  C7  UNL     1     -12.424  40.681  45.016  1.00  0.00     0.020 C 
BRANCH  15  16
HETATM   16  C8  UNL     1     -12.722  41.834  45.924  1.00  0.00     0.002 C 
BRANCH  16  17
HETATM   17  C9  UNL     1     -13.464  42.919  45.189  1.00  0.00     0.002 C 
BRANCH  17  18
HETATM   18  C10 UNL     1     -14.227  43.726  46.235  1.00  0.00     0.019 C 
BRANCH  18  19
HETATM   19  C11 UNL     1     -15.710  43.535  46.004  1.00  0.00     0.117 C 
BRANCH  19  20
HETATM   20  N6  UNL     1     -16.369  43.457  47.276  1.00  0.00    -0.409 N 
HETATM   21  C12 UNL     1     -17.629  42.819  47.264  1.00  0.00     0.144 C 
HETATM   22  C13 UNL     1     -18.819  43.622  47.603  1.00  0.00     0.251 C 
HETATM   23  N7  UNL     1     -18.604  44.898  48.202  1.00  0.00    -0.072 N 
HETATM   24  C14 UNL     1     -17.385  44.790  49.018  1.00  0.00     0.251 C 
ATOM     25  H72 UNL     1     -18.565  45.658  47.524  1.00  0.00     0.277 HD
ATOM     26  H71 UNL     1     -19.409  45.234  48.729  1.00  0.00     0.277 HD
HETATM   27  C15 UNL     1     -16.252  44.639  48.062  1.00  0.00     0.144 C 
ENDBRANCH  19  20
ENDBRANCH  18  19
ENDBRANCH  17  18
ENDBRANCH  16  17
ENDBRANCH  15  16
ENDBRANCH  14  15
ENDBRANCH   7  14
ENDBRANCH   3   4
TORSDOF 8
ENDMDL
MODEL 5
REMARK VINA RESULT: -7.453198035      5.736      9.289
REMARK  8 active torsions:
REMARK  status: ('A' for Active; 'I' for Inactive)
REMARK    1  A    between atoms: C3_3  and  N1_4 
REMARK       I    between atoms: N1_4  and  C4_6 
REMARK       I    between atoms: C4_6  and  N2_7 
REMARK    2  A    between atoms: N5_12  and  C6_14 
REMARK    3  A    between atoms: C6_14  and  C7_15 
REMARK    4  A    between atoms: C7_15  and  C8_16 
REMARK    5  A    between atoms: C8_16  and  C9_17 
REMARK    6  A    between atoms: C9_17  and  C10_18 
REMARK    7  A    between atoms: C10_18  and  C11_19 
REMARK    8  A    between atoms: C11_19  and  N6_20 
ROOT
HETATM    1  C1  UNL     1     -12.738  40.750  38.451  1.00  0.00     0.014 C 
HETATM    2  C2  UNL     1     -13.491  40.522  39.377  1.00  0.00    -0.097 C 
HETATM    3  C3  UNL     1     -14.405  40.231  40.486  1.00  0.00     0.231 C 
ENDROOT
BRANCH   3   4
HETATM    4  N1  UNL     1     -14.149  38.946  41.092  1.00  0.00    -0.216 N 
HETATM    5  C4  UNL     1     -12.853  38.407  41.203  1.00  0.00     0.676 C 
HETATM    6  N2  UNL     1     -11.845  38.925  42.034  1.00  0.00    -0.166 N 
HETATM    7  N5  UNL     1     -12.553  37.365  40.502  1.00  0.00    -0.226 N 
HETATM    8  C5  UNL     1     -11.953  39.556  43.118  1.00  0.00     0.215 C 
ATOM      9  H2  UNL     1     -10.889  38.767  41.713  1.00  0.00     0.186 HD
HETATM   10  N3  UNL     1     -13.204  39.853  43.693  1.00  0.00    -0.066 NA
HETATM   11  N4  UNL     1     -10.770  39.977  43.779  1.00  0.00    -0.066 NA
ATOM     12  H5  UNL     1     -11.620  36.958  40.567  1.00  0.00     0.177 HD
ATOM     13  H1  UNL     1     -14.937  38.409  41.454  1.00  0.00     0.178 HD
BRANCH   7  14
HETATM   14  C6  UNL     1     -13.532  36.781  39.632  1.00  0.00     0.138 C 
BRANCH  14  15
HETATM   15  C7  UNL     1     -13.082  36.995  38.225  1.00  0.00     0.020 C 
BRANCH  15  16
HETATM   16  C8  UNL     1     -11.600  36.847  38.074  1.00  0.00     0.002 C 
BRANCH  16  17
HETATM   17  C9  UNL     1     -11.265  35.844  37.003  1.00  0.00     0.002 C 
BRANCH  17  18
HETATM   18  C10 UNL     1     -11.954  36.308  35.724  1.00  0.00     0.019 C 
BRANCH  18  19
HETATM   19  C11 UNL     1     -10.902  36.515  34.656  1.00  0.00     0.117 C 
BRANCH  19  20
HETATM   20  N6  UNL     1     -10.832  37.914  34.344  1.00  0.00    -0.409 N 
HETATM   21  C12 UNL     1     -11.160  38.250  33.012  1.00  0.00     0.144 C 
HETATM   22  C13 UNL     1     -10.106  38.832  32.161  1.00  0.00     0.251 C 
HETATM   23  N7  UNL     1      -8.919  39.290  32.804  1.00  0.00    -0.072 N 
HETATM   24  C14 UNL     1      -9.311  39.780  34.133  1.00  0.00     0.251 C 
ATOM     25  H72 UNL     1      -8.184  38.584  32.839  1.00  0.00     0.277 HD
ATOM     26  H71 UNL     1      -8.408  39.982  32.256  1.00  0.00     0.277 HD
HETATM   27  C15 UNL     1      -9.715  38.582  34.921  1.00  0.00     0.144 C 
ENDBRANCH  19  20
ENDBRANCH  18  19
ENDBRANCH  17  18
ENDBRANCH  16  17
ENDBRANCH  15  16
ENDBRANCH  14  15
ENDBRANCH   7  14
ENDBRANCH   3   4
TORSDOF 8
ENDMDL
