MODEL 1
REMARK VINA RESULT: -8.089880950      0.000      0.000
REMARK  4 active torsions:
REMARK  status: ('A' for Active; 'I' for Inactive)
REMARK    1  A    between atoms: C3_4  and  C4_5 
REMARK    2  A    between atoms: C4_5  and  N2_6 
REMARK    3  A    between atoms: C8_10  and  C9_11 
REMARK    4  A    between atoms: C13_21  and  C14_22 
ROOT
HETATM    1  C1  UNL     1      19.483  15.010  62.995  1.00  0.00     0.157 C 
HETATM    2  N1  UNL     1      20.652  14.195  62.707  1.00  0.00    -0.348 N 
HETATM    3  C2  UNL     1      21.905  14.614  62.487  1.00  0.00     0.122 A 
HETATM    4  C3  UNL     1      22.668  13.512  62.261  1.00  0.00     0.065 A 
HETATM    5  N5  UNL     1      21.860  12.443  62.348  1.00  0.00    -0.343 N 
ATOM      6  H5  UNL     1      22.148  11.472  62.225  1.00  0.00     0.167 HD
HETATM    7  C13 UNL     1      20.616  12.853  62.623  1.00  0.00     0.087 A 
ENDROOT
BRANCH   4   8
HETATM    8  C4  UNL     1      24.108  13.435  61.970  1.00  0.00     0.121 C 
BRANCH   8   9
HETATM    9  N2  UNL     1      24.946  13.261  63.074  1.00  0.00    -0.367 N 
HETATM   10  C5  UNL     1      25.289  14.373  63.865  1.00  0.00     0.127 C 
HETATM   11  C6  UNL     1      24.587  14.170  65.217  1.00  0.00     0.021 C 
HETATM   12  C7  UNL     1      25.313  13.026  65.875  1.00  0.00     0.018 C 
HETATM   13  C8  UNL     1      25.092  11.787  65.041  1.00  0.00     0.075 C 
HETATM   14  C12 UNL     1      25.170  11.968  63.580  1.00  0.00     0.074 C 
BRANCH  13  15
HETATM   15  C9  UNL     1      23.835  11.150  65.504  1.00  0.00     0.036 A 
HETATM   16  C10 UNL     1      22.729  11.855  65.932  1.00  0.00     0.046 A 
HETATM   17  C11 UNL     1      21.726  10.976  66.299  1.00  0.00     0.109 A 
HETATM   18  N3  UNL     1      22.250   9.752  66.083  1.00  0.00    -0.312 N 
HETATM   19  N4  UNL     1      23.487   9.866  65.616  1.00  0.00    -0.304 N 
ATOM     20  H3  UNL     1      21.767   8.870  66.253  1.00  0.00     0.186 HD
ATOM     21  H4  UNL     1      24.090   9.080  65.376  1.00  0.00     0.186 HD
ENDBRANCH  13  15
ENDBRANCH   8   9
ENDBRANCH   4   8
BRANCH   7  22
HETATM   22  C14 UNL     1      19.400  11.989  62.806  1.00  0.00     0.054 C 
HETATM   23  C15 UNL     1      19.737  10.802  63.693  1.00  0.00     0.015 C 
HETATM   24  C16 UNL     1      18.782   9.678  63.383  1.00  0.00     0.044 C 
HETATM   25  C17 UNL     1      17.404  10.213  63.061  1.00  0.00     0.100 C 
HETATM   26  C18 UNL     1      16.466   9.013  62.952  1.00  0.00     0.051 C 
HETATM   27  F1  UNL     1      16.961  10.926  64.169  1.00  0.00    -0.243 F 
HETATM   28  C19 UNL     1      17.393  11.045  61.807  1.00  0.00     0.044 C 
HETATM   29  C20 UNL     1      18.800  11.569  61.500  1.00  0.00     0.015 C 
ENDBRANCH   7  22
TORSDOF 4
ENDMDL
MODEL 2
REMARK VINA RESULT: -7.933278926      2.577      6.393
REMARK  4 active torsions:
REMARK  status: ('A' for Active; 'I' for Inactive)
REMARK    1  A    between atoms: C3_4  and  C4_5 
REMARK    2  A    between atoms: C4_5  and  N2_6 
REMARK    3  A    between atoms: C8_10  and  C9_11 
REMARK    4  A    between atoms: C13_21  and  C14_22 
ROOT
HETATM    1  C1  UNL     1      21.553  15.035  63.743  1.00  0.00     0.157 C 
HETATM    2  N1  UNL     1      21.070  13.841  63.068  1.00  0.00    -0.348 N 
HETATM    3  C2  UNL     1      19.875  13.656  62.491  1.00  0.00     0.122 A 
HETATM    4  C3  UNL     1      19.858  12.395  61.985  1.00  0.00     0.065 A 
HETATM    5  N5  UNL     1      21.047  11.838  62.265  1.00  0.00    -0.343 N 
ATOM      6  H5  UNL     1      21.332  10.892  62.010  1.00  0.00     0.167 HD
HETATM    7  C13 UNL     1      21.801  12.721  62.931  1.00  0.00     0.087 A 
ENDROOT
BRANCH   4   8
HETATM    8  C4  UNL     1      18.778  11.711  61.259  1.00  0.00     0.121 C 
BRANCH   8   9
HETATM    9  N2  UNL     1      17.656  11.365  62.016  1.00  0.00    -0.367 N 
HETATM   10  C5  UNL     1      16.793  10.355  61.552  1.00  0.00     0.127 C 
HETATM   11  C6  UNL     1      16.969   9.168  62.513  1.00  0.00     0.021 C 
HETATM   12  C7  UNL     1      16.340   9.608  63.810  1.00  0.00     0.018 C 
HETATM   13  C8  UNL     1      17.140  10.771  64.348  1.00  0.00     0.075 C 
HETATM   14  C12 UNL     1      17.570  11.775  63.359  1.00  0.00     0.074 C 
BRANCH  13  15
HETATM   15  C9  UNL     1      18.247  10.216  65.166  1.00  0.00     0.036 A 
HETATM   16  C10 UNL     1      19.580  10.480  64.934  1.00  0.00     0.046 A 
HETATM   17  C11 UNL     1      20.359   9.815  65.863  1.00  0.00     0.109 A 
HETATM   18  N3  UNL     1      19.474   9.159  66.642  1.00  0.00    -0.312 N 
HETATM   19  N4  UNL     1      18.238   9.403  66.224  1.00  0.00    -0.304 N 
ATOM     20  H3  UNL     1      19.718   8.565  67.434  1.00  0.00     0.186 HD
ATOM     21  H4  UNL     1      17.396   9.020  66.653  1.00  0.00     0.186 HD
ENDBRANCH  13  15
ENDBRANCH   8   9
ENDBRANCH   4   8
BRANCH   7  22
HETATM   22  C14 UNL     1      23.200  12.513  63.438  1.00  0.00     0.054 C 
HETATM   23  C15 UNL     1      24.202  12.903  62.364  1.00  0.00     0.015 C 
HETATM   24  C16 UNL     1      25.488  12.152  62.604  1.00  0.00     0.044 C 
HETATM   25  C17 UNL     1      25.753  11.995  64.085  1.00  0.00     0.100 C 
HETATM   26  C18 UNL     1      27.153  11.403  64.234  1.00  0.00     0.051 C 
HETATM   27  F1  UNL     1      25.833  13.269  64.634  1.00  0.00    -0.243 F 
HETATM   28  C19 UNL     1      24.714  11.146  64.765  1.00  0.00     0.044 C 
HETATM   29  C20 UNL     1      23.422  11.120  63.940  1.00  0.00     0.015 C 
ENDBRANCH   7  22
TORSDOF 4
ENDMDL
MODEL 3
REMARK VINA RESULT: -7.878953549      1.298      1.525
REMARK  4 active torsions:
REMARK  status: ('A' for Active; 'I' for Inactive)
REMARK    1  A    between atoms: C3_4  and  C4_5 
REMARK    2  A    between atoms: C4_5  and  N2_6 
REMARK    3  A    between atoms: C8_10  and  C9_11 
REMARK    4  A    between atoms: C13_21  and  C14_22 
ROOT
HETATM    1  C1  UNL     1      19.229  15.375  63.370  1.00  0.00     0.157 C 
HETATM    2  N1  UNL     1      20.587  14.886  63.191  1.00  0.00    -0.348 N 
HETATM    3  C2  UNL     1      21.689  15.608  62.950  1.00  0.00     0.122 A 
HETATM    4  C3  UNL     1      22.731  14.740  62.856  1.00  0.00     0.065 A 
HETATM    5  N5  UNL     1      22.238  13.505  63.044  1.00  0.00    -0.343 N 
ATOM      6  H5  UNL     1      22.784  12.643  63.031  1.00  0.00     0.167 HD
HETATM    7  C13 UNL     1      20.919  13.584  63.251  1.00  0.00     0.087 A 
ENDROOT
BRANCH   4   8
HETATM    8  C4  UNL     1      24.150  15.032  62.601  1.00  0.00     0.121 C 
BRANCH   8   9
HETATM    9  N2  UNL     1      25.022  14.805  63.668  1.00  0.00    -0.367 N 
HETATM   10  C5  UNL     1      24.958  15.636  64.802  1.00  0.00     0.127 C 
HETATM   11  C6  UNL     1      24.413  14.762  65.942  1.00  0.00     0.021 C 
HETATM   12  C7  UNL     1      25.522  13.795  66.269  1.00  0.00     0.018 C 
HETATM   13  C8  UNL     1      25.745  12.911  65.065  1.00  0.00     0.075 C 
HETATM   14  C12 UNL     1      25.714  13.583  63.753  1.00  0.00     0.074 C 
BRANCH  13  15
HETATM   15  C9  UNL     1      24.817  11.759  65.175  1.00  0.00     0.036 A 
HETATM   16  C10 UNL     1      24.456  10.959  64.110  1.00  0.00     0.046 A 
HETATM   17  C11 UNL     1      23.579   9.978  64.537  1.00  0.00     0.109 A 
HETATM   18  N3  UNL     1      23.428  10.207  65.858  1.00  0.00    -0.312 N 
HETATM   19  N4  UNL     1      24.159  11.253  66.221  1.00  0.00    -0.304 N 
ATOM     20  H3  UNL     1      22.840   9.658  66.484  1.00  0.00     0.186 HD
ATOM     21  H4  UNL     1      24.211  11.622  67.170  1.00  0.00     0.186 HD
ENDBRANCH  13  15
ENDBRANCH   8   9
ENDBRANCH   4   8
BRANCH   7  22
HETATM   22  C14 UNL     1      19.974  12.444  63.505  1.00  0.00     0.054 C 
HETATM   23  C15 UNL     1      20.316  11.772  64.825  1.00  0.00     0.015 C 
HETATM   24  C16 UNL     1      19.830  10.345  64.784  1.00  0.00     0.044 C 
HETATM   25  C17 UNL     1      18.531  10.239  64.016  1.00  0.00     0.100 C 
HETATM   26  C18 UNL     1      18.019   8.810  64.190  1.00  0.00     0.051 C 
HETATM   27  F1  UNL     1      17.598  11.044  64.658  1.00  0.00    -0.243 F 
HETATM   28  C19 UNL     1      18.694  10.601  62.565  1.00  0.00     0.044 C 
HETATM   29  C20 UNL     1      19.940  11.471  62.367  1.00  0.00     0.015 C 
ENDBRANCH   7  22
TORSDOF 4
ENDMDL
MODEL 4
REMARK VINA RESULT: -7.751544824      1.515      3.241
REMARK  4 active torsions:
REMARK  status: ('A' for Active; 'I' for Inactive)
REMARK    1  A    between atoms: C3_4  and  C4_5 
REMARK    2  A    between atoms: C4_5  and  N2_6 
REMARK    3  A    between atoms: C8_10  and  C9_11 
REMARK    4  A    between atoms: C13_21  and  C14_22 
ROOT
HETATM    1  C1  UNL     1      20.336  14.142  63.744  1.00  0.00     0.157 C 
HETATM    2  N1  UNL     1      20.984  12.928  64.214  1.00  0.00    -0.348 N 
HETATM    3  C2  UNL     1      22.230  12.800  64.691  1.00  0.00     0.122 A 
HETATM    4  C3  UNL     1      22.410  11.492  65.011  1.00  0.00     0.065 A 
HETATM    5  N5  UNL     1      21.266  10.850  64.723  1.00  0.00    -0.343 N 
ATOM      6  H5  UNL     1      21.098   9.853  64.856  1.00  0.00     0.167 HD
HETATM    7  C13 UNL     1      20.382  11.726  64.232  1.00  0.00     0.087 A 
ENDROOT
BRANCH   4   8
HETATM    8  C4  UNL     1      23.603  10.839  65.571  1.00  0.00     0.121 C 
BRANCH   8   9
HETATM    9  N2  UNL     1      24.828  11.229  65.022  1.00  0.00    -0.367 N 
HETATM   10  C5  UNL     1      25.193  10.763  63.745  1.00  0.00     0.127 C 
HETATM   11  C6  UNL     1      25.154  11.987  62.816  1.00  0.00     0.021 C 
HETATM   12  C7  UNL     1      26.323  12.841  63.233  1.00  0.00     0.018 C 
HETATM   13  C8  UNL     1      26.078  13.316  64.646  1.00  0.00     0.075 C 
HETATM   14  C12 UNL     1      25.524  12.317  65.577  1.00  0.00     0.074 C 
BRANCH  13  15
HETATM   15  C9  UNL     1      25.291  14.572  64.569  1.00  0.00     0.036 A 
HETATM   16  C10 UNL     1      24.589  15.104  65.630  1.00  0.00     0.046 A 
HETATM   17  C11 UNL     1      23.961  16.272  65.237  1.00  0.00     0.109 A 
HETATM   18  N3  UNL     1      24.300  16.422  63.941  1.00  0.00    -0.312 N 
HETATM   19  N4  UNL     1      25.081  15.419  63.560  1.00  0.00    -0.304 N 
ATOM     20  H3  UNL     1      24.001  17.192  63.342  1.00  0.00     0.186 HD
ATOM     21  H4  UNL     1      25.469  15.311  62.623  1.00  0.00     0.186 HD
ENDBRANCH  13  15
ENDBRANCH   8   9
ENDBRANCH   4   8
BRANCH   7  22
HETATM   22  C14 UNL     1      18.978  11.436  63.781  1.00  0.00     0.054 C 
HETATM   23  C15 UNL     1      18.333  10.426  64.716  1.00  0.00     0.015 C 
HETATM   24  C16 UNL     1      17.245   9.698  63.967  1.00  0.00     0.044 C 
HETATM   25  C17 UNL     1      16.541  10.626  63.000  1.00  0.00     0.100 C 
HETATM   26  C18 UNL     1      15.343   9.866  62.435  1.00  0.00     0.051 C 
HETATM   27  F1  UNL     1      15.998  11.669  63.740  1.00  0.00    -0.243 F 
HETATM   28  C19 UNL     1      17.455  11.115  61.911  1.00  0.00     0.044 C 
HETATM   29  C20 UNL     1      18.920  11.001  62.349  1.00  0.00     0.015 C 
ENDBRANCH   7  22
TORSDOF 4
ENDMDL
MODEL 5
REMARK VINA RESULT: -7.716959066      3.501      6.904
REMARK  4 active torsions:
REMARK  status: ('A' for Active; 'I' for Inactive)
REMARK    1  A    between atoms: C3_4  and  C4_5 
REMARK    2  A    between atoms: C4_5  and  N2_6 
REMARK    3  A    between atoms: C8_10  and  C9_11 
REMARK    4  A    between atoms: C13_21  and  C14_22 
ROOT
HETATM    1  C1  UNL     1      24.749  14.596  66.386  1.00  0.00     0.157 C 
HETATM    2  N1  UNL     1      23.949  14.408  65.186  1.00  0.00    -0.348 N 
HETATM    3  C2  UNL     1      23.681  13.257  64.556  1.00  0.00     0.122 A 
HETATM    4  C3  UNL     1      22.898  13.552  63.484  1.00  0.00     0.065 A 
HETATM    5  N5  UNL     1      22.707  14.882  63.487  1.00  0.00    -0.343 N 
ATOM      6  H5  UNL     1      22.158  15.401  62.801  1.00  0.00     0.167 HD
HETATM    7  C13 UNL     1      23.349  15.418  64.530  1.00  0.00     0.087 A 
ENDROOT
BRANCH   4   8
HETATM    8  C4  UNL     1      22.336  12.640  62.477  1.00  0.00     0.121 C 
BRANCH   8   9
HETATM    9  N2  UNL     1      20.944  12.644  62.358  1.00  0.00    -0.367 N 
HETATM   10  C5  UNL     1      20.348  12.133  61.190  1.00  0.00     0.127 C 
HETATM   11  C6  UNL     1      19.633  10.838  61.606  1.00  0.00     0.021 C 
HETATM   12  C7  UNL     1      18.460  11.280  62.442  1.00  0.00     0.018 C 
HETATM   13  C8  UNL     1      18.995  11.942  63.689  1.00  0.00     0.075 C 
HETATM   14  C12 UNL     1      20.149  12.841  63.502  1.00  0.00     0.074 C 
BRANCH  13  15
HETATM   15  C9  UNL     1      19.215  10.881  64.703  1.00  0.00     0.036 A 
HETATM   16  C10 UNL     1      18.381   9.797  64.874  1.00  0.00     0.046 A 
HETATM   17  C11 UNL     1      18.856   8.996  65.897  1.00  0.00     0.109 A 
HETATM   18  N3  UNL     1      19.974   9.617  66.325  1.00  0.00    -0.312 N 
HETATM   19  N4  UNL     1      20.176  10.721  65.617  1.00  0.00    -0.304 N 
ATOM     20  H3  UNL     1      20.576   9.287  67.079  1.00  0.00     0.186 HD
ATOM     21  H4  UNL     1      20.958  11.361  65.752  1.00  0.00     0.186 HD
ENDBRANCH  13  15
ENDBRANCH   8   9
ENDBRANCH   4   8
BRANCH   7  22
HETATM   22  C14 UNL     1      23.400  16.870  64.911  1.00  0.00     0.054 C 
HETATM   23  C15 UNL     1      22.089  17.547  64.547  1.00  0.00     0.015 C 
HETATM   24  C16 UNL     1      22.342  19.020  64.346  1.00  0.00     0.044 C 
HETATM   25  C17 UNL     1      23.391  19.524  65.313  1.00  0.00     0.100 C 
HETATM   26  C18 UNL     1      23.442  21.044  65.173  1.00  0.00     0.051 C 
HETATM   27  F1  UNL     1      22.922  19.290  66.600  1.00  0.00    -0.243 F 
HETATM   28  C19 UNL     1      24.737  18.897  65.074  1.00  0.00     0.044 C 
HETATM   29  C20 UNL     1      24.583  17.572  64.319  1.00  0.00     0.015 C 
ENDBRANCH   7  22
TORSDOF 4
ENDMDL
