MODEL 1
REMARK VINA RESULT: -6.721021190      0.000      0.000
REMARK  2 active torsions:
REMARK  status: ('A' for Active; 'I' for Inactive)
REMARK    1  A    between atoms: C7_13  and  C8_14 
REMARK    2  A    between atoms: C8_14  and  N4_15 
ROOT
HETATM    1  N1  UNL     1      26.063   5.813  13.764  1.00  0.00    -0.086 NA
HETATM    2  C1  UNL     1      24.960   6.370  14.443  1.00  0.00     0.123 C 
HETATM    3  N2  UNL     1      25.128   6.736  15.708  1.00  0.00    -0.348 N 
ATOM      4  H2  UNL     1      26.003   6.640  16.224  1.00  0.00     0.163 HD
HETATM    5  C2  UNL     1      23.931   7.280  16.249  1.00  0.00     0.199 C 
HETATM    6  C3  UNL     1      23.721   7.022  17.713  1.00  0.00     0.061 C 
HETATM    7  C4  UNL     1      24.064   8.296  18.414  1.00  0.00     0.004 C 
HETATM    8  C5  UNL     1      24.318   9.339  17.350  1.00  0.00     0.004 C 
HETATM    9  C6  UNL     1      23.815   8.772  16.060  1.00  0.00     0.061 C 
HETATM   10  N3  UNL     1      22.922   6.645  15.431  1.00  0.00    -0.036 N 
ATOM     11  H31 UNL     1      21.995   7.070  15.454  1.00  0.00     0.281 HD
ATOM     12  H32 UNL     1      22.597   5.732  15.748  1.00  0.00     0.281 HD
HETATM   13  C7  UNL     1      23.632   6.671  14.094  1.00  0.00     0.280 C 
ENDROOT
BRANCH  13  14
HETATM   14  C8  UNL     1      22.795   5.982  13.112  1.00  0.00     0.312 C 
BRANCH  14  15
HETATM   15  N4  UNL     1      23.308   5.345  11.972  1.00  0.00     0.093 N 
HETATM   16  C9  UNL     1      22.320   4.289  11.626  1.00  0.00     0.275 C 
HETATM   17  C10 UNL     1      21.868   4.514  10.236  1.00  0.00     0.069 C 
HETATM   18  C11 UNL     1      22.160   5.955   9.954  1.00  0.00     0.200 C 
HETATM   19  F1  UNL     1      22.381   6.202   8.633  1.00  0.00    -0.248 F 
HETATM   20  C12 UNL     1      23.450   6.124  10.794  1.00  0.00     0.309 C 
ENDBRANCH  14  15
ENDBRANCH  13  14
TORSDOF 2
ENDMDL
MODEL 2
REMARK VINA RESULT: -6.389927861      2.889      6.145
REMARK  2 active torsions:
REMARK  status: ('A' for Active; 'I' for Inactive)
REMARK    1  A    between atoms: C7_13  and  C8_14 
REMARK    2  A    between atoms: C8_14  and  N4_15 
ROOT
HETATM    1  N1  UNL     1      26.157   6.006  14.094  1.00  0.00    -0.086 NA
HETATM    2  C1  UNL     1      24.887   6.341  13.584  1.00  0.00     0.123 C 
HETATM    3  N2  UNL     1      24.541   5.844  12.403  1.00  0.00    -0.348 N 
ATOM      4  H2  UNL     1      25.134   5.237  11.837  1.00  0.00     0.163 HD
HETATM    5  C2  UNL     1      23.236   6.269  12.029  1.00  0.00     0.199 C 
HETATM    6  C3  UNL     1      23.027   6.456  10.555  1.00  0.00     0.061 C 
HETATM    7  C4  UNL     1      22.264   5.259  10.087  1.00  0.00     0.004 C 
HETATM    8  C5  UNL     1      21.892   4.457  11.313  1.00  0.00     0.004 C 
HETATM    9  C6  UNL     1      22.149   5.334  12.498  1.00  0.00     0.061 C 
HETATM   10  N3  UNL     1      23.108   7.509  12.762  1.00  0.00    -0.036 N 
ATOM     11  H31 UNL     1      22.160   7.873  12.862  1.00  0.00     0.281 HD
ATOM     12  H32 UNL     1      23.463   8.343  12.296  1.00  0.00     0.281 HD
HETATM   13  C7  UNL     1      23.807   7.114  14.045  1.00  0.00     0.280 C 
ENDROOT
BRANCH  13  14
HETATM   14  C8  UNL     1      23.864   8.284  14.920  1.00  0.00     0.312 C 
BRANCH  14  15
HETATM   15  N4  UNL     1      23.583   8.234  16.295  1.00  0.00     0.093 N 
HETATM   16  C9  UNL     1      23.408   6.792  16.614  1.00  0.00     0.275 C 
HETATM   17  C10 UNL     1      24.371   6.434  17.679  1.00  0.00     0.069 C 
HETATM   18  C11 UNL     1      25.443   7.477  17.610  1.00  0.00     0.200 C 
HETATM   19  F1  UNL     1      26.058   7.684  18.808  1.00  0.00    -0.248 F 
HETATM   20  C12 UNL     1      24.586   8.695  17.185  1.00  0.00     0.309 C 
ENDBRANCH  14  15
ENDBRANCH  13  14
TORSDOF 2
ENDMDL
MODEL 3
REMARK VINA RESULT: -6.372047441      1.149      1.213
REMARK  2 active torsions:
REMARK  status: ('A' for Active; 'I' for Inactive)
REMARK    1  A    between atoms: C7_13  and  C8_14 
REMARK    2  A    between atoms: C8_14  and  N4_15 
ROOT
HETATM    1  N1  UNL     1      25.638   6.022  13.220  1.00  0.00    -0.086 NA
HETATM    2  C1  UNL     1      24.739   6.428  14.226  1.00  0.00     0.123 C 
HETATM    3  N2  UNL     1      25.215   6.604  15.452  1.00  0.00    -0.348 N 
ATOM      4  H2  UNL     1      26.190   6.464  15.717  1.00  0.00     0.163 HD
HETATM    5  C2  UNL     1      24.190   7.015  16.348  1.00  0.00     0.199 C 
HETATM    6  C3  UNL     1      24.349   6.531  17.759  1.00  0.00     0.061 C 
HETATM    7  C4  UNL     1      24.856   7.696  18.545  1.00  0.00     0.004 C 
HETATM    8  C5  UNL     1      24.841   8.897  17.627  1.00  0.00     0.004 C 
HETATM    9  C6  UNL     1      24.033   8.513  16.427  1.00  0.00     0.061 C 
HETATM   10  N3  UNL     1      23.009   6.474  15.713  1.00  0.00    -0.036 N 
ATOM     11  H31 UNL     1      22.117   6.856  16.028  1.00  0.00     0.281 HD
ATOM     12  H32 UNL     1      22.772   5.512  15.954  1.00  0.00     0.281 HD
HETATM   13  C7  UNL     1      23.366   6.728  14.263  1.00  0.00     0.280 C 
ENDROOT
BRANCH  13  14
HETATM   14  C8  UNL     1      22.311   6.166  13.422  1.00  0.00     0.312 C 
BRANCH  14  15
HETATM   15  N4  UNL     1      22.441   5.989  12.035  1.00  0.00     0.093 N 
HETATM   16  C9  UNL     1      22.593   4.524  11.832  1.00  0.00     0.275 C 
HETATM   17  C10 UNL     1      21.523   4.071  10.916  1.00  0.00     0.069 C 
HETATM   18  C11 UNL     1      20.456   5.117  11.005  1.00  0.00     0.200 C 
HETATM   19  F1  UNL     1      19.713   5.214   9.868  1.00  0.00    -0.248 F 
HETATM   20  C12 UNL     1      21.343   6.368  11.221  1.00  0.00     0.309 C 
ENDBRANCH  14  15
ENDBRANCH  13  14
TORSDOF 2
ENDMDL
MODEL 4
REMARK VINA RESULT: -6.366103766      1.220      1.477
REMARK  2 active torsions:
REMARK  status: ('A' for Active; 'I' for Inactive)
REMARK    1  A    between atoms: C7_13  and  C8_14 
REMARK    2  A    between atoms: C8_14  and  N4_15 
ROOT
HETATM    1  N1  UNL     1      26.389   5.678  13.830  1.00  0.00    -0.086 NA
HETATM    2  C1  UNL     1      25.211   6.299  14.292  1.00  0.00     0.123 C 
HETATM    3  N2  UNL     1      25.240   6.876  15.487  1.00  0.00    -0.348 N 
ATOM      4  H2  UNL     1      26.058   6.899  16.096  1.00  0.00     0.163 HD
HETATM    5  C2  UNL     1      23.983   7.459  15.807  1.00  0.00     0.199 C 
HETATM    6  C3  UNL     1      23.627   7.440  17.265  1.00  0.00     0.061 C 
HETATM    7  C4  UNL     1      23.870   8.825  17.771  1.00  0.00     0.004 C 
HETATM    8  C5  UNL     1      24.215   9.685  16.577  1.00  0.00     0.004 C 
HETATM    9  C6  UNL     1      23.860   8.893  15.357  1.00  0.00     0.061 C 
HETATM   10  N3  UNL     1      23.077   6.661  15.011  1.00  0.00    -0.036 N 
ATOM     11  H31 UNL     1      22.144   7.050  14.870  1.00  0.00     0.281 HD
ATOM     12  H32 UNL     1      22.738   5.802  15.444  1.00  0.00     0.281 HD
HETATM   13  C7  UNL     1      23.921   6.490  13.766  1.00  0.00     0.280 C 
ENDROOT
BRANCH  13  14
HETATM   14  C8  UNL     1      23.205   5.618  12.837  1.00  0.00     0.312 C 
BRANCH  14  15
HETATM   15  N4  UNL     1      22.226   6.081  11.943  1.00  0.00     0.093 N 
HETATM   16  C9  UNL     1      22.794   5.869  10.586  1.00  0.00     0.275 C 
HETATM   17  C10 UNL     1      21.857   5.021   9.818  1.00  0.00     0.069 C 
HETATM   18  C11 UNL     1      21.036   4.307  10.847  1.00  0.00     0.200 C 
HETATM   19  F1  UNL     1      19.795   3.973  10.397  1.00  0.00    -0.248 F 
HETATM   20  C12 UNL     1      20.977   5.408  11.934  1.00  0.00     0.309 C 
ENDBRANCH  14  15
ENDBRANCH  13  14
TORSDOF 2
ENDMDL
MODEL 5
REMARK VINA RESULT: -6.284867456      1.219      1.727
REMARK  2 active torsions:
REMARK  status: ('A' for Active; 'I' for Inactive)
REMARK    1  A    between atoms: C7_13  and  C8_14 
REMARK    2  A    between atoms: C8_14  and  N4_15 
ROOT
HETATM    1  N1  UNL     1      25.609   6.018  13.227  1.00  0.00    -0.086 NA
HETATM    2  C1  UNL     1      24.738   6.422  14.259  1.00  0.00     0.123 C 
HETATM    3  N2  UNL     1      25.236   6.531  15.485  1.00  0.00    -0.348 N 
ATOM      4  H2  UNL     1      26.207   6.339  15.732  1.00  0.00     0.163 HD
HETATM    5  C2  UNL     1      24.239   6.950  16.409  1.00  0.00     0.199 C 
HETATM    6  C3  UNL     1      24.393   6.405  17.799  1.00  0.00     0.061 C 
HETATM    7  C4  UNL     1      24.958   7.516  18.622  1.00  0.00     0.004 C 
HETATM    8  C5  UNL     1      24.984   8.751  17.751  1.00  0.00     0.004 C 
HETATM    9  C6  UNL     1      24.148   8.449  16.548  1.00  0.00     0.061 C 
HETATM   10  N3  UNL     1      23.029   6.484  15.769  1.00  0.00    -0.036 N 
ATOM     11  H31 UNL     1      22.158   6.891  16.110  1.00  0.00     0.281 HD
ATOM     12  H32 UNL     1      22.754   5.525  15.976  1.00  0.00     0.281 HD
HETATM   13  C7  UNL     1      23.380   6.779  14.326  1.00  0.00     0.280 C 
ENDROOT
BRANCH  13  14
HETATM   14  C8  UNL     1      22.293   6.294  13.477  1.00  0.00     0.312 C 
BRANCH  14  15
HETATM   15  N4  UNL     1      21.836   6.980  12.341  1.00  0.00     0.093 N 
HETATM   16  C9  UNL     1      22.601   8.255  12.311  1.00  0.00     0.275 C 
HETATM   17  C10 UNL     1      23.307   8.342  11.014  1.00  0.00     0.069 C 
HETATM   18  C11 UNL     1      23.400   6.932  10.519  1.00  0.00     0.200 C 
HETATM   19  F1  UNL     1      23.453   6.850   9.161  1.00  0.00    -0.248 F 
HETATM   20  C12 UNL     1      22.065   6.378  11.077  1.00  0.00     0.309 C 
ENDBRANCH  14  15
ENDBRANCH  13  14
TORSDOF 2
ENDMDL
