MODEL 1
REMARK VINA RESULT: -6.066994718      0.000      0.000
REMARK  6 active torsions:
REMARK  status: ('A' for Active; 'I' for Inactive)
REMARK    1  A    between atoms: N1_1  and  C1_5 
REMARK    2  A    between atoms: C1_5  and  C2_6 
REMARK    3  A    between atoms: C2_6  and  C3_7 
REMARK    4  A    between atoms: C3_7  and  N2_8 
REMARK    5  A    between atoms: N2_8  and  C4_10 
REMARK    6  A    between atoms: C4_10  and  C5_11 
ROOT
HETATM    1  C5  UNL     1      78.033   5.858  25.144  1.00  0.00     0.041 C 
HETATM    2  C6  UNL     1      79.271   5.142  24.732  1.00  0.00     0.011 C 
HETATM    3  C7  UNL     1      80.150   4.676  25.844  1.00  0.00     0.003 C 
HETATM    4  C8  UNL     1      80.942   5.767  26.501  1.00  0.00     0.025 C 
HETATM    5  C9  UNL     1      80.179   6.667  27.407  1.00  0.00     0.083 C 
HETATM    6  C10 UNL     1      80.240   6.162  28.849  1.00  0.00     0.025 C 
HETATM    7  C11 UNL     1      78.992   6.390  29.611  1.00  0.00     0.004 C 
HETATM    8  C12 UNL     1      78.182   7.563  29.230  1.00  0.00     0.020 C 
HETATM    9  C13 UNL     1      78.371   8.068  27.846  1.00  0.00     0.122 C 
HETATM   10  N3  UNL     1      78.869   7.015  27.009  1.00  0.00    -0.388 N 
HETATM   11  C14 UNL     1      77.961   6.021  26.648  1.00  0.00     0.065 C 
ENDROOT
BRANCH   1  12
HETATM   12  C4  UNL     1      76.773   5.250  24.577  1.00  0.00     0.123 C 
BRANCH  12  13
HETATM   13  N2  UNL     1      76.610   5.717  23.235  1.00  0.00    -0.420 N 
ATOM     14  H2  UNL     1      77.145   5.335  22.455  1.00  0.00     0.153 HD
BRANCH  13  15
HETATM   15  C3  UNL     1      75.649   6.754  23.064  1.00  0.00     0.115 C 
BRANCH  15  16
HETATM   16  C2  UNL     1      74.361   6.114  22.563  1.00  0.00     0.046 C 
BRANCH  16  17
HETATM   17  C1  UNL     1      74.690   5.305  21.349  1.00  0.00     0.231 C 
BRANCH  17  18
HETATM   18  N1  UNL     1      74.029   4.035  21.397  1.00  0.00    -0.079 N 
ATOM     19  H13 UNL     1      74.466   3.405  22.068  1.00  0.00     0.274 HD
ATOM     20  H12 UNL     1      73.108   4.103  21.831  1.00  0.00     0.274 HD
ATOM     21  H11 UNL     1      73.979   3.623  20.466  1.00  0.00     0.274 HD
ENDBRANCH  17  18
ENDBRANCH  16  17
ENDBRANCH  15  16
ENDBRANCH  13  15
ENDBRANCH  12  13
ENDBRANCH   1  12
TORSDOF 6
ENDMDL
MODEL 2
REMARK VINA RESULT: -6.034313186      3.094      6.632
REMARK  6 active torsions:
REMARK  status: ('A' for Active; 'I' for Inactive)
REMARK    1  A    between atoms: N1_1  and  C1_5 
REMARK    2  A    between atoms: C1_5  and  C2_6 
REMARK    3  A    between atoms: C2_6  and  C3_7 
REMARK    4  A    between atoms: C3_7  and  N2_8 
REMARK    5  A    between atoms: N2_8  and  C4_10 
REMARK    6  A    between atoms: C4_10  and  C5_11 
ROOT
HETATM    1  C5  UNL     1      80.884   6.290  28.461  1.00  0.00     0.041 C 
HETATM    2  C6  UNL     1      80.038   7.467  28.802  1.00  0.00     0.011 C 
HETATM    3  C7  UNL     1      78.627   7.411  28.320  1.00  0.00     0.003 C 
HETATM    4  C8  UNL     1      78.468   7.663  26.851  1.00  0.00     0.025 C 
HETATM    5  C9  UNL     1      78.876   6.549  25.954  1.00  0.00     0.083 C 
HETATM    6  C10 UNL     1      77.681   5.653  25.627  1.00  0.00     0.025 C 
HETATM    7  C11 UNL     1      78.030   4.219  25.506  1.00  0.00     0.004 C 
HETATM    8  C12 UNL     1      79.394   3.901  25.040  1.00  0.00     0.020 C 
HETATM    9  C13 UNL     1      80.421   4.953  25.252  1.00  0.00     0.122 C 
HETATM   10  N3  UNL     1      80.021   5.812  26.330  1.00  0.00    -0.388 N 
HETATM   11  C14 UNL     1      80.124   5.288  27.617  1.00  0.00     0.065 C 
ENDROOT
BRANCH   1  12
HETATM   12  C4  UNL     1      81.528   5.647  29.665  1.00  0.00     0.123 C 
BRANCH  12  13
HETATM   13  N2  UNL     1      80.897   6.159  30.842  1.00  0.00    -0.420 N 
ATOM     14  H2  UNL     1      80.606   7.133  30.925  1.00  0.00     0.153 HD
BRANCH  13  15
HETATM   15  C3  UNL     1      80.705   5.214  31.890  1.00  0.00     0.115 C 
BRANCH  15  16
HETATM   16  C2  UNL     1      79.301   5.417  32.445  1.00  0.00     0.046 C 
BRANCH  16  17
HETATM   17  C1  UNL     1      78.331   5.253  31.319  1.00  0.00     0.231 C 
BRANCH  17  18
HETATM   18  N1  UNL     1      78.325   3.897  30.856  1.00  0.00    -0.079 N 
ATOM     19  H13 UNL     1      79.182   3.405  31.111  1.00  0.00     0.274 HD
ATOM     20  H12 UNL     1      77.661   3.322  31.374  1.00  0.00     0.274 HD
ATOM     21  H11 UNL     1      78.154   3.864  29.851  1.00  0.00     0.274 HD
ENDBRANCH  17  18
ENDBRANCH  16  17
ENDBRANCH  15  16
ENDBRANCH  13  15
ENDBRANCH  12  13
ENDBRANCH   1  12
TORSDOF 6
ENDMDL
MODEL 3
REMARK VINA RESULT: -5.905560547      1.519      2.127
REMARK  6 active torsions:
REMARK  status: ('A' for Active; 'I' for Inactive)
REMARK    1  A    between atoms: N1_1  and  C1_5 
REMARK    2  A    between atoms: C1_5  and  C2_6 
REMARK    3  A    between atoms: C2_6  and  C3_7 
REMARK    4  A    between atoms: C3_7  and  N2_8 
REMARK    5  A    between atoms: N2_8  and  C4_10 
REMARK    6  A    between atoms: C4_10  and  C5_11 
ROOT
HETATM    1  C5  UNL     1      78.366   6.259  26.529  1.00  0.00     0.041 C 
HETATM    2  C6  UNL     1      79.255   7.257  25.872  1.00  0.00     0.011 C 
HETATM    3  C7  UNL     1      80.500   7.603  26.616  1.00  0.00     0.003 C 
HETATM    4  C8  UNL     1      80.283   8.503  27.796  1.00  0.00     0.025 C 
HETATM    5  C9  UNL     1      79.678   7.864  28.995  1.00  0.00     0.083 C 
HETATM    6  C10 UNL     1      80.764   7.370  29.951  1.00  0.00     0.025 C 
HETATM    7  C11 UNL     1      80.414   6.110  30.645  1.00  0.00     0.004 C 
HETATM    8  C12 UNL     1      78.982   5.862  30.898  1.00  0.00     0.020 C 
HETATM    9  C13 UNL     1      78.027   6.567  30.005  1.00  0.00     0.122 C 
HETATM   10  N3  UNL     1      78.673   6.898  28.767  1.00  0.00    -0.388 N 
HETATM   11  C14 UNL     1      78.903   5.846  27.883  1.00  0.00     0.065 C 
ENDROOT
BRANCH   1  12
HETATM   12  C4  UNL     1      78.053   5.069  25.654  1.00  0.00     0.123 C 
BRANCH  12  13
HETATM   13  N2  UNL     1      76.824   5.324  24.968  1.00  0.00    -0.420 N 
ATOM     14  H2  UNL     1      75.915   5.183  25.407  1.00  0.00     0.153 HD
BRANCH  13  15
HETATM   15  C3  UNL     1      76.960   5.789  23.629  1.00  0.00     0.115 C 
BRANCH  15  16
HETATM   16  C2  UNL     1      75.750   6.661  23.317  1.00  0.00     0.046 C 
BRANCH  16  17
HETATM   17  C1  UNL     1      74.816   5.865  22.462  1.00  0.00     0.231 C 
BRANCH  17  18
HETATM   18  N1  UNL     1      73.731   6.683  22.009  1.00  0.00    -0.079 N 
ATOM     19  H13 UNL     1      72.878   6.510  22.540  1.00  0.00     0.274 HD
ATOM     20  H12 UNL     1      73.867   7.664  22.255  1.00  0.00     0.274 HD
ATOM     21  H11 UNL     1      73.586   6.560  21.007  1.00  0.00     0.274 HD
ENDBRANCH  17  18
ENDBRANCH  16  17
ENDBRANCH  15  16
ENDBRANCH  13  15
ENDBRANCH  12  13
ENDBRANCH   1  12
TORSDOF 6
ENDMDL
MODEL 4
REMARK VINA RESULT: -5.860656033      1.100      1.275
REMARK  6 active torsions:
REMARK  status: ('A' for Active; 'I' for Inactive)
REMARK    1  A    between atoms: N1_1  and  C1_5 
REMARK    2  A    between atoms: C1_5  and  C2_6 
REMARK    3  A    between atoms: C2_6  and  C3_7 
REMARK    4  A    between atoms: C3_7  and  N2_8 
REMARK    5  A    between atoms: N2_8  and  C4_10 
REMARK    6  A    between atoms: C4_10  and  C5_11 
ROOT
HETATM    1  C5  UNL     1      78.767   5.573  25.616  1.00  0.00     0.041 C 
HETATM    2  C6  UNL     1      80.173   5.286  25.220  1.00  0.00     0.011 C 
HETATM    3  C7  UNL     1      81.183   5.363  26.316  1.00  0.00     0.003 C 
HETATM    4  C8  UNL     1      81.535   6.760  26.731  1.00  0.00     0.025 C 
HETATM    5  C9  UNL     1      80.514   7.471  27.546  1.00  0.00     0.083 C 
HETATM    6  C10 UNL     1      80.784   7.279  29.039  1.00  0.00     0.025 C 
HETATM    7  C11 UNL     1      79.553   7.176  29.856  1.00  0.00     0.004 C 
HETATM    8  C12 UNL     1      78.364   7.898  29.366  1.00  0.00     0.020 C 
HETATM    9  C13 UNL     1      78.328   8.189  27.910  1.00  0.00     0.122 C 
HETATM   10  N3  UNL     1      79.160   7.256  27.207  1.00  0.00    -0.388 N 
HETATM   11  C14 UNL     1      78.670   5.957  27.078  1.00  0.00     0.065 C 
ENDROOT
BRANCH   1  12
HETATM   12  C4  UNL     1      77.806   4.467  25.253  1.00  0.00     0.123 C 
BRANCH  12  13
HETATM   13  N2  UNL     1      76.682   5.047  24.585  1.00  0.00    -0.420 N 
ATOM     14  H2  UNL     1      75.725   4.740  24.760  1.00  0.00     0.153 HD
BRANCH  13  15
HETATM   15  C3  UNL     1      76.992   6.083  23.659  1.00  0.00     0.115 C 
BRANCH  15  16
HETATM   16  C2  UNL     1      75.693   6.796  23.309  1.00  0.00     0.046 C 
BRANCH  16  17
HETATM   17  C1  UNL     1      74.852   5.853  22.508  1.00  0.00     0.231 C 
BRANCH  17  18
HETATM   18  N1  UNL     1      73.721   6.537  21.955  1.00  0.00    -0.079 N 
ATOM     19  H13 UNL     1      72.843   6.081  22.203  1.00  0.00     0.274 HD
ATOM     20  H12 UNL     1      73.560   7.435  22.411  1.00  0.00     0.274 HD
ATOM     21  H11 UNL     1      73.824   6.637  20.945  1.00  0.00     0.274 HD
ENDBRANCH  17  18
ENDBRANCH  16  17
ENDBRANCH  15  16
ENDBRANCH  13  15
ENDBRANCH  12  13
ENDBRANCH   1  12
TORSDOF 6
ENDMDL
MODEL 5
REMARK VINA RESULT: -5.658532115      3.227      7.587
REMARK  6 active torsions:
REMARK  status: ('A' for Active; 'I' for Inactive)
REMARK    1  A    between atoms: N1_1  and  C1_5 
REMARK    2  A    between atoms: C1_5  and  C2_6 
REMARK    3  A    between atoms: C2_6  and  C3_7 
REMARK    4  A    between atoms: C3_7  and  N2_8 
REMARK    5  A    between atoms: N2_8  and  C4_10 
REMARK    6  A    between atoms: C4_10  and  C5_11 
ROOT
HETATM    1  C5  UNL     1      80.379   6.467  29.308  1.00  0.00     0.041 C 
HETATM    2  C6  UNL     1      79.482   7.632  29.541  1.00  0.00     0.011 C 
HETATM    3  C7  UNL     1      78.191   7.614  28.793  1.00  0.00     0.003 C 
HETATM    4  C8  UNL     1      78.318   7.945  27.336  1.00  0.00     0.025 C 
HETATM    5  C9  UNL     1      78.894   6.876  26.478  1.00  0.00     0.083 C 
HETATM    6  C10 UNL     1      77.787   6.009  25.878  1.00  0.00     0.025 C 
HETATM    7  C11 UNL     1      78.155   4.581  25.750  1.00  0.00     0.004 C 
HETATM    8  C12 UNL     1      79.583   4.275  25.540  1.00  0.00     0.020 C 
HETATM    9  C13 UNL     1      80.548   5.305  26.003  1.00  0.00     0.122 C 
HETATM   10  N3  UNL     1      79.946   6.110  27.027  1.00  0.00    -0.388 N 
HETATM   11  C14 UNL     1      79.798   5.518  28.280  1.00  0.00     0.065 C 
ENDROOT
BRANCH   1  12
HETATM   12  C4  UNL     1      80.779   5.756  30.577  1.00  0.00     0.123 C 
BRANCH  12  13
HETATM   13  N2  UNL     1      79.647   5.029  31.064  1.00  0.00    -0.420 N 
ATOM     14  H2  UNL     1      79.032   4.501  30.445  1.00  0.00     0.153 HD
BRANCH  13  15
HETATM   15  C3  UNL     1      79.441   5.094  32.471  1.00  0.00     0.115 C 
BRANCH  15  16
HETATM   16  C2  UNL     1      80.215   3.947  33.107  1.00  0.00     0.046 C 
BRANCH  16  17
HETATM   17  C1  UNL     1      81.058   4.513  34.205  1.00  0.00     0.231 C 
BRANCH  17  18
HETATM   18  N1  UNL     1      80.561   5.795  34.609  1.00  0.00    -0.079 N 
ATOM     19  H13 UNL     1      80.882   6.050  35.543  1.00  0.00     0.274 HD
ATOM     20  H12 UNL     1      80.999   6.554  34.086  1.00  0.00     0.274 HD
ATOM     21  H11 UNL     1      79.544   5.822  34.536  1.00  0.00     0.274 HD
ENDBRANCH  17  18
ENDBRANCH  16  17
ENDBRANCH  15  16
ENDBRANCH  13  15
ENDBRANCH  12  13
ENDBRANCH   1  12
TORSDOF 6
ENDMDL
