MODEL 1
REMARK VINA RESULT: -6.508068451      0.000      0.000
REMARK  2 active torsions:
REMARK  status: ('A' for Active; 'I' for Inactive)
REMARK    1  A    between atoms: C10_11  and  C11_12 
REMARK    2  A    between atoms: C11_12  and  N1_13 
ROOT
HETATM    1  C1  UNL     1      -6.905  40.455  -8.601  1.00  0.00     0.046 C 
HETATM    2  C2  UNL     1      -7.349  39.270  -7.851  1.00  0.00    -0.059 C 
HETATM    3  C3  UNL     1      -7.984  38.353  -8.543  1.00  0.00    -0.022 C 
HETATM    4  C4  UNL     1      -8.539  37.051  -8.009  1.00  0.00     0.030 C 
HETATM    5  C5  UNL     1      -9.034  37.271  -6.622  1.00  0.00     0.036 C 
HETATM    6  C6  UNL     1      -7.933  37.287  -5.593  1.00  0.00     0.126 C 
HETATM    7  O1  UNL     1      -6.818  37.938  -6.050  1.00  0.00    -0.376 OA
HETATM    8  C7  UNL     1      -7.027  39.256  -6.412  1.00  0.00     0.150 C 
HETATM    9  C8  UNL     1      -5.776  40.028  -6.079  1.00  0.00     0.037 C 
HETATM   10  C9  UNL     1      -5.079  39.324  -4.939  1.00  0.00     0.009 C 
HETATM   11  C10 UNL     1      -5.944  39.293  -3.683  1.00  0.00     0.011 C 
HETATM   12  C12 UNL     1      -6.130  37.918  -3.158  1.00  0.00     0.007 C 
HETATM   13  C13 UNL     1      -7.508  37.387  -3.129  1.00  0.00     0.007 C 
HETATM   14  C14 UNL     1      -8.400  37.774  -4.252  1.00  0.00     0.011 C 
HETATM   15  C15 UNL     1      -9.758  37.093  -3.998  1.00  0.00     0.012 C 
ENDROOT
BRANCH  11  16
HETATM   16  C11 UNL     1      -5.174  40.092  -2.633  1.00  0.00     0.234 C 
BRANCH  16  17
HETATM   17  N1  UNL     1      -3.904  40.439  -3.214  1.00  0.00    -0.079 N 
ATOM     18  H13 UNL     1      -3.816  40.148  -4.188  1.00  0.00     0.274 HD
ATOM     19  H12 UNL     1      -3.793  41.441  -3.367  1.00  0.00     0.274 HD
ATOM     20  H11 UNL     1      -3.181  40.043  -2.612  1.00  0.00     0.274 HD
ENDBRANCH  16  17
ENDBRANCH  11  16
TORSDOF 2
ENDMDL
MODEL 2
REMARK VINA RESULT: -5.602078038      2.191      3.767
REMARK  2 active torsions:
REMARK  status: ('A' for Active; 'I' for Inactive)
REMARK    1  A    between atoms: C10_11  and  C11_12 
REMARK    2  A    between atoms: C11_12  and  N1_13 
ROOT
HETATM    1  C1  UNL     1      -8.743  36.961  -8.110  1.00  0.00     0.046 C 
HETATM    2  C2  UNL     1      -7.670  37.601  -7.333  1.00  0.00    -0.059 C 
HETATM    3  C3  UNL     1      -6.779  38.274  -8.024  1.00  0.00    -0.022 C 
HETATM    4  C4  UNL     1      -5.586  39.017  -7.465  1.00  0.00     0.030 C 
HETATM    5  C5  UNL     1      -5.061  38.270  -6.289  1.00  0.00     0.036 C 
HETATM    6  C6  UNL     1      -5.861  38.500  -5.033  1.00  0.00     0.126 C 
HETATM    7  O1  UNL     1      -7.206  38.549  -5.288  1.00  0.00    -0.376 OA
HETATM    8  C7  UNL     1      -7.725  37.409  -5.872  1.00  0.00     0.150 C 
HETATM    9  C8  UNL     1      -9.128  37.223  -5.353  1.00  0.00     0.037 C 
HETATM   10  C9  UNL     1      -9.211  37.865  -3.988  1.00  0.00     0.009 C 
HETATM   11  C10 UNL     1      -8.265  37.200  -2.994  1.00  0.00     0.011 C 
HETATM   12  C12 UNL     1      -7.355  38.174  -2.342  1.00  0.00     0.007 C 
HETATM   13  C13 UNL     1      -5.907  38.006  -2.580  1.00  0.00     0.007 C 
HETATM   14  C14 UNL     1      -5.496  37.547  -3.932  1.00  0.00     0.011 C 
HETATM   15  C15 UNL     1      -3.959  37.463  -3.928  1.00  0.00     0.012 C 
ENDROOT
BRANCH  11  16
HETATM   16  C11 UNL     1      -9.160  36.602  -1.909  1.00  0.00     0.234 C 
BRANCH  16  17
HETATM   17  N1  UNL     1     -10.374  37.376  -1.891  1.00  0.00    -0.079 N 
ATOM     18  H13 UNL     1     -10.814  37.410  -0.971  1.00  0.00     0.274 HD
ATOM     19  H12 UNL     1     -10.213  38.377  -1.996  1.00  0.00     0.274 HD
ATOM     20  H11 UNL     1     -10.985  36.990  -2.612  1.00  0.00     0.274 HD
ENDBRANCH  16  17
ENDBRANCH  11  16
TORSDOF 2
ENDMDL
MODEL 3
REMARK VINA RESULT: -5.543325023      2.268      5.130
REMARK  2 active torsions:
REMARK  status: ('A' for Active; 'I' for Inactive)
REMARK    1  A    between atoms: C10_11  and  C11_12 
REMARK    2  A    between atoms: C11_12  and  N1_13 
ROOT
HETATM    1  C1  UNL     1     -10.269  36.929  -3.198  1.00  0.00     0.046 C 
HETATM    2  C2  UNL     1      -8.836  37.255  -3.257  1.00  0.00    -0.059 C 
HETATM    3  C3  UNL     1      -8.142  37.011  -2.169  1.00  0.00    -0.022 C 
HETATM    4  C4  UNL     1      -6.663  37.256  -1.976  1.00  0.00     0.030 C 
HETATM    5  C5  UNL     1      -6.275  38.483  -2.725  1.00  0.00     0.036 C 
HETATM    6  C6  UNL     1      -6.098  38.246  -4.203  1.00  0.00     0.126 C 
HETATM    7  O1  UNL     1      -7.047  37.392  -4.699  1.00  0.00    -0.376 OA
HETATM    8  C7  UNL     1      -8.351  37.818  -4.531  1.00  0.00     0.150 C 
HETATM    9  C8  UNL     1      -9.146  37.351  -5.723  1.00  0.00     0.037 C 
HETATM   10  C9  UNL     1      -8.201  37.219  -6.894  1.00  0.00     0.009 C 
HETATM   11  C10 UNL     1      -7.570  38.557  -7.262  1.00  0.00     0.011 C 
HETATM   12  C12 UNL     1      -6.088  38.496  -7.287  1.00  0.00     0.007 C 
HETATM   13  C13 UNL     1      -5.362  39.349  -6.324  1.00  0.00     0.007 C 
HETATM   14  C14 UNL     1      -5.976  39.522  -4.983  1.00  0.00     0.011 C 
HETATM   15  C15 UNL     1      -5.034  40.432  -4.174  1.00  0.00     0.012 C 
ENDROOT
BRANCH  11  16
HETATM   16  C11 UNL     1      -8.047  38.861  -8.682  1.00  0.00     0.234 C 
BRANCH  16  17
HETATM   17  N1  UNL     1      -9.042  37.874  -9.013  1.00  0.00    -0.079 N 
ATOM     18  H13 UNL     1      -8.665  36.928  -9.065  1.00  0.00     0.274 HD
ATOM     19  H12 UNL     1      -9.708  37.708  -8.258  1.00  0.00     0.274 HD
ATOM     20  H11 UNL     1      -9.486  38.176  -9.880  1.00  0.00     0.274 HD
ENDBRANCH  16  17
ENDBRANCH  11  16
TORSDOF 2
ENDMDL
MODEL 4
REMARK VINA RESULT: -5.502081436      2.501      4.707
REMARK  2 active torsions:
REMARK  status: ('A' for Active; 'I' for Inactive)
REMARK    1  A    between atoms: C10_11  and  C11_12 
REMARK    2  A    between atoms: C11_12  and  N1_13 
ROOT
HETATM    1  C1  UNL     1      -3.063  36.684  -4.176  1.00  0.00     0.046 C 
HETATM    2  C2  UNL     1      -4.341  37.358  -3.899  1.00  0.00    -0.059 C 
HETATM    3  C3  UNL     1      -4.498  37.820  -2.680  1.00  0.00    -0.022 C 
HETATM    4  C4  UNL     1      -5.711  38.547  -2.147  1.00  0.00     0.030 C 
HETATM    5  C5  UNL     1      -6.932  37.979  -2.782  1.00  0.00     0.036 C 
HETATM    6  C6  UNL     1      -7.170  38.493  -4.179  1.00  0.00     0.126 C 
HETATM    7  O1  UNL     1      -6.002  38.609  -4.884  1.00  0.00    -0.376 OA
HETATM    8  C7  UNL     1      -5.292  37.432  -5.023  1.00  0.00     0.150 C 
HETATM    9  C8  UNL     1      -4.614  37.459  -6.369  1.00  0.00     0.037 C 
HETATM   10  C9  UNL     1      -5.431  38.337  -7.288  1.00  0.00     0.009 C 
HETATM   11  C10 UNL     1      -6.835  37.781  -7.496  1.00  0.00     0.011 C 
HETATM   12  C12 UNL     1      -7.889  38.775  -7.175  1.00  0.00     0.007 C 
HETATM   13  C13 UNL     1      -8.810  38.447  -6.068  1.00  0.00     0.007 C 
HETATM   14  C14 UNL     1      -8.233  37.723  -4.906  1.00  0.00     0.011 C 
HETATM   15  C15 UNL     1      -9.377  37.512  -3.897  1.00  0.00     0.012 C 
ENDROOT
BRANCH  11  16
HETATM   16  C11 UNL     1      -6.935  37.462  -8.987  1.00  0.00     0.234 C 
BRANCH  16  17
HETATM   17  N1  UNL     1      -7.737  38.497  -9.587  1.00  0.00    -0.079 N 
ATOM     18  H13 UNL     1      -8.661  38.172  -9.874  1.00  0.00     0.274 HD
ATOM     19  H12 UNL     1      -8.048  39.201  -8.918  1.00  0.00     0.274 HD
ATOM     20  H11 UNL     1      -7.194  38.887 -10.357  1.00  0.00     0.274 HD
ENDBRANCH  16  17
ENDBRANCH  11  16
TORSDOF 2
ENDMDL
MODEL 5
REMARK VINA RESULT: -5.421703491      1.701      4.803
REMARK  2 active torsions:
REMARK  status: ('A' for Active; 'I' for Inactive)
REMARK    1  A    between atoms: C10_11  and  C11_12 
REMARK    2  A    between atoms: C11_12  and  N1_13 
ROOT
HETATM    1  C1  UNL     1      -9.948  35.979  -3.511  1.00  0.00     0.046 C 
HETATM    2  C2  UNL     1      -8.606  36.517  -3.242  1.00  0.00    -0.059 C 
HETATM    3  C3  UNL     1      -7.996  36.043  -2.180  1.00  0.00    -0.022 C 
HETATM    4  C4  UNL     1      -6.620  36.431  -1.690  1.00  0.00     0.030 C 
HETATM    5  C5  UNL     1      -6.397  37.876  -1.971  1.00  0.00     0.036 C 
HETATM    6  C6  UNL     1      -6.024  38.153  -3.404  1.00  0.00     0.126 C 
HETATM    7  O1  UNL     1      -6.735  37.372  -4.275  1.00  0.00    -0.376 OA
HETATM    8  C7  UNL     1      -8.107  37.523  -4.198  1.00  0.00     0.150 C 
HETATM    9  C8  UNL     1      -8.669  37.348  -5.586  1.00  0.00     0.037 C 
HETATM   10  C9  UNL     1      -7.598  37.740  -6.577  1.00  0.00     0.009 C 
HETATM   11  C10 UNL     1      -7.200  39.204  -6.427  1.00  0.00     0.011 C 
HETATM   12  C12 UNL     1      -5.739  39.375  -6.233  1.00  0.00     0.007 C 
HETATM   13  C13 UNL     1      -5.294  39.973  -4.958  1.00  0.00     0.007 C 
HETATM   14  C14 UNL     1      -6.067  39.615  -3.741  1.00  0.00     0.011 C 
HETATM   15  C15 UNL     1      -5.406  40.348  -2.559  1.00  0.00     0.012 C 
ENDROOT
BRANCH  11  16
HETATM   16  C11 UNL     1      -7.574  39.871  -7.750  1.00  0.00     0.234 C 
BRANCH  16  17
HETATM   17  N1  UNL     1      -6.824  41.097  -7.831  1.00  0.00    -0.079 N 
ATOM     18  H13 UNL     1      -5.959  41.074  -7.291  1.00  0.00     0.274 HD
ATOM     19  H12 UNL     1      -6.403  41.249  -8.747  1.00  0.00     0.274 HD
ATOM     20  H11 UNL     1      -7.452  41.851  -7.548  1.00  0.00     0.274 HD
ENDBRANCH  16  17
ENDBRANCH  11  16
TORSDOF 2
ENDMDL
