MODEL 1
REMARK VINA RESULT: -8.733615216      0.000      0.000
REMARK  1 active torsions:
REMARK  status: ('A' for Active; 'I' for Inactive)
REMARK    1  A    between atoms: C6_7  and  C7_8 
ROOT
HETATM    1  C1  UNL     1      -7.091  36.230 -15.954  1.00  0.00     0.000 C 
HETATM    2  C2  UNL     1      -5.775  35.534 -16.265  1.00  0.00     0.000 C 
HETATM    3  C3  UNL     1      -4.749  35.717 -15.200  1.00  0.00     0.001 C 
HETATM    4  C4  UNL     1      -5.388  35.610 -13.835  1.00  0.00     0.017 C 
HETATM    5  C5  UNL     1      -5.600  36.976 -13.269  1.00  0.00     0.076 C 
HETATM    6  S1  UNL     1      -5.380  36.909 -11.435  1.00  0.00    -0.108 SA
HETATM    7  C6  UNL     1      -6.657  38.118 -11.101  1.00  0.00     0.074 C 
HETATM    8  N2  UNL     1      -7.347  38.184 -12.138  1.00  0.00    -0.380 N 
ATOM      9  H2  UNL     1      -8.142  38.822 -12.171  1.00  0.00     0.160 HD
HETATM   10  C11 UNL     1      -7.050  37.400 -13.255  1.00  0.00     0.096 C 
HETATM   11  C12 UNL     1      -7.392  38.239 -14.475  1.00  0.00     0.026 C 
HETATM   12  C13 UNL     1      -6.797  37.678 -15.738  1.00  0.00     0.002 C 
ENDROOT
BRANCH   7  13
HETATM   13  C7  UNL     1      -6.826  38.868  -9.834  1.00  0.00     0.241 C 
HETATM   14  C8  UNL     1      -5.953  38.285  -8.740  1.00  0.00     0.041 C 
HETATM   15  C9  UNL     1      -6.895  37.550  -7.837  1.00  0.00     0.030 C 
HETATM   16  C10 UNL     1      -8.188  38.304  -8.032  1.00  0.00     0.233 C 
HETATM   17  N1  UNL     1      -8.183  38.836  -9.356  1.00  0.00    -0.065 N 
ATOM     18  H12 UNL     1      -8.639  39.746  -9.412  1.00  0.00     0.278 HD
ATOM     19  H11 UNL     1      -8.806  38.327  -9.983  1.00  0.00     0.278 HD
ENDBRANCH   7  13
TORSDOF 1
ENDMDL
MODEL 2
REMARK VINA RESULT: -8.192379209      1.190      2.131
REMARK  1 active torsions:
REMARK  status: ('A' for Active; 'I' for Inactive)
REMARK    1  A    between atoms: C6_7  and  C7_8 
ROOT
HETATM    1  C1  UNL     1      -4.414  35.497 -15.639  1.00  0.00     0.000 C 
HETATM    2  C2  UNL     1      -5.492  35.605 -16.707  1.00  0.00     0.000 C 
HETATM    3  C3  UNL     1      -6.764  36.191 -16.198  1.00  0.00     0.001 C 
HETATM    4  C4  UNL     1      -6.473  37.338 -15.259  1.00  0.00     0.017 C 
HETATM    5  C5  UNL     1      -6.615  36.883 -13.844  1.00  0.00     0.076 C 
HETATM    6  S1  UNL     1      -7.267  38.280 -12.824  1.00  0.00    -0.108 SA
HETATM    7  C6  UNL     1      -6.309  37.847 -11.375  1.00  0.00     0.074 C 
HETATM    8  N2  UNL     1      -5.404  37.090 -11.775  1.00  0.00    -0.380 N 
ATOM      9  H2  UNL     1      -4.731  36.716 -11.106  1.00  0.00     0.160 HD
HETATM   10  C11 UNL     1      -5.294  36.743 -13.123  1.00  0.00     0.096 C 
HETATM   11  C12 UNL     1      -4.793  35.309 -13.162  1.00  0.00     0.026 C 
HETATM   12  C13 UNL     1      -4.967  34.680 -14.518  1.00  0.00     0.002 C 
ENDROOT
BRANCH   7  13
HETATM   13  C7  UNL     1      -6.574  38.317  -9.994  1.00  0.00     0.241 C 
HETATM   14  C8  UNL     1      -6.340  37.205  -8.991  1.00  0.00     0.041 C 
HETATM   15  C9  UNL     1      -7.708  36.771  -8.561  1.00  0.00     0.030 C 
HETATM   16  C10 UNL     1      -8.524  38.026  -8.756  1.00  0.00     0.233 C 
HETATM   17  N1  UNL     1      -7.930  38.766  -9.820  1.00  0.00    -0.065 N 
ATOM     18  H12 UNL     1      -7.992  39.774  -9.677  1.00  0.00     0.278 HD
ATOM     19  H11 UNL     1      -8.473  38.713 -10.682  1.00  0.00     0.278 HD
ENDBRANCH   7  13
TORSDOF 1
ENDMDL
MODEL 3
REMARK VINA RESULT: -7.602049873      1.598      2.531
REMARK  1 active torsions:
REMARK  status: ('A' for Active; 'I' for Inactive)
REMARK    1  A    between atoms: C6_7  and  C7_8 
ROOT
HETATM    1  C1  UNL     1      -5.449  36.708 -15.193  1.00  0.00     0.000 C 
HETATM    2  C2  UNL     1      -6.804  37.092 -15.768  1.00  0.00     0.000 C 
HETATM    3  C3  UNL     1      -7.799  37.466 -14.724  1.00  0.00     0.001 C 
HETATM    4  C4  UNL     1      -7.141  38.297 -13.648  1.00  0.00     0.017 C 
HETATM    5  C5  UNL     1      -6.851  37.443 -12.457  1.00  0.00     0.076 C 
HETATM    6  S1  UNL     1      -7.039  38.461 -10.926  1.00  0.00    -0.108 SA
HETATM    7  C6  UNL     1      -5.698  37.651 -10.060  1.00  0.00     0.074 C 
HETATM    8  N2  UNL     1      -5.026  37.070 -10.934  1.00  0.00    -0.380 N 
ATOM      9  H2  UNL     1      -4.200  36.537 -10.660  1.00  0.00     0.160 HD
HETATM   10  C11 UNL     1      -5.381  37.137 -12.283  1.00  0.00     0.096 C 
HETATM   11  C12 UNL     1      -5.021  35.792 -12.892  1.00  0.00     0.026 C 
HETATM   12  C13 UNL     1      -5.667  35.583 -14.235  1.00  0.00     0.002 C 
ENDROOT
BRANCH   7  13
HETATM   13  C7  UNL     1      -5.469  37.688  -8.595  1.00  0.00     0.241 C 
HETATM   14  C8  UNL     1      -6.758  37.436  -7.840  1.00  0.00     0.041 C 
HETATM   15  C9  UNL     1      -7.163  38.772  -7.298  1.00  0.00     0.030 C 
HETATM   16  C10 UNL     1      -5.838  39.481  -7.157  1.00  0.00     0.233 C 
HETATM   17  N1  UNL     1      -4.961  38.960  -8.154  1.00  0.00    -0.065 N 
ATOM     18  H12 UNL     1      -3.994  38.905  -7.834  1.00  0.00     0.278 HD
ATOM     19  H11 UNL     1      -4.817  39.612  -8.925  1.00  0.00     0.278 HD
ENDBRANCH   7  13
TORSDOF 1
ENDMDL
MODEL 4
REMARK VINA RESULT: -7.390058815      0.968      1.151
REMARK  1 active torsions:
REMARK  status: ('A' for Active; 'I' for Inactive)
REMARK    1  A    between atoms: C6_7  and  C7_8 
ROOT
HETATM    1  C1  UNL     1      -7.595  36.683 -15.521  1.00  0.00     0.000 C 
HETATM    2  C2  UNL     1      -6.404  36.025 -16.200  1.00  0.00     0.000 C 
HETATM    3  C3  UNL     1      -5.176  36.024 -15.357  1.00  0.00     0.001 C 
HETATM    4  C4  UNL     1      -5.527  35.714 -13.920  1.00  0.00     0.017 C 
HETATM    5  C5  UNL     1      -5.556  36.977 -13.123  1.00  0.00     0.076 C 
HETATM    6  S1  UNL     1      -4.971  36.620 -11.407  1.00  0.00    -0.108 SA
HETATM    7  C6  UNL     1      -6.096  37.781 -10.637  1.00  0.00     0.074 C 
HETATM    8  N2  UNL     1      -6.978  38.019 -11.485  1.00  0.00    -0.380 N 
ATOM      9  H2  UNL     1      -7.732  38.666 -11.255  1.00  0.00     0.160 HD
HETATM   10  C11 UNL     1      -6.952  37.416 -12.744  1.00  0.00     0.096 C 
HETATM   11  C12 UNL     1      -7.495  38.440 -13.726  1.00  0.00     0.026 C 
HETATM   12  C13 UNL     1      -7.196  38.075 -15.155  1.00  0.00     0.002 C 
ENDROOT
BRANCH   7  13
HETATM   13  C7  UNL     1      -5.967  38.326  -9.264  1.00  0.00     0.241 C 
HETATM   14  C8  UNL     1      -7.076  37.806  -8.370  1.00  0.00     0.041 C 
HETATM   15  C9  UNL     1      -8.011  38.963  -8.194  1.00  0.00     0.030 C 
HETATM   16  C10 UNL     1      -7.096  40.151  -8.361  1.00  0.00     0.233 C 
HETATM   17  N1  UNL     1      -6.040  39.763  -9.237  1.00  0.00    -0.065 N 
ATOM     18  H12 UNL     1      -5.149  40.194  -8.991  1.00  0.00     0.278 HD
ATOM     19  H11 UNL     1      -6.139  40.166 -10.169  1.00  0.00     0.278 HD
ENDBRANCH   7  13
TORSDOF 1
ENDMDL
MODEL 5
REMARK VINA RESULT: -7.345981687      3.603      8.033
REMARK  1 active torsions:
REMARK  status: ('A' for Active; 'I' for Inactive)
REMARK    1  A    between atoms: C6_7  and  C7_8 
ROOT
HETATM    1  C1  UNL     1      -8.905  37.720  -3.503  1.00  0.00     0.000 C 
HETATM    2  C2  UNL     1      -7.748  37.563  -2.528  1.00  0.00     0.000 C 
HETATM    3  C3  UNL     1      -6.413  37.668  -3.182  1.00  0.00     0.001 C 
HETATM    4  C4  UNL     1      -6.422  38.768  -4.217  1.00  0.00     0.017 C 
HETATM    5  C5  UNL     1      -6.569  38.179  -5.582  1.00  0.00     0.076 C 
HETATM    6  S1  UNL     1      -5.617  39.206  -6.787  1.00  0.00    -0.108 SA
HETATM    7  C6  UNL     1      -6.799  38.987  -8.114  1.00  0.00     0.074 C 
HETATM    8  N2  UNL     1      -7.851  38.594  -7.574  1.00  0.00    -0.380 N 
ATOM      9  H2  UNL     1      -8.670  38.403  -8.152  1.00  0.00     0.160 HD
HETATM   10  C11 UNL     1      -7.931  38.411  -6.192  1.00  0.00     0.096 C 
HETATM   11  C12 UNL     1      -8.848  37.221  -5.966  1.00  0.00     0.026 C 
HETATM   12  C13 UNL     1      -8.747  36.681  -4.564  1.00  0.00     0.002 C 
ENDROOT
BRANCH   7  13
HETATM   13  C7  UNL     1      -6.538  39.234  -9.552  1.00  0.00     0.241 C 
HETATM   14  C8  UNL     1      -6.890  38.016 -10.382  1.00  0.00     0.041 C 
HETATM   15  C9  UNL     1      -5.575  37.412 -10.770  1.00  0.00     0.030 C 
HETATM   16  C10 UNL     1      -4.654  38.609 -10.770  1.00  0.00     0.233 C 
HETATM   17  N1  UNL     1      -5.155  39.539  -9.812  1.00  0.00    -0.065 N 
ATOM     18  H12 UNL     1      -5.016  40.508 -10.099  1.00  0.00     0.278 HD
ATOM     19  H11 UNL     1      -4.594  39.562  -8.961  1.00  0.00     0.278 HD
ENDBRANCH   7  13
TORSDOF 1
ENDMDL
