MODEL 1
REMARK VINA RESULT: -7.545450208      0.000      0.000
REMARK  10 active torsions:
REMARK  status: ('A' for Active; 'I' for Inactive)
REMARK    1  A    between atoms: N1_1  and  C1_5 
REMARK    2  A    between atoms: C3_8  and  O2_9 
REMARK    3  A    between atoms: O2_9  and  C4_10 
REMARK    4  A    between atoms: C6_12  and  C7_13 
REMARK    5  A    between atoms: C7_13  and  O3_14 
REMARK    6  A    between atoms: O3_14  and  C8_15 
REMARK    7  A    between atoms: C9_16  and  O4_17 
REMARK    8  A    between atoms: C10_19  and  O5_20 
REMARK    9  A    between atoms: C11_22  and  O6_23 
REMARK   10  A    between atoms: C12_25  and  O7_26 
ROOT
HETATM    1  C4  UNL     1     -88.091  64.618  95.702  1.00  0.00     0.267 C 
HETATM    2  C5  UNL     1     -87.714  63.574  94.674  1.00  0.00     0.095 C 
HETATM    3  C6  UNL     1     -87.544  62.751  95.958  1.00  0.00     0.153 C 
HETATM    4  O8  UNL     1     -87.287  63.921  96.604  1.00  0.00    -0.353 OA
ENDROOT
BRANCH   3   5
HETATM    5  C7  UNL     1     -86.480  61.736  95.759  1.00  0.00     0.200 C 
BRANCH   5   6
HETATM    6  O3  UNL     1     -86.921  60.538  95.320  1.00  0.00    -0.378 OA
BRANCH   6   7
HETATM    7  C8  UNL     1     -86.400  59.978  94.212  1.00  0.00     0.184 C 
HETATM    8  C9  UNL     1     -87.534  59.751  93.165  1.00  0.00     0.181 C 
HETATM    9  C10 UNL     1     -87.009  58.697  92.240  1.00  0.00     0.180 C 
HETATM   10  C11 UNL     1     -85.956  57.945  92.986  1.00  0.00     0.180 C 
HETATM   11  C12 UNL     1     -85.899  58.575  94.383  1.00  0.00     0.181 C 
BRANCH   8  12
HETATM   12  O4  UNL     1     -88.612  59.267  93.871  1.00  0.00    -0.390 OA
ATOM     13  H4  UNL     1     -88.474  59.531  94.773  1.00  0.00     0.210 HD
ENDBRANCH   8  12
BRANCH   9  14
HETATM   14  O5  UNL     1     -86.437  59.289  91.098  1.00  0.00    -0.390 OA
ATOM     15  H5  UNL     1     -86.605  58.756  90.330  1.00  0.00     0.210 HD
ENDBRANCH   9  14
BRANCH  10  16
HETATM   16  O6  UNL     1     -86.257  56.600  93.172  1.00  0.00    -0.390 OA
ATOM     17  H6  UNL     1     -85.491  56.047  93.264  1.00  0.00     0.210 HD
ENDBRANCH  10  16
BRANCH  11  18
HETATM   18  O7  UNL     1     -84.595  58.467  94.801  1.00  0.00    -0.390 OA
ATOM     19  H7  UNL     1     -84.017  59.163  94.508  1.00  0.00     0.210 HD
ENDBRANCH  11  18
ENDBRANCH   6   7
ENDBRANCH   5   6
ENDBRANCH   3   5
BRANCH   1  20
HETATM   20  O2  UNL     1     -87.590  65.858  95.309  1.00  0.00    -0.308 OA
BRANCH  20  21
HETATM   21  C3  UNL     1     -88.589  66.728  94.902  1.00  0.00     0.474 C 
HETATM   22  O1  UNL     1     -89.426  66.955  95.967  1.00  0.00    -0.335 OA
HETATM   23  C2  UNL     1     -89.161  68.201  96.486  1.00  0.00     0.235 C 
HETATM   24  C1  UNL     1     -88.814  68.987  95.216  1.00  0.00     0.409 C 
HETATM   25  N2  UNL     1     -87.987  67.984  94.525  1.00  0.00     0.006 N 
ATOM     26  H22 UNL     1     -87.905  68.127  93.519  1.00  0.00     0.285 HD
ATOM     27  H21 UNL     1     -86.989  68.050  94.726  1.00  0.00     0.285 HD
BRANCH  24  28
HETATM   28  N1  UNL     1     -89.995  69.241  94.418  1.00  0.00    -0.048 N 
ATOM     29  H13 UNL     1     -90.399  68.375  94.061  1.00  0.00     0.276 HD
ATOM     30  H12 UNL     1     -90.777  69.552  94.994  1.00  0.00     0.276 HD
ATOM     31  H11 UNL     1     -89.797  69.901  93.666  1.00  0.00     0.276 HD
ENDBRANCH  24  28
ENDBRANCH  20  21
ENDBRANCH   1  20
TORSDOF 10
ENDMDL
MODEL 2
REMARK VINA RESULT: -7.507956250      1.281      1.406
REMARK  10 active torsions:
REMARK  status: ('A' for Active; 'I' for Inactive)
REMARK    1  A    between atoms: N1_1  and  C1_5 
REMARK    2  A    between atoms: C3_8  and  O2_9 
REMARK    3  A    between atoms: O2_9  and  C4_10 
REMARK    4  A    between atoms: C6_12  and  C7_13 
REMARK    5  A    between atoms: C7_13  and  O3_14 
REMARK    6  A    between atoms: O3_14  and  C8_15 
REMARK    7  A    between atoms: C9_16  and  O4_17 
REMARK    8  A    between atoms: C10_19  and  O5_20 
REMARK    9  A    between atoms: C11_22  and  O6_23 
REMARK   10  A    between atoms: C12_25  and  O7_26 
ROOT
HETATM    1  C4  UNL     1     -89.116  64.090  95.471  1.00  0.00     0.267 C 
HETATM    2  C5  UNL     1     -87.607  64.066  95.352  1.00  0.00     0.095 C 
HETATM    3  C6  UNL     1     -87.915  62.586  95.090  1.00  0.00     0.153 C 
HETATM    4  O8  UNL     1     -89.039  62.748  95.841  1.00  0.00    -0.353 OA
ENDROOT
BRANCH   3   5
HETATM    5  C7  UNL     1     -86.785  61.753  95.573  1.00  0.00     0.200 C 
BRANCH   5   6
HETATM    6  O3  UNL     1     -86.905  60.435  95.306  1.00  0.00    -0.378 OA
BRANCH   6   7
HETATM    7  C8  UNL     1     -86.383  59.912  94.180  1.00  0.00     0.184 C 
HETATM    8  C9  UNL     1     -87.521  59.698  93.134  1.00  0.00     0.181 C 
HETATM    9  C10 UNL     1     -86.988  58.676  92.179  1.00  0.00     0.180 C 
HETATM   10  C11 UNL     1     -85.920  57.918  92.898  1.00  0.00     0.180 C 
HETATM   11  C12 UNL     1     -85.863  58.512  94.311  1.00  0.00     0.181 C 
BRANCH   8  12
HETATM   12  O4  UNL     1     -88.588  59.180  93.834  1.00  0.00    -0.390 OA
ATOM     13  H4  UNL     1     -89.220  58.906  93.181  1.00  0.00     0.210 HD
ENDBRANCH   8  12
BRANCH   9  14
HETATM   14  O5  UNL     1     -86.430  59.306  91.049  1.00  0.00    -0.390 OA
ATOM     15  H5  UNL     1     -85.486  59.366  91.137  1.00  0.00     0.210 HD
ENDBRANCH   9  14
BRANCH  10  16
HETATM   16  O6  UNL     1     -86.202  56.565  93.050  1.00  0.00    -0.390 OA
ATOM     17  H6  UNL     1     -87.091  56.390  93.335  1.00  0.00     0.210 HD
ENDBRANCH  10  16
BRANCH  11  18
HETATM   18  O7  UNL     1     -84.555  58.410  94.718  1.00  0.00    -0.390 OA
ATOM     19  H7  UNL     1     -83.912  58.409  94.018  1.00  0.00     0.210 HD
ENDBRANCH  11  18
ENDBRANCH   6   7
ENDBRANCH   5   6
ENDBRANCH   3   5
BRANCH   1  20
HETATM   20  O2  UNL     1     -89.486  64.959  96.497  1.00  0.00    -0.308 OA
BRANCH  20  21
HETATM   21  C3  UNL     1     -90.232  66.033  96.038  1.00  0.00     0.474 C 
HETATM   22  O1  UNL     1     -89.460  67.166  96.125  1.00  0.00    -0.335 OA
HETATM   23  C2  UNL     1     -89.018  67.502  94.866  1.00  0.00     0.235 C 
HETATM   24  C1  UNL     1     -90.221  67.093  94.007  1.00  0.00     0.409 C 
HETATM   25  N2  UNL     1     -90.559  65.813  94.651  1.00  0.00     0.006 N 
ATOM     26  H22 UNL     1     -91.515  65.499  94.487  1.00  0.00     0.285 HD
ATOM     27  H21 UNL     1     -90.105  65.000  94.234  1.00  0.00     0.285 HD
BRANCH  24  28
HETATM   28  N1  UNL     1     -91.329  68.008  94.189  1.00  0.00    -0.048 N 
ATOM     29  H13 UNL     1     -92.183  67.515  94.450  1.00  0.00     0.276 HD
ATOM     30  H12 UNL     1     -91.212  68.576  95.028  1.00  0.00     0.276 HD
ATOM     31  H11 UNL     1     -91.468  68.587  93.361  1.00  0.00     0.276 HD
ENDBRANCH  24  28
ENDBRANCH  20  21
ENDBRANCH   1  20
TORSDOF 10
ENDMDL
MODEL 3
REMARK VINA RESULT: -7.496482870      2.755      3.032
REMARK  10 active torsions:
REMARK  status: ('A' for Active; 'I' for Inactive)
REMARK    1  A    between atoms: N1_1  and  C1_5 
REMARK    2  A    between atoms: C3_8  and  O2_9 
REMARK    3  A    between atoms: O2_9  and  C4_10 
REMARK    4  A    between atoms: C6_12  and  C7_13 
REMARK    5  A    between atoms: C7_13  and  O3_14 
REMARK    6  A    between atoms: O3_14  and  C8_15 
REMARK    7  A    between atoms: C9_16  and  O4_17 
REMARK    8  A    between atoms: C10_19  and  O5_20 
REMARK    9  A    between atoms: C11_22  and  O6_23 
REMARK   10  A    between atoms: C12_25  and  O7_26 
ROOT
HETATM    1  C4  UNL     1     -88.937  64.248  95.433  1.00  0.00     0.267 C 
HETATM    2  C5  UNL     1     -88.033  63.792  96.557  1.00  0.00     0.095 C 
HETATM    3  C6  UNL     1     -87.373  63.065  95.378  1.00  0.00     0.153 C 
HETATM    4  O8  UNL     1     -88.590  63.072  94.769  1.00  0.00    -0.353 OA
ENDROOT
BRANCH   3   5
HETATM    5  C7  UNL     1     -86.763  61.799  95.856  1.00  0.00     0.200 C 
BRANCH   5   6
HETATM    6  O3  UNL     1     -87.252  60.684  95.271  1.00  0.00    -0.378 OA
BRANCH   6   7
HETATM    7  C8  UNL     1     -86.609  60.111  94.236  1.00  0.00     0.184 C 
HETATM    8  C9  UNL     1     -87.636  59.776  93.111  1.00  0.00     0.181 C 
HETATM    9  C10 UNL     1     -86.977  58.718  92.281  1.00  0.00     0.180 C 
HETATM   10  C11 UNL     1     -85.951  58.060  93.145  1.00  0.00     0.180 C 
HETATM   11  C12 UNL     1     -86.048  58.749  94.512  1.00  0.00     0.181 C 
BRANCH   8  12
HETATM   12  O4  UNL     1     -88.741  59.258  93.747  1.00  0.00    -0.390 OA
ATOM     13  H4  UNL     1     -89.445  59.877  93.594  1.00  0.00     0.210 HD
ENDBRANCH   8  12
BRANCH   9  14
HETATM   14  O5  UNL     1     -86.343  59.296  91.165  1.00  0.00    -0.390 OA
ATOM     15  H5  UNL     1     -86.822  59.091  90.370  1.00  0.00     0.210 HD
ENDBRANCH   9  14
BRANCH  10  16
HETATM   16  O6  UNL     1     -86.192  56.708  93.366  1.00  0.00    -0.390 OA
ATOM     17  H6  UNL     1     -85.752  56.363  94.133  1.00  0.00     0.210 HD
ENDBRANCH  10  16
BRANCH  11  18
HETATM   18  O7  UNL     1     -84.780  58.735  95.040  1.00  0.00    -0.390 OA
ATOM     19  H7  UNL     1     -84.076  58.714  94.402  1.00  0.00     0.210 HD
ENDBRANCH  11  18
ENDBRANCH   6   7
ENDBRANCH   5   6
ENDBRANCH   3   5
BRANCH   1  20
HETATM   20  O2  UNL     1     -90.255  64.296  95.888  1.00  0.00    -0.308 OA
BRANCH  20  21
HETATM   21  C3  UNL     1     -91.169  63.973  94.898  1.00  0.00     0.474 C 
HETATM   22  O1  UNL     1     -92.003  62.994  95.380  1.00  0.00    -0.335 OA
HETATM   23  C2  UNL     1     -93.216  63.559  95.701  1.00  0.00     0.235 C 
HETATM   24  C1  UNL     1     -93.345  64.630  94.611  1.00  0.00     0.409 C 
HETATM   25  N2  UNL     1     -91.965  65.140  94.602  1.00  0.00     0.006 N 
ATOM     26  H22 UNL     1     -91.700  65.624  93.744  1.00  0.00     0.285 HD
ATOM     27  H21 UNL     1     -91.803  65.930  95.227  1.00  0.00     0.285 HD
BRANCH  24  28
HETATM   28  N1  UNL     1     -93.626  64.033  93.322  1.00  0.00    -0.048 N 
ATOM     29  H13 UNL     1     -93.769  63.026  93.398  1.00  0.00     0.276 HD
ATOM     30  H12 UNL     1     -94.550  64.297  92.980  1.00  0.00     0.276 HD
ATOM     31  H11 UNL     1     -92.897  64.259  92.645  1.00  0.00     0.276 HD
ENDBRANCH  24  28
ENDBRANCH  20  21
ENDBRANCH   1  20
TORSDOF 10
ENDMDL
MODEL 4
REMARK VINA RESULT: -7.386043283      2.315      3.787
REMARK  10 active torsions:
REMARK  status: ('A' for Active; 'I' for Inactive)
REMARK    1  A    between atoms: N1_1  and  C1_5 
REMARK    2  A    between atoms: C3_8  and  O2_9 
REMARK    3  A    between atoms: O2_9  and  C4_10 
REMARK    4  A    between atoms: C6_12  and  C7_13 
REMARK    5  A    between atoms: C7_13  and  O3_14 
REMARK    6  A    between atoms: O3_14  and  C8_15 
REMARK    7  A    between atoms: C9_16  and  O4_17 
REMARK    8  A    between atoms: C10_19  and  O5_20 
REMARK    9  A    between atoms: C11_22  and  O6_23 
REMARK   10  A    between atoms: C12_25  and  O7_26 
ROOT
HETATM    1  C4  UNL     1     -86.956  61.910  95.780  1.00  0.00     0.267 C 
HETATM    2  C5  UNL     1     -86.922  61.638  94.292  1.00  0.00     0.095 C 
HETATM    3  C6  UNL     1     -86.503  60.260  94.821  1.00  0.00     0.153 C 
HETATM    4  O8  UNL     1     -86.009  60.897  95.918  1.00  0.00    -0.353 OA
ENDROOT
BRANCH   3   5
HETATM    5  C7  UNL     1     -85.597  59.608  93.842  1.00  0.00     0.200 C 
BRANCH   5   6
HETATM    6  O3  UNL     1     -86.014  58.398  93.411  1.00  0.00    -0.378 OA
BRANCH   6   7
HETATM    7  C8  UNL     1     -86.534  57.503  94.271  1.00  0.00     0.184 C 
HETATM    8  C9  UNL     1     -85.683  56.197  94.236  1.00  0.00     0.181 C 
HETATM    9  C10 UNL     1     -86.582  55.128  94.775  1.00  0.00     0.180 C 
HETATM   10  C11 UNL     1     -87.987  55.599  94.582  1.00  0.00     0.180 C 
HETATM   11  C12 UNL     1     -87.881  56.964  93.892  1.00  0.00     0.181 C 
BRANCH   8  12
HETATM   12  O4  UNL     1     -85.407  55.958  92.908  1.00  0.00    -0.390 OA
ATOM     13  H4  UNL     1     -86.202  56.169  92.434  1.00  0.00     0.210 HD
ENDBRANCH   8  12
BRANCH   9  14
HETATM   14  O5  UNL     1     -86.341  54.932  96.148  1.00  0.00    -0.390 OA
ATOM     15  H5  UNL     1     -85.410  54.984  96.331  1.00  0.00     0.210 HD
ENDBRANCH   9  14
BRANCH  10  16
HETATM   16  O6  UNL     1     -88.737  54.787  93.738  1.00  0.00    -0.390 OA
ATOM     17  H6  UNL     1     -89.120  54.035  94.174  1.00  0.00     0.210 HD
ENDBRANCH  10  16
BRANCH  11  18
HETATM   18  O7  UNL     1     -88.952  57.703  94.334  1.00  0.00    -0.390 OA
ATOM     19  H7  UNL     1     -89.145  57.620  95.261  1.00  0.00     0.210 HD
ENDBRANCH  11  18
ENDBRANCH   6   7
ENDBRANCH   5   6
ENDBRANCH   3   5
BRANCH   1  20
HETATM   20  O2  UNL     1     -86.477  63.197  96.026  1.00  0.00    -0.308 OA
BRANCH  20  21
HETATM   21  C3  UNL     1     -87.463  64.046  96.504  1.00  0.00     0.474 C 
HETATM   22  O1  UNL     1     -87.460  65.187  95.740  1.00  0.00    -0.335 OA
HETATM   23  C2  UNL     1     -88.530  65.148  94.876  1.00  0.00     0.235 C 
HETATM   24  C1  UNL     1     -89.585  64.444  95.738  1.00  0.00     0.409 C 
HETATM   25  N2  UNL     1     -88.745  63.403  96.353  1.00  0.00     0.006 N 
ATOM     26  H22 UNL     1     -89.124  63.010  97.214  1.00  0.00     0.285 HD
ATOM     27  H21 UNL     1     -88.717  62.524  95.836  1.00  0.00     0.285 HD
BRANCH  24  28
HETATM   28  N1  UNL     1     -90.076  65.318  96.782  1.00  0.00    -0.048 N 
ATOM     29  H13 UNL     1     -90.959  64.983  97.167  1.00  0.00     0.276 HD
ATOM     30  H12 UNL     1     -89.504  65.254  97.625  1.00  0.00     0.276 HD
ATOM     31  H11 UNL     1     -90.152  66.280  96.452  1.00  0.00     0.276 HD
ENDBRANCH  24  28
ENDBRANCH  20  21
ENDBRANCH   1  20
TORSDOF 10
ENDMDL
MODEL 5
REMARK VINA RESULT: -7.375693763      1.029      2.097
REMARK  10 active torsions:
REMARK  status: ('A' for Active; 'I' for Inactive)
REMARK    1  A    between atoms: N1_1  and  C1_5 
REMARK    2  A    between atoms: C3_8  and  O2_9 
REMARK    3  A    between atoms: O2_9  and  C4_10 
REMARK    4  A    between atoms: C6_12  and  C7_13 
REMARK    5  A    between atoms: C7_13  and  O3_14 
REMARK    6  A    between atoms: O3_14  and  C8_15 
REMARK    7  A    between atoms: C9_16  and  O4_17 
REMARK    8  A    between atoms: C10_19  and  O5_20 
REMARK    9  A    between atoms: C11_22  and  O6_23 
REMARK   10  A    between atoms: C12_25  and  O7_26 
ROOT
HETATM    1  C4  UNL     1     -87.565  63.867  96.399  1.00  0.00     0.267 C 
HETATM    2  C5  UNL     1     -87.835  62.851  95.311  1.00  0.00     0.095 C 
HETATM    3  C6  UNL     1     -86.910  62.027  96.216  1.00  0.00     0.153 C 
HETATM    4  O8  UNL     1     -86.361  63.203  96.625  1.00  0.00    -0.353 OA
ENDROOT
BRANCH   3   5
HETATM    5  C7  UNL     1     -86.137  61.066  95.391  1.00  0.00     0.200 C 
BRANCH   5   6
HETATM    6  O3  UNL     1     -86.400  59.766  95.648  1.00  0.00    -0.378 OA
BRANCH   6   7
HETATM    7  C8  UNL     1     -86.803  58.939  94.665  1.00  0.00     0.184 C 
HETATM    8  C9  UNL     1     -85.652  57.944  94.322  1.00  0.00     0.181 C 
HETATM    9  C10 UNL     1     -85.959  57.449  92.943  1.00  0.00     0.180 C 
HETATM   10  C11 UNL     1     -86.836  58.471  92.296  1.00  0.00     0.180 C 
HETATM   11  C12 UNL     1     -87.011  59.589  93.331  1.00  0.00     0.181 C 
BRANCH   8  12
HETATM   12  O4  UNL     1     -84.495  58.690  94.311  1.00  0.00    -0.390 OA
ATOM     13  H4  UNL     1     -83.870  58.197  93.794  1.00  0.00     0.210 HD
ENDBRANCH   8  12
BRANCH   9  14
HETATM   14  O5  UNL     1     -86.644  56.221  93.005  1.00  0.00    -0.390 OA
ATOM     15  H5  UNL     1     -86.026  55.498  93.017  1.00  0.00     0.210 HD
ENDBRANCH   9  14
BRANCH  10  16
HETATM   16  O6  UNL     1     -86.269  59.060  91.170  1.00  0.00    -0.390 OA
ATOM     17  H6  UNL     1     -86.316  60.009  91.172  1.00  0.00     0.210 HD
ENDBRANCH  10  16
BRANCH  11  18
HETATM   18  O7  UNL     1     -88.265  60.111  93.124  1.00  0.00    -0.390 OA
ATOM     19  H7  UNL     1     -88.949  59.471  92.968  1.00  0.00     0.210 HD
ENDBRANCH  11  18
ENDBRANCH   6   7
ENDBRANCH   5   6
ENDBRANCH   3   5
BRANCH   1  20
HETATM   20  O2  UNL     1     -87.437  65.133  95.828  1.00  0.00    -0.308 OA
BRANCH  20  21
HETATM   21  C3  UNL     1     -88.587  65.534  95.165  1.00  0.00     0.474 C 
HETATM   22  O1  UNL     1     -89.502  65.952  96.099  1.00  0.00    -0.335 OA
HETATM   23  C2  UNL     1     -89.549  67.327  96.094  1.00  0.00     0.235 C 
HETATM   24  C1  UNL     1     -89.328  67.629  94.607  1.00  0.00     0.409 C 
HETATM   25  N2  UNL     1     -88.266  66.653  94.314  1.00  0.00     0.006 N 
ATOM     26  H22 UNL     1     -88.171  66.419  93.326  1.00  0.00     0.285 HD
ATOM     27  H21 UNL     1     -87.319  67.014  94.430  1.00  0.00     0.285 HD
BRANCH  24  28
HETATM   28  N1  UNL     1     -90.498  67.287  93.825  1.00  0.00    -0.048 N 
ATOM     29  H13 UNL     1     -90.243  66.958  92.893  1.00  0.00     0.276 HD
ATOM     30  H12 UNL     1     -90.948  66.440  94.172  1.00  0.00     0.276 HD
ATOM     31  H11 UNL     1     -91.153  68.068  93.780  1.00  0.00     0.276 HD
ENDBRANCH  24  28
ENDBRANCH  20  21
ENDBRANCH   1  20
TORSDOF 10
ENDMDL
