MODEL 1
REMARK VINA RESULT: -7.920550374      0.000      0.000
REMARK  11 active torsions:
REMARK  status: ('A' for Active; 'I' for Inactive)
REMARK    1  A    between atoms: C1_4  and  C2_5 
REMARK    2  A    between atoms: C1_4  and  O7_23 
REMARK    3  A    between atoms: C3_6  and  O1_7 
REMARK    4  A    between atoms: O1_7  and  C4_8 
REMARK    5  A    between atoms: C5_10  and  C6_11 
REMARK    6  A    between atoms: C6_11  and  O3_12 
REMARK    7  A    between atoms: C7_14  and  O4_15 
REMARK    8  A    between atoms: C8_17  and  O5_18 
REMARK    9  A    between atoms: C9_20  and  O6_21 
REMARK   10  A    between atoms: O7_23  and  C10_24 
REMARK   11  A    between atoms: C12_26  and  N2_27 
ROOT
HETATM    1  C2  UNL     1     -87.929  63.390  94.973  1.00  0.00     0.080 C 
HETATM    2  C3  UNL     1     -88.356  64.509  95.521  1.00  0.00     0.142 C 
ENDROOT
BRANCH   2   3
HETATM    3  O1  UNL     1     -89.164  65.339  94.763  1.00  0.00    -0.329 OA
BRANCH   3   4
HETATM    4  C4  UNL     1     -90.307  65.979  95.307  1.00  0.00     0.297 C 
HETATM    5  O2  UNL     1     -91.411  65.427  94.715  1.00  0.00    -0.348 OA
HETATM    6  C5  UNL     1     -92.302  66.338  94.181  1.00  0.00     0.179 C 
HETATM    7  C7  UNL     1     -91.534  67.128  93.140  1.00  0.00     0.180 C 
HETATM    8  C8  UNL     1     -90.649  68.062  93.927  1.00  0.00     0.183 C 
HETATM    9  C9  UNL     1     -90.144  67.448  95.174  1.00  0.00     0.205 C 
BRANCH   6  10
HETATM   10  C6  UNL     1     -93.414  65.624  93.485  1.00  0.00     0.198 C 
BRANCH  10  11
HETATM   11  O3  UNL     1     -94.575  66.391  93.486  1.00  0.00    -0.398 OA
ATOM     12  H3  UNL     1     -94.786  66.686  94.364  1.00  0.00     0.209 HD
ENDBRANCH  10  11
ENDBRANCH   6  10
BRANCH   7  13
HETATM   13  O4  UNL     1     -92.468  67.807  92.370  1.00  0.00    -0.390 OA
ATOM     14  H4  UNL     1     -92.974  68.354  92.961  1.00  0.00     0.210 HD
ENDBRANCH   7  13
BRANCH   8  15
HETATM   15  O5  UNL     1     -91.414  69.208  94.196  1.00  0.00    -0.390 OA
ATOM     16  H5  UNL     1     -91.856  69.052  95.022  1.00  0.00     0.210 HD
ENDBRANCH   8  15
BRANCH   9  17
HETATM   17  O6  UNL     1     -88.778  67.796  95.295  1.00  0.00    -0.388 OA
ATOM     18  H6  UNL     1     -88.392  67.345  96.036  1.00  0.00     0.210 HD
ENDBRANCH   9  17
ENDBRANCH   3   4
ENDBRANCH   2   3
BRANCH   1  19
HETATM   19  C1  UNL     1     -87.079  62.499  95.748  1.00  0.00     0.140 C 
HETATM   20  N1  UNL     1     -86.198  63.018  96.527  1.00  0.00    -0.380 N 
ATOM     21  H12 UNL     1     -86.078  64.026  96.617  1.00  0.00     0.158 HD
ATOM     22  H11 UNL     1     -85.602  62.393  97.071  1.00  0.00     0.158 HD
BRANCH  19  23
HETATM   23  O7  UNL     1     -87.241  61.134  95.626  1.00  0.00    -0.305 OA
BRANCH  23  24
HETATM   24  C10 UNL     1     -87.039  60.560  94.341  1.00  0.00     0.270 C 
HETATM   25  C11 UNL     1     -85.963  59.521  94.341  1.00  0.00     0.096 C 
HETATM   26  C12 UNL     1     -86.474  58.579  93.244  1.00  0.00     0.211 C 
HETATM   27  C13 UNL     1     -87.974  58.703  93.512  1.00  0.00     0.203 C 
HETATM   28  O8  UNL     1     -88.196  60.003  93.867  1.00  0.00    -0.359 OA
BRANCH  26  29
HETATM   29  N2  UNL     1     -86.196  59.193  91.980  1.00  0.00    -0.073 N 
ATOM     30  H23 UNL     1     -85.814  60.134  92.071  1.00  0.00     0.274 HD
ATOM     31  H22 UNL     1     -85.400  58.771  91.501  1.00  0.00     0.274 HD
ATOM     32  H21 UNL     1     -87.052  59.164  91.426  1.00  0.00     0.274 HD
ENDBRANCH  26  29
ENDBRANCH  23  24
ENDBRANCH  19  23
ENDBRANCH   1  19
TORSDOF 11
ENDMDL
MODEL 2
REMARK VINA RESULT: -7.877026325      1.587      3.193
REMARK  11 active torsions:
REMARK  status: ('A' for Active; 'I' for Inactive)
REMARK    1  A    between atoms: C1_4  and  C2_5 
REMARK    2  A    between atoms: C1_4  and  O7_23 
REMARK    3  A    between atoms: C3_6  and  O1_7 
REMARK    4  A    between atoms: O1_7  and  C4_8 
REMARK    5  A    between atoms: C5_10  and  C6_11 
REMARK    6  A    between atoms: C6_11  and  O3_12 
REMARK    7  A    between atoms: C7_14  and  O4_15 
REMARK    8  A    between atoms: C8_17  and  O5_18 
REMARK    9  A    between atoms: C9_20  and  O6_21 
REMARK   10  A    between atoms: O7_23  and  C10_24 
REMARK   11  A    between atoms: C12_26  and  N2_27 
ROOT
HETATM    1  C2  UNL     1     -87.608  62.937  95.922  1.00  0.00     0.080 C 
HETATM    2  C3  UNL     1     -88.091  63.847  96.744  1.00  0.00     0.142 C 
ENDROOT
BRANCH   2   3
HETATM    3  O1  UNL     1     -89.000  64.762  96.241  1.00  0.00    -0.329 OA
BRANCH   3   4
HETATM    4  C4  UNL     1     -88.757  65.486  95.046  1.00  0.00     0.297 C 
HETATM    5  O2  UNL     1     -87.801  66.427  95.320  1.00  0.00    -0.348 OA
HETATM    6  C5  UNL     1     -88.126  67.714  94.937  1.00  0.00     0.179 C 
HETATM    7  C7  UNL     1     -89.394  68.075  95.684  1.00  0.00     0.180 C 
HETATM    8  C8  UNL     1     -90.493  67.315  94.988  1.00  0.00     0.183 C 
HETATM    9  C9  UNL     1     -90.050  65.984  94.516  1.00  0.00     0.205 C 
BRANCH   6  10
HETATM   10  C6  UNL     1     -87.055  68.664  95.366  1.00  0.00     0.198 C 
BRANCH  10  11
HETATM   11  O3  UNL     1     -85.795  68.172  95.043  1.00  0.00    -0.398 OA
ATOM     12  H3  UNL     1     -85.172  68.881  94.934  1.00  0.00     0.209 HD
ENDBRANCH  10  11
ENDBRANCH   6  10
BRANCH   7  13
HETATM   13  O4  UNL     1     -89.554  69.451  95.579  1.00  0.00    -0.390 OA
ATOM     14  H4  UNL     1     -89.380  69.684  94.674  1.00  0.00     0.210 HD
ENDBRANCH   7  13
BRANCH   8  15
HETATM   15  O5  UNL     1     -90.924  68.117  93.919  1.00  0.00    -0.390 OA
ATOM     16  H5  UNL     1     -90.610  67.703  93.124  1.00  0.00     0.210 HD
ENDBRANCH   8  15
BRANCH   9  17
HETATM   17  O6  UNL     1     -91.083  65.064  94.813  1.00  0.00    -0.388 OA
ATOM     18  H6  UNL     1     -91.912  65.520  94.889  1.00  0.00     0.210 HD
ENDBRANCH   9  17
ENDBRANCH   3   4
ENDBRANCH   2   3
BRANCH   1  19
HETATM   19  C1  UNL     1     -86.651  61.963  96.424  1.00  0.00     0.140 C 
HETATM   20  N1  UNL     1     -85.700  62.375  97.183  1.00  0.00    -0.380 N 
ATOM     21  H12 UNL     1     -85.596  63.356  97.442  1.00  0.00     0.158 HD
ATOM     22  H11 UNL     1     -85.029  61.692  97.536  1.00  0.00     0.158 HD
BRANCH  19  23
HETATM   23  O7  UNL     1     -86.791  60.635  96.074  1.00  0.00    -0.305 OA
BRANCH  23  24
HETATM   24  C10 UNL     1     -86.683  60.303  94.696  1.00  0.00     0.270 C 
HETATM   25  C11 UNL     1     -85.923  59.035  94.470  1.00  0.00     0.096 C 
HETATM   26  C12 UNL     1     -86.609  58.512  93.202  1.00  0.00     0.211 C 
HETATM   27  C13 UNL     1     -88.034  58.980  93.499  1.00  0.00     0.203 C 
HETATM   28  O8  UNL     1     -87.921  60.190  94.122  1.00  0.00    -0.359 OA
BRANCH  26  29
HETATM   29  N2  UNL     1     -86.113  59.273  92.094  1.00  0.00    -0.073 N 
ATOM     30  H23 UNL     1     -85.094  59.297  92.054  1.00  0.00     0.274 HD
ATOM     31  H22 UNL     1     -86.272  58.816  91.196  1.00  0.00     0.274 HD
ATOM     32  H21 UNL     1     -86.530  60.203  92.144  1.00  0.00     0.274 HD
ENDBRANCH  26  29
ENDBRANCH  23  24
ENDBRANCH  19  23
ENDBRANCH   1  19
TORSDOF 11
ENDMDL
MODEL 3
REMARK VINA RESULT: -7.779270322      3.204      9.233
REMARK  11 active torsions:
REMARK  status: ('A' for Active; 'I' for Inactive)
REMARK    1  A    between atoms: C1_4  and  C2_5 
REMARK    2  A    between atoms: C1_4  and  O7_23 
REMARK    3  A    between atoms: C3_6  and  O1_7 
REMARK    4  A    between atoms: O1_7  and  C4_8 
REMARK    5  A    between atoms: C5_10  and  C6_11 
REMARK    6  A    between atoms: C6_11  and  O3_12 
REMARK    7  A    between atoms: C7_14  and  O4_15 
REMARK    8  A    between atoms: C8_17  and  O5_18 
REMARK    9  A    between atoms: C9_20  and  O6_21 
REMARK   10  A    between atoms: O7_23  and  C10_24 
REMARK   11  A    between atoms: C12_26  and  N2_27 
ROOT
HETATM    1  C2  UNL     1     -87.022  61.597  94.904  1.00  0.00     0.080 C 
HETATM    2  C3  UNL     1     -86.344  60.535  95.290  1.00  0.00     0.142 C 
ENDROOT
BRANCH   2   3
HETATM    3  O1  UNL     1     -86.087  59.550  94.353  1.00  0.00    -0.329 OA
BRANCH   3   4
HETATM    4  C4  UNL     1     -87.023  58.523  94.064  1.00  0.00     0.297 C 
HETATM    5  O2  UNL     1     -87.120  57.727  95.173  1.00  0.00    -0.348 OA
HETATM    6  C5  UNL     1     -86.965  56.375  94.935  1.00  0.00     0.179 C 
HETATM    7  C7  UNL     1     -85.586  56.204  94.330  1.00  0.00     0.180 C 
HETATM    8  C8  UNL     1     -85.710  56.703  92.913  1.00  0.00     0.183 C 
HETATM    9  C9  UNL     1     -86.628  57.857  92.798  1.00  0.00     0.205 C 
BRANCH   6  10
HETATM   10  C6  UNL     1     -86.998  55.618  96.222  1.00  0.00     0.198 C 
BRANCH  10  11
HETATM   11  O3  UNL     1     -85.929  55.977  97.037  1.00  0.00    -0.398 OA
ATOM     12  H3  UNL     1     -86.069  55.680  97.929  1.00  0.00     0.209 HD
ENDBRANCH  10  11
ENDBRANCH   6  10
BRANCH   7  13
HETATM   13  O4  UNL     1     -85.278  54.851  94.389  1.00  0.00    -0.390 OA
ATOM     14  H4  UNL     1     -84.403  54.778  94.753  1.00  0.00     0.210 HD
ENDBRANCH   7  13
BRANCH   8  15
HETATM   15  O5  UNL     1     -86.156  55.618  92.142  1.00  0.00    -0.390 OA
ATOM     16  H5  UNL     1     -86.220  55.928  91.246  1.00  0.00     0.210 HD
ENDBRANCH   8  15
BRANCH   9  17
HETATM   17  O6  UNL     1     -86.025  58.793  91.926  1.00  0.00    -0.388 OA
ATOM     18  H6  UNL     1     -86.066  58.477  91.031  1.00  0.00     0.210 HD
ENDBRANCH   9  17
ENDBRANCH   3   4
ENDBRANCH   2   3
BRANCH   1  19
HETATM   19  C1  UNL     1     -87.305  62.648  95.869  1.00  0.00     0.140 C 
HETATM   20  N1  UNL     1     -86.318  63.221  96.459  1.00  0.00    -0.380 N 
ATOM     21  H12 UNL     1     -85.349  62.962  96.273  1.00  0.00     0.158 HD
ATOM     22  H11 UNL     1     -86.516  63.957  97.136  1.00  0.00     0.158 HD
BRANCH  19  23
HETATM   23  O7  UNL     1     -88.617  62.998  96.122  1.00  0.00    -0.305 OA
BRANCH  23  24
HETATM   24  C10 UNL     1     -89.132  64.144  95.456  1.00  0.00     0.270 C 
HETATM   25  C11 UNL     1     -89.914  65.034  96.369  1.00  0.00     0.096 C 
HETATM   26  C12 UNL     1     -89.636  66.404  95.739  1.00  0.00     0.211 C 
HETATM   27  C13 UNL     1     -88.192  66.169  95.297  1.00  0.00     0.203 C 
HETATM   28  O8  UNL     1     -88.122  64.869  94.882  1.00  0.00    -0.359 OA
BRANCH  26  29
HETATM   29  N2  UNL     1     -90.449  66.516  94.564  1.00  0.00    -0.073 N 
ATOM     30  H23 UNL     1     -89.899  66.567  93.706  1.00  0.00     0.274 HD
ATOM     31  H22 UNL     1     -90.954  65.657  94.349  1.00  0.00     0.274 HD
ATOM     32  H21 UNL     1     -91.066  67.319  94.689  1.00  0.00     0.274 HD
ENDBRANCH  26  29
ENDBRANCH  23  24
ENDBRANCH  19  23
ENDBRANCH   1  19
TORSDOF 11
ENDMDL
MODEL 4
REMARK VINA RESULT: -7.635676465      1.758      2.274
REMARK  11 active torsions:
REMARK  status: ('A' for Active; 'I' for Inactive)
REMARK    1  A    between atoms: C1_4  and  C2_5 
REMARK    2  A    between atoms: C1_4  and  O7_23 
REMARK    3  A    between atoms: C3_6  and  O1_7 
REMARK    4  A    between atoms: O1_7  and  C4_8 
REMARK    5  A    between atoms: C5_10  and  C6_11 
REMARK    6  A    between atoms: C6_11  and  O3_12 
REMARK    7  A    between atoms: C7_14  and  O4_15 
REMARK    8  A    between atoms: C8_17  and  O5_18 
REMARK    9  A    between atoms: C9_20  and  O6_21 
REMARK   10  A    between atoms: O7_23  and  C10_24 
REMARK   11  A    between atoms: C12_26  and  N2_27 
ROOT
HETATM    1  C2  UNL     1     -87.653  62.402  95.344  1.00  0.00     0.080 C 
HETATM    2  C3  UNL     1     -88.536  63.132  95.995  1.00  0.00     0.142 C 
ENDROOT
BRANCH   2   3
HETATM    3  O1  UNL     1     -89.517  63.775  95.260  1.00  0.00    -0.329 OA
BRANCH   3   4
HETATM    4  C4  UNL     1     -90.620  64.418  95.878  1.00  0.00     0.297 C 
HETATM    5  O2  UNL     1     -91.637  63.506  95.962  1.00  0.00    -0.348 OA
HETATM    6  C5  UNL     1     -92.851  63.939  95.466  1.00  0.00     0.179 C 
HETATM    7  C7  UNL     1     -92.619  64.278  94.007  1.00  0.00     0.180 C 
HETATM    8  C8  UNL     1     -91.864  65.583  94.019  1.00  0.00     0.183 C 
HETATM    9  C9  UNL     1     -90.913  65.676  95.148  1.00  0.00     0.205 C 
BRANCH   6  10
HETATM   10  C6  UNL     1     -93.856  62.836  95.525  1.00  0.00     0.198 C 
BRANCH  10  11
HETATM   11  O3  UNL     1     -93.555  61.943  96.549  1.00  0.00    -0.398 OA
ATOM     12  H3  UNL     1     -93.807  62.298  97.393  1.00  0.00     0.209 HD
ENDBRANCH  10  11
ENDBRANCH   6  10
BRANCH   7  13
HETATM   13  O4  UNL     1     -93.868  64.395  93.410  1.00  0.00    -0.390 OA
ATOM     14  H4  UNL     1     -93.897  63.769  92.696  1.00  0.00     0.210 HD
ENDBRANCH   7  13
BRANCH   8  15
HETATM   15  O5  UNL     1     -92.827  66.604  94.078  1.00  0.00    -0.390 OA
ATOM     16  H5  UNL     1     -92.664  67.086  94.880  1.00  0.00     0.210 HD
ENDBRANCH   8  15
BRANCH   9  17
HETATM   17  O6  UNL     1     -89.714  66.235  94.647  1.00  0.00    -0.388 OA
ATOM     18  H6  UNL     1     -89.237  65.585  94.145  1.00  0.00     0.210 HD
ENDBRANCH   9  17
ENDBRANCH   3   4
ENDBRANCH   2   3
BRANCH   1  19
HETATM   19  C1  UNL     1     -86.611  61.715  96.093  1.00  0.00     0.140 C 
HETATM   20  N1  UNL     1     -86.016  62.350  97.038  1.00  0.00    -0.380 N 
ATOM     21  H12 UNL     1     -86.249  63.313  97.277  1.00  0.00     0.158 HD
ATOM     22  H11 UNL     1     -85.286  61.868  97.563  1.00  0.00     0.158 HD
BRANCH  19  23
HETATM   23  O7  UNL     1     -86.295  60.410  95.769  1.00  0.00    -0.305 OA
BRANCH  23  24
HETATM   24  C10 UNL     1     -86.434  60.018  94.409  1.00  0.00     0.270 C 
HETATM   25  C11 UNL     1     -85.385  59.039  93.986  1.00  0.00     0.096 C 
HETATM   26  C12 UNL     1     -86.159  58.225  92.941  1.00  0.00     0.211 C 
HETATM   27  C13 UNL     1     -87.536  58.244  93.606  1.00  0.00     0.203 C 
HETATM   28  O8  UNL     1     -87.669  59.475  94.182  1.00  0.00    -0.359 OA
BRANCH  26  29
HETATM   29  N2  UNL     1     -86.231  59.010  91.745  1.00  0.00    -0.073 N 
ATOM     30  H23 UNL     1     -85.314  59.211  91.346  1.00  0.00     0.274 HD
ATOM     31  H22 UNL     1     -86.611  58.492  90.953  1.00  0.00     0.274 HD
ATOM     32  H21 UNL     1     -86.765  59.853  91.959  1.00  0.00     0.274 HD
ENDBRANCH  26  29
ENDBRANCH  23  24
ENDBRANCH  19  23
ENDBRANCH   1  19
TORSDOF 11
ENDMDL
MODEL 5
REMARK VINA RESULT: -7.505124681      2.359      3.237
REMARK  11 active torsions:
REMARK  status: ('A' for Active; 'I' for Inactive)
REMARK    1  A    between atoms: C1_4  and  C2_5 
REMARK    2  A    between atoms: C1_4  and  O7_23 
REMARK    3  A    between atoms: C3_6  and  O1_7 
REMARK    4  A    between atoms: O1_7  and  C4_8 
REMARK    5  A    between atoms: C5_10  and  C6_11 
REMARK    6  A    between atoms: C6_11  and  O3_12 
REMARK    7  A    between atoms: C7_14  and  O4_15 
REMARK    8  A    between atoms: C8_17  and  O5_18 
REMARK    9  A    between atoms: C9_20  and  O6_21 
REMARK   10  A    between atoms: O7_23  and  C10_24 
REMARK   11  A    between atoms: C12_26  and  N2_27 
ROOT
HETATM    1  C2  UNL     1     -87.238  60.870  94.290  1.00  0.00     0.080 C 
HETATM    2  C3  UNL     1     -87.233  61.976  95.006  1.00  0.00     0.142 C 
ENDROOT
BRANCH   2   3
HETATM    3  O1  UNL     1     -88.261  62.882  94.812  1.00  0.00    -0.329 OA
BRANCH   3   4
HETATM    4  C4  UNL     1     -89.016  63.408  95.892  1.00  0.00     0.297 C 
HETATM    5  O2  UNL     1     -90.335  63.138  95.645  1.00  0.00    -0.348 OA
HETATM    6  C5  UNL     1     -91.179  64.228  95.739  1.00  0.00     0.179 C 
HETATM    7  C7  UNL     1     -90.688  65.237  94.721  1.00  0.00     0.180 C 
HETATM    8  C8  UNL     1     -89.437  65.828  95.321  1.00  0.00     0.183 C 
HETATM    9  C9  UNL     1     -88.651  64.833  96.083  1.00  0.00     0.205 C 
BRANCH   6  10
HETATM   10  C6  UNL     1     -92.570  63.836  95.361  1.00  0.00     0.198 C 
BRANCH  10  11
HETATM   11  O3  UNL     1     -92.861  62.549  95.802  1.00  0.00    -0.398 OA
ATOM     12  H3  UNL     1     -92.087  62.130  96.160  1.00  0.00     0.209 HD
ENDBRANCH  10  11
ENDBRANCH   6  10
BRANCH   7  13
HETATM   13  O4  UNL     1     -91.695  66.181  94.562  1.00  0.00    -0.390 OA
ATOM     14  H4  UNL     1     -91.766  66.362  93.632  1.00  0.00     0.210 HD
ENDBRANCH   7  13
BRANCH   8  15
HETATM   15  O5  UNL     1     -89.847  66.891  96.141  1.00  0.00    -0.390 OA
ATOM     16  H5  UNL     1     -89.650  67.691  95.668  1.00  0.00     0.210 HD
ENDBRANCH   8  15
BRANCH   9  17
HETATM   17  O6  UNL     1     -87.289  65.033  95.760  1.00  0.00    -0.388 OA
ATOM     18  H6  UNL     1     -86.760  64.340  96.139  1.00  0.00     0.210 HD
ENDBRANCH   9  17
ENDBRANCH   3   4
ENDBRANCH   2   3
BRANCH   1  19
HETATM   19  C1  UNL     1     -86.169  59.901  94.475  1.00  0.00     0.140 C 
HETATM   20  N1  UNL     1     -85.064  60.079  93.843  1.00  0.00    -0.380 N 
ATOM     21  H12 UNL     1     -84.915  60.872  93.221  1.00  0.00     0.158 HD
ATOM     22  H11 UNL     1     -84.315  59.399  93.973  1.00  0.00     0.158 HD
BRANCH  19  23
HETATM   23  O7  UNL     1     -86.369  58.825  95.318  1.00  0.00    -0.305 OA
BRANCH  23  24
HETATM   24  C10 UNL     1     -86.782  57.598  94.730  1.00  0.00     0.270 C 
HETATM   25  C11 UNL     1     -85.631  56.795  94.214  1.00  0.00     0.096 C 
HETATM   26  C12 UNL     1     -86.161  55.370  94.418  1.00  0.00     0.211 C 
HETATM   27  C13 UNL     1     -86.936  55.595  95.717  1.00  0.00     0.203 C 
HETATM   28  O8  UNL     1     -87.488  56.841  95.626  1.00  0.00    -0.359 OA
BRANCH  26  29
HETATM   29  N2  UNL     1     -87.108  55.105  93.375  1.00  0.00    -0.073 N 
ATOM     30  H23 UNL     1     -88.044  55.445  93.594  1.00  0.00     0.274 HD
ATOM     31  H22 UNL     1     -86.949  55.672  92.543  1.00  0.00     0.274 HD
ATOM     32  H21 UNL     1     -87.084  54.103  93.183  1.00  0.00     0.274 HD
ENDBRANCH  26  29
ENDBRANCH  23  24
ENDBRANCH  19  23
ENDBRANCH   1  19
TORSDOF 11
ENDMDL
