MODEL 1
REMARK VINA RESULT: -6.242255973      0.000      0.000
REMARK  8 active torsions:
REMARK  status: ('A' for Active; 'I' for Inactive)
REMARK    1  A    between atoms: C2_2  and  N1_3 
REMARK    2  A    between atoms: N1_3  and  C3_5 
REMARK    3  A    between atoms: C3_5  and  C4_6 
REMARK    4  A    between atoms: C4_6  and  N2_7 
REMARK    5  A    between atoms: N2_7  and  C5_9 
REMARK    6  A    between atoms: C6_14  and  C7_15 
REMARK    7  A    between atoms: C7_15  and  N5_16 
REMARK    8  A    between atoms: C8_20  and  O1_21 
ROOT
HETATM    1  C5  UNL     1     -35.574  21.164  -5.585  1.00  0.00     0.109 C 
HETATM    2  N3  UNL     1     -36.860  21.002  -5.748  1.00  0.00    -0.292 N 
ATOM      3  H3  UNL     1     -37.148  20.359  -6.485  1.00  0.00     0.188 HD
HETATM    4  N4  UNL     1     -37.865  21.607  -5.033  1.00  0.00    -0.324 N 
ATOM      5  H4  UNL     1     -38.787  21.185  -5.134  1.00  0.00     0.180 HD
HETATM    6  C6  UNL     1     -37.801  22.766  -4.151  1.00  0.00     0.172 C 
HETATM    7  C8  UNL     1     -36.603  23.576  -4.634  1.00  0.00     0.239 C 
HETATM    8  N6  UNL     1     -35.454  23.019  -3.969  1.00  0.00    -0.388 N 
ATOM      9  H6  UNL     1     -35.143  23.352  -3.056  1.00  0.00     0.156 HD
HETATM   10  C9  UNL     1     -34.779  21.975  -4.662  1.00  0.00     0.194 C 
ENDROOT
BRANCH   1  11
HETATM   11  N2  UNL     1     -34.794  20.386  -6.497  1.00  0.00    -0.373 N 
ATOM     12  H2  UNL     1     -34.215  20.841  -7.203  1.00  0.00     0.161 HD
BRANCH  11  13
HETATM   13  C4  UNL     1     -34.839  18.965  -6.405  1.00  0.00     0.165 C 
BRANCH  13  14
HETATM   14  C3  UNL     1     -34.087  18.331  -5.288  1.00  0.00     0.075 C 
BRANCH  14  15
HETATM   15  N1  UNL     1     -32.841  18.909  -4.998  1.00  0.00    -0.401 N 
ATOM     16  H1  UNL     1     -32.170  19.122  -5.737  1.00  0.00     0.158 HD
BRANCH  15  17
HETATM   17  C2  UNL     1     -32.555  19.180  -3.652  1.00  0.00     0.114 C 
HETATM   18  C1  UNL     1     -31.711  17.994  -3.103  1.00  0.00     0.026 C 
ENDBRANCH  15  17
ENDBRANCH  14  15
ENDBRANCH  13  14
ENDBRANCH  11  13
ENDBRANCH   1  11
BRANCH   6  19
HETATM   19  C7  UNL     1     -39.049  23.613  -4.235  1.00  0.00     0.260 C 
BRANCH  19  20
HETATM   20  N5  UNL     1     -39.155  24.415  -3.009  1.00  0.00    -0.077 N 
ATOM     21  H53 UNL     1     -40.017  24.231  -2.495  1.00  0.00     0.274 HD
ATOM     22  H52 UNL     1     -38.496  24.116  -2.289  1.00  0.00     0.274 HD
ATOM     23  H51 UNL     1     -39.047  25.399  -3.253  1.00  0.00     0.274 HD
ENDBRANCH  19  20
ENDBRANCH   6  19
BRANCH   7  24
HETATM   24  O1  UNL     1     -36.790  24.937  -4.415  1.00  0.00    -0.375 OA
ATOM     25  H1  UNL     1     -36.462  25.199  -3.563  1.00  0.00     0.212 HD
ENDBRANCH   7  24
TORSDOF 8
ENDMDL
MODEL 2
REMARK VINA RESULT: -5.906349768      2.339      6.348
REMARK  8 active torsions:
REMARK  status: ('A' for Active; 'I' for Inactive)
REMARK    1  A    between atoms: C2_2  and  N1_3 
REMARK    2  A    between atoms: N1_3  and  C3_5 
REMARK    3  A    between atoms: C3_5  and  C4_6 
REMARK    4  A    between atoms: C4_6  and  N2_7 
REMARK    5  A    between atoms: N2_7  and  C5_9 
REMARK    6  A    between atoms: C6_14  and  C7_15 
REMARK    7  A    between atoms: C7_15  and  N5_16 
REMARK    8  A    between atoms: C8_20  and  O1_21 
ROOT
HETATM    1  C5  UNL     1     -36.107  21.499  -5.113  1.00  0.00     0.109 C 
HETATM    2  N3  UNL     1     -35.195  21.939  -4.287  1.00  0.00    -0.292 N 
ATOM      3  H3  UNL     1     -35.193  22.942  -4.103  1.00  0.00     0.188 HD
HETATM    4  N4  UNL     1     -34.240  21.193  -3.641  1.00  0.00    -0.324 N 
ATOM      5  H4  UNL     1     -33.776  21.659  -2.862  1.00  0.00     0.180 HD
HETATM    6  C6  UNL     1     -33.794  19.832  -3.910  1.00  0.00     0.172 C 
HETATM    7  C8  UNL     1     -34.089  19.594  -5.386  1.00  0.00     0.239 C 
HETATM    8  N6  UNL     1     -35.456  19.148  -5.450  1.00  0.00    -0.388 N 
ATOM      9  H6  UNL     1     -35.708  18.162  -5.378  1.00  0.00     0.156 HD
HETATM   10  C9  UNL     1     -36.436  20.167  -5.621  1.00  0.00     0.194 C 
ENDROOT
BRANCH   1  11
HETATM   11  N2  UNL     1     -36.951  22.539  -5.616  1.00  0.00    -0.373 N 
ATOM     12  H2  UNL     1     -36.557  23.439  -5.889  1.00  0.00     0.161 HD
BRANCH  11  13
HETATM   13  C4  UNL     1     -38.351  22.298  -5.728  1.00  0.00     0.165 C 
BRANCH  13  14
HETATM   14  C3  UNL     1     -39.215  22.773  -4.614  1.00  0.00     0.075 C 
BRANCH  14  15
HETATM   15  N1  UNL     1     -38.645  23.755  -3.789  1.00  0.00    -0.401 N 
ATOM     16  H1  UNL     1     -37.689  23.671  -3.446  1.00  0.00     0.158 HD
BRANCH  15  17
HETATM   17  C2  UNL     1     -39.446  24.857  -3.453  1.00  0.00     0.114 C 
HETATM   18  C1  UNL     1     -40.743  24.773  -4.309  1.00  0.00     0.026 C 
ENDBRANCH  15  17
ENDBRANCH  14  15
ENDBRANCH  13  14
ENDBRANCH  11  13
ENDBRANCH   1  11
BRANCH   6  19
HETATM   19  C7  UNL     1     -32.315  19.658  -3.657  1.00  0.00     0.260 C 
BRANCH  19  20
HETATM   20  N5  UNL     1     -32.066  18.263  -3.270  1.00  0.00    -0.077 N 
ATOM     21  H53 UNL     1     -32.877  17.830  -2.827  1.00  0.00     0.274 HD
ATOM     22  H52 UNL     1     -31.997  17.641  -4.076  1.00  0.00     0.274 HD
ATOM     23  H51 UNL     1     -31.235  18.232  -2.680  1.00  0.00     0.274 HD
ENDBRANCH  19  20
ENDBRANCH   6  19
BRANCH   7  24
HETATM   24  O1  UNL     1     -33.171  18.715  -5.951  1.00  0.00    -0.375 OA
ATOM     25  H1  UNL     1     -32.294  19.080  -5.949  1.00  0.00     0.212 HD
ENDBRANCH   7  24
TORSDOF 8
ENDMDL
MODEL 3
REMARK VINA RESULT: -5.778279758      1.954      6.128
REMARK  8 active torsions:
REMARK  status: ('A' for Active; 'I' for Inactive)
REMARK    1  A    between atoms: C2_2  and  N1_3 
REMARK    2  A    between atoms: N1_3  and  C3_5 
REMARK    3  A    between atoms: C3_5  and  C4_6 
REMARK    4  A    between atoms: C4_6  and  N2_7 
REMARK    5  A    between atoms: N2_7  and  C5_9 
REMARK    6  A    between atoms: C6_14  and  C7_15 
REMARK    7  A    between atoms: C7_15  and  N5_16 
REMARK    8  A    between atoms: C8_20  and  O1_21 
ROOT
HETATM    1  C5  UNL     1     -36.301  21.882  -5.424  1.00  0.00     0.109 C 
HETATM    2  N3  UNL     1     -35.995  20.714  -5.923  1.00  0.00    -0.292 N 
ATOM      3  H3  UNL     1     -36.695  20.277  -6.523  1.00  0.00     0.188 HD
HETATM    4  N4  UNL     1     -34.832  20.012  -5.724  1.00  0.00    -0.324 N 
ATOM      5  H4  UNL     1     -34.669  19.244  -6.375  1.00  0.00     0.180 HD
HETATM    6  C6  UNL     1     -33.796  20.207  -4.717  1.00  0.00     0.172 C 
HETATM    7  C8  UNL     1     -34.495  20.887  -3.545  1.00  0.00     0.239 C 
HETATM    8  N6  UNL     1     -34.467  22.297  -3.833  1.00  0.00    -0.388 N 
ATOM      9  H6  UNL     1     -33.691  22.893  -3.543  1.00  0.00     0.156 HD
HETATM   10  C9  UNL     1     -35.589  22.810  -4.544  1.00  0.00     0.194 C 
ENDROOT
BRANCH   1  11
HETATM   11  N2  UNL     1     -37.596  22.338  -5.826  1.00  0.00    -0.373 N 
ATOM     12  H2  UNL     1     -37.710  22.885  -6.679  1.00  0.00     0.161 HD
BRANCH  11  13
HETATM   13  C4  UNL     1     -38.723  22.017  -5.016  1.00  0.00     0.165 C 
BRANCH  13  14
HETATM   14  C3  UNL     1     -39.526  23.152  -4.487  1.00  0.00     0.075 C 
BRANCH  14  15
HETATM   15  N1  UNL     1     -38.853  24.000  -3.594  1.00  0.00    -0.401 N 
ATOM     16  H1  UNL     1     -38.010  23.697  -3.107  1.00  0.00     0.158 HD
BRANCH  15  17
HETATM   17  C2  UNL     1     -39.387  25.282  -3.398  1.00  0.00     0.114 C 
HETATM   18  C1  UNL     1     -40.794  25.312  -4.063  1.00  0.00     0.026 C 
ENDBRANCH  15  17
ENDBRANCH  14  15
ENDBRANCH  13  14
ENDBRANCH  11  13
ENDBRANCH   1  11
BRANCH   6  19
HETATM   19  C7  UNL     1     -33.198  18.898  -4.257  1.00  0.00     0.260 C 
BRANCH  19  20
HETATM   20  N5  UNL     1     -31.799  19.131  -3.875  1.00  0.00    -0.077 N 
ATOM     21  H53 UNL     1     -31.593  20.119  -3.729  1.00  0.00     0.274 HD
ATOM     22  H52 UNL     1     -31.591  18.802  -2.932  1.00  0.00     0.274 HD
ATOM     23  H51 UNL     1     -31.195  18.706  -4.579  1.00  0.00     0.274 HD
ENDBRANCH  19  20
ENDBRANCH   6  19
BRANCH   7  24
HETATM   24  O1  UNL     1     -33.910  20.535  -2.333  1.00  0.00    -0.375 OA
ATOM     25  H1  UNL     1     -32.961  20.563  -2.385  1.00  0.00     0.212 HD
ENDBRANCH   7  24
TORSDOF 8
ENDMDL
MODEL 4
REMARK VINA RESULT: -5.775306999      2.526      6.310
REMARK  8 active torsions:
REMARK  status: ('A' for Active; 'I' for Inactive)
REMARK    1  A    between atoms: C2_2  and  N1_3 
REMARK    2  A    between atoms: N1_3  and  C3_5 
REMARK    3  A    between atoms: C3_5  and  C4_6 
REMARK    4  A    between atoms: C4_6  and  N2_7 
REMARK    5  A    between atoms: N2_7  and  C5_9 
REMARK    6  A    between atoms: C6_14  and  C7_15 
REMARK    7  A    between atoms: C7_15  and  N5_16 
REMARK    8  A    between atoms: C8_20  and  O1_21 
ROOT
HETATM    1  C5  UNL     1     -36.048  21.311  -4.810  1.00  0.00     0.109 C 
HETATM    2  N3  UNL     1     -36.784  20.364  -5.328  1.00  0.00    -0.292 N 
ATOM      3  H3  UNL     1     -37.760  20.333  -5.033  1.00  0.00     0.188 HD
HETATM    4  N4  UNL     1     -36.384  19.408  -6.229  1.00  0.00    -0.324 N 
ATOM      5  H4  UNL     1     -37.138  18.910  -6.701  1.00  0.00     0.180 HD
HETATM    6  C6  UNL     1     -35.036  19.003  -6.607  1.00  0.00     0.172 C 
HETATM    7  C8  UNL     1     -34.159  19.346  -5.408  1.00  0.00     0.239 C 
HETATM    8  N6  UNL     1     -33.781  20.725  -5.577  1.00  0.00    -0.388 N 
ATOM      9  H6  UNL     1     -32.947  20.998  -6.096  1.00  0.00     0.156 HD
HETATM   10  C9  UNL     1     -34.643  21.685  -4.974  1.00  0.00     0.194 C 
ENDROOT
BRANCH   1  11
HETATM   11  N2  UNL     1     -36.771  22.144  -3.900  1.00  0.00    -0.373 N 
ATOM     12  H2  UNL     1     -36.855  21.887  -2.917  1.00  0.00     0.161 HD
BRANCH  11  13
HETATM   13  C4  UNL     1     -37.372  23.340  -4.389  1.00  0.00     0.165 C 
BRANCH  13  14
HETATM   14  C3  UNL     1     -36.752  24.629  -3.981  1.00  0.00     0.075 C 
BRANCH  14  15
HETATM   15  N1  UNL     1     -37.565  25.468  -3.202  1.00  0.00    -0.401 N 
ATOM     16  H1  UNL     1     -37.164  26.115  -2.523  1.00  0.00     0.158 HD
BRANCH  15  17
HETATM   17  C2  UNL     1     -38.951  25.378  -3.394  1.00  0.00     0.114 C 
HETATM   18  C1  UNL     1     -39.636  25.727  -2.041  1.00  0.00     0.026 C 
ENDBRANCH  15  17
ENDBRANCH  14  15
ENDBRANCH  13  14
ENDBRANCH  11  13
ENDBRANCH   1  11
BRANCH   6  19
HETATM   19  C7  UNL     1     -34.946  17.521  -6.888  1.00  0.00     0.260 C 
BRANCH  19  20
HETATM   20  N5  UNL     1     -36.175  17.099  -7.574  1.00  0.00    -0.077 N 
ATOM     21  H53 UNL     1     -36.679  16.375  -7.063  1.00  0.00     0.274 HD
ATOM     22  H52 UNL     1     -36.900  17.817  -7.554  1.00  0.00     0.274 HD
ATOM     23  H51 UNL     1     -35.935  16.813  -8.523  1.00  0.00     0.274 HD
ENDBRANCH  19  20
ENDBRANCH   6  19
BRANCH   7  24
HETATM   24  O1  UNL     1     -33.088  18.466  -5.294  1.00  0.00    -0.375 OA
ATOM     25  H1  UNL     1     -32.573  18.442  -6.092  1.00  0.00     0.212 HD
ENDBRANCH   7  24
TORSDOF 8
ENDMDL
MODEL 5
REMARK VINA RESULT: -5.738000484      1.959      2.596
REMARK  8 active torsions:
REMARK  status: ('A' for Active; 'I' for Inactive)
REMARK    1  A    between atoms: C2_2  and  N1_3 
REMARK    2  A    between atoms: N1_3  and  C3_5 
REMARK    3  A    between atoms: C3_5  and  C4_6 
REMARK    4  A    between atoms: C4_6  and  N2_7 
REMARK    5  A    between atoms: N2_7  and  C5_9 
REMARK    6  A    between atoms: C6_14  and  C7_15 
REMARK    7  A    between atoms: C7_15  and  N5_16 
REMARK    8  A    between atoms: C8_20  and  O1_21 
ROOT
HETATM    1  C5  UNL     1     -34.892  21.556  -5.208  1.00  0.00     0.109 C 
HETATM    2  N3  UNL     1     -35.499  22.675  -4.913  1.00  0.00    -0.292 N 
ATOM      3  H3  UNL     1     -34.958  23.362  -4.390  1.00  0.00     0.188 HD
HETATM    4  N4  UNL     1     -36.789  23.023  -5.233  1.00  0.00    -0.324 N 
ATOM      5  H4  UNL     1     -37.011  24.013  -5.135  1.00  0.00     0.180 HD
HETATM    6  C6  UNL     1     -37.885  22.179  -5.691  1.00  0.00     0.172 C 
HETATM    7  C8  UNL     1     -37.573  20.785  -5.159  1.00  0.00     0.239 C 
HETATM    8  N6  UNL     1     -36.708  20.174  -6.135  1.00  0.00    -0.388 N 
ATOM      9  H6  UNL     1     -37.075  19.645  -6.927  1.00  0.00     0.156 HD
HETATM   10  C9  UNL     1     -35.311  20.353  -5.928  1.00  0.00     0.194 C 
ENDROOT
BRANCH   1  11
HETATM   11  N2  UNL     1     -33.547  21.508  -4.726  1.00  0.00    -0.373 N 
ATOM     12  H2  UNL     1     -32.767  21.723  -5.347  1.00  0.00     0.161 HD
BRANCH  11  13
HETATM   13  C4  UNL     1     -33.313  21.155  -3.366  1.00  0.00     0.165 C 
BRANCH  13  14
HETATM   14  C3  UNL     1     -32.814  19.779  -3.096  1.00  0.00     0.075 C 
BRANCH  14  15
HETATM   15  N1  UNL     1     -32.366  19.071  -4.222  1.00  0.00    -0.401 N 
ATOM     16  H1  UNL     1     -31.660  19.460  -4.848  1.00  0.00     0.158 HD
BRANCH  15  17
HETATM   17  C2  UNL     1     -32.929  17.807  -4.453  1.00  0.00     0.114 C 
HETATM   18  C1  UNL     1     -32.140  16.777  -3.593  1.00  0.00     0.026 C 
ENDBRANCH  15  17
ENDBRANCH  14  15
ENDBRANCH  13  14
ENDBRANCH  11  13
ENDBRANCH   1  11
BRANCH   6  19
HETATM   19  C7  UNL     1     -39.219  22.638  -5.149  1.00  0.00     0.260 C 
BRANCH  19  20
HETATM   20  N5  UNL     1     -39.016  23.175  -3.797  1.00  0.00    -0.077 N 
ATOM     21  H53 UNL     1     -39.757  22.901  -3.152  1.00  0.00     0.274 HD
ATOM     22  H52 UNL     1     -38.236  22.729  -3.313  1.00  0.00     0.274 HD
ATOM     23  H51 UNL     1     -38.908  24.187  -3.862  1.00  0.00     0.274 HD
ENDBRANCH  19  20
ENDBRANCH   6  19
BRANCH   7  24
HETATM   24  O1  UNL     1     -38.737  20.071  -4.895  1.00  0.00    -0.375 OA
ATOM     25  H1  UNL     1     -39.492  20.645  -4.843  1.00  0.00     0.212 HD
ENDBRANCH   7  24
TORSDOF 8
ENDMDL
