MODEL 1
REMARK VINA RESULT: -7.237503619      0.000      0.000
REMARK  8 active torsions:
REMARK  status: ('A' for Active; 'I' for Inactive)
REMARK    1  A    between atoms: C2_3  and  N2_4 
REMARK    2  A    between atoms: C3_5  and  N3_6 
REMARK    3  A    between atoms: N3_6  and  C4_8 
REMARK    4  A    between atoms: C4_8  and  C5_9 
REMARK    5  A    between atoms: C5_9  and  N4_10 
REMARK    6  A    between atoms: N4_10  and  C6_13 
REMARK    7  A    between atoms: C6_13  and  C7_14 
REMARK    8  A    between atoms: C7_14  and  N5_15 
ROOT
HETATM    1  N1  UNL     1     -41.289 -14.354  12.899  1.00  0.00    -0.196 NA
HETATM    2  C1  UNL     1     -40.279 -13.787  12.888  1.00  0.00     0.080 C 
HETATM    3  C2  UNL     1     -38.979 -13.067  12.899  1.00  0.00     0.272 C 
ENDROOT
BRANCH   3   4
HETATM    4  N2  UNL     1     -39.097 -11.814  13.586  1.00  0.00    -0.152 N 
HETATM    5  C3  UNL     1     -40.074 -11.362  14.384  1.00  0.00     0.683 A 
HETATM    6  N6  UNL     1     -39.744 -10.080  14.760  1.00  0.00    -0.182 N 
HETATM    7  C8  UNL     1     -38.582  -9.721  14.216  1.00  0.00     0.162 A 
ATOM      8  H6  UNL     1     -40.309  -9.489  15.370  1.00  0.00     0.184 HD
HETATM    9  C9  UNL     1     -37.811  -8.556  14.273  1.00  0.00     0.290 A 
HETATM   10  C11 UNL     1     -38.175 -10.801  13.484  1.00  0.00     0.173 A 
HETATM   11  O1  UNL     1     -38.234  -7.597  14.962  1.00  0.00    -0.265 OA
HETATM   12  N7  UNL     1     -36.665  -8.554  13.579  1.00  0.00    -0.154 N 
HETATM   13  C10 UNL     1     -36.268  -9.616  12.860  1.00  0.00     0.680 A 
ATOM     14  H7  UNL     1     -36.078  -7.720  13.598  1.00  0.00     0.187 HD
HETATM   15  N8  UNL     1     -35.151  -9.609  12.186  1.00  0.00    -0.234 N 
HETATM   16  N9  UNL     1     -37.007 -10.743  12.801  1.00  0.00    -0.174 N 
ATOM     17  H82 UNL     1     -34.592  -8.758  12.230  1.00  0.00     0.174 HD
ATOM     18  H81 UNL     1     -34.848 -10.415  11.640  1.00  0.00     0.174 HD
ATOM     19  H9  UNL     1     -36.691 -11.540  12.249  1.00  0.00     0.186 HD
BRANCH   5  20
HETATM   20  N3  UNL     1     -41.249 -11.980  14.876  1.00  0.00    -0.224 N 
ATOM     21  H3  UNL     1     -41.120 -12.918  15.256  1.00  0.00     0.177 HD
BRANCH  20  22
HETATM   22  C4  UNL     1     -42.578 -11.487  14.917  1.00  0.00     0.165 C 
BRANCH  22  23
HETATM   23  C5  UNL     1     -43.152 -11.101  13.564  1.00  0.00     0.252 C 
BRANCH  23  24
HETATM   24  N4  UNL     1     -43.536 -12.334  12.907  1.00  0.00    -0.072 N 
ATOM     25  H42 UNL     1     -43.474 -12.258  11.891  1.00  0.00     0.277 HD
ATOM     26  H41 UNL     1     -42.844 -13.070  13.047  1.00  0.00     0.277 HD
BRANCH  24  27
HETATM   27  C6  UNL     1     -44.870 -12.754  13.341  1.00  0.00     0.259 C 
BRANCH  27  28
HETATM   28  C7  UNL     1     -45.242 -14.082  12.719  1.00  0.00     0.257 C 
BRANCH  28  29
HETATM   29  N5  UNL     1     -44.162 -14.644  11.948  1.00  0.00    -0.078 N 
ATOM     30  H53 UNL     1     -44.452 -14.832  10.989  1.00  0.00     0.274 HD
ATOM     31  H52 UNL     1     -43.439 -13.948  11.764  1.00  0.00     0.274 HD
ATOM     32  H51 UNL     1     -43.769 -15.477  12.385  1.00  0.00     0.274 HD
ENDBRANCH  28  29
ENDBRANCH  27  28
ENDBRANCH  24  27
ENDBRANCH  23  24
ENDBRANCH  22  23
ENDBRANCH  20  22
ENDBRANCH   5  20
ENDBRANCH   3   4
TORSDOF 8
ENDMDL
MODEL 2
REMARK VINA RESULT: -7.115609140      2.378      4.282
REMARK  8 active torsions:
REMARK  status: ('A' for Active; 'I' for Inactive)
REMARK    1  A    between atoms: C2_3  and  N2_4 
REMARK    2  A    between atoms: C3_5  and  N3_6 
REMARK    3  A    between atoms: N3_6  and  C4_8 
REMARK    4  A    between atoms: C4_8  and  C5_9 
REMARK    5  A    between atoms: C5_9  and  N4_10 
REMARK    6  A    between atoms: N4_10  and  C6_13 
REMARK    7  A    between atoms: C6_13  and  C7_14 
REMARK    8  A    between atoms: C7_14  and  N5_15 
ROOT
HETATM    1  N1  UNL     1     -43.724  -8.870  14.330  1.00  0.00    -0.196 NA
HETATM    2  C1  UNL     1     -43.497  -9.947  14.690  1.00  0.00     0.080 C 
HETATM    3  C2  UNL     1     -43.182 -11.321  15.163  1.00  0.00     0.272 C 
ENDROOT
BRANCH   3   4
HETATM    4  N2  UNL     1     -42.238 -11.955  14.291  1.00  0.00    -0.152 N 
HETATM    5  C3  UNL     1     -42.440 -12.850  13.314  1.00  0.00     0.683 A 
HETATM    6  N6  UNL     1     -41.210 -13.190  12.800  1.00  0.00    -0.182 N 
HETATM    7  C8  UNL     1     -40.243 -12.527  13.434  1.00  0.00     0.162 A 
ATOM      8  H6  UNL     1     -41.059 -13.855  12.041  1.00  0.00     0.184 HD
HETATM    9  C9  UNL     1     -38.851 -12.501  13.309  1.00  0.00     0.290 A 
HETATM   10  C11 UNL     1     -40.881 -11.755  14.363  1.00  0.00     0.173 A 
HETATM   11  O1  UNL     1     -38.320 -13.231  12.437  1.00  0.00    -0.265 OA
HETATM   12  N7  UNL     1     -38.183 -11.691  14.139  1.00  0.00    -0.154 N 
HETATM   13  C10 UNL     1     -38.813 -10.934  15.053  1.00  0.00     0.680 A 
ATOM     14  H7  UNL     1     -37.165 -11.648  14.076  1.00  0.00     0.187 HD
HETATM   15  N8  UNL     1     -38.157 -10.145  15.859  1.00  0.00    -0.234 N 
HETATM   16  N9  UNL     1     -40.155 -10.954  15.178  1.00  0.00    -0.174 N 
ATOM     17  H82 UNL     1     -37.142 -10.130  15.765  1.00  0.00     0.174 HD
ATOM     18  H81 UNL     1     -38.635  -9.570  16.553  1.00  0.00     0.174 HD
ATOM     19  H9  UNL     1     -40.618 -10.373  15.878  1.00  0.00     0.186 HD
BRANCH   5  20
HETATM   20  N3  UNL     1     -43.627 -13.395  12.767  1.00  0.00    -0.224 N 
ATOM     21  H3  UNL     1     -44.392 -12.732  12.641  1.00  0.00     0.177 HD
BRANCH  20  22
HETATM   22  C4  UNL     1     -43.909 -14.727  12.370  1.00  0.00     0.165 C 
BRANCH  22  23
HETATM   23  C5  UNL     1     -45.355 -15.151  12.560  1.00  0.00     0.252 C 
BRANCH  23  24
HETATM   24  N4  UNL     1     -45.931 -15.274  11.235  1.00  0.00    -0.072 N 
ATOM     25  H42 UNL     1     -46.903 -15.583  11.271  1.00  0.00     0.277 HD
ATOM     26  H41 UNL     1     -46.077 -14.363  10.799  1.00  0.00     0.277 HD
BRANCH  24  27
HETATM   27  C6  UNL     1     -45.111 -16.151  10.398  1.00  0.00     0.259 C 
BRANCH  27  28
HETATM   28  C7  UNL     1     -45.002 -15.602   8.992  1.00  0.00     0.257 C 
BRANCH  28  29
HETATM   29  N5  UNL     1     -43.674 -15.129   8.694  1.00  0.00    -0.078 N 
ATOM     30  H53 UNL     1     -43.665 -14.119   8.551  1.00  0.00     0.274 HD
ATOM     31  H52 UNL     1     -43.070 -15.181   9.515  1.00  0.00     0.274 HD
ATOM     32  H51 UNL     1     -43.260 -15.617   7.900  1.00  0.00     0.274 HD
ENDBRANCH  28  29
ENDBRANCH  27  28
ENDBRANCH  24  27
ENDBRANCH  23  24
ENDBRANCH  22  23
ENDBRANCH  20  22
ENDBRANCH   5  20
ENDBRANCH   3   4
TORSDOF 8
ENDMDL
MODEL 3
REMARK VINA RESULT: -6.926527421      2.038      6.301
REMARK  8 active torsions:
REMARK  status: ('A' for Active; 'I' for Inactive)
REMARK    1  A    between atoms: C2_3  and  N2_4 
REMARK    2  A    between atoms: C3_5  and  N3_6 
REMARK    3  A    between atoms: N3_6  and  C4_8 
REMARK    4  A    between atoms: C4_8  and  C5_9 
REMARK    5  A    between atoms: C5_9  and  N4_10 
REMARK    6  A    between atoms: N4_10  and  C6_13 
REMARK    7  A    between atoms: C6_13  and  C7_14 
REMARK    8  A    between atoms: C7_14  and  N5_15 
ROOT
HETATM    1  N1  UNL     1     -38.724 -14.228  12.169  1.00  0.00    -0.196 NA
HETATM    2  C1  UNL     1     -38.549 -13.356  12.911  1.00  0.00     0.080 C 
HETATM    3  C2  UNL     1     -38.337 -12.251  13.883  1.00  0.00     0.272 C 
ENDROOT
BRANCH   3   4
HETATM    4  N2  UNL     1     -39.528 -11.467  14.029  1.00  0.00    -0.152 N 
HETATM    5  C3  UNL     1     -39.683 -10.223  14.503  1.00  0.00     0.683 A 
HETATM    6  N6  UNL     1     -41.029  -9.935  14.482  1.00  0.00    -0.182 N 
HETATM    7  C8  UNL     1     -41.718 -10.971  14.006  1.00  0.00     0.162 A 
ATOM      8  H6  UNL     1     -41.440  -9.053  14.788  1.00  0.00     0.184 HD
HETATM    9  C9  UNL     1     -43.078 -11.201  13.779  1.00  0.00     0.290 A 
HETATM   10  C11 UNL     1     -40.785 -11.928  13.722  1.00  0.00     0.173 A 
HETATM   11  O1  UNL     1     -43.889 -10.285  14.059  1.00  0.00    -0.265 OA
HETATM   12  N7  UNL     1     -43.416 -12.395  13.276  1.00  0.00    -0.154 N 
HETATM   13  C10 UNL     1     -42.496 -13.334  12.997  1.00  0.00     0.680 A 
ATOM     14  H7  UNL     1     -44.400 -12.597  13.098  1.00  0.00     0.187 HD
HETATM   15  N8  UNL     1     -42.830 -14.496  12.506  1.00  0.00    -0.234 N 
HETATM   16  N9  UNL     1     -41.182 -13.119  13.214  1.00  0.00    -0.174 N 
ATOM     17  H82 UNL     1     -43.823 -14.659  12.342  1.00  0.00     0.174 HD
ATOM     18  H81 UNL     1     -42.132 -15.209  12.294  1.00  0.00     0.174 HD
ATOM     19  H9  UNL     1     -40.497 -13.843  12.997  1.00  0.00     0.186 HD
BRANCH   5  20
HETATM   20  N3  UNL     1     -38.743  -9.254  14.928  1.00  0.00    -0.224 N 
ATOM     21  H3  UNL     1     -38.669  -9.135  15.939  1.00  0.00     0.177 HD
BRANCH  20  22
HETATM   22  C4  UNL     1     -37.890  -8.424  14.158  1.00  0.00     0.165 C 
BRANCH  22  23
HETATM   23  C5  UNL     1     -36.775  -9.161  13.435  1.00  0.00     0.252 C 
BRANCH  23  24
HETATM   24  N4  UNL     1     -36.038  -8.165  12.681  1.00  0.00    -0.072 N 
ATOM     25  H42 UNL     1     -36.656  -7.590  12.108  1.00  0.00     0.277 HD
ATOM     26  H41 UNL     1     -35.665  -7.433  13.285  1.00  0.00     0.277 HD
BRANCH  24  27
HETATM   27  C6  UNL     1     -34.988  -8.799  11.882  1.00  0.00     0.259 C 
BRANCH  27  28
HETATM   28  C7  UNL     1     -35.315  -8.718  10.407  1.00  0.00     0.257 C 
BRANCH  28  29
HETATM   29  N5  UNL     1     -36.102  -9.840   9.962  1.00  0.00    -0.078 N 
ATOM     30  H53 UNL     1     -36.223 -10.526  10.707  1.00  0.00     0.274 HD
ATOM     31  H52 UNL     1     -37.078  -9.576   9.825  1.00  0.00     0.274 HD
ATOM     32  H51 UNL     1     -35.716 -10.273   9.123  1.00  0.00     0.274 HD
ENDBRANCH  28  29
ENDBRANCH  27  28
ENDBRANCH  24  27
ENDBRANCH  23  24
ENDBRANCH  22  23
ENDBRANCH  20  22
ENDBRANCH   5  20
ENDBRANCH   3   4
TORSDOF 8
ENDMDL
MODEL 4
REMARK VINA RESULT: -6.925004781      2.492      7.129
REMARK  8 active torsions:
REMARK  status: ('A' for Active; 'I' for Inactive)
REMARK    1  A    between atoms: C2_3  and  N2_4 
REMARK    2  A    between atoms: C3_5  and  N3_6 
REMARK    3  A    between atoms: N3_6  and  C4_8 
REMARK    4  A    between atoms: C4_8  and  C5_9 
REMARK    5  A    between atoms: C5_9  and  N4_10 
REMARK    6  A    between atoms: N4_10  and  C6_13 
REMARK    7  A    between atoms: C6_13  and  C7_14 
REMARK    8  A    between atoms: C7_14  and  N5_15 
ROOT
HETATM    1  N1  UNL     1     -38.443  -8.432  16.520  1.00  0.00    -0.196 NA
HETATM    2  C1  UNL     1     -38.453  -8.655  15.383  1.00  0.00     0.080 C 
HETATM    3  C2  UNL     1     -38.493  -8.939  13.925  1.00  0.00     0.272 C 
ENDROOT
BRANCH   3   4
HETATM    4  N2  UNL     1     -38.858 -10.304  13.682  1.00  0.00    -0.152 N 
HETATM    5  C3  UNL     1     -38.102 -11.336  13.283  1.00  0.00     0.683 A 
HETATM    6  N6  UNL     1     -38.928 -12.429  13.149  1.00  0.00    -0.182 N 
HETATM    7  C8  UNL     1     -40.183 -12.103  13.456  1.00  0.00     0.162 A 
ATOM      8  H6  UNL     1     -38.622 -13.357  12.857  1.00  0.00     0.184 HD
HETATM    9  C9  UNL     1     -41.383 -12.818  13.488  1.00  0.00     0.290 A 
HETATM   10  C11 UNL     1     -40.143 -10.778  13.790  1.00  0.00     0.173 A 
HETATM   11  O1  UNL     1     -41.359 -14.032  13.172  1.00  0.00    -0.265 OA
HETATM   12  N7  UNL     1     -42.481 -12.145  13.856  1.00  0.00    -0.154 N 
HETATM   13  C10 UNL     1     -42.439 -10.842  14.183  1.00  0.00     0.680 A 
ATOM     14  H7  UNL     1     -43.375 -12.635  13.889  1.00  0.00     0.187 HD
HETATM   15  N8  UNL     1     -43.511 -10.191  14.542  1.00  0.00    -0.234 N 
HETATM   16  N9  UNL     1     -41.284 -10.147  14.155  1.00  0.00    -0.174 N 
ATOM     17  H82 UNL     1     -44.384 -10.716  14.563  1.00  0.00     0.174 HD
ATOM     18  H81 UNL     1     -43.479  -9.202  14.791  1.00  0.00     0.174 HD
ATOM     19  H9  UNL     1     -41.269  -9.158  14.406  1.00  0.00     0.186 HD
BRANCH   5  20
HETATM   20  N3  UNL     1     -36.710 -11.449  13.053  1.00  0.00    -0.224 N 
ATOM     21  H3  UNL     1     -36.305 -12.357  13.281  1.00  0.00     0.177 HD
BRANCH  20  22
HETATM   22  C4  UNL     1     -35.797 -10.487  12.554  1.00  0.00     0.165 C 
BRANCH  22  23
HETATM   23  C5  UNL     1     -36.201  -9.855  11.232  1.00  0.00     0.252 C 
BRANCH  23  24
HETATM   24  N4  UNL     1     -35.048  -9.119  10.752  1.00  0.00    -0.072 N 
ATOM     25  H42 UNL     1     -34.362  -9.733  10.313  1.00  0.00     0.277 HD
ATOM     26  H41 UNL     1     -35.277  -8.542   9.943  1.00  0.00     0.277 HD
BRANCH  24  27
HETATM   27  C6  UNL     1     -34.457  -8.329  11.834  1.00  0.00     0.259 C 
BRANCH  27  28
HETATM   28  C7  UNL     1     -35.398  -7.226  12.268  1.00  0.00     0.257 C 
BRANCH  28  29
HETATM   29  N5  UNL     1     -34.692  -6.059  12.732  1.00  0.00    -0.078 N 
ATOM     30  H53 UNL     1     -34.854  -5.900  13.726  1.00  0.00     0.274 HD
ATOM     31  H52 UNL     1     -33.685  -6.223  12.757  1.00  0.00     0.274 HD
ATOM     32  H51 UNL     1     -34.917  -5.229  12.184  1.00  0.00     0.274 HD
ENDBRANCH  28  29
ENDBRANCH  27  28
ENDBRANCH  24  27
ENDBRANCH  23  24
ENDBRANCH  22  23
ENDBRANCH  20  22
ENDBRANCH   5  20
ENDBRANCH   3   4
TORSDOF 8
ENDMDL
MODEL 5
REMARK VINA RESULT: -6.870927546      2.087      6.508
REMARK  8 active torsions:
REMARK  status: ('A' for Active; 'I' for Inactive)
REMARK    1  A    between atoms: C2_3  and  N2_4 
REMARK    2  A    between atoms: C3_5  and  N3_6 
REMARK    3  A    between atoms: N3_6  and  C4_8 
REMARK    4  A    between atoms: C4_8  and  C5_9 
REMARK    5  A    between atoms: C5_9  and  N4_10 
REMARK    6  A    between atoms: N4_10  and  C6_13 
REMARK    7  A    between atoms: C6_13  and  C7_14 
REMARK    8  A    between atoms: C7_14  and  N5_15 
ROOT
HETATM    1  N1  UNL     1     -37.662 -11.305  11.539  1.00  0.00    -0.196 NA
HETATM    2  C1  UNL     1     -38.151 -11.689  12.517  1.00  0.00     0.080 C 
HETATM    3  C2  UNL     1     -38.792 -12.201  13.756  1.00  0.00     0.272 C 
ENDROOT
BRANCH   3   4
HETATM    4  N2  UNL     1     -40.111 -11.661  13.907  1.00  0.00    -0.152 N 
HETATM    5  C3  UNL     1     -40.506 -10.503  14.454  1.00  0.00     0.683 A 
HETATM    6  N6  UNL     1     -41.881 -10.466  14.401  1.00  0.00    -0.182 N 
HETATM    7  C8  UNL     1     -42.354 -11.574  13.833  1.00  0.00     0.162 A 
ATOM      8  H6  UNL     1     -42.456  -9.697  14.747  1.00  0.00     0.184 HD
HETATM    9  C9  UNL     1     -43.642 -12.033  13.540  1.00  0.00     0.290 A 
HETATM   10  C11 UNL     1     -41.252 -12.322  13.523  1.00  0.00     0.173 A 
HETATM   11  O1  UNL     1     -44.615 -11.303  13.847  1.00  0.00    -0.265 OA
HETATM   12  N7  UNL     1     -43.739 -13.230  12.947  1.00  0.00    -0.154 N 
HETATM   13  C10 UNL     1     -42.654 -13.963  12.644  1.00  0.00     0.680 A 
ATOM     14  H7  UNL     1     -44.663 -13.596  12.720  1.00  0.00     0.187 HD
HETATM   15  N8  UNL     1     -42.754 -15.128  12.067  1.00  0.00    -0.234 N 
HETATM   16  N9  UNL     1     -41.409 -13.526  12.924  1.00  0.00    -0.174 N 
ATOM     17  H82 UNL     1     -43.695 -15.459  11.855  1.00  0.00     0.174 HD
ATOM     18  H81 UNL     1     -41.931 -15.685  11.836  1.00  0.00     0.174 HD
ATOM     19  H9  UNL     1     -40.597 -14.095  12.688  1.00  0.00     0.186 HD
BRANCH   5  20
HETATM   20  N3  UNL     1     -39.774  -9.411  14.977  1.00  0.00    -0.224 N 
ATOM     21  H3  UNL     1     -40.335  -8.613  15.276  1.00  0.00     0.177 HD
BRANCH  20  22
HETATM   22  C4  UNL     1     -38.374  -9.262  15.147  1.00  0.00     0.165 C 
BRANCH  22  23
HETATM   23  C5  UNL     1     -37.709  -8.334  14.144  1.00  0.00     0.252 C 
BRANCH  23  24
HETATM   24  N4  UNL     1     -36.571  -9.052  13.603  1.00  0.00    -0.072 N 
ATOM     25  H42 UNL     1     -35.941  -9.372  14.338  1.00  0.00     0.277 HD
ATOM     26  H41 UNL     1     -36.841  -9.960  13.226  1.00  0.00     0.277 HD
BRANCH  24  27
HETATM   27  C6  UNL     1     -35.876  -8.235  12.607  1.00  0.00     0.259 C 
BRANCH  27  28
HETATM   28  C7  UNL     1     -34.974  -9.093  11.746  1.00  0.00     0.257 C 
BRANCH  28  29
HETATM   29  N5  UNL     1     -35.502  -9.275  10.418  1.00  0.00    -0.078 N 
ATOM     30  H53 UNL     1     -36.279  -9.935  10.416  1.00  0.00     0.274 HD
ATOM     31  H52 UNL     1     -35.997  -8.441  10.099  1.00  0.00     0.274 HD
ATOM     32  H51 UNL     1     -34.781  -9.553   9.751  1.00  0.00     0.274 HD
ENDBRANCH  28  29
ENDBRANCH  27  28
ENDBRANCH  24  27
ENDBRANCH  23  24
ENDBRANCH  22  23
ENDBRANCH  20  22
ENDBRANCH   5  20
ENDBRANCH   3   4
TORSDOF 8
ENDMDL
