MODEL 1
REMARK VINA RESULT: -6.377374293      0.000      0.000
REMARK  4 active torsions:
REMARK  status: ('A' for Active; 'I' for Inactive)
REMARK    1  A    between atoms: C2_2  and  C6_7 
REMARK    2  A    between atoms: C3_3  and  N1_4 
REMARK    3  A    between atoms: C6_7  and  N2_8 
REMARK       I    between atoms: N4_15  and  C10_17 
REMARK    4  A    between atoms: C10_17  and  C11_19 
ROOT
HETATM    1  N2  UNL     1     -21.320 -42.251  26.012  1.00  0.00    -0.272 N 
HETATM    2  N3  UNL     1     -21.246 -40.960  26.254  1.00  0.00    -0.306 N 
ATOM      3  H3  UNL     1     -21.320 -40.543  27.182  1.00  0.00     0.186 HD
HETATM    4  C7  UNL     1     -21.063 -40.268  25.130  1.00  0.00     0.130 A 
HETATM    5  C8  UNL     1     -21.023 -41.225  24.124  1.00  0.00     0.073 A 
HETATM    6 BR1  UNL     1     -20.781 -40.794  22.289  1.00  0.00    -0.045 Br
HETATM    7  C9  UNL     1     -21.188 -42.489  24.695  1.00  0.00     0.144 A 
HETATM    8  N4  UNL     1     -21.202 -43.614  24.082  1.00  0.00    -0.310 N 
ATOM      9  H4  UNL     1     -21.330 -44.443  24.662  1.00  0.00     0.170 HD
HETATM   10  C10 UNL     1     -21.063 -43.833  22.706  1.00  0.00     0.226 C 
HETATM   11  O1  UNL     1     -22.021 -43.693  21.880  1.00  0.00    -0.273 OA
ENDROOT
BRANCH   1  12
HETATM   12  C6  UNL     1     -21.519 -43.228  27.064  1.00  0.00     0.186 C 
BRANCH  12  13
HETATM   13  C2  UNL     1     -22.893 -43.716  27.190  1.00  0.00    -0.049 C 
HETATM   14  C1  UNL     1     -24.060 -42.764  27.277  1.00  0.00     0.046 C 
HETATM   15  C3  UNL     1     -23.167 -44.992  27.213  1.00  0.00     0.088 C 
BRANCH  15  16
HETATM   16  N1  UNL     1     -22.218 -46.060  27.144  1.00  0.00    -0.398 N 
HETATM   17  C4  UNL     1     -21.827 -46.551  25.844  1.00  0.00     0.148 C 
HETATM   18  C5  UNL     1     -21.719 -46.599  28.379  1.00  0.00     0.148 C 
ENDBRANCH  15  16
ENDBRANCH  12  13
ENDBRANCH   1  12
BRANCH  10  19
HETATM   19  C11 UNL     1     -19.752 -44.252  22.130  1.00  0.00     0.070 C 
HETATM   20  C12 UNL     1     -18.989 -45.113  23.148  1.00  0.00     0.019 C 
HETATM   21  C13 UNL     1     -19.967 -45.129  20.926  1.00  0.00     0.019 C 
ENDBRANCH  10  19
TORSDOF 4
ENDMDL
MODEL 2
REMARK VINA RESULT: -6.083702640      2.948      5.353
REMARK  4 active torsions:
REMARK  status: ('A' for Active; 'I' for Inactive)
REMARK    1  A    between atoms: C2_2  and  C6_7 
REMARK    2  A    between atoms: C3_3  and  N1_4 
REMARK    3  A    between atoms: C6_7  and  N2_8 
REMARK       I    between atoms: N4_15  and  C10_17 
REMARK    4  A    between atoms: C10_17  and  C11_19 
ROOT
HETATM    1  N2  UNL     1     -21.309 -47.365  26.761  1.00  0.00    -0.272 N 
HETATM    2  N3  UNL     1     -21.404 -48.113  25.684  1.00  0.00    -0.306 N 
ATOM      3  H3  UNL     1     -21.419 -49.133  25.691  1.00  0.00     0.186 HD
HETATM    4  C7  UNL     1     -21.477 -47.367  24.582  1.00  0.00     0.130 A 
HETATM    5  C8  UNL     1     -21.420 -46.055  25.036  1.00  0.00     0.073 A 
HETATM    6 BR1  UNL     1     -21.484 -44.552  23.875  1.00  0.00    -0.045 Br
HETATM    7  C9  UNL     1     -21.314 -46.061  26.428  1.00  0.00     0.144 A 
HETATM    8  N4  UNL     1     -21.241 -45.040  27.198  1.00  0.00    -0.310 N 
ATOM      9  H4  UNL     1     -21.171 -45.232  28.198  1.00  0.00     0.170 HD
HETATM   10  C10 UNL     1     -21.248 -43.692  26.823  1.00  0.00     0.226 C 
HETATM   11  O1  UNL     1     -20.214 -43.085  26.394  1.00  0.00    -0.273 OA
ENDROOT
BRANCH   1  12
HETATM   12  C6  UNL     1     -21.214 -47.928  28.093  1.00  0.00     0.186 C 
BRANCH  12  13
HETATM   13  C2  UNL     1     -22.444 -48.555  28.579  1.00  0.00    -0.049 C 
HETATM   14  C1  UNL     1     -23.658 -47.733  28.934  1.00  0.00     0.046 C 
HETATM   15  C3  UNL     1     -22.548 -49.850  28.706  1.00  0.00     0.088 C 
BRANCH  15  16
HETATM   16  N1  UNL     1     -21.525 -50.810  28.428  1.00  0.00    -0.398 N 
HETATM   17  C4  UNL     1     -21.511 -51.445  27.132  1.00  0.00     0.148 C 
HETATM   18  C5  UNL     1     -20.576 -51.103  29.466  1.00  0.00     0.148 C 
ENDBRANCH  15  16
ENDBRANCH  12  13
ENDBRANCH   1  12
BRANCH  10  19
HETATM   19  C11 UNL     1     -22.497 -42.881  26.913  1.00  0.00     0.070 C 
HETATM   20  C12 UNL     1     -22.927 -42.752  28.382  1.00  0.00     0.019 C 
HETATM   21  C13 UNL     1     -22.246 -41.479  26.430  1.00  0.00     0.019 C 
ENDBRANCH  10  19
TORSDOF 4
ENDMDL
MODEL 3
REMARK VINA RESULT: -5.966386413      3.165      6.218
REMARK  4 active torsions:
REMARK  status: ('A' for Active; 'I' for Inactive)
REMARK    1  A    between atoms: C2_2  and  C6_7 
REMARK    2  A    between atoms: C3_3  and  N1_4 
REMARK    3  A    between atoms: C6_7  and  N2_8 
REMARK       I    between atoms: N4_15  and  C10_17 
REMARK    4  A    between atoms: C10_17  and  C11_19 
ROOT
HETATM    1  N2  UNL     1     -20.124 -47.399  24.884  1.00  0.00    -0.272 N 
HETATM    2  N3  UNL     1     -19.533 -48.429  25.449  1.00  0.00    -0.306 N 
ATOM      3  H3  UNL     1     -18.904 -49.069  24.964  1.00  0.00     0.186 HD
HETATM    4  C7  UNL     1     -19.861 -48.528  26.738  1.00  0.00     0.130 A 
HETATM    5  C8  UNL     1     -20.725 -47.465  26.968  1.00  0.00     0.073 A 
HETATM    6 BR1  UNL     1     -21.515 -47.117  28.661  1.00  0.00    -0.045 Br
HETATM    7  C9  UNL     1     -20.889 -46.749  25.781  1.00  0.00     0.144 A 
HETATM    8  N4  UNL     1     -21.609 -45.704  25.606  1.00  0.00    -0.310 N 
ATOM      9  H4  UNL     1     -21.608 -45.306  24.666  1.00  0.00     0.170 HD
HETATM   10  C10 UNL     1     -22.397 -45.047  26.558  1.00  0.00     0.226 C 
HETATM   11  O1  UNL     1     -23.560 -45.445  26.892  1.00  0.00    -0.273 OA
ENDROOT
BRANCH   1  12
HETATM   12  C6  UNL     1     -19.939 -47.066  23.486  1.00  0.00     0.186 C 
BRANCH  12  13
HETATM   13  C2  UNL     1     -19.114 -45.882  23.247  1.00  0.00    -0.049 C 
HETATM   14  C1  UNL     1     -17.755 -45.727  23.882  1.00  0.00     0.046 C 
HETATM   15  C3  UNL     1     -19.511 -44.919  22.458  1.00  0.00     0.088 C 
BRANCH  15  16
HETATM   16  N1  UNL     1     -20.758 -44.862  21.759  1.00  0.00    -0.398 N 
HETATM   17  C4  UNL     1     -20.840 -45.464  20.449  1.00  0.00     0.148 C 
HETATM   18  C5  UNL     1     -21.857 -44.190  22.394  1.00  0.00     0.148 C 
ENDBRANCH  15  16
ENDBRANCH  12  13
ENDBRANCH   1  12
BRANCH  10  19
HETATM   19  C11 UNL     1     -21.900 -43.818  27.242  1.00  0.00     0.070 C 
HETATM   20  C12 UNL     1     -20.806 -43.156  26.391  1.00  0.00     0.019 C 
HETATM   21  C13 UNL     1     -23.004 -42.802  27.360  1.00  0.00     0.019 C 
ENDBRANCH  10  19
TORSDOF 4
ENDMDL
MODEL 4
REMARK VINA RESULT: -5.939341558      2.289      4.605
REMARK  4 active torsions:
REMARK  status: ('A' for Active; 'I' for Inactive)
REMARK    1  A    between atoms: C2_2  and  C6_7 
REMARK    2  A    between atoms: C3_3  and  N1_4 
REMARK    3  A    between atoms: C6_7  and  N2_8 
REMARK       I    between atoms: N4_15  and  C10_17 
REMARK    4  A    between atoms: C10_17  and  C11_19 
ROOT
HETATM    1  N2  UNL     1     -20.375 -43.092  22.740  1.00  0.00    -0.272 N 
HETATM    2  N3  UNL     1     -20.401 -42.037  21.956  1.00  0.00    -0.306 N 
ATOM      3  H3  UNL     1     -20.167 -42.051  20.963  1.00  0.00     0.186 HD
HETATM    4  C7  UNL     1     -20.772 -40.946  22.627  1.00  0.00     0.130 A 
HETATM    5  C8  UNL     1     -20.988 -41.383  23.927  1.00  0.00     0.073 A 
HETATM    6 BR1  UNL     1     -21.541 -40.230  25.332  1.00  0.00    -0.045 Br
HETATM    7  C9  UNL     1     -20.732 -42.754  23.992  1.00  0.00     0.144 A 
HETATM    8  N4  UNL     1     -20.827 -43.506  25.025  1.00  0.00    -0.310 N 
ATOM      9  H4  UNL     1     -20.604 -44.492  24.889  1.00  0.00     0.170 HD
HETATM   10  C10 UNL     1     -21.202 -43.127  26.320  1.00  0.00     0.226 C 
HETATM   11  O1  UNL     1     -20.399 -42.581  27.143  1.00  0.00    -0.273 OA
ENDROOT
BRANCH   1  12
HETATM   12  C6  UNL     1     -20.001 -44.408  22.260  1.00  0.00     0.186 C 
BRANCH  12  13
HETATM   13  C2  UNL     1     -21.043 -45.426  22.402  1.00  0.00    -0.049 C 
HETATM   14  C1  UNL     1     -22.443 -45.194  21.893  1.00  0.00     0.046 C 
HETATM   15  C3  UNL     1     -20.799 -46.583  22.956  1.00  0.00     0.088 C 
BRANCH  15  16
HETATM   16  N1  UNL     1     -19.548 -47.008  23.504  1.00  0.00    -0.398 N 
HETATM   17  C4  UNL     1     -18.616 -47.695  22.641  1.00  0.00     0.148 C 
HETATM   18  C5  UNL     1     -19.296 -46.743  24.893  1.00  0.00     0.148 C 
ENDBRANCH  15  16
ENDBRANCH  12  13
ENDBRANCH   1  12
BRANCH  10  19
HETATM   19  C11 UNL     1     -22.593 -43.354  26.808  1.00  0.00     0.070 C 
HETATM   20  C12 UNL     1     -22.921 -44.854  26.764  1.00  0.00     0.019 C 
HETATM   21  C13 UNL     1     -22.714 -42.946  28.251  1.00  0.00     0.019 C 
ENDBRANCH  10  19
TORSDOF 4
ENDMDL
MODEL 5
REMARK VINA RESULT: -5.919026817      2.118      4.039
REMARK  4 active torsions:
REMARK  status: ('A' for Active; 'I' for Inactive)
REMARK    1  A    between atoms: C2_2  and  C6_7 
REMARK    2  A    between atoms: C3_3  and  N1_4 
REMARK    3  A    between atoms: C6_7  and  N2_8 
REMARK       I    between atoms: N4_15  and  C10_17 
REMARK    4  A    between atoms: C10_17  and  C11_19 
ROOT
HETATM    1  N2  UNL     1     -20.435 -44.039  23.337  1.00  0.00    -0.272 N 
HETATM    2  N3  UNL     1     -20.648 -44.778  22.271  1.00  0.00    -0.306 N 
ATOM      3  H3  UNL     1     -20.598 -45.797  22.257  1.00  0.00     0.186 HD
HETATM    4  C7  UNL     1     -20.938 -44.024  21.210  1.00  0.00     0.130 A 
HETATM    5  C8  UNL     1     -20.895 -42.717  21.680  1.00  0.00     0.073 A 
HETATM    6 BR1  UNL     1     -21.233 -41.206  20.579  1.00  0.00    -0.045 Br
HETATM    7  C9  UNL     1     -20.574 -42.734  23.039  1.00  0.00     0.144 A 
HETATM    8  N4  UNL     1     -20.447 -41.721  23.812  1.00  0.00    -0.310 N 
ATOM      9  H4  UNL     1     -20.211 -41.921  24.784  1.00  0.00     0.170 HD
HETATM   10  C10 UNL     1     -20.597 -40.371  23.474  1.00  0.00     0.226 C 
HETATM   11  O1  UNL     1     -19.683 -39.692  22.905  1.00  0.00    -0.273 OA
ENDROOT
BRANCH   1  12
HETATM   12  C6  UNL     1     -20.098 -44.612  24.625  1.00  0.00     0.186 C 
BRANCH  12  13
HETATM   13  C2  UNL     1     -21.251 -44.949  25.462  1.00  0.00    -0.049 C 
HETATM   14  C1  UNL     1     -22.064 -43.880  26.148  1.00  0.00     0.046 C 
HETATM   15  C3  UNL     1     -21.636 -46.185  25.633  1.00  0.00     0.088 C 
BRANCH  15  16
HETATM   16  N1  UNL     1     -21.011 -47.346  25.078  1.00  0.00    -0.398 N 
HETATM   17  C4  UNL     1     -21.543 -47.895  23.853  1.00  0.00     0.148 C 
HETATM   18  C5  UNL     1     -19.897 -47.915  25.784  1.00  0.00     0.148 C 
ENDBRANCH  15  16
ENDBRANCH  12  13
ENDBRANCH   1  12
BRANCH  10  19
HETATM   19  C11 UNL     1     -21.866 -39.646  23.774  1.00  0.00     0.070 C 
HETATM   20  C12 UNL     1     -21.830 -39.108  25.212  1.00  0.00     0.019 C 
HETATM   21  C13 UNL     1     -22.002 -38.440  22.885  1.00  0.00     0.019 C 
ENDBRANCH  10  19
TORSDOF 4
ENDMDL
