MODEL 1
REMARK VINA RESULT: -7.103494715      0.000      0.000
REMARK  6 active torsions:
REMARK  status: ('A' for Active; 'I' for Inactive)
REMARK    1  A    between atoms: O1_2  and  C2_3 
REMARK    2  A    between atoms: C3_6  and  O2_7 
REMARK    3  A    between atoms: C5_10  and  O3_12 
REMARK    4  A    between atoms: O3_12  and  C7_13 
REMARK    5  A    between atoms: C10_17  and  O5_18 
REMARK    6  A    between atoms: C11_20  and  O6_21 
ROOT
HETATM    1  C2  UNL     1      25.643  32.419  46.929  1.00  0.00     0.249 C 
HETATM    2  N1  UNL     1      25.353  31.050  47.153  1.00  0.00    -0.363 N 
ATOM      3  H1  UNL     1      25.925  30.487  47.784  1.00  0.00     0.158 HD
HETATM    4  C3  UNL     1      24.258  30.496  46.483  1.00  0.00     0.141 C 
HETATM    5  C4  UNL     1      22.872  30.786  47.012  1.00  0.00     0.100 C 
HETATM    6  C5  UNL     1      22.422  30.757  45.543  1.00  0.00     0.082 C 
HETATM    7  C6  UNL     1      21.394  31.790  45.262  1.00  0.00     0.047 C 
HETATM    8  C9  UNL     1      23.851  31.107  45.197  1.00  0.00     0.107 C 
HETATM    9  C10 UNL     1      24.174  32.531  45.010  1.00  0.00     0.163 C 
HETATM   10  C11 UNL     1      25.607  32.769  45.453  1.00  0.00     0.195 C 
ENDROOT
BRANCH   6  11
HETATM   11  O3  UNL     1      22.117  29.448  45.092  1.00  0.00    -0.310 OA
BRANCH  11  12
HETATM   12  C7  UNL     1      21.352  29.331  43.955  1.00  0.00     0.255 C 
HETATM   13  C8  UNL     1      20.008  28.696  44.026  1.00  0.00     0.126 C 
HETATM   14  O4  UNL     1      21.739  29.744  42.836  1.00  0.00    -0.266 OA
ENDBRANCH  11  12
ENDBRANCH   6  11
BRANCH   4  15
HETATM   15  O2  UNL     1      24.397  29.094  46.357  1.00  0.00    -0.370 OA
ATOM     16  H2  UNL     1      24.185  28.808  45.476  1.00  0.00     0.212 HD
ENDBRANCH   4  15
BRANCH   9  17
HETATM   17  O5  UNL     1      23.368  33.424  45.679  1.00  0.00    -0.392 OA
ATOM     18  H5  UNL     1      23.694  34.314  45.739  1.00  0.00     0.210 HD
ENDBRANCH   9  17
BRANCH  10  19
HETATM   19  O6  UNL     1      25.989  34.091  45.256  1.00  0.00    -0.389 OA
ATOM     20  H6  UNL     1      25.725  34.628  45.994  1.00  0.00     0.210 HD
ENDBRANCH  10  19
BRANCH   1  21
HETATM   21  O1  UNL     1      26.890  32.720  47.467  1.00  0.00    -0.369 OA
HETATM   22  C1  UNL     1      26.869  33.921  48.174  1.00  0.00     0.204 C 
ENDBRANCH   1  21
TORSDOF 6
ENDMDL
MODEL 2
REMARK VINA RESULT: -6.817249756      1.976      5.736
REMARK  6 active torsions:
REMARK  status: ('A' for Active; 'I' for Inactive)
REMARK    1  A    between atoms: O1_2  and  C2_3 
REMARK    2  A    between atoms: C3_6  and  O2_7 
REMARK    3  A    between atoms: C5_10  and  O3_12 
REMARK    4  A    between atoms: O3_12  and  C7_13 
REMARK    5  A    between atoms: C10_17  and  O5_18 
REMARK    6  A    between atoms: C11_20  and  O6_21 
ROOT
HETATM    1  C2  UNL     1      20.197  30.306  44.247  1.00  0.00     0.249 C 
HETATM    2  N1  UNL     1      20.243  31.670  44.626  1.00  0.00    -0.363 N 
ATOM      3  H1  UNL     1      19.419  32.267  44.548  1.00  0.00     0.158 HD
HETATM    4  C3  UNL     1      21.455  32.173  45.111  1.00  0.00     0.141 C 
HETATM    5  C4  UNL     1      21.843  31.854  46.538  1.00  0.00     0.100 C 
HETATM    6  C5  UNL     1      23.291  31.831  46.024  1.00  0.00     0.082 C 
HETATM    7  C6  UNL     1      24.088  30.759  46.672  1.00  0.00     0.047 C 
HETATM    8  C9  UNL     1      22.706  31.517  44.667  1.00  0.00     0.107 C 
HETATM    9  C10 UNL     1      22.607  30.098  44.282  1.00  0.00     0.163 C 
HETATM   10  C11 UNL     1      21.390  29.916  43.394  1.00  0.00     0.195 C 
ENDROOT
BRANCH   6  11
HETATM   11  O3  UNL     1      23.886  33.118  46.012  1.00  0.00    -0.310 OA
BRANCH  11  12
HETATM   12  C7  UNL     1      25.260  33.181  45.984  1.00  0.00     0.255 C 
HETATM   13  C8  UNL     1      26.011  33.588  47.202  1.00  0.00     0.126 C 
HETATM   14  O4  UNL     1      25.927  32.905  44.958  1.00  0.00    -0.266 OA
ENDBRANCH  11  12
ENDBRANCH   6  11
BRANCH   4  15
HETATM   15  O2  UNL     1      21.528  33.575  44.938  1.00  0.00    -0.370 OA
ATOM     16  H2  UNL     1      20.826  33.885  44.377  1.00  0.00     0.212 HD
ENDBRANCH   4  15
BRANCH   9  17
HETATM   17  O5  UNL     1      22.515  29.199  45.321  1.00  0.00    -0.392 OA
ATOM     18  H5  UNL     1      21.816  29.356  45.944  1.00  0.00     0.210 HD
ENDBRANCH   9  17
BRANCH  10  19
HETATM   19  O6  UNL     1      21.269  28.602  42.957  1.00  0.00    -0.389 OA
ATOM     20  H6  UNL     1      21.640  28.504  42.088  1.00  0.00     0.210 HD
ENDBRANCH  10  19
BRANCH   1  21
HETATM   21  O1  UNL     1      19.011  30.057  43.564  1.00  0.00    -0.369 OA
HETATM   22  C1  UNL     1      18.682  31.106  42.706  1.00  0.00     0.204 C 
ENDBRANCH   1  21
TORSDOF 6
ENDMDL
MODEL 3
REMARK VINA RESULT: -6.769917574      1.725      5.354
REMARK  6 active torsions:
REMARK  status: ('A' for Active; 'I' for Inactive)
REMARK    1  A    between atoms: O1_2  and  C2_3 
REMARK    2  A    between atoms: C3_6  and  O2_7 
REMARK    3  A    between atoms: C5_10  and  O3_12 
REMARK    4  A    between atoms: O3_12  and  C7_13 
REMARK    5  A    between atoms: C10_17  and  O5_18 
REMARK    6  A    between atoms: C11_20  and  O6_21 
ROOT
HETATM    1  C2  UNL     1      21.459  30.585  43.648  1.00  0.00     0.249 C 
HETATM    2  N1  UNL     1      22.722  30.049  44.002  1.00  0.00    -0.363 N 
ATOM      3  H1  UNL     1      23.083  29.208  43.549  1.00  0.00     0.158 HD
HETATM    4  C3  UNL     1      23.458  30.709  44.991  1.00  0.00     0.141 C 
HETATM    5  C4  UNL     1      24.198  31.971  44.612  1.00  0.00     0.100 C 
HETATM    6  C5  UNL     1      23.879  32.457  46.034  1.00  0.00     0.082 C 
HETATM    7  C6  UNL     1      23.552  33.905  46.061  1.00  0.00     0.047 C 
HETATM    8  C9  UNL     1      22.712  31.497  45.999  1.00  0.00     0.107 C 
HETATM    9  C10 UNL     1      21.405  32.033  45.585  1.00  0.00     0.163 C 
HETATM   10  C11 UNL     1      20.633  30.938  44.870  1.00  0.00     0.195 C 
ENDROOT
BRANCH   6  11
HETATM   11  O3  UNL     1      24.837  32.026  46.985  1.00  0.00    -0.310 OA
BRANCH  11  12
HETATM   12  C7  UNL     1      26.089  32.592  46.926  1.00  0.00     0.255 C 
HETATM   13  C8  UNL     1      26.497  33.602  47.940  1.00  0.00     0.126 C 
HETATM   14  O4  UNL     1      26.924  32.293  46.039  1.00  0.00    -0.266 OA
ENDBRANCH  11  12
ENDBRANCH   6  11
BRANCH   4  15
HETATM   15  O2  UNL     1      24.376  29.829  45.612  1.00  0.00    -0.370 OA
ATOM     16  H2  UNL     1      24.837  30.263  46.320  1.00  0.00     0.212 HD
ENDBRANCH   4  15
BRANCH   9  17
HETATM   17  O5  UNL     1      21.441  33.136  44.761  1.00  0.00    -0.392 OA
ATOM     18  H5  UNL     1      20.839  33.837  44.980  1.00  0.00     0.210 HD
ENDBRANCH   9  17
BRANCH  10  19
HETATM   19  O6  UNL     1      19.366  31.370  44.495  1.00  0.00    -0.389 OA
ATOM     20  H6  UNL     1      19.428  32.120  43.915  1.00  0.00     0.210 HD
ENDBRANCH  10  19
BRANCH   1  21
HETATM   21  O1  UNL     1      20.778  29.671  42.851  1.00  0.00    -0.369 OA
HETATM   22  C1  UNL     1      20.685  28.422  43.463  1.00  0.00     0.204 C 
ENDBRANCH   1  21
TORSDOF 6
ENDMDL
MODEL 4
REMARK VINA RESULT: -6.288638546      1.521      2.668
REMARK  6 active torsions:
REMARK  status: ('A' for Active; 'I' for Inactive)
REMARK    1  A    between atoms: O1_2  and  C2_3 
REMARK    2  A    between atoms: C3_6  and  O2_7 
REMARK    3  A    between atoms: C5_10  and  O3_12 
REMARK    4  A    between atoms: O3_12  and  C7_13 
REMARK    5  A    between atoms: C10_17  and  O5_18 
REMARK    6  A    between atoms: C11_20  and  O6_21 
ROOT
HETATM    1  C2  UNL     1      25.675  31.972  46.249  1.00  0.00     0.249 C 
HETATM    2  N1  UNL     1      24.750  32.868  45.658  1.00  0.00    -0.363 N 
ATOM      3  H1  UNL     1      25.030  33.811  45.386  1.00  0.00     0.158 HD
HETATM    4  C3  UNL     1      23.441  32.417  45.458  1.00  0.00     0.141 C 
HETATM    5  C4  UNL     1      23.170  31.501  44.286  1.00  0.00     0.100 C 
HETATM    6  C5  UNL     1      22.121  30.836  45.189  1.00  0.00     0.082 C 
HETATM    7  C6  UNL     1      22.089  29.363  45.002  1.00  0.00     0.047 C 
HETATM    8  C9  UNL     1      22.929  31.356  46.354  1.00  0.00     0.107 C 
HETATM    9  C10 UNL     1      23.929  30.450  46.945  1.00  0.00     0.163 C 
HETATM   10  C11 UNL     1      25.091  31.277  47.464  1.00  0.00     0.195 C 
ENDROOT
BRANCH   6  11
HETATM   11  O3  UNL     1      20.863  31.488  45.137  1.00  0.00    -0.310 OA
BRANCH  11  12
HETATM   12  C7  UNL     1      20.074  31.260  44.034  1.00  0.00     0.255 C 
HETATM   13  C8  UNL     1      18.811  30.485  44.169  1.00  0.00     0.126 C 
HETATM   14  O4  UNL     1      20.374  31.682  42.891  1.00  0.00    -0.266 OA
ENDBRANCH  11  12
ENDBRANCH   6  11
BRANCH   4  15
HETATM   15  O2  UNL     1      22.537  33.503  45.387  1.00  0.00    -0.370 OA
ATOM     16  H2  UNL     1      21.778  33.350  45.939  1.00  0.00     0.212 HD
ENDBRANCH   4  15
BRANCH   9  17
HETATM   17  O5  UNL     1      24.435  29.484  46.105  1.00  0.00    -0.392 OA
ATOM     18  H5  UNL     1      23.991  28.645  46.121  1.00  0.00     0.210 HD
ENDBRANCH   9  17
BRANCH  10  19
HETATM   19  O6  UNL     1      26.049  30.480  48.079  1.00  0.00    -0.389 OA
ATOM     20  H6  UNL     1      26.602  31.002  48.649  1.00  0.00     0.210 HD
ENDBRANCH  10  19
BRANCH   1  21
HETATM   21  O1  UNL     1      26.830  32.665  46.597  1.00  0.00    -0.369 OA
HETATM   22  C1  UNL     1      26.554  33.727  47.457  1.00  0.00     0.204 C 
ENDBRANCH   1  21
TORSDOF 6
ENDMDL
MODEL 5
REMARK VINA RESULT: -6.273284602      2.264      5.410
REMARK  6 active torsions:
REMARK  status: ('A' for Active; 'I' for Inactive)
REMARK    1  A    between atoms: O1_2  and  C2_3 
REMARK    2  A    between atoms: C3_6  and  O2_7 
REMARK    3  A    between atoms: C5_10  and  O3_12 
REMARK    4  A    between atoms: O3_12  and  C7_13 
REMARK    5  A    between atoms: C10_17  and  O5_18 
REMARK    6  A    between atoms: C11_20  and  O6_21 
ROOT
HETATM    1  C2  UNL     1      20.518  31.188  43.647  1.00  0.00     0.249 C 
HETATM    2  N1  UNL     1      21.509  30.217  43.932  1.00  0.00    -0.363 N 
ATOM      3  H1  UNL     1      21.531  29.325  43.436  1.00  0.00     0.158 HD
HETATM    4  C3  UNL     1      22.456  30.519  44.915  1.00  0.00     0.141 C 
HETATM    5  C4  UNL     1      23.594  31.446  44.553  1.00  0.00     0.100 C 
HETATM    6  C5  UNL     1      23.506  31.946  46.003  1.00  0.00     0.082 C 
HETATM    7  C6  UNL     1      23.726  33.411  46.095  1.00  0.00     0.047 C 
HETATM    8  C9  UNL     1      22.071  31.474  45.979  1.00  0.00     0.107 C 
HETATM    9  C10 UNL     1      21.036  32.464  45.636  1.00  0.00     0.163 C 
HETATM   10  C11 UNL     1      19.904  31.757  44.912  1.00  0.00     0.195 C 
ENDROOT
BRANCH   6  11
HETATM   11  O3  UNL     1      24.265  31.153  46.900  1.00  0.00    -0.310 OA
BRANCH  11  12
HETATM   12  C7  UNL     1      25.578  31.509  47.106  1.00  0.00     0.255 C 
HETATM   13  C8  UNL     1      26.196  31.328  48.448  1.00  0.00     0.126 C 
HETATM   14  O4  UNL     1      26.296  31.991  46.198  1.00  0.00    -0.266 OA
ENDBRANCH  11  12
ENDBRANCH   6  11
BRANCH   4  15
HETATM   15  O2  UNL     1      23.008  29.339  45.467  1.00  0.00    -0.370 OA
ATOM     16  H2  UNL     1      23.887  29.495  45.794  1.00  0.00     0.212 HD
ENDBRANCH   4  15
BRANCH   9  17
HETATM   17  O5  UNL     1      21.450  33.518  44.852  1.00  0.00    -0.392 OA
ATOM     18  H5  UNL     1      22.387  33.666  44.817  1.00  0.00     0.210 HD
ENDBRANCH   9  17
BRANCH  10  19
HETATM   19  O6  UNL     1      18.871  32.634  44.603  1.00  0.00    -0.389 OA
ATOM     20  H6  UNL     1      18.262  32.701  45.328  1.00  0.00     0.210 HD
ENDBRANCH  10  19
BRANCH   1  21
HETATM   21  O1  UNL     1      19.533  30.620  42.845  1.00  0.00    -0.369 OA
HETATM   22  C1  UNL     1      19.643  31.041  41.520  1.00  0.00     0.204 C 
ENDBRANCH   1  21
TORSDOF 6
ENDMDL
