MODEL 1
REMARK VINA RESULT: -6.951996104      0.000      0.000
REMARK  3 active torsions:
REMARK  status: ('A' for Active; 'I' for Inactive)
REMARK    1  A    between atoms: C6_7  and  S1_8 
REMARK    2  A    between atoms: S1_8  and  C7_9 
REMARK    3  A    between atoms: C9_16  and  N6_17 
ROOT
HETATM    1  C1  UNL     1      19.556  27.613  44.044  1.00  0.00     0.014 C 
HETATM    2  C2  UNL     1      19.126  28.728  43.931  1.00  0.00    -0.080 C 
HETATM    3  C3  UNL     1      18.590  30.082  43.771  1.00  0.00     0.328 C 
HETATM    4  C4  UNL     1      19.444  31.009  44.633  1.00  0.00     0.194 C 
HETATM    5  C5  UNL     1      19.041  32.402  44.442  1.00  0.00     0.074 C 
HETATM    6  N1  UNL     1      18.726  33.517  44.308  1.00  0.00    -0.196 NA
HETATM    7  C6  UNL     1      20.839  30.861  44.151  1.00  0.00     0.068 C 
HETATM    8  N5  UNL     1      20.977  30.740  42.877  1.00  0.00    -0.335 N 
ATOM      9  H5  UNL     1      21.932  30.638  42.533  1.00  0.00     0.163 HD
HETATM   10  C9  UNL     1      19.967  30.731  41.911  1.00  0.00     0.522 C 
HETATM   11  N7  UNL     1      18.654  30.427  42.375  1.00  0.00     0.151 N 
HETATM   12  C10 UNL     1      17.629  31.312  41.928  1.00  0.00     0.316 C 
ENDROOT
BRANCH   7  13
HETATM   13  S1  UNL     1      22.297  30.841  45.126  1.00  0.00    -0.091 SA
BRANCH  13  14
HETATM   14  C7  UNL     1      22.968  32.313  45.730  1.00  0.00     0.180 C 
HETATM   15  C8  UNL     1      24.451  32.552  45.586  1.00  0.00     0.165 C 
HETATM   16  N2  UNL     1      24.519  33.945  46.060  1.00  0.00    -0.128 NA
HETATM   17  N3  UNL     1      23.231  34.447  46.084  1.00  0.00    -0.039 NA
HETATM   18  N4  UNL     1      22.423  33.572  45.296  1.00  0.00    -0.113 NA
ENDBRANCH  13  14
ENDBRANCH   7  13
BRANCH  10  19
HETATM   19  N6  UNL     1      20.031  31.999  41.183  1.00  0.00    -0.030 N 
ATOM     20  H63 UNL     1      19.279  32.102  40.502  1.00  0.00     0.279 HD
ATOM     21  H62 UNL     1      19.797  32.802  41.767  1.00  0.00     0.279 HD
ATOM     22  H61 UNL     1      20.958  32.072  40.764  1.00  0.00     0.279 HD
ENDBRANCH  10  19
TORSDOF 3
ENDMDL
MODEL 2
REMARK VINA RESULT: -6.722890807      1.928      3.258
REMARK  3 active torsions:
REMARK  status: ('A' for Active; 'I' for Inactive)
REMARK    1  A    between atoms: C6_7  and  S1_8 
REMARK    2  A    between atoms: S1_8  and  C7_9 
REMARK    3  A    between atoms: C9_16  and  N6_17 
ROOT
HETATM    1  C1  UNL     1      19.199  32.654  40.983  1.00  0.00     0.014 C 
HETATM    2  C2  UNL     1      19.295  31.545  41.430  1.00  0.00    -0.080 C 
HETATM    3  C3  UNL     1      19.388  30.185  41.966  1.00  0.00     0.328 C 
HETATM    4  C4  UNL     1      20.412  30.218  43.099  1.00  0.00     0.194 C 
HETATM    5  C5  UNL     1      20.482  28.915  43.763  1.00  0.00     0.074 C 
HETATM    6  N1  UNL     1      20.558  27.881  44.297  1.00  0.00    -0.196 NA
HETATM    7  C6  UNL     1      19.916  31.211  44.083  1.00  0.00     0.068 C 
HETATM    8  N5  UNL     1      18.642  31.222  44.268  1.00  0.00    -0.335 N 
ATOM      9  H5  UNL     1      18.290  31.900  44.943  1.00  0.00     0.163 HD
HETATM   10  C9  UNL     1      17.687  30.409  43.651  1.00  0.00     0.522 C 
HETATM   11  N7  UNL     1      18.082  29.793  42.426  1.00  0.00     0.151 N 
HETATM   12  C10 UNL     1      17.803  28.398  42.328  1.00  0.00     0.316 C 
ENDROOT
BRANCH   7  13
HETATM   13  S1  UNL     1      20.876  32.351  45.008  1.00  0.00    -0.091 SA
BRANCH  13  14
HETATM   14  C7  UNL     1      22.491  31.958  45.478  1.00  0.00     0.180 C 
HETATM   15  C8  UNL     1      23.366  33.044  46.054  1.00  0.00     0.165 C 
HETATM   16  N2  UNL     1      24.529  32.231  46.452  1.00  0.00    -0.128 NA
HETATM   17  N3  UNL     1      24.147  30.903  46.422  1.00  0.00    -0.039 NA
HETATM   18  N4  UNL     1      22.719  30.876  46.397  1.00  0.00    -0.113 NA
ENDBRANCH  13  14
ENDBRANCH   7  13
BRANCH  10  19
HETATM   19  N6  UNL     1      17.210  29.445  44.641  1.00  0.00    -0.030 N 
ATOM     20  H63 UNL     1      17.713  28.558  44.605  1.00  0.00     0.279 HD
ATOM     21  H62 UNL     1      17.459  29.703  45.597  1.00  0.00     0.279 HD
ATOM     22  H61 UNL     1      16.205  29.334  44.511  1.00  0.00     0.279 HD
ENDBRANCH  10  19
TORSDOF 3
ENDMDL
MODEL 3
REMARK VINA RESULT: -6.663729999      1.894      3.150
REMARK  3 active torsions:
REMARK  status: ('A' for Active; 'I' for Inactive)
REMARK    1  A    between atoms: C6_7  and  S1_8 
REMARK    2  A    between atoms: S1_8  and  C7_9 
REMARK    3  A    between atoms: C9_16  and  N6_17 
ROOT
HETATM    1  C1  UNL     1      19.196  32.758  41.000  1.00  0.00     0.014 C 
HETATM    2  C2  UNL     1      18.426  32.193  41.726  1.00  0.00    -0.080 C 
HETATM    3  C3  UNL     1      17.469  31.523  42.610  1.00  0.00     0.328 C 
HETATM    4  C4  UNL     1      18.264  30.555  43.483  1.00  0.00     0.194 C 
HETATM    5  C5  UNL     1      17.392  29.924  44.474  1.00  0.00     0.074 C 
HETATM    6  N1  UNL     1      16.709  29.404  45.264  1.00  0.00    -0.196 NA
HETATM    7  C6  UNL     1      19.270  31.371  44.206  1.00  0.00     0.068 C 
HETATM    8  N5  UNL     1      18.865  32.526  44.604  1.00  0.00    -0.335 N 
ATOM      9  H5  UNL     1      19.547  33.097  45.103  1.00  0.00     0.163 HD
HETATM   10  C9  UNL     1      17.597  33.088  44.431  1.00  0.00     0.522 C 
HETATM   11  N7  UNL     1      16.798  32.530  43.389  1.00  0.00     0.151 N 
HETATM   12  C10 UNL     1      15.456  32.213  43.754  1.00  0.00     0.316 C 
ENDROOT
BRANCH   7  13
HETATM   13  S1  UNL     1      20.927  30.926  44.571  1.00  0.00    -0.091 SA
BRANCH  13  14
HETATM   14  C7  UNL     1      21.983  32.047  45.352  1.00  0.00     0.180 C 
HETATM   15  C8  UNL     1      23.472  31.809  45.291  1.00  0.00     0.165 C 
HETATM   16  N2  UNL     1      23.943  33.060  45.911  1.00  0.00    -0.128 NA
HETATM   17  N3  UNL     1      22.881  33.945  45.937  1.00  0.00    -0.039 NA
HETATM   18  N4  UNL     1      21.896  33.447  45.031  1.00  0.00    -0.113 NA
ENDBRANCH  13  14
ENDBRANCH   7  13
BRANCH  10  19
HETATM   19  N6  UNL     1      16.921  33.081  45.729  1.00  0.00    -0.030 N 
ATOM     20  H63 UNL     1      17.274  32.356  46.354  1.00  0.00     0.279 HD
ATOM     21  H62 UNL     1      17.164  33.887  46.306  1.00  0.00     0.279 HD
ATOM     22  H61 UNL     1      15.919  33.004  45.559  1.00  0.00     0.279 HD
ENDBRANCH  10  19
TORSDOF 3
ENDMDL
MODEL 4
REMARK VINA RESULT: -6.653052345      1.800      2.978
REMARK  3 active torsions:
REMARK  status: ('A' for Active; 'I' for Inactive)
REMARK    1  A    between atoms: C6_7  and  S1_8 
REMARK    2  A    between atoms: S1_8  and  C7_9 
REMARK    3  A    between atoms: C9_16  and  N6_17 
ROOT
HETATM    1  C1  UNL     1      18.127  33.544  46.633  1.00  0.00     0.014 C 
HETATM    2  C2  UNL     1      17.986  33.356  45.456  1.00  0.00    -0.080 C 
HETATM    3  C3  UNL     1      17.788  33.123  44.023  1.00  0.00     0.328 C 
HETATM    4  C4  UNL     1      19.139  32.708  43.444  1.00  0.00     0.194 C 
HETATM    5  C5  UNL     1      19.002  32.348  42.033  1.00  0.00     0.074 C 
HETATM    6  N1  UNL     1      18.913  32.067  40.904  1.00  0.00    -0.196 NA
HETATM    7  C6  UNL     1      19.562  31.498  44.191  1.00  0.00     0.068 C 
HETATM    8  N5  UNL     1      18.622  30.667  44.480  1.00  0.00    -0.335 N 
ATOM      9  H5  UNL     1      18.900  29.831  44.993  1.00  0.00     0.163 HD
HETATM   10  C9  UNL     1      17.263  30.781  44.171  1.00  0.00     0.522 C 
HETATM   11  N7  UNL     1      16.793  32.093  43.870  1.00  0.00     0.151 N 
HETATM   12  C10 UNL     1      15.995  32.199  42.694  1.00  0.00     0.316 C 
ENDROOT
BRANCH   7  13
HETATM   13  S1  UNL     1      21.188  31.089  44.706  1.00  0.00    -0.091 SA
BRANCH  13  14
HETATM   14  C7  UNL     1      22.184  32.268  45.480  1.00  0.00     0.180 C 
HETATM   15  C8  UNL     1      23.682  32.091  45.447  1.00  0.00     0.165 C 
HETATM   16  N2  UNL     1      24.091  33.372  46.049  1.00  0.00    -0.128 NA
HETATM   17  N3  UNL     1      22.993  34.212  46.041  1.00  0.00    -0.039 NA
HETATM   18  N4  UNL     1      22.044  33.656  45.131  1.00  0.00    -0.113 NA
ENDBRANCH  13  14
ENDBRANCH   7  13
BRANCH  10  19
HETATM   19  N6  UNL     1      16.961  29.815  43.116  1.00  0.00    -0.030 N 
ATOM     20  H63 UNL     1      16.446  30.228  42.337  1.00  0.00     0.279 HD
ATOM     21  H62 UNL     1      17.789  29.526  42.593  1.00  0.00     0.279 HD
ATOM     22  H61 UNL     1      16.470  29.029  43.542  1.00  0.00     0.279 HD
ENDBRANCH  10  19
TORSDOF 3
ENDMDL
MODEL 5
REMARK VINA RESULT: -6.580360034      1.657      1.979
REMARK  3 active torsions:
REMARK  status: ('A' for Active; 'I' for Inactive)
REMARK    1  A    between atoms: C6_7  and  S1_8 
REMARK    2  A    between atoms: S1_8  and  C7_9 
REMARK    3  A    between atoms: C9_16  and  N6_17 
ROOT
HETATM    1  C1  UNL     1      20.705  28.579  43.418  1.00  0.00     0.014 C 
HETATM    2  C2  UNL     1      19.701  29.090  43.005  1.00  0.00    -0.080 C 
HETATM    3  C3  UNL     1      18.482  29.707  42.477  1.00  0.00     0.328 C 
HETATM    4  C4  UNL     1      18.004  30.719  43.516  1.00  0.00     0.194 C 
HETATM    5  C5  UNL     1      16.847  31.461  43.013  1.00  0.00     0.074 C 
HETATM    6  N1  UNL     1      15.919  32.055  42.632  1.00  0.00    -0.196 NA
HETATM    7  C6  UNL     1      19.118  31.678  43.711  1.00  0.00     0.068 C 
HETATM    8  N5  UNL     1      19.769  31.998  42.648  1.00  0.00    -0.335 N 
ATOM      9  H5  UNL     1      20.538  32.657  42.770  1.00  0.00     0.163 HD
HETATM   10  C9  UNL     1      19.543  31.544  41.345  1.00  0.00     0.522 C 
HETATM   11  N7  UNL     1      18.804  30.331  41.220  1.00  0.00     0.151 N 
HETATM   12  C10 UNL     1      17.738  30.361  40.274  1.00  0.00     0.316 C 
ENDROOT
BRANCH   7  13
HETATM   13  S1  UNL     1      19.627  32.412  45.221  1.00  0.00    -0.091 SA
BRANCH  13  14
HETATM   14  C7  UNL     1      21.302  32.495  45.634  1.00  0.00     0.180 C 
HETATM   15  C8  UNL     1      22.216  31.376  45.197  1.00  0.00     0.165 C 
HETATM   16  N2  UNL     1      23.511  31.949  45.603  1.00  0.00    -0.128 NA
HETATM   17  N3  UNL     1      23.316  33.294  45.860  1.00  0.00    -0.039 NA
HETATM   18  N4  UNL     1      22.066  33.658  45.274  1.00  0.00    -0.113 NA
ENDBRANCH  13  14
ENDBRANCH   7  13
BRANCH  10  19
HETATM   19  N6  UNL     1      18.956  32.646  40.582  1.00  0.00    -0.030 N 
ATOM     20  H63 UNL     1      18.083  32.388  40.123  1.00  0.00     0.279 HD
ATOM     21  H62 UNL     1      18.583  33.386  41.178  1.00  0.00     0.279 HD
ATOM     22  H61 UNL     1      19.662  32.984  39.928  1.00  0.00     0.279 HD
ENDBRANCH  10  19
TORSDOF 3
ENDMDL
