MODEL 1
REMARK VINA RESULT: -7.158242477      0.000      0.000
REMARK  6 active torsions:
REMARK  status: ('A' for Active; 'I' for Inactive)
REMARK    1  A    between atoms: N2_3  and  C2_5 
REMARK    2  A    between atoms: C2_5  and  N3_7 
REMARK    3  A    between atoms: N3_7  and  N4_9 
REMARK    4  A    between atoms: C3_11  and  C4_12 
REMARK    5  A    between atoms: C7_15  and  O1_16 
REMARK    6  A    between atoms: C8_18  and  N5_19 
ROOT
HETATM    1  N1  UNL     1      40.031 -10.482   2.419  1.00  0.00    -0.172 NA
HETATM    2  C1  UNL     1      39.815 -10.941   1.370  1.00  0.00     0.184 C 
HETATM    3  N2  UNL     1      39.571 -11.474   0.105  1.00  0.00    -0.269 N 
ATOM      4  H2  UNL     1      40.224 -12.158  -0.277  1.00  0.00     0.180 HD
ENDROOT
BRANCH   3   5
HETATM    5  C2  UNL     1      38.441 -11.097  -0.670  1.00  0.00     0.199 C 
HETATM    6  S1  UNL     1      37.396 -10.003  -0.022  1.00  0.00    -0.038 SA
BRANCH   5   7
HETATM    7  N3  UNL     1      38.216 -11.642  -1.960  1.00  0.00    -0.276 N 
ATOM      8  H3  UNL     1      38.763 -11.320  -2.758  1.00  0.00     0.189 HD
BRANCH   7   9
HETATM    9  N4  UNL     1      37.248 -12.613  -2.121  1.00  0.00    -0.309 N 
HETATM   10  C3  UNL     1      36.117 -12.440  -2.681  1.00  0.00     0.118 C 
ATOM     11  H4  UNL     1      37.455 -13.545  -1.762  1.00  0.00     0.186 HD
BRANCH  10  12
HETATM   12  C4  UNL     1      35.182 -13.560  -2.784  1.00  0.00    -0.017 A 
HETATM   13  C5  UNL     1      35.585 -14.752  -3.348  1.00  0.00     0.016 A 
HETATM   14  C6  UNL     1      34.723 -15.822  -3.456  1.00  0.00     0.040 A 
HETATM   15  C7  UNL     1      33.426 -15.729  -3.001  1.00  0.00     0.098 A 
HETATM   16  C8  UNL     1      33.042 -14.538  -2.444  1.00  0.00     0.136 A 
HETATM   17  C9  UNL     1      33.884 -13.471  -2.331  1.00  0.00     0.052 A 
BRANCH  15  18
HETATM   18  O1  UNL     1      32.556 -16.828  -3.117  1.00  0.00    -0.358 OA
ATOM     19  H1  UNL     1      31.691 -16.715  -3.495  1.00  0.00     0.217 HD
ENDBRANCH  15  18
BRANCH  16  20
HETATM   20  N5  UNL     1      31.685 -14.467  -1.977  1.00  0.00    -0.113 N 
HETATM   21  O2  UNL     1      31.305 -15.175  -1.005  1.00  0.00    -0.532 OA
HETATM   22  O3  UNL     1      30.783 -13.637  -2.571  1.00  0.00    -0.532 OA
ENDBRANCH  16  20
ENDBRANCH  10  12
ENDBRANCH   7   9
ENDBRANCH   5   7
ENDBRANCH   3   5
TORSDOF 6
ENDMDL
MODEL 2
REMARK VINA RESULT: -6.973685544      2.404      3.026
REMARK  6 active torsions:
REMARK  status: ('A' for Active; 'I' for Inactive)
REMARK    1  A    between atoms: N2_3  and  C2_5 
REMARK    2  A    between atoms: C2_5  and  N3_7 
REMARK    3  A    between atoms: N3_7  and  N4_9 
REMARK    4  A    between atoms: C3_11  and  C4_12 
REMARK    5  A    between atoms: C7_15  and  O1_16 
REMARK    6  A    between atoms: C8_18  and  N5_19 
ROOT
HETATM    1  N1  UNL     1      40.071 -10.686   2.141  1.00  0.00    -0.172 NA
HETATM    2  C1  UNL     1      38.984 -10.440   1.802  1.00  0.00     0.184 C 
HETATM    3  N2  UNL     1      37.675 -10.166   1.409  1.00  0.00    -0.269 N 
ATOM      4  H2  UNL     1      37.087  -9.592   2.014  1.00  0.00     0.180 HD
ENDROOT
BRANCH   3   5
HETATM    5  C2  UNL     1      37.130 -10.659   0.192  1.00  0.00     0.199 C 
HETATM    6  S1  UNL     1      37.570 -12.171  -0.289  1.00  0.00    -0.038 SA
BRANCH   5   7
HETATM    7  N3  UNL     1      36.237  -9.879  -0.586  1.00  0.00    -0.276 N 
ATOM      8  H3  UNL     1      36.366  -8.871  -0.663  1.00  0.00     0.189 HD
BRANCH   7   9
HETATM    9  N4  UNL     1      35.192 -10.503  -1.237  1.00  0.00    -0.309 N 
HETATM   10  C3  UNL     1      34.011 -10.636  -0.776  1.00  0.00     0.118 C 
ATOM     11  H4  UNL     1      35.379 -10.889  -2.163  1.00  0.00     0.186 HD
BRANCH  10  12
HETATM   12  C4  UNL     1      32.997 -11.322  -1.575  1.00  0.00    -0.017 A 
HETATM   13  C5  UNL     1      32.227 -10.616  -2.475  1.00  0.00     0.016 A 
HETATM   14  C6  UNL     1      31.264 -11.239  -3.239  1.00  0.00     0.040 A 
HETATM   15  C7  UNL     1      31.042 -12.594  -3.125  1.00  0.00     0.098 A 
HETATM   16  C8  UNL     1      31.816 -13.280  -2.226  1.00  0.00     0.136 A 
HETATM   17  C9  UNL     1      32.772 -12.677  -1.463  1.00  0.00     0.052 A 
BRANCH  15  18
HETATM   18  O1  UNL     1      30.056 -13.219  -3.910  1.00  0.00    -0.358 OA
ATOM     19  H1  UNL     1      29.823 -14.126  -3.751  1.00  0.00     0.217 HD
ENDBRANCH  15  18
BRANCH  16  20
HETATM   20  N5  UNL     1      31.566 -14.691  -2.125  1.00  0.00    -0.113 N 
HETATM   21  O2  UNL     1      31.222 -15.202  -1.024  1.00  0.00    -0.532 OA
HETATM   22  O3  UNL     1      31.694 -15.505  -3.209  1.00  0.00    -0.532 OA
ENDBRANCH  16  20
ENDBRANCH  10  12
ENDBRANCH   7   9
ENDBRANCH   5   7
ENDBRANCH   3   5
TORSDOF 6
ENDMDL
MODEL 3
REMARK VINA RESULT: -6.931292485      2.482      3.090
REMARK  6 active torsions:
REMARK  status: ('A' for Active; 'I' for Inactive)
REMARK    1  A    between atoms: N2_3  and  C2_5 
REMARK    2  A    between atoms: C2_5  and  N3_7 
REMARK    3  A    between atoms: N3_7  and  N4_9 
REMARK    4  A    between atoms: C3_11  and  C4_12 
REMARK    5  A    between atoms: C7_15  and  O1_16 
REMARK    6  A    between atoms: C8_18  and  N5_19 
ROOT
HETATM    1  N1  UNL     1      38.563 -11.831   2.415  1.00  0.00    -0.172 NA
HETATM    2  C1  UNL     1      37.910 -11.126   1.756  1.00  0.00     0.184 C 
HETATM    3  N2  UNL     1      37.109 -10.290   0.979  1.00  0.00    -0.269 N 
ATOM      4  H2  UNL     1      36.912  -9.346   1.312  1.00  0.00     0.180 HD
ENDROOT
BRANCH   3   5
HETATM    5  C2  UNL     1      36.559 -10.709  -0.263  1.00  0.00     0.199 C 
HETATM    6  S1  UNL     1      37.312 -11.935  -1.062  1.00  0.00    -0.038 SA
BRANCH   5   7
HETATM    7  N3  UNL     1      35.399 -10.094  -0.801  1.00  0.00    -0.276 N 
ATOM      8  H3  UNL     1      35.300  -9.080  -0.788  1.00  0.00     0.189 HD
BRANCH   7   9
HETATM    9  N4  UNL     1      34.407 -10.887  -1.341  1.00  0.00    -0.309 N 
HETATM   10  C3  UNL     1      33.642 -10.555  -2.305  1.00  0.00     0.118 C 
ATOM     11  H4  UNL     1      34.275 -11.814  -0.937  1.00  0.00     0.186 HD
BRANCH  10  12
HETATM   12  C4  UNL     1      32.629 -11.496  -2.780  1.00  0.00    -0.017 A 
HETATM   13  C5  UNL     1      31.708 -11.106  -3.730  1.00  0.00     0.016 A 
HETATM   14  C6  UNL     1      30.743 -11.974  -4.193  1.00  0.00     0.040 A 
HETATM   15  C7  UNL     1      30.672 -13.265  -3.718  1.00  0.00     0.098 A 
HETATM   16  C8  UNL     1      31.594 -13.637  -2.775  1.00  0.00     0.136 A 
HETATM   17  C9  UNL     1      32.553 -12.788  -2.308  1.00  0.00     0.052 A 
BRANCH  15  18
HETATM   18  O1  UNL     1      29.682 -14.142  -4.199  1.00  0.00    -0.358 OA
ATOM     19  H1  UNL     1      28.780 -14.046  -3.916  1.00  0.00     0.217 HD
ENDBRANCH  15  18
BRANCH  16  20
HETATM   20  N5  UNL     1      31.498 -14.988  -2.295  1.00  0.00    -0.113 N 
HETATM   21  O2  UNL     1      31.171 -15.220  -1.100  1.00  0.00    -0.532 OA
HETATM   22  O3  UNL     1      31.757 -16.043  -3.117  1.00  0.00    -0.532 OA
ENDBRANCH  16  20
ENDBRANCH  10  12
ENDBRANCH   7   9
ENDBRANCH   5   7
ENDBRANCH   3   5
TORSDOF 6
ENDMDL
MODEL 4
REMARK VINA RESULT: -6.861727972      2.181      2.763
REMARK  6 active torsions:
REMARK  status: ('A' for Active; 'I' for Inactive)
REMARK    1  A    between atoms: N2_3  and  C2_5 
REMARK    2  A    between atoms: C2_5  and  N3_7 
REMARK    3  A    between atoms: N3_7  and  N4_9 
REMARK    4  A    between atoms: C3_11  and  C4_12 
REMARK    5  A    between atoms: C7_15  and  O1_16 
REMARK    6  A    between atoms: C8_18  and  N5_19 
ROOT
HETATM    1  N1  UNL     1      40.065 -10.653   2.262  1.00  0.00    -0.172 NA
HETATM    2  C1  UNL     1      39.699 -10.144   1.281  1.00  0.00     0.184 C 
HETATM    3  N2  UNL     1      39.249  -9.518   0.118  1.00  0.00    -0.269 N 
ATOM      4  H2  UNL     1      39.782  -8.735  -0.259  1.00  0.00     0.180 HD
ENDROOT
BRANCH   3   5
HETATM    5  C2  UNL     1      38.071  -9.936  -0.559  1.00  0.00     0.199 C 
HETATM    6  S1  UNL     1      38.230 -10.510  -2.093  1.00  0.00    -0.038 SA
BRANCH   5   7
HETATM    7  N3  UNL     1      36.798  -9.863   0.063  1.00  0.00    -0.276 N 
ATOM      8  H3  UNL     1      36.708  -9.507   1.014  1.00  0.00     0.189 HD
BRANCH   7   9
HETATM    9  N4  UNL     1      35.683 -10.280  -0.637  1.00  0.00    -0.309 N 
HETATM   10  C3  UNL     1      35.203 -11.461  -0.621  1.00  0.00     0.118 C 
ATOM     11  H4  UNL     1      35.205  -9.588  -1.212  1.00  0.00     0.186 HD
BRANCH  10  12
HETATM   12  C4  UNL     1      34.013 -11.767  -1.412  1.00  0.00    -0.017 A 
HETATM   13  C5  UNL     1      33.443 -10.800  -2.213  1.00  0.00     0.016 A 
HETATM   14  C6  UNL     1      32.320 -11.064  -2.968  1.00  0.00     0.040 A 
HETATM   15  C7  UNL     1      31.733 -12.310  -2.944  1.00  0.00     0.098 A 
HETATM   16  C8  UNL     1      32.311 -13.259  -2.143  1.00  0.00     0.136 A 
HETATM   17  C9  UNL     1      33.422 -13.012  -1.391  1.00  0.00     0.052 A 
BRANCH  15  18
HETATM   18  O1  UNL     1      30.587 -12.567  -3.719  1.00  0.00    -0.358 OA
ATOM     19  H1  UNL     1      30.004 -13.282  -3.488  1.00  0.00     0.217 HD
ENDBRANCH  15  18
BRANCH  16  20
HETATM   20  N5  UNL     1      31.680 -14.550  -2.135  1.00  0.00    -0.113 N 
HETATM   21  O2  UNL     1      31.341 -15.088  -1.046  1.00  0.00    -0.532 OA
HETATM   22  O3  UNL     1      31.435 -15.218  -3.296  1.00  0.00    -0.532 OA
ENDBRANCH  16  20
ENDBRANCH  10  12
ENDBRANCH   7   9
ENDBRANCH   5   7
ENDBRANCH   3   5
TORSDOF 6
ENDMDL
MODEL 5
REMARK VINA RESULT: -6.850666590      1.089      2.108
REMARK  6 active torsions:
REMARK  status: ('A' for Active; 'I' for Inactive)
REMARK    1  A    between atoms: N2_3  and  C2_5 
REMARK    2  A    between atoms: C2_5  and  N3_7 
REMARK    3  A    between atoms: N3_7  and  N4_9 
REMARK    4  A    between atoms: C3_11  and  C4_12 
REMARK    5  A    between atoms: C7_15  and  O1_16 
REMARK    6  A    between atoms: C8_18  and  N5_19 
ROOT
HETATM    1  N1  UNL     1      40.073 -10.293   2.517  1.00  0.00    -0.172 NA
HETATM    2  C1  UNL     1      39.913 -10.782   1.472  1.00  0.00     0.184 C 
HETATM    3  N2  UNL     1      39.731 -11.348   0.210  1.00  0.00    -0.269 N 
ATOM      4  H2  UNL     1      40.499 -11.870  -0.213  1.00  0.00     0.180 HD
ENDROOT
BRANCH   3   5
HETATM    5  C2  UNL     1      38.510 -11.222  -0.507  1.00  0.00     0.199 C 
HETATM    6  S1  UNL     1      37.635  -9.843  -0.297  1.00  0.00    -0.038 SA
BRANCH   5   7
HETATM    7  N3  UNL     1      38.055 -12.247  -1.375  1.00  0.00    -0.276 N 
ATOM      8  H3  UNL     1      38.722 -12.866  -1.835  1.00  0.00     0.189 HD
BRANCH   7   9
HETATM    9  N4  UNL     1      36.700 -12.394  -1.590  1.00  0.00    -0.309 N 
HETATM   10  C3  UNL     1      36.127 -12.367  -2.728  1.00  0.00     0.118 C 
ATOM     11  H4  UNL     1      36.108 -12.537  -0.772  1.00  0.00     0.186 HD
BRANCH  10  12
HETATM   12  C4  UNL     1      34.677 -12.537  -2.812  1.00  0.00    -0.017 A 
HETATM   13  C5  UNL     1      33.879 -11.498  -3.240  1.00  0.00     0.016 A 
HETATM   14  C6  UNL     1      32.510 -11.633  -3.327  1.00  0.00     0.040 A 
HETATM   15  C7  UNL     1      31.897 -12.819  -2.986  1.00  0.00     0.098 A 
HETATM   16  C8  UNL     1      32.705 -13.842  -2.563  1.00  0.00     0.136 A 
HETATM   17  C9  UNL     1      34.060 -13.722  -2.472  1.00  0.00     0.052 A 
BRANCH  15  18
HETATM   18  O1  UNL     1      30.499 -12.945  -3.079  1.00  0.00    -0.358 OA
ATOM     19  H1  UNL     1      29.938 -12.528  -2.436  1.00  0.00     0.217 HD
ENDBRANCH  15  18
BRANCH  16  20
HETATM   20  N5  UNL     1      32.042 -15.068  -2.214  1.00  0.00    -0.113 N 
HETATM   21  O2  UNL     1      32.257 -16.121  -2.873  1.00  0.00    -0.532 OA
HETATM   22  O3  UNL     1      31.171 -15.120  -1.168  1.00  0.00    -0.532 OA
ENDBRANCH  16  20
ENDBRANCH  10  12
ENDBRANCH   7   9
ENDBRANCH   5   7
ENDBRANCH   3   5
TORSDOF 6
ENDMDL
