MODEL 1
REMARK VINA RESULT: -6.946752737      0.000      0.000
REMARK  5 active torsions:
REMARK  status: ('A' for Active; 'I' for Inactive)
REMARK    1  A    between atoms: N1_2  and  S1_4 
REMARK    2  A    between atoms: S1_4  and  N2_7 
REMARK    3  A    between atoms: N2_7  and  C2_9 
REMARK    4  A    between atoms: C2_9  and  C5_16 
REMARK       I    between atoms: N3_10  and  C3_12 
REMARK    5  A    between atoms: C3_12  and  O4_14 
ROOT
HETATM    1  C2  UNL     1      38.498  -9.900   0.163  1.00  0.00     0.132 C 
HETATM    2  N3  UNL     1      38.923 -10.602   1.129  1.00  0.00    -0.287 N 
ATOM      3  H3  UNL     1      39.769 -10.257   1.582  1.00  0.00     0.172 HD
HETATM    4  C3  UNL     1      38.398 -11.780   1.662  1.00  0.00     0.365 C 
HETATM    5  O3  UNL     1      38.122 -11.926   2.901  1.00  0.00    -0.238 OA
ENDROOT
BRANCH   1   6
HETATM    6  N2  UNL     1      39.262  -8.719  -0.161  1.00  0.00    -0.252 N 
ATOM      7  H2  UNL     1      39.435  -8.483  -1.138  1.00  0.00     0.182 HD
BRANCH   6   8
HETATM    8  S1  UNL     1      39.886  -7.702   1.087  1.00  0.00     0.320 S 
HETATM    9  O1  UNL     1      40.288  -6.407   0.479  1.00  0.00    -0.182 OA
HETATM   10  O2  UNL     1      41.124  -8.325   1.682  1.00  0.00    -0.182 OA
BRANCH   8  11
HETATM   11  N1  UNL     1      38.675  -7.544   2.295  1.00  0.00    -0.307 N 
HETATM   12  C1  UNL     1      39.086  -8.022   3.580  1.00  0.00     0.161 C 
ATOM     13  H1  UNL     1      37.753  -7.148   2.113  1.00  0.00     0.173 HD
ENDBRANCH   8  11
ENDBRANCH   6   8
ENDBRANCH   1   6
BRANCH   1  14
HETATM   14  C5  UNL     1      37.326 -10.140  -0.653  1.00  0.00     0.024 A 
HETATM   15  C6  UNL     1      37.472 -10.375  -2.028  1.00  0.00     0.018 A 
HETATM   16  C7  UNL     1      36.377 -10.599  -2.834  1.00  0.00     0.018 A 
HETATM   17  C8  UNL     1      35.099 -10.603  -2.318  1.00  0.00     0.087 A 
HETATM   18  N4  UNL     1      34.960 -10.380  -1.001  1.00  0.00    -0.374 N 
HETATM   19  C9  UNL     1      36.033 -10.154  -0.186  1.00  0.00     0.102 A 
ATOM     20  H4  UNL     1      34.024 -10.379  -0.596  1.00  0.00     0.164 HD
ENDBRANCH   1  14
BRANCH   4  21
HETATM   21  O4  UNL     1      38.147 -12.878   0.846  1.00  0.00    -0.309 OA
HETATM   22  C4  UNL     1      36.923 -13.564   0.808  1.00  0.00     0.215 C 
ENDBRANCH   4  21
TORSDOF 5
ENDMDL
MODEL 2
REMARK VINA RESULT: -6.650050571      4.984      7.593
REMARK  5 active torsions:
REMARK  status: ('A' for Active; 'I' for Inactive)
REMARK    1  A    between atoms: N1_2  and  S1_4 
REMARK    2  A    between atoms: S1_4  and  N2_7 
REMARK    3  A    between atoms: N2_7  and  C2_9 
REMARK    4  A    between atoms: C2_9  and  C5_16 
REMARK       I    between atoms: N3_10  and  C3_12 
REMARK    5  A    between atoms: C3_12  and  O4_14 
ROOT
HETATM    1  C2  UNL     1      33.852 -13.579  -1.841  1.00  0.00     0.132 C 
HETATM    2  N3  UNL     1      34.051 -14.724  -1.335  1.00  0.00    -0.287 N 
ATOM      3  H3  UNL     1      33.328 -15.418  -1.524  1.00  0.00     0.172 HD
HETATM    4  C3  UNL     1      35.118 -15.171  -0.555  1.00  0.00     0.365 C 
HETATM    5  O3  UNL     1      35.805 -16.209  -0.840  1.00  0.00    -0.238 OA
ENDROOT
BRANCH   1   6
HETATM    6  N2  UNL     1      32.641 -13.415  -2.609  1.00  0.00    -0.252 N 
ATOM      7  H2  UNL     1      32.511 -12.576  -3.174  1.00  0.00     0.182 HD
BRANCH   6   8
HETATM    8  S1  UNL     1      31.409 -14.625  -2.582  1.00  0.00     0.320 S 
HETATM    9  O1  UNL     1      31.203 -15.053  -1.174  1.00  0.00    -0.182 OA
HETATM   10  O2  UNL     1      31.863 -15.834  -3.360  1.00  0.00    -0.182 OA
BRANCH   8  11
HETATM   11  N1  UNL     1      30.000 -13.960  -3.307  1.00  0.00    -0.307 N 
HETATM   12  C1  UNL     1      30.274 -13.180  -4.476  1.00  0.00     0.161 C 
ATOM     13  H1  UNL     1      29.060 -14.107  -2.940  1.00  0.00     0.173 HD
ENDBRANCH   8  11
ENDBRANCH   6   8
ENDBRANCH   1   6
BRANCH   1  14
HETATM   14  C5  UNL     1      34.704 -12.412  -1.746  1.00  0.00     0.024 A 
HETATM   15  C6  UNL     1      35.821 -12.296  -2.587  1.00  0.00     0.018 A 
HETATM   16  C7  UNL     1      36.656 -11.203  -2.516  1.00  0.00     0.018 A 
HETATM   17  C8  UNL     1      36.426 -10.183  -1.618  1.00  0.00     0.087 A 
HETATM   18  N4  UNL     1      35.356 -10.295  -0.814  1.00  0.00    -0.374 N 
HETATM   19  C9  UNL     1      34.516 -11.371  -0.868  1.00  0.00     0.102 A 
ATOM     20  H4  UNL     1      35.163  -9.553  -0.142  1.00  0.00     0.164 HD
ENDBRANCH   1  14
BRANCH   4  21
HETATM   21  O4  UNL     1      35.491 -14.487   0.597  1.00  0.00    -0.309 OA
HETATM   22  C4  UNL     1      36.776 -13.970   0.823  1.00  0.00     0.215 C 
ENDBRANCH   4  21
TORSDOF 5
ENDMDL
MODEL 3
REMARK VINA RESULT: -6.588976148      1.974      2.431
REMARK  5 active torsions:
REMARK  status: ('A' for Active; 'I' for Inactive)
REMARK    1  A    between atoms: N1_2  and  S1_4 
REMARK    2  A    between atoms: S1_4  and  N2_7 
REMARK    3  A    between atoms: N2_7  and  C2_9 
REMARK    4  A    between atoms: C2_9  and  C5_16 
REMARK       I    between atoms: N3_10  and  C3_12 
REMARK    5  A    between atoms: C3_12  and  O4_14 
ROOT
HETATM    1  C2  UNL     1      37.171 -11.359   0.811  1.00  0.00     0.132 C 
HETATM    2  N3  UNL     1      37.365 -12.501   1.327  1.00  0.00    -0.287 N 
ATOM      3  H3  UNL     1      37.848 -12.499   2.225  1.00  0.00     0.172 HD
HETATM    4  C3  UNL     1      37.012 -13.761   0.841  1.00  0.00     0.365 C 
HETATM    5  O3  UNL     1      36.333 -14.606   1.517  1.00  0.00    -0.238 OA
ENDROOT
BRANCH   1   6
HETATM    6  N2  UNL     1      37.655 -10.223   1.558  1.00  0.00    -0.252 N 
ATOM      7  H2  UNL     1      37.009  -9.477   1.815  1.00  0.00     0.182 HD
BRANCH   6   8
HETATM    8  S1  UNL     1      39.314 -10.115   2.022  1.00  0.00     0.320 S 
HETATM    9  O1  UNL     1      39.916 -11.470   1.931  1.00  0.00    -0.182 OA
HETATM   10  O2  UNL     1      39.414  -9.672   3.460  1.00  0.00    -0.182 OA
BRANCH   8  11
HETATM   11  N1  UNL     1      40.073  -8.960   1.002  1.00  0.00    -0.307 N 
HETATM   12  C1  UNL     1      40.624  -7.846   1.713  1.00  0.00     0.161 C 
ATOM     13  H1  UNL     1      40.127  -9.059  -0.012  1.00  0.00     0.173 HD
ENDBRANCH   8  11
ENDBRANCH   6   8
ENDBRANCH   1   6
BRANCH   1  14
HETATM   14  C5  UNL     1      36.510 -11.059  -0.442  1.00  0.00     0.024 A 
HETATM   15  C6  UNL     1      37.273 -10.887  -1.607  1.00  0.00     0.018 A 
HETATM   16  C7  UNL     1      36.676 -10.593  -2.814  1.00  0.00     0.018 A 
HETATM   17  C8  UNL     1      35.308 -10.459  -2.921  1.00  0.00     0.087 A 
HETATM   18  N4  UNL     1      34.579 -10.625  -1.806  1.00  0.00    -0.374 N 
HETATM   19  C9  UNL     1      35.152 -10.915  -0.600  1.00  0.00     0.102 A 
ATOM     20  H4  UNL     1      33.565 -10.531  -1.860  1.00  0.00     0.164 HD
ENDBRANCH   1  14
BRANCH   4  21
HETATM   21  O4  UNL     1      37.394 -14.163  -0.434  1.00  0.00    -0.309 OA
HETATM   22  C4  UNL     1      36.505 -14.654  -1.403  1.00  0.00     0.215 C 
ENDBRANCH   4  21
TORSDOF 5
ENDMDL
MODEL 4
REMARK VINA RESULT: -6.583299697      2.234      3.032
REMARK  5 active torsions:
REMARK  status: ('A' for Active; 'I' for Inactive)
REMARK    1  A    between atoms: N1_2  and  S1_4 
REMARK    2  A    between atoms: S1_4  and  N2_7 
REMARK    3  A    between atoms: N2_7  and  C2_9 
REMARK    4  A    between atoms: C2_9  and  C5_16 
REMARK       I    between atoms: N3_10  and  C3_12 
REMARK    5  A    between atoms: C3_12  and  O4_14 
ROOT
HETATM    1  C2  UNL     1      37.281 -12.380   0.096  1.00  0.00     0.132 C 
HETATM    2  N3  UNL     1      37.176 -13.524   0.633  1.00  0.00    -0.287 N 
ATOM      3  H3  UNL     1      37.926 -13.774   1.278  1.00  0.00     0.172 HD
HETATM    4  C3  UNL     1      36.182 -14.489   0.470  1.00  0.00     0.365 C 
HETATM    5  O3  UNL     1      35.540 -15.005   1.447  1.00  0.00    -0.238 OA
ENDROOT
BRANCH   1   6
HETATM    6  N2  UNL     1      38.435 -11.597   0.466  1.00  0.00    -0.252 N 
ATOM      7  H2  UNL     1      39.146 -11.385  -0.234  1.00  0.00     0.182 HD
BRANCH   6   8
HETATM    8  S1  UNL     1      38.627 -11.015   2.080  1.00  0.00     0.320 S 
HETATM    9  O1  UNL     1      40.073 -10.779   2.324  1.00  0.00    -0.182 OA
HETATM   10  O2  UNL     1      38.169 -12.066   3.060  1.00  0.00    -0.182 OA
BRANCH   8  11
HETATM   11  N1  UNL     1      37.665  -9.602   2.250  1.00  0.00    -0.307 N 
HETATM   12  C1  UNL     1      38.274  -8.429   1.699  1.00  0.00     0.161 C 
ATOM     13  H1  UNL     1      36.749  -9.599   2.699  1.00  0.00     0.173 HD
ENDBRANCH   8  11
ENDBRANCH   6   8
ENDBRANCH   1   6
BRANCH   1  14
HETATM   14  C5  UNL     1      36.369 -11.762  -0.844  1.00  0.00     0.024 A 
HETATM   15  C6  UNL     1      36.594 -11.895  -2.222  1.00  0.00     0.018 A 
HETATM   16  C7  UNL     1      35.750 -11.312  -3.142  1.00  0.00     0.018 A 
HETATM   17  C8  UNL     1      34.654 -10.579  -2.743  1.00  0.00     0.087 A 
HETATM   18  N4  UNL     1      34.438 -10.452  -1.423  1.00  0.00    -0.374 N 
HETATM   19  C9  UNL     1      35.264 -11.021  -0.495  1.00  0.00     0.102 A 
ATOM     20  H4  UNL     1      33.633  -9.915  -1.103  1.00  0.00     0.164 HD
ENDBRANCH   1  14
BRANCH   4  21
HETATM   21  O4  UNL     1      35.836 -14.944  -0.798  1.00  0.00    -0.309 OA
HETATM   22  C4  UNL     1      34.524 -14.964  -1.295  1.00  0.00     0.215 C 
ENDBRANCH   4  21
TORSDOF 5
ENDMDL
MODEL 5
REMARK VINA RESULT: -6.525021660      2.687      3.645
REMARK  5 active torsions:
REMARK  status: ('A' for Active; 'I' for Inactive)
REMARK    1  A    between atoms: N1_2  and  S1_4 
REMARK    2  A    between atoms: S1_4  and  N2_7 
REMARK    3  A    between atoms: N2_7  and  C2_9 
REMARK    4  A    between atoms: C2_9  and  C5_16 
REMARK       I    between atoms: N3_10  and  C3_12 
REMARK    5  A    between atoms: C3_12  and  O4_14 
ROOT
HETATM    1  C2  UNL     1      37.809 -12.558  -1.007  1.00  0.00     0.132 C 
HETATM    2  N3  UNL     1      38.272 -13.715  -1.237  1.00  0.00    -0.287 N 
ATOM      3  H3  UNL     1      39.201 -13.897  -0.859  1.00  0.00     0.172 HD
HETATM    4  C3  UNL     1      37.692 -14.776  -1.934  1.00  0.00     0.365 C 
HETATM    5  O3  UNL     1      37.561 -15.947  -1.441  1.00  0.00    -0.238 OA
ENDROOT
BRANCH   1   6
HETATM    6  N2  UNL     1      38.651 -11.665  -0.249  1.00  0.00    -0.252 N 
ATOM      7  H2  UNL     1      39.394 -11.149  -0.721  1.00  0.00     0.182 HD
BRANCH   6   8
HETATM    8  S1  UNL     1      38.417 -11.459   1.450  1.00  0.00     0.320 S 
HETATM    9  O1  UNL     1      39.750 -11.352   2.097  1.00  0.00    -0.182 OA
HETATM   10  O2  UNL     1      37.733 -12.675   2.022  1.00  0.00    -0.182 OA
BRANCH   8  11
HETATM   11  N1  UNL     1      37.431 -10.072   1.682  1.00  0.00    -0.307 N 
HETATM   12  C1  UNL     1      38.168  -8.844   1.696  1.00  0.00     0.161 C 
ATOM     13  H1  UNL     1      36.419 -10.118   1.800  1.00  0.00     0.173 HD
ENDBRANCH   8  11
ENDBRANCH   6   8
ENDBRANCH   1   6
BRANCH   1  14
HETATM   14  C5  UNL     1      36.523 -12.027  -1.411  1.00  0.00     0.024 A 
HETATM   15  C6  UNL     1      36.432 -11.219  -2.554  1.00  0.00     0.018 A 
HETATM   16  C7  UNL     1      35.226 -10.692  -2.961  1.00  0.00     0.018 A 
HETATM   17  C8  UNL     1      34.065 -10.939  -2.261  1.00  0.00     0.087 A 
HETATM   18  N4  UNL     1      34.153 -11.714  -1.167  1.00  0.00    -0.374 N 
HETATM   19  C9  UNL     1      35.340 -12.244  -0.747  1.00  0.00     0.102 A 
ATOM     20  H4  UNL     1      33.307 -11.912  -0.632  1.00  0.00     0.164 HD
ENDBRANCH   1  14
BRANCH   4  21
HETATM   21  O4  UNL     1      37.219 -14.600  -3.229  1.00  0.00    -0.309 OA
HETATM   22  C4  UNL     1      35.911 -14.906  -3.637  1.00  0.00     0.215 C 
ENDBRANCH   4  21
TORSDOF 5
ENDMDL
