MODEL 1
REMARK VINA RESULT: -9.879611019      0.000      0.000
REMARK  10 active torsions:
REMARK  status: ('A' for Active; 'I' for Inactive)
REMARK    1  A    between atoms: N1_1  and  C1_4 
REMARK    2  A    between atoms: C4_9  and  N3_10 
REMARK    3  A    between atoms: N3_10  and  C5_12 
REMARK    4  A    between atoms: C5_12  and  C6_13 
REMARK    5  A    between atoms: C5_12  and  C7_16 
REMARK    6  A    between atoms: C6_13  and  O1_14 
REMARK    7  A    between atoms: C7_16  and  N4_17 
REMARK    8  A    between atoms: C9_19  and  C10_20 
REMARK    9  A    between atoms: C11_24  and  N6_25 
REMARK   10  A    between atoms: C12_34  and  N10_35 
ROOT
HETATM    1  C1  UNL     1      -8.231  32.781 -10.277  1.00  0.00     0.678 A 
HETATM    2  N2  UNL     1      -8.501  33.966  -9.707  1.00  0.00    -0.188 N 
ATOM      3  H2  UNL     1      -8.925  34.722 -10.245  1.00  0.00     0.184 HD
HETATM    4  C2  UNL     1      -8.198  34.128  -8.408  1.00  0.00     0.104 A 
HETATM    5  C3  UNL     1      -7.629  33.100  -7.694  1.00  0.00     0.066 A 
HETATM    6  C4  UNL     1      -7.347  31.873  -8.276  1.00  0.00     0.130 A 
HETATM    7  N9  UNL     1      -7.665  31.757  -9.570  1.00  0.00    -0.176 N 
ATOM      8  H9  UNL     1      -7.478  30.874 -10.045  1.00  0.00     0.186 HD
HETATM    9  C12 UNL     1      -7.233  33.093  -6.280  1.00  0.00     0.324 C 
HETATM   10  N11 UNL     1      -6.810  34.352  -5.766  1.00  0.00    -0.333 N 
ATOM     11  H11 UNL     1      -6.091  34.239  -5.053  1.00  0.00     0.164 HD
HETATM   12  C13 UNL     1      -7.087  35.583  -5.957  1.00  0.00     0.191 C 
HETATM   13  N12 UNL     1      -6.402  36.557  -5.201  1.00  0.00    -0.063 NA
HETATM   14  N13 UNL     1      -8.066  36.055  -6.907  1.00  0.00    -0.317 N 
ATOM     15  H13 UNL     1      -8.426  36.993  -6.731  1.00  0.00     0.169 HD
HETATM   16  C14 UNL     1      -8.553  35.465  -7.947  1.00  0.00     0.146 C 
HETATM   17  N14 UNL     1      -9.520  36.132  -8.746  1.00  0.00    -0.080 NA
ENDROOT
BRANCH   6  18
HETATM   18  N3  UNL     1      -6.844  31.001  -7.603  1.00  0.00    -0.367 N 
ATOM     19  H3  UNL     1      -6.288  31.480  -6.894  1.00  0.00     0.161 HD
BRANCH  18  20
HETATM   20  C5  UNL     1      -6.685  29.660  -7.363  1.00  0.00     0.126 C 
BRANCH  20  21
HETATM   21  C6  UNL     1      -8.043  28.959  -7.530  1.00  0.00     0.191 C 
BRANCH  21  22
HETATM   22  O1  UNL     1      -7.950  27.992  -8.497  1.00  0.00    -0.399 OA
ATOM     23  H1  UNL     1      -8.747  27.477  -8.513  1.00  0.00     0.209 HD
ENDBRANCH  21  22
ENDBRANCH  20  21
BRANCH  20  24
HETATM   24  C7  UNL     1      -5.988  29.222  -6.098  1.00  0.00     0.176 C 
BRANCH  24  25
HETATM   25  N4  UNL     1      -5.377  27.916  -6.222  1.00  0.00    -0.285 N 
HETATM   26  C8  UNL     1      -4.587  27.262  -5.317  1.00  0.00     0.145 A 
HETATM   27  C9  UNL     1      -4.200  26.044  -5.802  1.00  0.00     0.099 A 
HETATM   28  N7  UNL     1      -4.789  25.988  -7.034  1.00  0.00    -0.282 N 
HETATM   29  N8  UNL     1      -5.465  27.096  -7.245  1.00  0.00    -0.240 N 
ATOM     30  H7  UNL     1      -4.716  25.208  -7.688  1.00  0.00     0.188 HD
ATOM     31  H8  UNL     1      -5.993  27.294  -8.096  1.00  0.00     0.208 HD
BRANCH  27  32
HETATM   32  C10 UNL     1      -3.390  24.968  -5.292  1.00  0.00     0.143 A 
HETATM   33  N5  UNL     1      -2.150  24.459  -5.579  1.00  0.00    -0.252 N 
HETATM   34  O2  UNL     1      -2.248  23.565  -4.679  1.00  0.00    -0.210 OA
ATOM     35  H5  UNL     1      -1.426  24.704  -6.256  1.00  0.00     0.195 HD
HETATM   36  C11 UNL     1      -3.457  23.988  -4.330  1.00  0.00     0.266 A 
BRANCH  36  37
HETATM   37  N6  UNL     1      -4.325  23.494  -3.330  1.00  0.00    -0.086 N 
HETATM   38  O3  UNL     1      -4.334  23.974  -2.203  1.00  0.00    -0.530 OA
HETATM   39  O4  UNL     1      -5.175  22.460  -3.616  1.00  0.00    -0.530 OA
ENDBRANCH  36  37
ENDBRANCH  27  32
ENDBRANCH  24  25
ENDBRANCH  20  24
ENDBRANCH  18  20
ENDBRANCH   6  18
BRANCH   9  40
HETATM   40  N10 UNL     1      -8.389  32.582  -5.524  1.00  0.00    -0.054 N 
ATOM     41 3H10 UNL     1      -9.261  33.061  -5.747  1.00  0.00     0.277 HD
ATOM     42 2H10 UNL     1      -8.679  31.648  -5.812  1.00  0.00     0.277 HD
ATOM     43 1H10 UNL     1      -8.139  32.640  -4.536  1.00  0.00     0.277 HD
ENDBRANCH   9  40
BRANCH   1  44
HETATM   44  N1  UNL     1      -8.509  32.582 -11.536  1.00  0.00    -0.234 N 
ATOM     45  H12 UNL     1      -8.938  33.344 -12.061  1.00  0.00     0.174 HD
ATOM     46  H11 UNL     1      -8.297  31.684 -11.970  1.00  0.00     0.174 HD
ENDBRANCH   1  44
TORSDOF 10
ENDMDL
MODEL 2
REMARK VINA RESULT: -8.925459271      4.438      8.161
REMARK  10 active torsions:
REMARK  status: ('A' for Active; 'I' for Inactive)
REMARK    1  A    between atoms: N1_1  and  C1_4 
REMARK    2  A    between atoms: C4_9  and  N3_10 
REMARK    3  A    between atoms: N3_10  and  C5_12 
REMARK    4  A    between atoms: C5_12  and  C6_13 
REMARK    5  A    between atoms: C5_12  and  C7_16 
REMARK    6  A    between atoms: C6_13  and  O1_14 
REMARK    7  A    between atoms: C7_16  and  N4_17 
REMARK    8  A    between atoms: C9_19  and  C10_20 
REMARK    9  A    between atoms: C11_24  and  N6_25 
REMARK   10  A    between atoms: C12_34  and  N10_35 
ROOT
HETATM    1  C1  UNL     1      -9.109  27.117 -10.924  1.00  0.00     0.678 A 
HETATM    2  N2  UNL     1      -8.052  26.811 -10.156  1.00  0.00    -0.188 N 
ATOM      3  H2  UNL     1      -7.716  25.850 -10.085  1.00  0.00     0.184 HD
HETATM    4  C2  UNL     1      -7.448  27.806  -9.483  1.00  0.00     0.104 A 
HETATM    5  C3  UNL     1      -7.910  29.096  -9.590  1.00  0.00     0.066 A 
HETATM    6  C4  UNL     1      -9.002  29.420 -10.382  1.00  0.00     0.130 A 
HETATM    7  N9  UNL     1      -9.571  28.399 -11.031  1.00  0.00    -0.176 N 
ATOM      8  H9  UNL     1     -10.379  28.584 -11.627  1.00  0.00     0.186 HD
HETATM    9  C12 UNL     1      -7.383  30.300  -8.937  1.00  0.00     0.324 C 
HETATM   10  N11 UNL     1      -6.795  30.084  -7.658  1.00  0.00    -0.333 N 
ATOM     11  H11 UNL     1      -6.933  30.887  -7.045  1.00  0.00     0.164 HD
HETATM   12  C13 UNL     1      -6.141  29.158  -7.072  1.00  0.00     0.191 C 
HETATM   13  N12 UNL     1      -5.727  29.362  -5.739  1.00  0.00    -0.063 NA
HETATM   14  N13 UNL     1      -5.793  27.900  -7.686  1.00  0.00    -0.317 N 
ATOM     15  H13 UNL     1      -5.012  27.407  -7.254  1.00  0.00     0.169 HD
HETATM   16  C14 UNL     1      -6.324  27.306  -8.702  1.00  0.00     0.146 C 
HETATM   17  N14 UNL     1      -5.807  26.056  -9.135  1.00  0.00    -0.080 NA
ENDROOT
BRANCH   6  18
HETATM   18  N3  UNL     1      -9.369  30.572 -10.440  1.00  0.00    -0.367 N 
ATOM     19  H3  UNL     1      -9.008  31.024  -9.600  1.00  0.00     0.161 HD
BRANCH  18  20
HETATM   20  C5  UNL     1     -10.052  31.545 -11.125  1.00  0.00     0.126 C 
BRANCH  20  21
HETATM   21  C6  UNL     1      -9.255  31.918 -12.386  1.00  0.00     0.191 C 
BRANCH  21  22
HETATM   22  O1  UNL     1      -7.967  32.236 -12.043  1.00  0.00    -0.399 OA
ATOM     23  H1  UNL     1      -7.580  32.780 -12.719  1.00  0.00     0.209 HD
ENDBRANCH  21  22
ENDBRANCH  20  21
BRANCH  20  24
HETATM   24  C7  UNL     1     -10.518  32.772 -10.382  1.00  0.00     0.176 C 
BRANCH  24  25
HETATM   25  N4  UNL     1      -9.573  33.207  -9.376  1.00  0.00    -0.285 N 
HETATM   26  C8  UNL     1      -9.670  33.093  -8.016  1.00  0.00     0.145 A 
HETATM   27  C9  UNL     1      -8.570  33.627  -7.405  1.00  0.00     0.099 A 
HETATM   28  N7  UNL     1      -7.805  34.067  -8.448  1.00  0.00    -0.282 N 
HETATM   29  N8  UNL     1      -8.421  33.806  -9.581  1.00  0.00    -0.240 N 
ATOM     30  H7  UNL     1      -6.897  34.525  -8.362  1.00  0.00     0.188 HD
ATOM     31  H8  UNL     1      -8.051  34.039 -10.503  1.00  0.00     0.208 HD
BRANCH  27  32
HETATM   32  C10 UNL     1      -8.153  33.776  -6.035  1.00  0.00     0.143 A 
HETATM   33  N5  UNL     1      -8.442  33.145  -4.853  1.00  0.00    -0.252 N 
HETATM   34  O2  UNL     1      -7.657  33.899  -4.194  1.00  0.00    -0.210 OA
ATOM     35  H5  UNL     1      -9.053  32.368  -4.598  1.00  0.00     0.195 HD
HETATM   36  C11 UNL     1      -7.315  34.569  -5.288  1.00  0.00     0.266 A 
BRANCH  36  37
HETATM   37  N6  UNL     1      -6.419  35.653  -5.431  1.00  0.00    -0.086 N 
HETATM   38  O3  UNL     1      -5.235  35.468  -5.687  1.00  0.00    -0.530 OA
HETATM   39  O4  UNL     1      -6.871  36.936  -5.284  1.00  0.00    -0.530 OA
ENDBRANCH  36  37
ENDBRANCH  27  32
ENDBRANCH  24  25
ENDBRANCH  20  24
ENDBRANCH  18  20
ENDBRANCH   6  18
BRANCH   9  40
HETATM   40  N10 UNL     1      -6.406  30.889  -9.868  1.00  0.00    -0.054 N 
ATOM     41 3H10 UNL     1      -6.316  30.369 -10.741  1.00  0.00     0.277 HD
ATOM     42 2H10 UNL     1      -6.718  31.770 -10.277  1.00  0.00     0.277 HD
ATOM     43 1H10 UNL     1      -5.528  30.971  -9.355  1.00  0.00     0.277 HD
ENDBRANCH   9  40
BRANCH   1  44
HETATM   44  N1  UNL     1      -9.725  26.181 -11.592  1.00  0.00    -0.234 N 
ATOM     45  H12 UNL     1      -9.215  25.323 -11.801  1.00  0.00     0.174 HD
ATOM     46  H11 UNL     1     -10.691  26.317 -11.892  1.00  0.00     0.174 HD
ENDBRANCH   1  44
TORSDOF 10
ENDMDL
MODEL 3
REMARK VINA RESULT: -8.919444329      1.385      1.946
REMARK  10 active torsions:
REMARK  status: ('A' for Active; 'I' for Inactive)
REMARK    1  A    between atoms: N1_1  and  C1_4 
REMARK    2  A    between atoms: C4_9  and  N3_10 
REMARK    3  A    between atoms: N3_10  and  C5_12 
REMARK    4  A    between atoms: C5_12  and  C6_13 
REMARK    5  A    between atoms: C5_12  and  C7_16 
REMARK    6  A    between atoms: C6_13  and  O1_14 
REMARK    7  A    between atoms: C7_16  and  N4_17 
REMARK    8  A    between atoms: C9_19  and  C10_20 
REMARK    9  A    between atoms: C11_24  and  N6_25 
REMARK   10  A    between atoms: C12_34  and  N10_35 
ROOT
HETATM    1  C1  UNL     1      -7.829  31.088 -10.759  1.00  0.00     0.678 A 
HETATM    2  N2  UNL     1      -8.380  32.230 -10.321  1.00  0.00    -0.188 N 
ATOM      3  H2  UNL     1      -8.926  32.822 -10.948  1.00  0.00     0.184 HD
HETATM    4  C2  UNL     1      -8.193  32.573  -9.035  1.00  0.00     0.104 A 
HETATM    5  C3  UNL     1      -7.457  31.765  -8.202  1.00  0.00     0.066 A 
HETATM    6  C4  UNL     1      -6.884  30.582  -8.646  1.00  0.00     0.130 A 
HETATM    7  N9  UNL     1      -7.096  30.282  -9.932  1.00  0.00    -0.176 N 
ATOM      8  H9  UNL     1      -6.696  29.423 -10.309  1.00  0.00     0.186 HD
HETATM    9  C12 UNL     1      -7.150  31.974  -6.781  1.00  0.00     0.324 C 
HETATM   10  N11 UNL     1      -7.038  33.336  -6.383  1.00  0.00    -0.333 N 
ATOM     11  H11 UNL     1      -6.353  33.450  -5.636  1.00  0.00     0.164 HD
HETATM   12  C13 UNL     1      -7.563  34.454  -6.707  1.00  0.00     0.191 C 
HETATM   13  N12 UNL     1      -7.148  35.619  -6.028  1.00  0.00    -0.063 NA
HETATM   14  N13 UNL     1      -8.565  34.609  -7.733  1.00  0.00    -0.317 N 
ATOM     15  H13 UNL     1      -9.129  35.457  -7.665  1.00  0.00     0.169 HD
HETATM   16  C14 UNL     1      -8.854  33.835  -8.725  1.00  0.00     0.146 C 
HETATM   17  N14 UNL     1      -9.895  34.197  -9.620  1.00  0.00    -0.080 NA
ENDROOT
BRANCH   6  18
HETATM   18  N3  UNL     1      -6.244  29.907  -7.871  1.00  0.00    -0.367 N 
ATOM     19  H3  UNL     1      -5.586  30.544  -7.422  1.00  0.00     0.161 HD
BRANCH  18  20
HETATM   20  C5  UNL     1      -6.004  28.673  -7.324  1.00  0.00     0.126 C 
BRANCH  20  21
HETATM   21  C6  UNL     1      -7.293  27.838  -7.394  1.00  0.00     0.191 C 
BRANCH  21  22
HETATM   22  O1  UNL     1      -7.327  27.134  -8.569  1.00  0.00    -0.399 OA
ATOM     23  H1  UNL     1      -6.735  26.393  -8.517  1.00  0.00     0.209 HD
ENDBRANCH  21  22
ENDBRANCH  20  21
BRANCH  20  24
HETATM   24  C7  UNL     1      -5.363  28.590  -5.961  1.00  0.00     0.176 C 
BRANCH  24  25
HETATM   25  N4  UNL     1      -4.868  27.265  -5.657  1.00  0.00    -0.285 N 
HETATM   26  C8  UNL     1      -4.772  26.656  -4.436  1.00  0.00     0.145 A 
HETATM   27  C9  UNL     1      -4.251  25.398  -4.561  1.00  0.00     0.099 A 
HETATM   28  N7  UNL     1      -4.037  25.271  -5.904  1.00  0.00    -0.282 N 
HETATM   29  N8  UNL     1      -4.407  26.378  -6.511  1.00  0.00    -0.240 N 
ATOM     30  H7  UNL     1      -3.651  24.447  -6.365  1.00  0.00     0.188 HD
ATOM     31  H8  UNL     1      -4.345  26.530  -7.518  1.00  0.00     0.208 HD
BRANCH  27  32
HETATM   32  C10 UNL     1      -3.940  24.341  -3.633  1.00  0.00     0.143 A 
HETATM   33  N5  UNL     1      -4.246  24.069  -2.325  1.00  0.00    -0.252 N 
HETATM   34  O2  UNL     1      -3.579  22.985  -2.337  1.00  0.00    -0.210 OA
ATOM     35  H5  UNL     1      -4.796  24.551  -1.614  1.00  0.00     0.195 HD
HETATM   36  C11 UNL     1      -3.231  23.163  -3.606  1.00  0.00     0.266 A 
BRANCH  36  37
HETATM   37  N6  UNL     1      -2.432  22.348  -4.439  1.00  0.00    -0.086 N 
HETATM   38  O3  UNL     1      -2.504  22.425  -5.660  1.00  0.00    -0.530 OA
HETATM   39  O4  UNL     1      -1.559  21.452  -3.883  1.00  0.00    -0.530 OA
ENDBRANCH  36  37
ENDBRANCH  27  32
ENDBRANCH  24  25
ENDBRANCH  20  24
ENDBRANCH  18  20
ENDBRANCH   6  18
BRANCH   9  40
HETATM   40  N10 UNL     1      -8.208  31.292  -6.018  1.00  0.00    -0.054 N 
ATOM     41 3H10 UNL     1      -9.131  31.373  -6.446  1.00  0.00     0.277 HD
ATOM     42 2H10 UNL     1      -8.141  30.275  -6.055  1.00  0.00     0.277 HD
ATOM     43 1H10 UNL     1      -8.169  31.665  -5.069  1.00  0.00     0.277 HD
ENDBRANCH   9  40
BRANCH   1  44
HETATM   44  N1  UNL     1      -7.986  30.719 -12.000  1.00  0.00    -0.234 N 
ATOM     45  H12 UNL     1      -8.368  31.397 -12.659  1.00  0.00     0.174 HD
ATOM     46  H11 UNL     1      -7.729  29.775 -12.289  1.00  0.00     0.174 HD
ENDBRANCH   1  44
TORSDOF 10
ENDMDL
MODEL 4
REMARK VINA RESULT: -8.872792533      0.891      1.324
REMARK  10 active torsions:
REMARK  status: ('A' for Active; 'I' for Inactive)
REMARK    1  A    between atoms: N1_1  and  C1_4 
REMARK    2  A    between atoms: C4_9  and  N3_10 
REMARK    3  A    between atoms: N3_10  and  C5_12 
REMARK    4  A    between atoms: C5_12  and  C6_13 
REMARK    5  A    between atoms: C5_12  and  C7_16 
REMARK    6  A    between atoms: C6_13  and  O1_14 
REMARK    7  A    between atoms: C7_16  and  N4_17 
REMARK    8  A    between atoms: C9_19  and  C10_20 
REMARK    9  A    between atoms: C11_24  and  N6_25 
REMARK   10  A    between atoms: C12_34  and  N10_35 
ROOT
HETATM    1  C1  UNL     1      -8.521  33.193 -10.391  1.00  0.00     0.678 A 
HETATM    2  N2  UNL     1      -8.557  34.381  -9.770  1.00  0.00    -0.188 N 
ATOM      3  H2  UNL     1      -8.808  35.230 -10.278  1.00  0.00     0.184 HD
HETATM    4  C2  UNL     1      -8.253  34.423  -8.461  1.00  0.00     0.104 A 
HETATM    5  C3  UNL     1      -7.919  33.271  -7.790  1.00  0.00     0.066 A 
HETATM    6  C4  UNL     1      -7.880  32.038  -8.425  1.00  0.00     0.130 A 
HETATM    7  N9  UNL     1      -8.188  32.045  -9.726  1.00  0.00    -0.176 N 
ATOM      8  H9  UNL     1      -8.175  31.164 -10.240  1.00  0.00     0.186 HD
HETATM    9  C12 UNL     1      -7.561  33.123  -6.374  1.00  0.00     0.324 C 
HETATM   10  N11 UNL     1      -6.902  34.246  -5.798  1.00  0.00    -0.333 N 
ATOM     11  H11 UNL     1      -6.235  33.959  -5.082  1.00  0.00     0.164 HD
HETATM   12  C13 UNL     1      -6.921  35.515  -5.935  1.00  0.00     0.191 C 
HETATM   13  N12 UNL     1      -6.068  36.296  -5.126  1.00  0.00    -0.063 NA
HETATM   14  N13 UNL     1      -7.764  36.216  -6.872  1.00  0.00    -0.317 N 
ATOM     15  H13 UNL     1      -7.930  37.199  -6.657  1.00  0.00     0.169 HD
HETATM   16  C14 UNL     1      -8.340  35.783  -7.944  1.00  0.00     0.146 C 
HETATM   17  N14 UNL     1      -9.135  36.666  -8.721  1.00  0.00    -0.080 NA
ENDROOT
BRANCH   6  18
HETATM   18  N3  UNL     1      -7.578  31.054  -7.787  1.00  0.00    -0.367 N 
ATOM     19  H3  UNL     1      -8.046  31.150  -6.886  1.00  0.00     0.161 HD
BRANCH  18  20
HETATM   20  C5  UNL     1      -6.891  29.869  -7.729  1.00  0.00     0.126 C 
BRANCH  20  21
HETATM   21  C6  UNL     1      -7.892  28.723  -7.510  1.00  0.00     0.191 C 
BRANCH  21  22
HETATM   22  O1  UNL     1      -7.983  27.963  -8.646  1.00  0.00    -0.399 OA
ATOM     23  H1  UNL     1      -7.142  27.565  -8.835  1.00  0.00     0.209 HD
ENDBRANCH  21  22
ENDBRANCH  20  21
BRANCH  20  24
HETATM   24  C7  UNL     1      -5.707  29.755  -6.801  1.00  0.00     0.176 C 
BRANCH  24  25
HETATM   25  N4  UNL     1      -5.369  28.382  -6.493  1.00  0.00    -0.285 N 
HETATM   26  C8  UNL     1      -4.996  27.851  -5.289  1.00  0.00     0.145 A 
HETATM   27  C9  UNL     1      -4.758  26.509  -5.404  1.00  0.00     0.099 A 
HETATM   28  N7  UNL     1      -5.003  26.251  -6.723  1.00  0.00    -0.282 N 
HETATM   29  N8  UNL     1      -5.356  27.366  -7.327  1.00  0.00    -0.240 N 
ATOM     30  H7  UNL     1      -4.925  25.338  -7.170  1.00  0.00     0.188 HD
ATOM     31  H8  UNL     1      -5.590  27.433  -8.318  1.00  0.00     0.208 HD
BRANCH  27  32
HETATM   32  C10 UNL     1      -4.351  25.477  -4.486  1.00  0.00     0.143 A 
HETATM   33  N5  UNL     1      -4.316  25.343  -3.122  1.00  0.00    -0.252 N 
HETATM   34  O2  UNL     1      -3.836  24.166  -3.195  1.00  0.00    -0.210 OA
ATOM     35  H5  UNL     1      -4.575  25.952  -2.345  1.00  0.00     0.195 HD
HETATM   36  C11 UNL     1      -3.833  24.204  -4.522  1.00  0.00     0.266 A 
BRANCH  36  37
HETATM   37  N6  UNL     1      -3.418  23.218  -5.446  1.00  0.00    -0.086 N 
HETATM   38  O3  UNL     1      -2.484  22.466  -5.194  1.00  0.00    -0.530 OA
HETATM   39  O4  UNL     1      -4.062  23.094  -6.647  1.00  0.00    -0.530 OA
ENDBRANCH  36  37
ENDBRANCH  27  32
ENDBRANCH  24  25
ENDBRANCH  20  24
ENDBRANCH  18  20
ENDBRANCH   6  18
BRANCH   9  40
HETATM   40  N10 UNL     1      -8.811  32.826  -5.654  1.00  0.00    -0.054 N 
ATOM     41 3H10 UNL     1      -9.623  33.312  -6.036  1.00  0.00     0.277 HD
ATOM     42 2H10 UNL     1      -9.149  31.875  -5.807  1.00  0.00     0.277 HD
ATOM     43 1H10 UNL     1      -8.639  33.039  -4.671  1.00  0.00     0.277 HD
ENDBRANCH   9  40
BRANCH   1  44
HETATM   44  N1  UNL     1      -8.808  33.108 -11.661  1.00  0.00    -0.234 N 
ATOM     45  H12 UNL     1      -9.759  32.851 -11.924  1.00  0.00     0.174 HD
ATOM     46  H11 UNL     1      -8.090  33.297 -12.361  1.00  0.00     0.174 HD
ENDBRANCH   1  44
TORSDOF 10
ENDMDL
MODEL 5
REMARK VINA RESULT: -8.865791525      4.672      8.551
REMARK  10 active torsions:
REMARK  status: ('A' for Active; 'I' for Inactive)
REMARK    1  A    between atoms: N1_1  and  C1_4 
REMARK    2  A    between atoms: C4_9  and  N3_10 
REMARK    3  A    between atoms: N3_10  and  C5_12 
REMARK    4  A    between atoms: C5_12  and  C6_13 
REMARK    5  A    between atoms: C5_12  and  C7_16 
REMARK    6  A    between atoms: C6_13  and  O1_14 
REMARK    7  A    between atoms: C7_16  and  N4_17 
REMARK    8  A    between atoms: C9_19  and  C10_20 
REMARK    9  A    between atoms: C11_24  and  N6_25 
REMARK   10  A    between atoms: C12_34  and  N10_35 
ROOT
HETATM    1  C1  UNL     1      -9.546  27.486 -10.653  1.00  0.00     0.678 A 
HETATM    2  N2  UNL     1      -8.392  27.129 -10.069  1.00  0.00    -0.188 N 
ATOM      3  H2  UNL     1      -8.000  26.198 -10.208  1.00  0.00     0.184 HD
HETATM    4  C2  UNL     1      -7.766  28.034  -9.297  1.00  0.00     0.104 A 
HETATM    5  C3  UNL     1      -8.304  29.287  -9.121  1.00  0.00     0.066 A 
HETATM    6  C4  UNL     1      -9.497  29.663  -9.721  1.00  0.00     0.130 A 
HETATM    7  N9  UNL     1     -10.084  28.731 -10.478  1.00  0.00    -0.176 N 
ATOM      8  H9  UNL     1     -10.965  28.956 -10.942  1.00  0.00     0.186 HD
HETATM    9  C12 UNL     1      -7.768  30.396  -8.322  1.00  0.00     0.324 C 
HETATM   10  N11 UNL     1      -7.023  30.006  -7.173  1.00  0.00    -0.333 N 
ATOM     11  H11 UNL     1      -7.130  30.679  -6.414  1.00  0.00     0.164 HD
HETATM   12  C13 UNL     1      -6.257  29.042  -6.835  1.00  0.00     0.191 C 
HETATM   13  N12 UNL     1      -5.700  29.042  -5.539  1.00  0.00    -0.063 NA
HETATM   14  N13 UNL     1      -5.918  27.937  -7.699  1.00  0.00    -0.317 N 
ATOM     15  H13 UNL     1      -5.067  27.434  -7.447  1.00  0.00     0.169 HD
HETATM   16  C14 UNL     1      -6.533  27.490  -8.742  1.00  0.00     0.146 C 
HETATM   17  N14 UNL     1      -6.006  26.374  -9.445  1.00  0.00    -0.080 NA
ENDROOT
BRANCH   6  18
HETATM   18  N3  UNL     1      -9.928  30.778  -9.532  1.00  0.00    -0.367 N 
ATOM     19  H3  UNL     1      -9.113  31.390  -9.487  1.00  0.00     0.161 HD
BRANCH  18  20
HETATM   20  C5  UNL     1     -11.018  31.591  -9.350  1.00  0.00     0.126 C 
BRANCH  20  21
HETATM   21  C6  UNL     1     -12.187  31.052 -10.190  1.00  0.00     0.191 C 
BRANCH  21  22
HETATM   22  O1  UNL     1     -13.365  31.226  -9.512  1.00  0.00    -0.399 OA
ATOM     23  H1  UNL     1     -13.633  30.405  -9.117  1.00  0.00     0.209 HD
ENDBRANCH  21  22
ENDBRANCH  20  21
BRANCH  20  24
HETATM   24  C7  UNL     1     -10.854  33.081  -9.521  1.00  0.00     0.176 C 
BRANCH  24  25
HETATM   25  N4  UNL     1     -10.108  33.687  -8.439  1.00  0.00    -0.285 N 
HETATM   26  C8  UNL     1      -9.364  34.836  -8.463  1.00  0.00     0.145 A 
HETATM   27  C9  UNL     1      -8.809  35.079  -7.238  1.00  0.00     0.099 A 
HETATM   28  N7  UNL     1      -9.246  34.034  -6.474  1.00  0.00    -0.282 N 
HETATM   29  N8  UNL     1     -10.000  33.243  -7.207  1.00  0.00    -0.240 N 
ATOM     30  H7  UNL     1      -9.024  33.889  -5.489  1.00  0.00     0.188 HD
ATOM     31  H8  UNL     1     -10.445  32.392  -6.863  1.00  0.00     0.208 HD
BRANCH  27  32
HETATM   32  C10 UNL     1      -7.960  36.113  -6.705  1.00  0.00     0.143 A 
HETATM   33  N5  UNL     1      -7.666  37.407  -7.048  1.00  0.00    -0.252 N 
HETATM   34  O2  UNL     1      -6.864  37.543  -6.069  1.00  0.00    -0.210 OA
ATOM     35  H5  UNL     1      -7.971  38.025  -7.800  1.00  0.00     0.195 HD
HETATM   36  C11 UNL     1      -7.087  36.300  -5.659  1.00  0.00     0.266 A 
BRANCH  36  37
HETATM   37  N6  UNL     1      -6.542  35.609  -4.552  1.00  0.00    -0.086 N 
HETATM   38  O3  UNL     1      -5.403  35.835  -4.162  1.00  0.00    -0.530 OA
HETATM   39  O4  UNL     1      -7.292  34.670  -3.898  1.00  0.00    -0.530 OA
ENDBRANCH  36  37
ENDBRANCH  27  32
ENDBRANCH  24  25
ENDBRANCH  20  24
ENDBRANCH  18  20
ENDBRANCH   6  18
BRANCH   9  40
HETATM   40  N10 UNL     1      -6.939  31.206  -9.231  1.00  0.00    -0.054 N 
ATOM     41 3H10 UNL     1      -5.948  31.199  -8.988  1.00  0.00     0.277 HD
ATOM     42 2H10 UNL     1      -6.845  30.798 -10.161  1.00  0.00     0.277 HD
ATOM     43 1H10 UNL     1      -7.346  32.141  -9.239  1.00  0.00     0.277 HD
ENDBRANCH   9  40
BRANCH   1  44
HETATM   44  N1  UNL     1     -10.187  26.637 -11.409  1.00  0.00    -0.234 N 
ATOM     45  H12 UNL     1      -9.729  25.755 -11.638  1.00  0.00     0.174 HD
ATOM     46  H11 UNL     1     -11.119  26.863 -11.755  1.00  0.00     0.174 HD
ENDBRANCH   1  44
TORSDOF 10
ENDMDL
