MODEL 1
REMARK VINA RESULT: -5.807890112      0.000      0.000
REMARK  4 active torsions:
REMARK  status: ('A' for Active; 'I' for Inactive)
REMARK    1  A    between atoms: N1_1  and  C1_4 
REMARK    2  A    between atoms: C8_20  and  C9_21 
REMARK    3  A    between atoms: C9_21  and  C10_22 
REMARK    4  A    between atoms: C10_22  and  N5_23 
ROOT
HETATM    1  C1  UNL     1      14.481  15.136  36.215  1.00  0.00     0.677 A 
HETATM    2  N2  UNL     1      13.990  14.085  36.894  1.00  0.00    -0.181 N 
ATOM      3  H2  UNL     1      13.029  14.110  37.233  1.00  0.00     0.185 HD
HETATM    4  C2  UNL     1      14.743  13.012  37.130  1.00  0.00     0.131 A 
HETATM    5  S1  UNL     1      14.050  11.788  37.966  1.00  0.00    -0.059 SA
HETATM    6  C3  UNL     1      16.078  12.904  36.692  1.00  0.00     0.064 A 
HETATM    7  C4  UNL     1      16.787  11.768  36.975  1.00  0.00     0.049 A 
HETATM    8  N3  UNL     1      16.128  10.856  37.633  1.00  0.00    -0.398 N 
ATOM      9  H31 UNL     1      16.656  10.009  37.844  1.00  0.00     0.156 HD
ATOM     10  H32 UNL     1      15.160  11.031  37.903  1.00  0.00     0.156 HD
HETATM   11  C5  UNL     1      18.121  11.528  36.604  1.00  0.00    -0.014 A 
HETATM   12  C6  UNL     1      18.883  12.402  35.906  1.00  0.00     0.024 A 
HETATM   13  S2  UNL     1      18.157  13.876  35.469  1.00  0.00    -0.073 SA
HETATM   14  C7  UNL     1      16.528  14.004  36.005  1.00  0.00     0.106 A 
HETATM   15  N4  UNL     1      15.754  15.082  35.773  1.00  0.00    -0.185 N 
ATOM     16  H4  UNL     1      16.139  15.872  35.256  1.00  0.00     0.185 HD
HETATM   17  C8  UNL     1      20.320  12.151  35.475  1.00  0.00     0.227 C 
HETATM   18  N9  UNL     1      20.377  10.680  35.401  1.00  0.00    -0.066 N 
ATOM     19  H91 UNL     1      21.244  10.338  34.985  1.00  0.00     0.278 HD
ATOM     20  H92 UNL     1      19.733  10.294  34.709  1.00  0.00     0.278 HD
HETATM   21  C13 UNL     1      20.152  10.163  36.715  1.00  0.00     0.237 C 
HETATM   22  C14 UNL     1      18.693  10.217  37.044  1.00  0.00     0.069 C 
ENDROOT
BRANCH  17  23
HETATM   23  C9  UNL     1      20.580  12.738  34.148  1.00  0.00     0.059 C 
BRANCH  23  24
HETATM   24  C10 UNL     1      20.372  11.870  32.979  1.00  0.00     0.135 C 
BRANCH  24  25
HETATM   25  N5  UNL     1      19.076  11.819  32.406  1.00  0.00    -0.315 N 
HETATM   26  C11 UNL     1      18.514  12.728  31.564  1.00  0.00     0.202 A 
HETATM   27  N6  UNL     1      17.266  12.333  31.270  1.00  0.00    -0.294 N 
HETATM   28  N7  UNL     1      17.062  11.206  31.915  1.00  0.00    -0.272 N 
ATOM     29  H6  UNL     1      16.602  12.815  30.663  1.00  0.00     0.187 HD
HETATM   30  C12 UNL     1      18.150  10.863  32.619  1.00  0.00     0.210 A 
ATOM     31  H7  UNL     1      16.197  10.667  31.884  1.00  0.00     0.189 HD
HETATM   32  N8  UNL     1      18.213   9.673  33.388  1.00  0.00    -0.062 NA
ENDBRANCH  24  25
ENDBRANCH  23  24
ENDBRANCH  17  23
BRANCH   1  33
HETATM   33  N1  UNL     1      13.757  16.185  35.979  1.00  0.00    -0.234 N 
ATOM     34  H12 UNL     1      14.104  17.110  36.229  1.00  0.00     0.174 HD
ATOM     35  H11 UNL     1      12.838  16.109  35.543  1.00  0.00     0.174 HD
ENDBRANCH   1  33
TORSDOF 4
ENDMDL
MODEL 2
REMARK VINA RESULT: -5.734905959      1.954      3.738
REMARK  4 active torsions:
REMARK  status: ('A' for Active; 'I' for Inactive)
REMARK    1  A    between atoms: N1_1  and  C1_4 
REMARK    2  A    between atoms: C8_20  and  C9_21 
REMARK    3  A    between atoms: C9_21  and  C10_22 
REMARK    4  A    between atoms: C10_22  and  N5_23 
ROOT
HETATM    1  C1  UNL     1      13.393  10.221  38.976  1.00  0.00     0.677 A 
HETATM    2  N2  UNL     1      12.701  11.361  39.143  1.00  0.00    -0.181 N 
ATOM      3  H2  UNL     1      11.844  11.353  39.695  1.00  0.00     0.185 HD
HETATM    4  C2  UNL     1      13.120  12.501  38.597  1.00  0.00     0.131 A 
HETATM    5  S1  UNL     1      12.205  13.831  38.861  1.00  0.00    -0.059 SA
HETATM    6  C3  UNL     1      14.295  12.591  37.823  1.00  0.00     0.064 A 
HETATM    7  C4  UNL     1      14.659  13.800  37.295  1.00  0.00     0.049 A 
HETATM    8  N3  UNL     1      13.862  14.790  37.584  1.00  0.00    -0.398 N 
ATOM      9  H31 UNL     1      14.134  15.692  37.191  1.00  0.00     0.156 HD
ATOM     10  H32 UNL     1      13.035  14.621  38.157  1.00  0.00     0.156 HD
HETATM   11  C5  UNL     1      15.798  14.033  36.506  1.00  0.00    -0.014 A 
HETATM   12  C6  UNL     1      16.693  13.077  36.166  1.00  0.00     0.024 A 
HETATM   13  S2  UNL     1      16.395  11.504  36.740  1.00  0.00    -0.073 SA
HETATM   14  C7  UNL     1      14.961  11.399  37.685  1.00  0.00     0.106 A 
HETATM   15  N4  UNL     1      14.525  10.254  38.243  1.00  0.00    -0.185 N 
ATOM     16  H4  UNL     1      15.060   9.396  38.109  1.00  0.00     0.185 HD
HETATM   17  C8  UNL     1      17.944  13.314  35.333  1.00  0.00     0.227 C 
HETATM   18  N9  UNL     1      18.230  14.738  35.588  1.00  0.00    -0.066 N 
ATOM     19  H91 UNL     1      19.131  15.034  35.211  1.00  0.00     0.278 HD
ATOM     20  H92 UNL     1      18.425  14.932  36.571  1.00  0.00     0.278 HD
HETATM   21  C13 UNL     1      17.136  15.505  35.078  1.00  0.00     0.237 C 
HETATM   22  C14 UNL     1      15.978  15.438  36.023  1.00  0.00     0.069 C 
ENDROOT
BRANCH  17  23
HETATM   23  C9  UNL     1      19.060  12.477  35.811  1.00  0.00     0.059 C 
BRANCH  23  24
HETATM   24  C10 UNL     1      19.909  11.846  34.789  1.00  0.00     0.135 C 
BRANCH  24  25
HETATM   25  N5  UNL     1      19.339  11.577  33.519  1.00  0.00    -0.315 N 
HETATM   26  C11 UNL     1      19.549  12.264  32.363  1.00  0.00     0.202 A 
HETATM   27  N6  UNL     1      18.806  11.713  31.391  1.00  0.00    -0.294 N 
HETATM   28  N7  UNL     1      18.153  10.710  31.934  1.00  0.00    -0.272 N 
ATOM     29  H6  UNL     1      18.756  12.016  30.418  1.00  0.00     0.187 HD
HETATM   30  C12 UNL     1      18.457  10.599  33.234  1.00  0.00     0.210 A 
ATOM     31  H7  UNL     1      17.505  10.100  31.434  1.00  0.00     0.189 HD
HETATM   32  N8  UNL     1      17.913   9.580  34.057  1.00  0.00    -0.062 NA
ENDBRANCH  24  25
ENDBRANCH  23  24
ENDBRANCH  17  23
BRANCH   1  33
HETATM   33  N1  UNL     1      12.994   9.106  39.503  1.00  0.00    -0.234 N 
ATOM     34  H12 UNL     1      12.103   9.065  39.996  1.00  0.00     0.174 HD
ATOM     35  H11 UNL     1      13.554   8.256  39.435  1.00  0.00     0.174 HD
ENDBRANCH   1  33
TORSDOF 4
ENDMDL
MODEL 3
REMARK VINA RESULT: -5.640966497      2.411      4.630
REMARK  4 active torsions:
REMARK  status: ('A' for Active; 'I' for Inactive)
REMARK    1  A    between atoms: N1_1  and  C1_4 
REMARK    2  A    between atoms: C8_20  and  C9_21 
REMARK    3  A    between atoms: C9_21  and  C10_22 
REMARK    4  A    between atoms: C10_22  and  N5_23 
ROOT
HETATM    1  C1  UNL     1      13.196   8.841  39.541  1.00  0.00     0.677 A 
HETATM    2  N2  UNL     1      12.335   9.776  39.976  1.00  0.00    -0.181 N 
ATOM      3  H2  UNL     1      11.616   9.522  40.653  1.00  0.00     0.185 HD
HETATM    4  C2  UNL     1      12.407  11.030  39.535  1.00  0.00     0.131 A 
HETATM    5  S1  UNL     1      11.312  12.091  40.127  1.00  0.00    -0.059 SA
HETATM    6  C3  UNL     1      13.374  11.457  38.601  1.00  0.00     0.064 A 
HETATM    7  C4  UNL     1      13.384  12.764  38.196  1.00  0.00     0.049 A 
HETATM    8  N3  UNL     1      12.474  13.519  38.745  1.00  0.00    -0.398 N 
ATOM      9  H31 UNL     1      12.481  14.493  38.443  1.00  0.00     0.156 HD
ATOM     10  H32 UNL     1      11.820  13.113  39.415  1.00  0.00     0.156 HD
HETATM   11  C5  UNL     1      14.284  13.323  37.273  1.00  0.00    -0.014 A 
HETATM   12  C6  UNL     1      15.272  12.629  36.663  1.00  0.00     0.024 A 
HETATM   13  S2  UNL     1      15.407  10.979  37.051  1.00  0.00    -0.073 SA
HETATM   14  C7  UNL     1      14.226  10.463  38.191  1.00  0.00     0.106 A 
HETATM   15  N4  UNL     1      14.140   9.198  38.647  1.00  0.00    -0.185 N 
ATOM     16  H4  UNL     1      14.801   8.499  38.309  1.00  0.00     0.185 HD
HETATM   17  C8  UNL     1      16.271  13.220  35.679  1.00  0.00     0.227 C 
HETATM   18  N9  UNL     1      16.310  14.638  36.082  1.00  0.00    -0.066 N 
ATOM     19  H91 UNL     1      17.046  15.163  35.609  1.00  0.00     0.278 HD
ATOM     20  H92 UNL     1      16.644  14.769  37.037  1.00  0.00     0.278 HD
HETATM   21  C13 UNL     1      15.009  15.193  35.868  1.00  0.00     0.237 C 
HETATM   22  C14 UNL     1      14.087  14.775  36.969  1.00  0.00     0.069 C 
ENDROOT
BRANCH  17  23
HETATM   23  C9  UNL     1      17.601  12.607  35.849  1.00  0.00     0.059 C 
BRANCH  23  24
HETATM   24  C10 UNL     1      18.499  12.621  34.684  1.00  0.00     0.135 C 
BRANCH  24  25
HETATM   25  N5  UNL     1      18.007  12.113  33.455  1.00  0.00    -0.315 N 
HETATM   26  C11 UNL     1      17.651  12.829  32.354  1.00  0.00     0.202 A 
HETATM   27  N6  UNL     1      17.209  11.983  31.410  1.00  0.00    -0.294 N 
HETATM   28  N7  UNL     1      17.293  10.773  31.917  1.00  0.00    -0.272 N 
ATOM     29  H6  UNL     1      16.874  12.231  30.480  1.00  0.00     0.187 HD
HETATM   30  C12 UNL     1      17.777  10.817  33.165  1.00  0.00     0.210 A 
ATOM     31  H7  UNL     1      17.025   9.919  31.427  1.00  0.00     0.189 HD
HETATM   32  N8  UNL     1      17.995   9.647  33.937  1.00  0.00    -0.062 NA
ENDBRANCH  24  25
ENDBRANCH  23  24
ENDBRANCH  17  23
BRANCH   1  33
HETATM   33  N1  UNL     1      13.134   7.617  39.964  1.00  0.00    -0.234 N 
ATOM     34  H12 UNL     1      12.782   6.883  39.351  1.00  0.00     0.174 HD
ATOM     35  H11 UNL     1      13.434   7.365  40.906  1.00  0.00     0.174 HD
ENDBRANCH   1  33
TORSDOF 4
ENDMDL
MODEL 4
REMARK VINA RESULT: -5.471217770      2.906      4.583
REMARK  4 active torsions:
REMARK  status: ('A' for Active; 'I' for Inactive)
REMARK    1  A    between atoms: N1_1  and  C1_4 
REMARK    2  A    between atoms: C8_20  and  C9_21 
REMARK    3  A    between atoms: C9_21  and  C10_22 
REMARK    4  A    between atoms: C10_22  and  N5_23 
ROOT
HETATM    1  C1  UNL     1      10.040  16.888  35.073  1.00  0.00     0.677 A 
HETATM    2  N2  UNL     1       9.594  16.607  36.308  1.00  0.00    -0.181 N 
ATOM      3  H2  UNL     1       8.642  16.863  36.570  1.00  0.00     0.185 HD
HETATM    4  C2  UNL     1      10.377  15.997  37.196  1.00  0.00     0.131 A 
HETATM    5  S1  UNL     1       9.736  15.701  38.672  1.00  0.00    -0.059 SA
HETATM    6  C3  UNL     1      11.702  15.611  36.908  1.00  0.00     0.064 A 
HETATM    7  C4  UNL     1      12.444  14.988  37.875  1.00  0.00     0.049 A 
HETATM    8  N3  UNL     1      11.825  14.793  39.005  1.00  0.00    -0.398 N 
ATOM      9  H31 UNL     1      12.379  14.328  39.725  1.00  0.00     0.156 HD
ATOM     10  H32 UNL     1      10.861  15.108  39.112  1.00  0.00     0.156 HD
HETATM   11  C5  UNL     1      13.772  14.553  37.726  1.00  0.00    -0.014 A 
HETATM   12  C6  UNL     1      14.494  14.695  36.590  1.00  0.00     0.024 A 
HETATM   13  S2  UNL     1      13.722  15.453  35.278  1.00  0.00    -0.073 SA
HETATM   14  C7  UNL     1      12.106  15.922  35.634  1.00  0.00     0.106 A 
HETATM   15  N4  UNL     1      11.302  16.539  34.747  1.00  0.00    -0.185 N 
ATOM     16  H4  UNL     1      11.653  16.745  33.812  1.00  0.00     0.185 HD
HETATM   17  C8  UNL     1      15.923  14.211  36.403  1.00  0.00     0.227 C 
HETATM   18  N9  UNL     1      16.012  13.101  37.369  1.00  0.00    -0.066 N 
ATOM     19  H91 UNL     1      16.874  12.563  37.277  1.00  0.00     0.278 HD
ATOM     20  H92 UNL     1      15.358  12.345  37.164  1.00  0.00     0.278 HD
HETATM   21  C13 UNL     1      15.836  13.644  38.680  1.00  0.00     0.237 C 
HETATM   22  C14 UNL     1      14.387  13.916  38.933  1.00  0.00     0.069 C 
ENDROOT
BRANCH  17  23
HETATM   23  C9  UNL     1      16.132  13.709  35.032  1.00  0.00     0.059 C 
BRANCH  23  24
HETATM   24  C10 UNL     1      16.727  12.371  34.891  1.00  0.00     0.135 C 
BRANCH  24  25
HETATM   25  N5  UNL     1      17.301  12.023  33.642  1.00  0.00    -0.315 N 
HETATM   26  C11 UNL     1      17.422  12.816  32.544  1.00  0.00     0.202 A 
HETATM   27  N6  UNL     1      17.994  12.108  31.558  1.00  0.00    -0.294 N 
HETATM   28  N7  UNL     1      18.221  10.906  32.037  1.00  0.00    -0.272 N 
ATOM     29  H6  UNL     1      18.210  12.439  30.618  1.00  0.00     0.187 HD
HETATM   30  C12 UNL     1      17.810  10.820  33.309  1.00  0.00     0.210 A 
ATOM     31  H7  UNL     1      18.652  10.144  31.513  1.00  0.00     0.189 HD
HETATM   32  N8  UNL     1      17.962   9.637  34.079  1.00  0.00    -0.062 NA
ENDBRANCH  24  25
ENDBRANCH  23  24
ENDBRANCH  17  23
BRANCH   1  33
HETATM   33  N1  UNL     1       9.286  17.480  34.201  1.00  0.00    -0.234 N 
ATOM     34  H12 UNL     1       8.302  17.227  34.122  1.00  0.00     0.174 HD
ATOM     35  H11 UNL     1       9.654  18.204  33.585  1.00  0.00     0.174 HD
ENDBRANCH   1  33
TORSDOF 4
ENDMDL
MODEL 5
REMARK VINA RESULT: -5.418471674      2.493      4.315
REMARK  4 active torsions:
REMARK  status: ('A' for Active; 'I' for Inactive)
REMARK    1  A    between atoms: N1_1  and  C1_4 
REMARK    2  A    between atoms: C8_20  and  C9_21 
REMARK    3  A    between atoms: C9_21  and  C10_22 
REMARK    4  A    between atoms: C10_22  and  N5_23 
ROOT
HETATM    1  C1  UNL     1      12.152  17.920  35.906  1.00  0.00     0.677 A 
HETATM    2  N2  UNL     1      11.299  17.645  36.908  1.00  0.00    -0.181 N 
ATOM      3  H2  UNL     1      10.557  18.307  37.133  1.00  0.00     0.185 HD
HETATM    4  C2  UNL     1      11.410  16.520  37.611  1.00  0.00     0.131 A 
HETATM    5  S1  UNL     1      10.322  16.283  38.809  1.00  0.00    -0.059 SA
HETATM    6  C3  UNL     1      12.409  15.557  37.359  1.00  0.00     0.064 A 
HETATM    7  C4  UNL     1      12.457  14.425  38.127  1.00  0.00     0.049 A 
HETATM    8  N3  UNL     1      11.532  14.338  39.041  1.00  0.00    -0.398 N 
ATOM      9  H31 UNL     1      11.568  13.494  39.613  1.00  0.00     0.156 HD
ATOM     10  H32 UNL     1      10.851  15.091  39.141  1.00  0.00     0.156 HD
HETATM   11  C5  UNL     1      13.396  13.388  37.988  1.00  0.00    -0.014 A 
HETATM   12  C6  UNL     1      14.382  13.378  37.062  1.00  0.00     0.024 A 
HETATM   13  S2  UNL     1      14.471  14.716  36.017  1.00  0.00    -0.073 SA
HETATM   14  C7  UNL     1      13.251  15.888  36.327  1.00  0.00     0.106 A 
HETATM   15  N4  UNL     1      13.125  17.030  35.625  1.00  0.00    -0.185 N 
ATOM     16  H4  UNL     1      13.779  17.225  34.866  1.00  0.00     0.185 HD
HETATM   17  C8  UNL     1      15.392  12.254  36.882  1.00  0.00     0.227 C 
HETATM   18  N9  UNL     1      14.664  11.085  37.406  1.00  0.00    -0.066 N 
ATOM     19  H91 UNL     1      15.150  10.205  37.230  1.00  0.00     0.278 HD
ATOM     20  H92 UNL     1      13.816  10.878  36.877  1.00  0.00     0.278 HD
HETATM   21  C13 UNL     1      14.410  11.310  38.795  1.00  0.00     0.237 C 
HETATM   22  C14 UNL     1      13.263  12.257  38.960  1.00  0.00     0.069 C 
ENDROOT
BRANCH  17  23
HETATM   23  C9  UNL     1      15.710  12.058  35.455  1.00  0.00     0.059 C 
BRANCH  23  24
HETATM   24  C10 UNL     1      17.125  12.154  35.064  1.00  0.00     0.135 C 
BRANCH  24  25
HETATM   25  N5  UNL     1      17.468  11.863  33.719  1.00  0.00    -0.315 N 
HETATM   26  C11 UNL     1      17.414  12.711  32.657  1.00  0.00     0.202 A 
HETATM   27  N6  UNL     1      17.793  12.048  31.553  1.00  0.00    -0.294 N 
HETATM   28  N7  UNL     1      18.076  10.820  31.927  1.00  0.00    -0.272 N 
ATOM     29  H6  UNL     1      17.851  12.425  30.607  1.00  0.00     0.187 HD
HETATM   30  C12 UNL     1      17.887  10.673  33.245  1.00  0.00     0.210 A 
ATOM     31  H7  UNL     1      18.394  10.081  31.299  1.00  0.00     0.189 HD
HETATM   32  N8  UNL     1      18.145   9.451  33.918  1.00  0.00    -0.062 NA
ENDBRANCH  24  25
ENDBRANCH  23  24
ENDBRANCH  17  23
BRANCH   1  33
HETATM   33  N1  UNL     1      12.052  19.012  35.215  1.00  0.00    -0.234 N 
ATOM     34  H12 UNL     1      11.146  19.468  35.109  1.00  0.00     0.174 HD
ATOM     35  H11 UNL     1      12.867  19.435  34.770  1.00  0.00     0.174 HD
ENDBRANCH   1  33
TORSDOF 4
ENDMDL
