MODEL 1
REMARK VINA RESULT: -8.254250998      0.000      0.000
REMARK  5 active torsions:
REMARK  status: ('A' for Active; 'I' for Inactive)
REMARK    1  A    between atoms: C5_5  and  C6_6 
REMARK       I    between atoms: C6_6  and  N1_8 
REMARK    2  A    between atoms: N2_17  and  C13_18 
REMARK    3  A    between atoms: C13_18  and  C14_19 
REMARK       I    between atoms: C14_19  and  N3_21 
REMARK    4  A    between atoms: N3_21  and  C15_23 
REMARK    5  A    between atoms: C15_23  and  C16_24 
ROOT
HETATM    1  C1  UNL     1      52.979  50.609  35.876  1.00  0.00     0.015 C 
HETATM    2  C2  UNL     1      51.481  50.358  36.043  1.00  0.00     0.020 C 
HETATM    3  C3  UNL     1      51.005  49.252  35.153  1.00  0.00     0.012 C 
HETATM    4  C4  UNL     1      50.082  49.693  34.054  1.00  0.00     0.036 C 
HETATM    5  C5  UNL     1      48.891  50.504  34.592  1.00  0.00     0.180 C 
HETATM    6  N2  UNL     1      49.430  51.574  35.359  1.00  0.00    -0.351 N 
HETATM    7  C20 UNL     1      50.783  51.620  35.666  1.00  0.00     0.069 C 
ENDROOT
BRANCH   5   8
HETATM    8  C6  UNL     1      48.161  51.032  33.429  1.00  0.00     0.243 C 
HETATM    9  O1  UNL     1      48.825  51.852  32.699  1.00  0.00    -0.271 OA
HETATM   10  N1  UNL     1      46.831  50.751  33.019  1.00  0.00    -0.340 N 
HETATM   11  C7  UNL     1      46.383  51.398  31.802  1.00  0.00     0.127 C 
HETATM   12  C11 UNL     1      45.910  49.906  33.715  1.00  0.00     0.155 C 
HETATM   13  C8  UNL     1      45.664  50.476  30.867  1.00  0.00     0.026 C 
HETATM   14  C9  UNL     1      44.746  49.526  31.590  1.00  0.00     0.083 C 
HETATM   15  C10 UNL     1      44.568  49.920  33.031  1.00  0.00     0.263 C 
HETATM   16  F1  UNL     1      43.833  48.870  33.616  1.00  0.00    -0.204 F 
HETATM   17  F2  UNL     1      43.850  51.052  33.237  1.00  0.00    -0.204 F 
HETATM   18  C12 UNL     1      45.637  50.341  35.141  1.00  0.00     0.038 C 
ENDBRANCH   5   8
BRANCH   6  19
HETATM   19  C13 UNL     1      48.526  52.144  36.256  1.00  0.00     0.165 C 
BRANCH  19  20
HETATM   20  C14 UNL     1      48.561  51.730  37.655  1.00  0.00     0.256 C 
HETATM   21  O2  UNL     1      49.257  52.339  38.486  1.00  0.00    -0.267 OA
HETATM   22  N3  UNL     1      47.798  50.618  38.092  1.00  0.00    -0.356 N 
ATOM     23  H3  UNL     1      47.222  50.113  37.418  1.00  0.00     0.162 HD
BRANCH  22  24
HETATM   24  C15 UNL     1      47.815  50.184  39.468  1.00  0.00     0.132 C 
BRANCH  24  25
HETATM   25  C16 UNL     1      47.126  48.866  39.668  1.00  0.00    -0.028 A 
HETATM   26  C17 UNL     1      47.055  47.965  38.444  1.00  0.00     0.016 C 
HETATM   27  C18 UNL     1      46.159  48.603  40.734  1.00  0.00     0.011 A 
HETATM   28  C19 UNL     1      47.544  48.180  40.976  1.00  0.00     0.011 A 
ENDBRANCH  24  25
ENDBRANCH  22  24
ENDBRANCH  19  20
ENDBRANCH   6  19
TORSDOF 5
ENDMDL
MODEL 2
REMARK VINA RESULT: -7.912384044      3.499      5.897
REMARK  5 active torsions:
REMARK  status: ('A' for Active; 'I' for Inactive)
REMARK    1  A    between atoms: C5_5  and  C6_6 
REMARK       I    between atoms: C6_6  and  N1_8 
REMARK    2  A    between atoms: N2_17  and  C13_18 
REMARK    3  A    between atoms: C13_18  and  C14_19 
REMARK       I    between atoms: C14_19  and  N3_21 
REMARK    4  A    between atoms: N3_21  and  C15_23 
REMARK    5  A    between atoms: C15_23  and  C16_24 
ROOT
HETATM    1  C1  UNL     1      46.056  50.779  33.056  1.00  0.00     0.015 C 
HETATM    2  C2  UNL     1      47.320  51.499  33.522  1.00  0.00     0.020 C 
HETATM    3  C3  UNL     1      48.503  51.137  32.679  1.00  0.00     0.012 C 
HETATM    4  C4  UNL     1      49.554  50.340  33.394  1.00  0.00     0.036 C 
HETATM    5  C5  UNL     1      50.008  51.021  34.697  1.00  0.00     0.180 C 
HETATM    6  N2  UNL     1      48.838  51.260  35.470  1.00  0.00    -0.351 N 
HETATM    7  C20 UNL     1      47.574  51.070  34.926  1.00  0.00     0.069 C 
ENDROOT
BRANCH   5   8
HETATM    8  C6  UNL     1      50.894  50.079  35.397  1.00  0.00     0.243 C 
HETATM    9  O1  UNL     1      50.301  49.269  36.196  1.00  0.00    -0.271 OA
HETATM   10  N1  UNL     1      52.305  49.956  35.301  1.00  0.00    -0.340 N 
HETATM   11  C7  UNL     1      52.915  48.905  36.093  1.00  0.00     0.127 C 
HETATM   12  C11 UNL     1      53.158  50.787  34.510  1.00  0.00     0.155 C 
HETATM   13  C8  UNL     1      53.926  48.100  35.338  1.00  0.00     0.026 C 
HETATM   14  C9  UNL     1      54.783  48.952  34.440  1.00  0.00     0.083 C 
HETATM   15  C10 UNL     1      54.602  50.417  34.729  1.00  0.00     0.263 C 
HETATM   16  F1  UNL     1      55.323  51.088  33.724  1.00  0.00    -0.204 F 
HETATM   17  F2  UNL     1      55.111  50.840  35.914  1.00  0.00    -0.204 F 
HETATM   18  C12 UNL     1      53.067  52.261  34.853  1.00  0.00     0.038 C 
ENDBRANCH   5   8
BRANCH   6  19
HETATM   19  C13 UNL     1      48.997  52.232  36.458  1.00  0.00     0.165 C 
BRANCH  19  20
HETATM   20  C14 UNL     1      48.759  51.870  37.851  1.00  0.00     0.256 C 
HETATM   21  O2  UNL     1      49.170  52.589  38.780  1.00  0.00    -0.267 OA
HETATM   22  N3  UNL     1      48.051  50.685  38.173  1.00  0.00    -0.356 N 
ATOM     23  H3  UNL     1      47.707  50.090  37.418  1.00  0.00     0.162 HD
BRANCH  22  24
HETATM   24  C15 UNL     1      47.803  50.300  39.541  1.00  0.00     0.132 C 
BRANCH  24  25
HETATM   25  C16 UNL     1      47.112  48.973  39.653  1.00  0.00    -0.028 A 
HETATM   26  C17 UNL     1      47.052  48.150  38.375  1.00  0.00     0.016 C 
HETATM   27  C18 UNL     1      46.136  48.644  40.692  1.00  0.00     0.011 A 
HETATM   28  C19 UNL     1      47.519  48.207  40.920  1.00  0.00     0.011 A 
ENDBRANCH  24  25
ENDBRANCH  22  24
ENDBRANCH  19  20
ENDBRANCH   6  19
TORSDOF 5
ENDMDL
MODEL 3
REMARK VINA RESULT: -7.457572179      1.709      2.185
REMARK  5 active torsions:
REMARK  status: ('A' for Active; 'I' for Inactive)
REMARK    1  A    between atoms: C5_5  and  C6_6 
REMARK       I    between atoms: C6_6  and  N1_8 
REMARK    2  A    between atoms: N2_17  and  C13_18 
REMARK    3  A    between atoms: C13_18  and  C14_19 
REMARK       I    between atoms: C14_19  and  N3_21 
REMARK    4  A    between atoms: N3_21  and  C15_23 
REMARK    5  A    between atoms: C15_23  and  C16_24 
ROOT
HETATM    1  C1  UNL     1      51.902  49.447  34.502  1.00  0.00     0.015 C 
HETATM    2  C2  UNL     1      50.382  49.296  34.463  1.00  0.00     0.020 C 
HETATM    3  C3  UNL     1      49.906  48.865  33.111  1.00  0.00     0.012 C 
HETATM    4  C4  UNL     1      49.106  49.900  32.375  1.00  0.00     0.036 C 
HETATM    5  C5  UNL     1      47.933  50.429  33.217  1.00  0.00     0.180 C 
HETATM    6  N2  UNL     1      48.479  50.887  34.448  1.00  0.00    -0.351 N 
HETATM    7  C20 UNL     1      49.803  50.632  34.779  1.00  0.00     0.069 C 
ENDROOT
BRANCH   5   8
HETATM    8  C6  UNL     1      47.336  51.552  32.478  1.00  0.00     0.243 C 
HETATM    9  O1  UNL     1      48.083  52.590  32.374  1.00  0.00    -0.271 OA
HETATM   10  N1  UNL     1      46.053  51.630  31.875  1.00  0.00    -0.340 N 
HETATM   11  C7  UNL     1      45.743  52.864  31.180  1.00  0.00     0.127 C 
HETATM   12  C11 UNL     1      45.054  50.608  31.917  1.00  0.00     0.155 C 
HETATM   13  C8  UNL     1      45.116  52.650  29.838  1.00  0.00     0.026 C 
HETATM   14  C9  UNL     1      44.115  51.525  29.845  1.00  0.00     0.083 C 
HETATM   15  C10 UNL     1      43.791  51.082  31.246  1.00  0.00     0.263 C 
HETATM   16  F1  UNL     1      42.986  49.937  31.098  1.00  0.00    -0.204 F 
HETATM   17  F2  UNL     1      43.069  51.966  31.979  1.00  0.00    -0.204 F 
HETATM   18  C12 UNL     1      44.637  50.215  33.320  1.00  0.00     0.038 C 
ENDBRANCH   5   8
BRANCH   6  19
HETATM   19  C13 UNL     1      47.545  50.995  35.480  1.00  0.00     0.165 C 
BRANCH  19  20
HETATM   20  C14 UNL     1      47.244  49.818  36.288  1.00  0.00     0.256 C 
HETATM   21  O2  UNL     1      46.635  48.847  35.805  1.00  0.00    -0.267 OA
HETATM   22  N3  UNL     1      47.645  49.761  37.647  1.00  0.00    -0.356 N 
ATOM     23  H3  UNL     1      48.147  50.552  38.051  1.00  0.00     0.162 HD
BRANCH  22  24
HETATM   24  C15 UNL     1      47.359  48.612  38.472  1.00  0.00     0.132 C 
BRANCH  24  25
HETATM   25  C16 UNL     1      47.360  48.937  39.937  1.00  0.00    -0.028 A 
HETATM   26  C17 UNL     1      47.884  50.316  40.308  1.00  0.00     0.016 C 
HETATM   27  C18 UNL     1      47.356  47.929  40.997  1.00  0.00     0.011 A 
HETATM   28  C19 UNL     1      46.058  48.510  40.631  1.00  0.00     0.011 A 
ENDBRANCH  24  25
ENDBRANCH  22  24
ENDBRANCH  19  20
ENDBRANCH   6  19
TORSDOF 5
ENDMDL
MODEL 4
REMARK VINA RESULT: -7.061525922      7.410      9.200
REMARK  5 active torsions:
REMARK  status: ('A' for Active; 'I' for Inactive)
REMARK    1  A    between atoms: C5_5  and  C6_6 
REMARK       I    between atoms: C6_6  and  N1_8 
REMARK    2  A    between atoms: N2_17  and  C13_18 
REMARK    3  A    between atoms: C13_18  and  C14_19 
REMARK       I    between atoms: C14_19  and  N3_21 
REMARK    4  A    between atoms: N3_21  and  C15_23 
REMARK    5  A    between atoms: C15_23  and  C16_24 
ROOT
HETATM    1  C1  UNL     1      57.862  44.740  36.851  1.00  0.00     0.015 C 
HETATM    2  C2  UNL     1      56.993  45.720  36.065  1.00  0.00     0.020 C 
HETATM    3  C3  UNL     1      55.544  45.352  36.137  1.00  0.00     0.012 C 
HETATM    4  C4  UNL     1      54.953  44.894  34.836  1.00  0.00     0.036 C 
HETATM    5  C5  UNL     1      55.197  45.907  33.704  1.00  0.00     0.180 C 
HETATM    6  N2  UNL     1      56.599  46.143  33.652  1.00  0.00    -0.351 N 
HETATM    7  C20 UNL     1      57.440  45.657  34.644  1.00  0.00     0.069 C 
ENDROOT
BRANCH   5   8
HETATM    8  C6  UNL     1      54.742  45.282  32.453  1.00  0.00     0.243 C 
HETATM    9  O1  UNL     1      55.655  44.673  31.788  1.00  0.00    -0.271 OA
HETATM   10  N1  UNL     1      53.436  45.270  31.896  1.00  0.00    -0.340 N 
HETATM   11  C7  UNL     1      53.274  44.541  30.653  1.00  0.00     0.127 C 
HETATM   12  C11 UNL     1      52.292  45.926  32.449  1.00  0.00     0.155 C 
HETATM   13  C8  UNL     1      52.067  43.656  30.634  1.00  0.00     0.026 C 
HETATM   14  C9  UNL     1      50.871  44.302  31.283  1.00  0.00     0.083 C 
HETATM   15  C10 UNL     1      51.105  45.767  31.536  1.00  0.00     0.263 C 
HETATM   16  F1  UNL     1      49.991  46.198  32.283  1.00  0.00    -0.204 F 
HETATM   17  F2  UNL     1      51.147  46.546  30.427  1.00  0.00    -0.204 F 
HETATM   18  C12 UNL     1      52.467  47.422  32.621  1.00  0.00     0.038 C 
ENDBRANCH   5   8
BRANCH   6  19
HETATM   19  C13 UNL     1      56.954  47.324  33.000  1.00  0.00     0.165 C 
BRANCH  19  20
HETATM   20  C14 UNL     1      56.390  48.586  33.464  1.00  0.00     0.256 C 
HETATM   21  O2  UNL     1      55.589  49.228  32.762  1.00  0.00    -0.267 OA
HETATM   22  N3  UNL     1      56.747  49.106  34.734  1.00  0.00    -0.356 N 
ATOM     23  H3  UNL     1      57.402  48.586  35.319  1.00  0.00     0.162 HD
BRANCH  22  24
HETATM   24  C15 UNL     1      56.208  50.353  35.219  1.00  0.00     0.132 C 
BRANCH  24  25
HETATM   25  C16 UNL     1      57.121  51.517  34.966  1.00  0.00    -0.028 A 
HETATM   26  C17 UNL     1      58.591  51.174  34.777  1.00  0.00     0.016 C 
HETATM   27  C18 UNL     1      56.812  52.896  35.344  1.00  0.00     0.011 A 
HETATM   28  C19 UNL     1      56.534  52.512  33.955  1.00  0.00     0.011 A 
ENDBRANCH  24  25
ENDBRANCH  22  24
ENDBRANCH  19  20
ENDBRANCH   6  19
TORSDOF 5
ENDMDL
MODEL 5
REMARK VINA RESULT: -6.907963034      6.114      9.362
REMARK  5 active torsions:
REMARK  status: ('A' for Active; 'I' for Inactive)
REMARK    1  A    between atoms: C5_5  and  C6_6 
REMARK       I    between atoms: C6_6  and  N1_8 
REMARK    2  A    between atoms: N2_17  and  C13_18 
REMARK    3  A    between atoms: C13_18  and  C14_19 
REMARK       I    between atoms: C14_19  and  N3_21 
REMARK    4  A    between atoms: N3_21  and  C15_23 
REMARK    5  A    between atoms: C15_23  and  C16_24 
ROOT
HETATM    1  C1  UNL     1      57.899  53.820  33.858  1.00  0.00     0.015 C 
HETATM    2  C2  UNL     1      56.843  52.720  33.943  1.00  0.00     0.020 C 
HETATM    3  C3  UNL     1      56.984  51.917  35.199  1.00  0.00     0.012 C 
HETATM    4  C4  UNL     1      57.417  50.497  34.983  1.00  0.00     0.036 C 
HETATM    5  C5  UNL     1      56.516  49.766  33.973  1.00  0.00     0.180 C 
HETATM    6  N2  UNL     1      56.498  50.552  32.788  1.00  0.00    -0.351 N 
HETATM    7  C20 UNL     1      57.051  51.825  32.769  1.00  0.00     0.069 C 
ENDROOT
BRANCH   5   8
HETATM    8  C6  UNL     1      57.132  48.458  33.704  1.00  0.00     0.243 C 
HETATM    9  O1  UNL     1      58.026  48.458  32.784  1.00  0.00    -0.271 OA
HETATM   10  N1  UNL     1      56.863  47.210  34.327  1.00  0.00    -0.340 N 
HETATM   11  C7  UNL     1      57.654  46.082  33.876  1.00  0.00     0.127 C 
HETATM   12  C11 UNL     1      55.875  46.983  35.336  1.00  0.00     0.155 C 
HETATM   13  C8  UNL     1      58.190  45.244  34.994  1.00  0.00     0.026 C 
HETATM   14  C9  UNL     1      57.188  45.058  36.103  1.00  0.00     0.083 C 
HETATM   15  C10 UNL     1      55.817  45.520  35.691  1.00  0.00     0.263 C 
HETATM   16  F1  UNL     1      55.031  45.444  36.858  1.00  0.00    -0.204 F 
HETATM   17  F2  UNL     1      55.200  44.746  34.763  1.00  0.00    -0.204 F 
HETATM   18  C12 UNL     1      54.467  47.348  34.908  1.00  0.00     0.038 C 
ENDBRANCH   5   8
BRANCH   6  19
HETATM   19  C13 UNL     1      55.421  50.282  31.942  1.00  0.00     0.165 C 
BRANCH  19  20
HETATM   20  C14 UNL     1      54.077  50.224  32.504  1.00  0.00     0.256 C 
HETATM   21  O2  UNL     1      53.326  49.260  32.274  1.00  0.00    -0.267 OA
HETATM   22  N3  UNL     1      53.600  51.274  33.329  1.00  0.00    -0.356 N 
ATOM     23  H3  UNL     1      54.209  52.068  33.526  1.00  0.00     0.162 HD
BRANCH  22  24
HETATM   24  C15 UNL     1      52.274  51.245  33.898  1.00  0.00     0.132 C 
BRANCH  24  25
HETATM   25  C16 UNL     1      52.234  50.579  35.242  1.00  0.00    -0.028 A 
HETATM   26  C17 UNL     1      53.471  50.765  36.108  1.00  0.00     0.016 C 
HETATM   27  C18 UNL     1      51.369  49.445  35.567  1.00  0.00     0.011 A 
HETATM   28  C19 UNL     1      50.888  50.777  35.953  1.00  0.00     0.011 A 
ENDBRANCH  24  25
ENDBRANCH  22  24
ENDBRANCH  19  20
ENDBRANCH   6  19
TORSDOF 5
ENDMDL
