MODEL 1
REMARK VINA RESULT: -5.055284888      0.000      0.000
REMARK  2 active torsions:
REMARK  status: ('A' for Active; 'I' for Inactive)
REMARK    1  A    between atoms: C2_2  and  O1_3 
REMARK    2  A    between atoms: N1_10  and  O3_11 
ROOT
HETATM    1  C1  UNL     1       8.762   5.663  43.388  1.00  0.00     0.074 C 
HETATM    2  C2  UNL     1       7.819   6.583  44.086  1.00  0.00     0.165 C 
HETATM    3  C3  UNL     1       7.575   7.765  43.157  1.00  0.00     0.137 C 
HETATM    4  S1  UNL     1       6.449   8.958  43.915  1.00  0.00    -0.155 SA
HETATM    5  C4  UNL     1       6.695   8.877  45.710  1.00  0.00     0.179 C 
HETATM    6  C5  UNL     1       7.959   8.171  46.021  1.00  0.00     0.255 C 
HETATM    7  O2  UNL     1       8.714   8.636  46.910  1.00  0.00    -0.270 OA
HETATM    8  N1  UNL     1       8.358   6.989  45.357  1.00  0.00    -0.191 N 
ENDROOT
BRANCH   2   9
HETATM    9  O1  UNL     1       6.616   5.896  44.301  1.00  0.00    -0.368 OA
ATOM     10  H1  UNL     1       6.008   6.489  44.727  1.00  0.00     0.212 HD
ENDBRANCH   2   9
BRANCH   8  11
HETATM   11  O3  UNL     1       9.288   6.214  45.952  1.00  0.00    -0.282 OA
ATOM     12  H3  UNL     1      10.040   5.925  45.449  1.00  0.00     0.245 HD
ENDBRANCH   8  11
TORSDOF 2
ENDMDL
MODEL 2
REMARK VINA RESULT: -4.987837902      3.321      3.995
REMARK  2 active torsions:
REMARK  status: ('A' for Active; 'I' for Inactive)
REMARK    1  A    between atoms: C2_2  and  O1_3 
REMARK    2  A    between atoms: N1_10  and  O3_11 
ROOT
HETATM    1  C1  UNL     1      11.644   4.846  40.541  1.00  0.00     0.074 C 
HETATM    2  C2  UNL     1      10.310   5.312  41.016  1.00  0.00     0.165 C 
HETATM    3  C3  UNL     1      10.022   6.633  40.315  1.00  0.00     0.137 C 
HETATM    4  S1  UNL     1       8.423   7.301  40.832  1.00  0.00    -0.155 SA
HETATM    5  C4  UNL     1       8.133   6.762  42.540  1.00  0.00     0.179 C 
HETATM    6  C5  UNL     1       9.394   6.272  43.142  1.00  0.00     0.255 C 
HETATM    7  O2  UNL     1       9.677   6.609  44.318  1.00  0.00    -0.270 OA
HETATM    8  N1  UNL     1      10.301   5.439  42.449  1.00  0.00    -0.191 N 
ENDROOT
BRANCH   2   9
HETATM    9  O1  UNL     1       9.354   4.359  40.637  1.00  0.00    -0.368 OA
ATOM     10  H1  UNL     1       8.501   4.665  40.925  1.00  0.00     0.212 HD
ENDBRANCH   2   9
BRANCH   8  11
HETATM   11  O3  UNL     1      11.193   4.735  43.175  1.00  0.00    -0.282 OA
ATOM     12  H3  UNL     1      10.954   3.870  43.487  1.00  0.00     0.245 HD
ENDBRANCH   8  11
TORSDOF 2
ENDMDL
MODEL 3
REMARK VINA RESULT: -4.913222988      3.006      3.661
REMARK  2 active torsions:
REMARK  status: ('A' for Active; 'I' for Inactive)
REMARK    1  A    between atoms: C2_2  and  O1_3 
REMARK    2  A    between atoms: N1_10  and  O3_11 
ROOT
HETATM    1  C1  UNL     1       8.022   4.569  40.106  1.00  0.00     0.074 C 
HETATM    2  C2  UNL     1       8.073   5.027  41.524  1.00  0.00     0.165 C 
HETATM    3  C3  UNL     1       7.141   6.225  41.642  1.00  0.00     0.137 C 
HETATM    4  S1  UNL     1       7.137   6.874  43.329  1.00  0.00    -0.155 SA
HETATM    5  C4  UNL     1       8.775   6.556  44.041  1.00  0.00     0.179 C 
HETATM    6  C5  UNL     1       9.739   6.216  42.970  1.00  0.00     0.255 C 
HETATM    7  O2  UNL     1      10.888   6.722  43.004  1.00  0.00    -0.270 OA
HETATM    8  N1  UNL     1       9.424   5.345  41.903  1.00  0.00    -0.191 N 
ENDROOT
BRANCH   2   9
HETATM    9  O1  UNL     1       7.606   3.985  42.337  1.00  0.00    -0.368 OA
ATOM     10  H1  UNL     1       8.279   3.315  42.376  1.00  0.00     0.212 HD
ENDBRANCH   2   9
BRANCH   8  11
HETATM   11  O3  UNL     1      10.445   4.791  41.218  1.00  0.00    -0.282 OA
ATOM     12  H3  UNL     1      11.262   5.271  41.138  1.00  0.00     0.245 HD
ENDBRANCH   8  11
TORSDOF 2
ENDMDL
MODEL 4
REMARK VINA RESULT: -4.723579241      3.815      5.471
REMARK  2 active torsions:
REMARK  status: ('A' for Active; 'I' for Inactive)
REMARK    1  A    between atoms: C2_2  and  O1_3 
REMARK    2  A    between atoms: N1_10  and  O3_11 
ROOT
HETATM    1  C1  UNL     1       7.225   5.739  43.114  1.00  0.00     0.074 C 
HETATM    2  C2  UNL     1       8.481   5.475  42.355  1.00  0.00     0.165 C 
HETATM    3  C3  UNL     1       9.121   6.826  42.065  1.00  0.00     0.137 C 
HETATM    4  S1  UNL     1      10.655   6.624  41.129  1.00  0.00    -0.155 SA
HETATM    5  C4  UNL     1      10.478   5.138  40.105  1.00  0.00     0.179 C 
HETATM    6  C5  UNL     1       9.055   4.736  40.030  1.00  0.00     0.255 C 
HETATM    7  O2  UNL     1       8.580   4.382  38.923  1.00  0.00    -0.270 OA
HETATM    8  N1  UNL     1       8.199   4.734  41.155  1.00  0.00    -0.191 N 
ENDROOT
BRANCH   2   9
HETATM    9  O1  UNL     1       9.332   4.715  43.169  1.00  0.00    -0.368 OA
ATOM     10  H1  UNL     1      10.194   5.114  43.151  1.00  0.00     0.212 HD
ENDBRANCH   2   9
BRANCH   8  11
HETATM   11  O3  UNL     1       7.070   3.999  41.088  1.00  0.00    -0.282 OA
ATOM     12  H3  UNL     1       6.994   3.329  40.418  1.00  0.00     0.245 HD
ENDBRANCH   8  11
TORSDOF 2
ENDMDL
MODEL 5
REMARK VINA RESULT: -4.658255504      3.214      4.380
REMARK  2 active torsions:
REMARK  status: ('A' for Active; 'I' for Inactive)
REMARK    1  A    between atoms: C2_2  and  O1_3 
REMARK    2  A    between atoms: N1_10  and  O3_11 
ROOT
HETATM    1  C1  UNL     1       8.307   6.759  44.333  1.00  0.00     0.074 C 
HETATM    2  C2  UNL     1       8.825   6.889  42.941  1.00  0.00     0.165 C 
HETATM    3  C3  UNL     1       7.815   6.212  42.022  1.00  0.00     0.137 C 
HETATM    4  S1  UNL     1       8.355   6.299  40.299  1.00  0.00    -0.155 SA
HETATM    5  C4  UNL     1      10.168   6.298  40.293  1.00  0.00     0.179 C 
HETATM    6  C5  UNL     1      10.682   5.859  41.610  1.00  0.00     0.255 C 
HETATM    7  O2  UNL     1      11.644   5.053  41.650  1.00  0.00    -0.270 OA
HETATM    8  N1  UNL     1      10.137   6.308  42.834  1.00  0.00    -0.191 N 
ENDROOT
BRANCH   2   9
HETATM    9  O1  UNL     1       8.904   8.254  42.630  1.00  0.00    -0.368 OA
ATOM     10  H1  UNL     1       9.197   8.336  41.729  1.00  0.00     0.212 HD
ENDBRANCH   2   9
BRANCH   8  11
HETATM   11  O3  UNL     1      10.890   6.183  43.945  1.00  0.00    -0.282 OA
ATOM     12  H3  UNL     1      10.944   6.913  44.552  1.00  0.00     0.245 HD
ENDBRANCH   8  11
TORSDOF 2
ENDMDL
