MODEL 1
REMARK VINA RESULT: -6.445934617      0.000      0.000
REMARK  3 active torsions:
REMARK  status: ('A' for Active; 'I' for Inactive)
REMARK    1  A    between atoms: O1_1  and  N1_3 
REMARK    2  A    between atoms: C7_12  and  N3_13 
REMARK    3  A    between atoms: N3_13  and  O2_14 
ROOT
HETATM    1  N1  UNL     1       6.436   9.998  47.179  1.00  0.00    -0.273 N 
ATOM      2  H1  UNL     1       7.043   9.407  47.748  1.00  0.00     0.193 HD
HETATM    3  C1  UNL     1       6.658  10.038  45.937  1.00  0.00     0.066 C 
HETATM    4  C2  UNL     1       5.918  10.815  44.935  1.00  0.00     0.065 C 
HETATM    5  C3  UNL     1       6.718  12.037  44.604  1.00  0.00     0.014 C 
HETATM    6  C4  UNL     1       7.986  11.761  43.860  1.00  0.00     0.031 C 
HETATM    7  C5  UNL     1       8.022  10.467  43.131  1.00  0.00     0.275 C 
HETATM    8  N2  UNL     1       7.305   9.390  43.791  1.00  0.00     0.116 N 
HETATM    9  C6  UNL     1       5.909   9.814  43.775  1.00  0.00     0.285 C 
HETATM   10  C7  UNL     1       7.696   9.332  45.184  1.00  0.00     0.389 C 
ENDROOT
BRANCH   1  11
HETATM   11  O1  UNL     1       5.441  10.689  47.819  1.00  0.00    -0.290 OA
ATOM     12  H1  UNL     1       5.560  11.204  48.609  1.00  0.00     0.244 HD
ENDBRANCH   1  11
BRANCH  10  13
HETATM   13  N3  UNL     1       7.928   7.986  45.619  1.00  0.00    -0.061 NA
BRANCH  13  14
HETATM   14  O2  UNL     1       8.657   7.877  46.720  1.00  0.00    -0.294 OA
ATOM     15  H2  UNL     1       8.157   7.844  47.526  1.00  0.00     0.238 HD
ENDBRANCH  13  14
ENDBRANCH  10  13
TORSDOF 3
ENDMDL
MODEL 2
REMARK VINA RESULT: -5.790245267      2.166      2.627
REMARK  3 active torsions:
REMARK  status: ('A' for Active; 'I' for Inactive)
REMARK    1  A    between atoms: O1_1  and  N1_3 
REMARK    2  A    between atoms: C7_12  and  N3_13 
REMARK    3  A    between atoms: N3_13  and  O2_14 
ROOT
HETATM    1  N1  UNL     1       7.948   8.545  46.614  1.00  0.00    -0.273 N 
ATOM      2  H1  UNL     1       8.929   8.473  46.882  1.00  0.00     0.193 HD
HETATM    3  C1  UNL     1       7.610   8.066  45.495  1.00  0.00     0.066 C 
HETATM    4  C2  UNL     1       6.265   8.059  44.910  1.00  0.00     0.065 C 
HETATM    5  C3  UNL     1       6.191   9.156  43.892  1.00  0.00     0.014 C 
HETATM    6  C4  UNL     1       7.025   8.922  42.673  1.00  0.00     0.031 C 
HETATM    7  C5  UNL     1       7.371   7.503  42.406  1.00  0.00     0.275 C 
HETATM    8  N2  UNL     1       7.574   6.703  43.602  1.00  0.00     0.116 N 
HETATM    9  C6  UNL     1       6.267   6.676  44.251  1.00  0.00     0.285 C 
HETATM   10  C7  UNL     1       8.463   7.403  44.506  1.00  0.00     0.389 C 
ENDROOT
BRANCH   1  11
HETATM   11  O1  UNL     1       7.092   9.155  47.494  1.00  0.00    -0.290 OA
ATOM     12  H1  UNL     1       6.436   8.705  48.012  1.00  0.00     0.244 HD
ENDBRANCH   1  11
BRANCH  10  13
HETATM   13  N3  UNL     1       9.450   6.529  45.069  1.00  0.00    -0.061 NA
BRANCH  13  14
HETATM   14  O2  UNL     1       9.122   6.002  46.238  1.00  0.00    -0.294 OA
ATOM     15  H2  UNL     1       9.844   5.608  46.713  1.00  0.00     0.238 HD
ENDBRANCH  13  14
ENDBRANCH  10  13
TORSDOF 3
ENDMDL
MODEL 3
REMARK VINA RESULT: -5.770947115      1.582      3.274
REMARK  3 active torsions:
REMARK  status: ('A' for Active; 'I' for Inactive)
REMARK    1  A    between atoms: O1_1  and  N1_3 
REMARK    2  A    between atoms: C7_12  and  N3_13 
REMARK    3  A    between atoms: N3_13  and  O2_14 
ROOT
HETATM    1  N1  UNL     1       6.617   9.603  47.097  1.00  0.00    -0.273 N 
ATOM      2  H1  UNL     1       6.098   9.744  47.964  1.00  0.00     0.193 HD
HETATM    3  C1  UNL     1       6.371  10.382  46.135  1.00  0.00     0.066 C 
HETATM    4  C2  UNL     1       6.992  10.363  44.806  1.00  0.00     0.065 C 
HETATM    5  C3  UNL     1       6.040   9.706  43.853  1.00  0.00     0.014 C 
HETATM    6  C4  UNL     1       4.804  10.500  43.571  1.00  0.00     0.031 C 
HETATM    7  C5  UNL     1       4.917  11.958  43.829  1.00  0.00     0.275 C 
HETATM    8  N2  UNL     1       5.773  12.301  44.951  1.00  0.00     0.116 N 
HETATM    9  C6  UNL     1       7.105  11.868  44.542  1.00  0.00     0.285 C 
HETATM   10  C7  UNL     1       5.416  11.492  46.097  1.00  0.00     0.389 C 
ENDROOT
BRANCH   1  11
HETATM   11  O1  UNL     1       7.528   8.580  47.063  1.00  0.00    -0.290 OA
ATOM     12  H1  UNL     1       8.341   8.595  46.570  1.00  0.00     0.244 HD
ENDBRANCH   1  11
BRANCH  10  13
HETATM   13  N3  UNL     1       5.360  12.265  47.303  1.00  0.00    -0.061 NA
BRANCH  13  14
HETATM   14  O2  UNL     1       4.986  11.588  48.378  1.00  0.00    -0.294 OA
ATOM     15  H2  UNL     1       4.102  11.243  48.343  1.00  0.00     0.238 HD
ENDBRANCH  13  14
ENDBRANCH  10  13
TORSDOF 3
ENDMDL
MODEL 4
REMARK VINA RESULT: -5.765077354      5.208      5.804
REMARK  3 active torsions:
REMARK  status: ('A' for Active; 'I' for Inactive)
REMARK    1  A    between atoms: O1_1  and  N1_3 
REMARK    2  A    between atoms: C7_12  and  N3_13 
REMARK    3  A    between atoms: N3_13  and  O2_14 
ROOT
HETATM    1  N1  UNL     1       8.410   4.863  42.689  1.00  0.00    -0.273 N 
ATOM      2  H1  UNL     1       8.688   4.726  43.661  1.00  0.00     0.193 HD
HETATM    3  C1  UNL     1       8.927   5.830  42.065  1.00  0.00     0.066 C 
HETATM    4  C2  UNL     1       8.675   6.214  40.671  1.00  0.00     0.065 C 
HETATM    5  C3  UNL     1       7.731   7.378  40.669  1.00  0.00     0.014 C 
HETATM    6  C4  UNL     1       8.315   8.646  41.205  1.00  0.00     0.031 C 
HETATM    7  C5  UNL     1       9.798   8.722  41.173  1.00  0.00     0.275 C 
HETATM    8  N2  UNL     1      10.466   7.451  41.396  1.00  0.00     0.116 N 
HETATM    9  C6  UNL     1      10.087   6.632  40.249  1.00  0.00     0.285 C 
HETATM   10  C7  UNL     1       9.900   6.806  42.561  1.00  0.00     0.389 C 
ENDROOT
BRANCH   1  11
HETATM   11  O1  UNL     1       7.501   3.985  42.159  1.00  0.00    -0.290 OA
ATOM     12  H1  UNL     1       7.178   3.207  42.599  1.00  0.00     0.244 HD
ENDBRANCH   1  11
BRANCH  10  13
HETATM   13  N3  UNL     1      10.912   6.250  43.411  1.00  0.00    -0.061 NA
BRANCH  13  14
HETATM   14  O2  UNL     1      11.289   5.021  43.093  1.00  0.00    -0.294 OA
ATOM     15  H2  UNL     1      10.629   4.354  43.238  1.00  0.00     0.238 HD
ENDBRANCH  13  14
ENDBRANCH  10  13
TORSDOF 3
ENDMDL
MODEL 5
REMARK VINA RESULT: -5.685145508      5.196      6.564
REMARK  3 active torsions:
REMARK  status: ('A' for Active; 'I' for Inactive)
REMARK    1  A    between atoms: O1_1  and  N1_3 
REMARK    2  A    between atoms: C7_12  and  N3_13 
REMARK    3  A    between atoms: N3_13  and  O2_14 
ROOT
HETATM    1  N1  UNL     1      10.035   4.732  40.491  1.00  0.00    -0.273 N 
ATOM      2  H1  UNL     1      10.741   4.056  40.779  1.00  0.00     0.193 HD
HETATM    3  C1  UNL     1       9.532   5.469  41.384  1.00  0.00     0.066 C 
HETATM    4  C2  UNL     1       8.507   6.503  41.198  1.00  0.00     0.065 C 
HETATM    5  C3  UNL     1       7.189   5.940  41.635  1.00  0.00     0.014 C 
HETATM    6  C4  UNL     1       7.078   5.701  43.107  1.00  0.00     0.031 C 
HETATM    7  C5  UNL     1       8.015   6.490  43.947  1.00  0.00     0.275 C 
HETATM    8  N2  UNL     1       9.310   6.728  43.335  1.00  0.00     0.116 N 
HETATM    9  C6  UNL     1       9.019   7.565  42.176  1.00  0.00     0.285 C 
HETATM   10  C7  UNL     1       9.836   5.483  42.816  1.00  0.00     0.389 C 
ENDROOT
BRANCH   1  11
HETATM   11  O1  UNL     1       9.701   4.773  39.162  1.00  0.00    -0.290 OA
ATOM     12  H1  UNL     1       9.334   4.046  38.673  1.00  0.00     0.244 HD
ENDBRANCH   1  11
BRANCH  10  13
HETATM   13  N3  UNL     1      11.226   5.318  43.126  1.00  0.00    -0.061 NA
BRANCH  13  14
HETATM   14  O2  UNL     1      11.633   4.060  43.193  1.00  0.00    -0.294 OA
ATOM     15  H2  UNL     1      11.257   3.558  43.907  1.00  0.00     0.238 HD
ENDBRANCH  13  14
ENDBRANCH  10  13
TORSDOF 3
ENDMDL
