MODEL 1
REMARK VINA RESULT: -5.324373660      0.000      0.000
REMARK  5 active torsions:
REMARK  status: ('A' for Active; 'I' for Inactive)
REMARK    1  A    between atoms: N1_2  and  O1_3 
REMARK       I    between atoms: N1_2  and  C2_5 
REMARK    2  A    between atoms: C2_5  and  S1_7 
REMARK    3  A    between atoms: S1_7  and  C3_8 
REMARK    4  A    between atoms: C3_8  and  O3_9 
REMARK    5  A    between atoms: N2_11  and  O4_13 
ROOT
HETATM    1  S1  UNL     1       7.205   6.901  43.527  1.00  0.00     0.018 SA
ENDROOT
BRANCH   1   2
HETATM    2  C2  UNL     1       8.253   7.172  44.917  1.00  0.00     0.313 C 
HETATM    3  N1  UNL     1       7.848   8.138  45.919  1.00  0.00    -0.224 N 
HETATM    4  C1  UNL     1       6.599   8.841  45.732  1.00  0.00     0.189 C 
HETATM    5  O2  UNL     1       9.339   6.554  45.068  1.00  0.00    -0.258 OA
BRANCH   3   6
HETATM    6  O1  UNL     1       8.643   8.338  46.964  1.00  0.00    -0.285 OA
ATOM      7  H1  UNL     1       9.312   7.720  47.233  1.00  0.00     0.245 HD
ENDBRANCH   3   6
ENDBRANCH   1   2
BRANCH   1   8
HETATM    8  C3  UNL     1       7.464   5.405  42.643  1.00  0.00     0.209 C 
HETATM    9  N2  UNL     1       8.174   4.421  42.891  1.00  0.00    -0.241 N 
ATOM     10  H2  UNL     1       8.080   3.727  42.149  1.00  0.00     0.197 HD
BRANCH   8  11
HETATM   11  O3  UNL     1       6.725   5.295  41.410  1.00  0.00    -0.339 OA
ATOM     12  H3  UNL     1       5.929   5.813  41.374  1.00  0.00     0.220 HD
ENDBRANCH   8  11
BRANCH   9  13
HETATM   13  O4  UNL     1       9.009   3.987  43.807  1.00  0.00    -0.287 OA
ATOM     14  H4  UNL     1       9.068   3.887  44.749  1.00  0.00     0.244 HD
ENDBRANCH   9  13
ENDBRANCH   1   8
TORSDOF 5
ENDMDL
MODEL 2
REMARK VINA RESULT: -5.211097181      2.391      4.418
REMARK  5 active torsions:
REMARK  status: ('A' for Active; 'I' for Inactive)
REMARK    1  A    between atoms: N1_2  and  O1_3 
REMARK       I    between atoms: N1_2  and  C2_5 
REMARK    2  A    between atoms: C2_5  and  S1_7 
REMARK    3  A    between atoms: S1_7  and  C3_8 
REMARK    4  A    between atoms: C3_8  and  O3_9 
REMARK    5  A    between atoms: N2_11  and  O4_13 
ROOT
HETATM    1  S1  UNL     1       8.521   6.978  42.869  1.00  0.00     0.018 SA
ENDROOT
BRANCH   1   2
HETATM    2  C2  UNL     1      10.089   6.177  42.830  1.00  0.00     0.313 C 
HETATM    3  N1  UNL     1      10.461   5.427  41.647  1.00  0.00    -0.224 N 
HETATM    4  C1  UNL     1       9.525   5.369  40.546  1.00  0.00     0.189 C 
HETATM    5  O2  UNL     1      10.895   6.235  43.795  1.00  0.00    -0.258 OA
BRANCH   3   6
HETATM    6  O1  UNL     1      11.644   4.825  41.624  1.00  0.00    -0.285 OA
ATOM      7  H1  UNL     1      12.151   4.645  42.407  1.00  0.00     0.245 HD
ENDBRANCH   3   6
ENDBRANCH   1   2
BRANCH   1   8
HETATM    8  C3  UNL     1       7.885   7.358  44.463  1.00  0.00     0.209 C 
HETATM    9  N2  UNL     1       8.270   7.035  45.595  1.00  0.00    -0.241 N 
ATOM     10  H2  UNL     1       7.653   7.438  46.301  1.00  0.00     0.197 HD
BRANCH   8  11
HETATM   11  O3  UNL     1       6.709   8.191  44.462  1.00  0.00    -0.339 OA
ATOM     12  H3  UNL     1       6.341   8.363  45.321  1.00  0.00     0.220 HD
ENDBRANCH   8  11
BRANCH   9  13
HETATM   13  O4  UNL     1       9.219   6.337  46.175  1.00  0.00    -0.287 OA
ATOM     14  H4  UNL     1       9.646   6.250  47.019  1.00  0.00     0.244 HD
ENDBRANCH   9  13
ENDBRANCH   1   8
TORSDOF 5
ENDMDL
MODEL 3
REMARK VINA RESULT: -5.099474241      2.833      4.736
REMARK  5 active torsions:
REMARK  status: ('A' for Active; 'I' for Inactive)
REMARK    1  A    between atoms: N1_2  and  O1_3 
REMARK       I    between atoms: N1_2  and  C2_5 
REMARK    2  A    between atoms: C2_5  and  S1_7 
REMARK    3  A    between atoms: S1_7  and  C3_8 
REMARK    4  A    between atoms: C3_8  and  O3_9 
REMARK    5  A    between atoms: N2_11  and  O4_13 
ROOT
HETATM    1  S1  UNL     1       9.285   6.681  42.671  1.00  0.00     0.018 SA
ENDROOT
BRANCH   1   2
HETATM    2  C2  UNL     1      10.542   5.585  42.106  1.00  0.00     0.313 C 
HETATM    3  N1  UNL     1      10.678   5.353  40.681  1.00  0.00    -0.224 N 
HETATM    4  C1  UNL     1       9.770   6.033  39.784  1.00  0.00     0.189 C 
HETATM    5  O2  UNL     1      11.326   4.998  42.897  1.00  0.00    -0.258 OA
BRANCH   3   6
HETATM    6  O1  UNL     1      11.627   4.525  40.261  1.00  0.00    -0.285 OA
ATOM      7  H1  UNL     1      12.479   4.458  40.677  1.00  0.00     0.245 HD
ENDBRANCH   3   6
ENDBRANCH   1   2
BRANCH   1   8
HETATM    8  C3  UNL     1       8.243   6.070  43.947  1.00  0.00     0.209 C 
HETATM    9  N2  UNL     1       8.336   6.133  45.181  1.00  0.00    -0.241 N 
ATOM     10  H2  UNL     1       7.542   5.662  45.615  1.00  0.00     0.197 HD
BRANCH   8  11
HETATM   11  O3  UNL     1       7.070   5.370  43.486  1.00  0.00    -0.339 OA
ATOM     12  H3  UNL     1       7.245   4.562  43.019  1.00  0.00     0.220 HD
ENDBRANCH   8  11
BRANCH   9  13
HETATM   13  O4  UNL     1       9.134   6.613  46.106  1.00  0.00    -0.287 OA
ATOM     14  H4  UNL     1      10.057   6.779  46.258  1.00  0.00     0.244 HD
ENDBRANCH   9  13
ENDBRANCH   1   8
TORSDOF 5
ENDMDL
MODEL 4
REMARK VINA RESULT: -5.056473251      2.767      2.965
REMARK  5 active torsions:
REMARK  status: ('A' for Active; 'I' for Inactive)
REMARK    1  A    between atoms: N1_2  and  O1_3 
REMARK       I    between atoms: N1_2  and  C2_5 
REMARK    2  A    between atoms: C2_5  and  S1_7 
REMARK    3  A    between atoms: S1_7  and  C3_8 
REMARK    4  A    between atoms: C3_8  and  O3_9 
REMARK    5  A    between atoms: N2_11  and  O4_13 
ROOT
HETATM    1  S1  UNL     1       9.048   6.289  41.571  1.00  0.00     0.018 SA
ENDROOT
BRANCH   1   2
HETATM    2  C2  UNL     1       9.582   6.331  43.249  1.00  0.00     0.313 C 
HETATM    3  N1  UNL     1       8.590   6.486  44.294  1.00  0.00    -0.224 N 
HETATM    4  C1  UNL     1       7.200   6.601  43.911  1.00  0.00     0.189 C 
HETATM    5  O2  UNL     1      10.795   6.230  43.568  1.00  0.00    -0.258 OA
BRANCH   3   6
HETATM    6  O1  UNL     1       8.999   6.518  45.557  1.00  0.00    -0.285 OA
ATOM      7  H1  UNL     1       9.026   5.748  46.113  1.00  0.00     0.245 HD
ENDBRANCH   3   6
ENDBRANCH   1   2
BRANCH   1   8
HETATM    8  C3  UNL     1      10.051   5.365  40.462  1.00  0.00     0.209 C 
HETATM    9  N2  UNL     1      10.978   4.570  40.667  1.00  0.00    -0.241 N 
ATOM     10  H2  UNL     1      11.338   4.217  39.780  1.00  0.00     0.197 HD
BRANCH   8  11
HETATM   11  O3  UNL     1       9.750   5.562  39.066  1.00  0.00    -0.339 OA
ATOM     12  H3  UNL     1       9.829   4.784  38.527  1.00  0.00     0.220 HD
ENDBRANCH   8  11
BRANCH   9  13
HETATM   13  O4  UNL     1      11.644   4.036  41.665  1.00  0.00    -0.287 OA
ATOM     14  H4  UNL     1      12.292   3.360  41.830  1.00  0.00     0.244 HD
ENDBRANCH   9  13
ENDBRANCH   1   8
TORSDOF 5
ENDMDL
MODEL 5
REMARK VINA RESULT: -4.978644004      1.895      4.842
REMARK  5 active torsions:
REMARK  status: ('A' for Active; 'I' for Inactive)
REMARK    1  A    between atoms: N1_2  and  O1_3 
REMARK       I    between atoms: N1_2  and  C2_5 
REMARK    2  A    between atoms: C2_5  and  S1_7 
REMARK    3  A    between atoms: S1_7  and  C3_8 
REMARK    4  A    between atoms: C3_8  and  O3_9 
REMARK    5  A    between atoms: N2_11  and  O4_13 
ROOT
HETATM    1  S1  UNL     1       7.401   8.267  44.690  1.00  0.00     0.018 SA
ENDROOT
BRANCH   1   2
HETATM    2  C2  UNL     1       8.437   7.070  43.917  1.00  0.00     0.313 C 
HETATM    3  N1  UNL     1       8.210   6.745  42.523  1.00  0.00    -0.224 N 
HETATM    4  C1  UNL     1       7.138   7.420  41.825  1.00  0.00     0.189 C 
HETATM    5  O2  UNL     1       9.367   6.490  44.536  1.00  0.00    -0.258 OA
BRANCH   3   6
HETATM    6  O1  UNL     1       8.995   5.842  41.946  1.00  0.00    -0.285 OA
ATOM      7  H1  UNL     1       8.975   4.919  42.171  1.00  0.00     0.245 HD
ENDBRANCH   3   6
ENDBRANCH   1   2
BRANCH   1   8
HETATM    8  C3  UNL     1       7.728   8.594  46.385  1.00  0.00     0.209 C 
HETATM    9  N2  UNL     1       7.108   9.262  47.223  1.00  0.00    -0.241 N 
ATOM     10  H2  UNL     1       7.594   9.235  48.120  1.00  0.00     0.197 HD
BRANCH   8  11
HETATM   11  O3  UNL     1       8.929   7.983  46.899  1.00  0.00    -0.339 OA
ATOM     12  H3  UNL     1       9.056   8.080  47.835  1.00  0.00     0.220 HD
ENDBRANCH   8  11
BRANCH   9  13
HETATM   13  O4  UNL     1       6.023   9.994  47.324  1.00  0.00    -0.287 OA
ATOM     14  H4  UNL     1       5.749  10.902  47.269  1.00  0.00     0.244 HD
ENDBRANCH   9  13
ENDBRANCH   1   8
TORSDOF 5
ENDMDL
