MODEL 1
REMARK VINA RESULT: -5.768424165      0.000      0.000
REMARK  3 active torsions:
REMARK  status: ('A' for Active; 'I' for Inactive)
REMARK    1  A    between atoms: N1_4  and  O1_6 
REMARK    2  A    between atoms: C6_10  and  O2_11 
REMARK    3  A    between atoms: C7_13  and  O3_14 
ROOT
HETATM    1  C1  UNL     1       3.174  15.310  46.117  1.00  0.00     0.019 C 
HETATM    2  C2  UNL     1       3.187  13.999  45.396  1.00  0.00     0.060 C 
HETATM    3  C3  UNL     1       3.828  14.221  44.064  1.00  0.00     0.016 C 
HETATM    4  N1  UNL     1       3.966  15.408  43.591  1.00  0.00    -0.277 N 
ATOM      5  H1  UNL     1       3.634  16.206  44.131  1.00  0.00     0.193 HD
HETATM    6  C4  UNL     1       4.326  13.061  43.247  1.00  0.00     0.057 C 
HETATM    7  C5  UNL     1       4.713  11.908  44.136  1.00  0.00     0.040 C 
HETATM    8  C6  UNL     1       5.160  12.528  45.465  1.00  0.00     0.148 C 
HETATM    9  C7  UNL     1       3.883  12.918  46.187  1.00  0.00     0.156 C 
ENDROOT
BRANCH   4  10
HETATM   10  O1  UNL     1       4.554  15.615  42.369  1.00  0.00    -0.290 OA
ATOM     11  H1  UNL     1       4.730  14.889  41.782  1.00  0.00     0.244 HD
ENDBRANCH   4  10
BRANCH   9  12
HETATM   12  O3  UNL     1       4.179  13.325  47.486  1.00  0.00    -0.392 OA
ATOM     13  H3  UNL     1       4.446  12.600  48.038  1.00  0.00     0.210 HD
ENDBRANCH   9  12
BRANCH   8  14
HETATM   14  O2  UNL     1       5.891  11.612  46.220  1.00  0.00    -0.393 OA
ATOM     15  H2  UNL     1       5.823  11.808  47.147  1.00  0.00     0.210 HD
ENDBRANCH   8  14
TORSDOF 3
ENDMDL
MODEL 2
REMARK VINA RESULT: -5.726029390      1.689      2.075
REMARK  3 active torsions:
REMARK  status: ('A' for Active; 'I' for Inactive)
REMARK    1  A    between atoms: N1_4  and  O1_6 
REMARK    2  A    between atoms: C6_10  and  O2_11 
REMARK    3  A    between atoms: C7_13  and  O3_14 
ROOT
HETATM    1  C1  UNL     1       3.881  12.622  47.126  1.00  0.00     0.019 C 
HETATM    2  C2  UNL     1       4.046  12.192  45.702  1.00  0.00     0.060 C 
HETATM    3  C3  UNL     1       3.932  13.412  44.845  1.00  0.00     0.016 C 
HETATM    4  N1  UNL     1       3.425  14.497  45.310  1.00  0.00    -0.277 N 
ATOM      5  H1  UNL     1       3.098  14.526  46.275  1.00  0.00     0.193 HD
HETATM    6  C4  UNL     1       4.406  13.396  43.418  1.00  0.00     0.057 C 
HETATM    7  C5  UNL     1       5.516  12.393  43.235  1.00  0.00     0.040 C 
HETATM    8  C6  UNL     1       6.236  12.307  44.585  1.00  0.00     0.148 C 
HETATM    9  C7  UNL     1       5.345  11.459  45.474  1.00  0.00     0.156 C 
ENDROOT
BRANCH   4  10
HETATM   10  O1  UNL     1       3.319  15.617  44.526  1.00  0.00    -0.290 OA
ATOM     11  H1  UNL     1       3.031  16.444  44.893  1.00  0.00     0.244 HD
ENDBRANCH   4  10
BRANCH   9  12
HETATM   12  O3  UNL     1       6.004  11.170  46.668  1.00  0.00    -0.392 OA
ATOM     13  H3  UNL     1       6.800  10.673  46.527  1.00  0.00     0.210 HD
ENDBRANCH   9  12
BRANCH   8  14
HETATM   14  O2  UNL     1       7.492  11.716  44.441  1.00  0.00    -0.393 OA
ATOM     15  H2  UNL     1       8.070  12.271  43.931  1.00  0.00     0.210 HD
ENDBRANCH   8  14
TORSDOF 3
ENDMDL
MODEL 3
REMARK VINA RESULT: -5.596371350      1.613      4.121
REMARK  3 active torsions:
REMARK  status: ('A' for Active; 'I' for Inactive)
REMARK    1  A    between atoms: N1_4  and  O1_6 
REMARK    2  A    between atoms: C6_10  and  O2_11 
REMARK    3  A    between atoms: C7_13  and  O3_14 
ROOT
HETATM    1  C1  UNL     1       5.021  12.721  42.764  1.00  0.00     0.019 C 
HETATM    2  C2  UNL     1       3.935  13.245  43.650  1.00  0.00     0.060 C 
HETATM    3  C3  UNL     1       4.295  12.902  45.059  1.00  0.00     0.016 C 
HETATM    4  N1  UNL     1       5.189  12.014  45.312  1.00  0.00    -0.277 N 
ATOM      5  H1  UNL     1       5.657  11.538  44.541  1.00  0.00     0.193 HD
HETATM    6  C4  UNL     1       3.619  13.588  46.215  1.00  0.00     0.057 C 
HETATM    7  C5  UNL     1       3.160  14.968  45.822  1.00  0.00     0.040 C 
HETATM    8  C6  UNL     1       4.131  15.445  44.736  1.00  0.00     0.148 C 
HETATM    9  C7  UNL     1       3.713  14.727  43.466  1.00  0.00     0.156 C 
ENDROOT
BRANCH   4  10
HETATM   10  O1  UNL     1       5.521  11.697  46.604  1.00  0.00    -0.290 OA
ATOM     11  H1  UNL     1       6.325  12.019  46.994  1.00  0.00     0.244 HD
ENDBRANCH   4  10
BRANCH   9  12
HETATM   12  O3  UNL     1       4.422  15.234  42.379  1.00  0.00    -0.392 OA
ATOM     13  H3  UNL     1       3.915  15.209  41.577  1.00  0.00     0.210 HD
ENDBRANCH   9  12
BRANCH   8  14
HETATM   14  O2  UNL     1       4.048  16.827  44.569  1.00  0.00    -0.393 OA
ATOM     15  H2  UNL     1       4.265  17.073  43.677  1.00  0.00     0.210 HD
ENDBRANCH   8  14
TORSDOF 3
ENDMDL
MODEL 4
REMARK VINA RESULT: -5.403944025      1.802      4.169
REMARK  3 active torsions:
REMARK  status: ('A' for Active; 'I' for Inactive)
REMARK    1  A    between atoms: N1_4  and  O1_6 
REMARK    2  A    between atoms: C6_10  and  O2_11 
REMARK    3  A    between atoms: C7_13  and  O3_14 
ROOT
HETATM    1  C1  UNL     1       5.671  11.382  44.255  1.00  0.00     0.019 C 
HETATM    2  C2  UNL     1       4.382  12.097  44.510  1.00  0.00     0.060 C 
HETATM    3  C3  UNL     1       4.398  12.568  45.929  1.00  0.00     0.016 C 
HETATM    4  N1  UNL     1       5.235  12.081  46.773  1.00  0.00    -0.277 N 
ATOM      5  H1  UNL     1       5.895  11.365  46.471  1.00  0.00     0.193 HD
HETATM    6  C4  UNL     1       3.434  13.621  46.401  1.00  0.00     0.057 C 
HETATM    7  C5  UNL     1       3.034  14.527  45.265  1.00  0.00     0.040 C 
HETATM    8  C6  UNL     1       4.222  14.544  44.297  1.00  0.00     0.148 C 
HETATM    9  C7  UNL     1       4.156  13.231  43.540  1.00  0.00     0.156 C 
ENDROOT
BRANCH   4  10
HETATM   10  O1  UNL     1       5.253  12.510  48.076  1.00  0.00    -0.290 OA
ATOM     11  H1  UNL     1       5.319  13.434  48.284  1.00  0.00     0.244 HD
ENDBRANCH   4  10
BRANCH   9  12
HETATM   12  O3  UNL     1       5.091  13.233  42.506  1.00  0.00    -0.392 OA
ATOM     13  H3  UNL     1       5.938  13.556  42.789  1.00  0.00     0.210 HD
ENDBRANCH   9  12
BRANCH   8  14
HETATM   14  O2  UNL     1       4.131  15.624  43.419  1.00  0.00    -0.393 OA
ATOM     15  H2  UNL     1       4.691  15.492  42.663  1.00  0.00     0.210 HD
ENDBRANCH   8  14
TORSDOF 3
ENDMDL
MODEL 5
REMARK VINA RESULT: -5.279267598      3.168      4.920
REMARK  3 active torsions:
REMARK  status: ('A' for Active; 'I' for Inactive)
REMARK    1  A    between atoms: N1_4  and  O1_6 
REMARK    2  A    between atoms: C6_10  and  O2_11 
REMARK    3  A    between atoms: C7_13  and  O3_14 
ROOT
HETATM    1  C1  UNL     1       6.683   8.960  46.613  1.00  0.00     0.019 C 
HETATM    2  C2  UNL     1       6.083   9.836  45.558  1.00  0.00     0.060 C 
HETATM    3  C3  UNL     1       5.575  11.071  46.230  1.00  0.00     0.016 C 
HETATM    4  N1  UNL     1       5.407  11.105  47.503  1.00  0.00    -0.277 N 
ATOM      5  H1  UNL     1       5.622  10.278  48.061  1.00  0.00     0.193 HD
HETATM    6  C4  UNL     1       5.249  12.302  45.431  1.00  0.00     0.057 C 
HETATM    7  C5  UNL     1       6.082  12.362  44.177  1.00  0.00     0.040 C 
HETATM    8  C6  UNL     1       7.391  11.633  44.502  1.00  0.00     0.148 C 
HETATM    9  C7  UNL     1       7.062  10.153  44.454  1.00  0.00     0.156 C 
ENDROOT
BRANCH   4  10
HETATM   10  O1  UNL     1       4.941  12.236  48.123  1.00  0.00    -0.290 OA
ATOM     11  H1  UNL     1       4.063  12.557  47.957  1.00  0.00     0.244 HD
ENDBRANCH   4  10
BRANCH   9  12
HETATM   12  O3  UNL     1       8.232   9.403  44.557  1.00  0.00    -0.392 OA
ATOM     13  H3  UNL     1       8.797   9.514  43.802  1.00  0.00     0.210 HD
ENDBRANCH   9  12
BRANCH   8  14
HETATM   14  O2  UNL     1       8.379  11.948  43.569  1.00  0.00    -0.393 OA
ATOM     15  H2  UNL     1       9.031  11.257  43.522  1.00  0.00     0.210 HD
ENDBRANCH   8  14
TORSDOF 3
ENDMDL
