MODEL 1
REMARK VINA RESULT: -4.850560399      0.000      0.000
REMARK  2 active torsions:
REMARK  status: ('A' for Active; 'I' for Inactive)
REMARK    1  A    between atoms: C2_2  and  N1_3 
REMARK    2  A    between atoms: C5_9  and  O1_11 
ROOT
HETATM    1  C1  UNL     1       4.851  12.286  44.369  1.00  0.00     0.046 C 
HETATM    2  C2  UNL     1       5.935  11.401  44.998  1.00  0.00     0.120 C 
HETATM    3  C3  UNL     1       5.752  10.028  44.440  1.00  0.00     0.041 C 
HETATM    4  C4  UNL     1       6.348   9.863  43.055  1.00  0.00     0.040 C 
HETATM    5  C5  UNL     1       7.846  10.130  43.250  1.00  0.00     0.054 C 
HETATM    6  C6  UNL     1       8.566   9.707  42.023  1.00  0.00     0.045 C 
HETATM    7  C7  UNL     1       7.980  11.598  43.538  1.00  0.00     0.040 C 
HETATM    8  C8  UNL     1       7.248  12.025  44.748  1.00  0.00     0.041 C 
ENDROOT
BRANCH   2   9
HETATM    9  N1  UNL     1       5.666  11.302  46.443  1.00  0.00    -0.071 N 
ATOM     10  H13 UNL     1       6.329  11.835  47.005  1.00  0.00     0.275 HD
ATOM     11  H12 UNL     1       4.820  11.799  46.721  1.00  0.00     0.275 HD
ATOM     12  H11 UNL     1       5.642  10.313  46.694  1.00  0.00     0.275 HD
ENDBRANCH   2   9
BRANCH   5  13
HETATM   13  O1  UNL     1       8.261   9.441  44.390  1.00  0.00    -0.390 OA
ATOM     14  H1  UNL     1       8.635   8.613  44.112  1.00  0.00     0.210 HD
ENDBRANCH   5  13
TORSDOF 2
ENDMDL
MODEL 2
REMARK VINA RESULT: -4.536167833      2.027      3.453
REMARK  2 active torsions:
REMARK  status: ('A' for Active; 'I' for Inactive)
REMARK    1  A    between atoms: C2_2  and  N1_3 
REMARK    2  A    between atoms: C5_9  and  O1_11 
ROOT
HETATM    1  C1  UNL     1       7.983  10.067  44.164  1.00  0.00     0.046 C 
HETATM    2  C2  UNL     1       6.692  10.466  44.891  1.00  0.00     0.120 C 
HETATM    3  C3  UNL     1       6.705  11.954  45.013  1.00  0.00     0.041 C 
HETATM    4  C4  UNL     1       6.268  12.660  43.744  1.00  0.00     0.040 C 
HETATM    5  C5  UNL     1       4.826  12.187  43.519  1.00  0.00     0.054 C 
HETATM    6  C6  UNL     1       4.206  13.039  42.476  1.00  0.00     0.045 C 
HETATM    7  C7  UNL     1       4.913  10.740  43.126  1.00  0.00     0.040 C 
HETATM    8  C8  UNL     1       5.548   9.892  44.156  1.00  0.00     0.041 C 
ENDROOT
BRANCH   2   9
HETATM    9  N1  UNL     1       6.755   9.936  46.264  1.00  0.00    -0.071 N 
ATOM     10  H13 UNL     1       7.586   9.367  46.428  1.00  0.00     0.275 HD
ATOM     11  H12 UNL     1       6.946  10.660  46.957  1.00  0.00     0.275 HD
ATOM     12  H11 UNL     1       5.888   9.430  46.450  1.00  0.00     0.275 HD
ENDBRANCH   2   9
BRANCH   5  13
HETATM   13  O1  UNL     1       4.158  12.249  44.742  1.00  0.00    -0.390 OA
ATOM     14  H1  UNL     1       4.250  13.132  45.081  1.00  0.00     0.210 HD
ENDBRANCH   5  13
TORSDOF 2
ENDMDL
MODEL 3
REMARK VINA RESULT: -4.454009040      2.349      3.615
REMARK  2 active torsions:
REMARK  status: ('A' for Active; 'I' for Inactive)
REMARK    1  A    between atoms: C2_2  and  N1_3 
REMARK    2  A    between atoms: C5_9  and  O1_11 
ROOT
HETATM    1  C1  UNL     1       7.693   8.982  44.012  1.00  0.00     0.046 C 
HETATM    2  C2  UNL     1       7.407  10.230  43.166  1.00  0.00     0.120 C 
HETATM    3  C3  UNL     1       5.973  10.154  42.755  1.00  0.00     0.041 C 
HETATM    4  C4  UNL     1       5.017  10.609  43.840  1.00  0.00     0.040 C 
HETATM    5  C5  UNL     1       5.391  12.075  44.091  1.00  0.00     0.054 C 
HETATM    6  C6  UNL     1       4.330  12.699  44.919  1.00  0.00     0.045 C 
HETATM    7  C7  UNL     1       6.734  12.059  44.763  1.00  0.00     0.040 C 
HETATM    8  C8  UNL     1       7.788  11.420  43.949  1.00  0.00     0.041 C 
ENDROOT
BRANCH   2   9
HETATM    9  N1  UNL     1       8.199  10.137  41.928  1.00  0.00    -0.071 N 
ATOM     10  H13 UNL     1       8.598  11.033  41.648  1.00  0.00     0.275 HD
ATOM     11  H12 UNL     1       9.076   9.632  42.058  1.00  0.00     0.275 HD
ATOM     12  H11 UNL     1       7.611   9.725  41.204  1.00  0.00     0.275 HD
ENDBRANCH   2   9
BRANCH   5  13
HETATM   13  O1  UNL     1       5.551  12.695  42.852  1.00  0.00    -0.390 OA
ATOM     14  H1  UNL     1       6.441  12.540  42.559  1.00  0.00     0.210 HD
ENDBRANCH   5  13
TORSDOF 2
ENDMDL
MODEL 4
REMARK VINA RESULT: -4.433832238      4.697      5.688
REMARK  2 active torsions:
REMARK  status: ('A' for Active; 'I' for Inactive)
REMARK    1  A    between atoms: C2_2  and  N1_3 
REMARK    2  A    between atoms: C5_9  and  O1_11 
ROOT
HETATM    1  C1  UNL     1       7.044   7.313  42.079  1.00  0.00     0.046 C 
HETATM    2  C2  UNL     1       7.948   6.346  42.856  1.00  0.00     0.120 C 
HETATM    3  C3  UNL     1       8.131   5.138  41.997  1.00  0.00     0.041 C 
HETATM    4  C4  UNL     1       9.177   5.328  40.916  1.00  0.00     0.040 C 
HETATM    5  C5  UNL     1      10.477   5.599  41.684  1.00  0.00     0.054 C 
HETATM    6  C6  UNL     1      11.614   5.506  40.737  1.00  0.00     0.045 C 
HETATM    7  C7  UNL     1      10.328   6.961  42.298  1.00  0.00     0.040 C 
HETATM    8  C8  UNL     1       9.184   7.061  43.228  1.00  0.00     0.041 C 
ENDROOT
BRANCH   2   9
HETATM    9  N1  UNL     1       7.219   5.898  44.055  1.00  0.00    -0.071 N 
ATOM     10  H13 UNL     1       6.566   5.139  43.857  1.00  0.00     0.275 HD
ATOM     11  H12 UNL     1       7.815   5.397  44.714  1.00  0.00     0.275 HD
ATOM     12  H11 UNL     1       6.764   6.710  44.473  1.00  0.00     0.275 HD
ENDBRANCH   2   9
BRANCH   5  13
HETATM   13  O1  UNL     1      10.559   4.676  42.727  1.00  0.00    -0.390 OA
ATOM     14  H1  UNL     1      10.906   3.865  42.374  1.00  0.00     0.210 HD
ENDBRANCH   5  13
TORSDOF 2
ENDMDL
MODEL 5
REMARK VINA RESULT: -4.360172988      4.997      5.968
REMARK  2 active torsions:
REMARK  status: ('A' for Active; 'I' for Inactive)
REMARK    1  A    between atoms: C2_2  and  N1_3 
REMARK    2  A    between atoms: C5_9  and  O1_11 
ROOT
HETATM    1  C1  UNL     1       7.173   5.676  40.807  1.00  0.00     0.046 C 
HETATM    2  C2  UNL     1       8.391   5.665  41.741  1.00  0.00     0.120 C 
HETATM    3  C3  UNL     1       9.588   5.397  40.889  1.00  0.00     0.041 C 
HETATM    4  C4  UNL     1      10.092   6.628  40.163  1.00  0.00     0.040 C 
HETATM    5  C5  UNL     1      10.481   7.601  41.284  1.00  0.00     0.054 C 
HETATM    6  C6  UNL     1      11.259   8.717  40.693  1.00  0.00     0.045 C 
HETATM    7  C7  UNL     1       9.197   8.047  41.922  1.00  0.00     0.040 C 
HETATM    8  C8  UNL     1       8.412   6.934  42.494  1.00  0.00     0.041 C 
ENDROOT
BRANCH   2   9
HETATM    9  N1  UNL     1       8.261   4.515  42.651  1.00  0.00    -0.071 N 
ATOM     10  H13 UNL     1       7.330   4.438  43.060  1.00  0.00     0.275 HD
ATOM     11  H12 UNL     1       8.269   3.621  42.159  1.00  0.00     0.275 HD
ATOM     12  H11 UNL     1       8.996   4.582  43.356  1.00  0.00     0.275 HD
ENDBRANCH   2   9
BRANCH   5  13
HETATM   13  O1  UNL     1      11.198   6.885  42.243  1.00  0.00    -0.390 OA
ATOM     14  H1  UNL     1      10.996   7.254  43.095  1.00  0.00     0.210 HD
ENDBRANCH   5  13
TORSDOF 2
ENDMDL
