MODEL 1
REMARK VINA RESULT: -5.734565208      0.000      0.000
REMARK  1 active torsions:
REMARK  status: ('A' for Active; 'I' for Inactive)
REMARK    1  A    between atoms: O1_1  and  C1_3 
ROOT
HETATM    1  C1  UNL     1       3.635  13.945  44.259  1.00  0.00     0.118 C 
HETATM    2  C2  UNL     1       4.738  13.833  43.248  1.00  0.00     0.032 C 
HETATM    3  C3  UNL     1       4.943  12.383  42.916  1.00  0.00     0.014 C 
HETATM    4  C4  UNL     1       5.342  11.661  44.167  1.00  0.00    -0.017 C 
HETATM    5  C5  UNL     1       5.309  10.161  43.873  1.00  0.00     0.038 C 
HETATM    6  C6  UNL     1       6.759   9.905  43.526  1.00  0.00     0.168 C 
HETATM    7  O2  UNL     1       7.444  10.696  44.468  1.00  0.00    -0.390 OA
HETATM    8  C7  UNL     1       6.789  11.915  44.507  1.00  0.00     0.177 C 
HETATM    9  C8  UNL     1       4.419  11.902  45.325  1.00  0.00     0.014 C 
HETATM   10  C9  UNL     1       4.117  13.351  45.568  1.00  0.00     0.032 C 
ENDROOT
BRANCH   1  11
HETATM   11  O1  UNL     1       3.318  15.286  44.453  1.00  0.00    -0.396 OA
ATOM     12  H1  UNL     1       2.615  15.356  45.088  1.00  0.00     0.210 HD
ENDBRANCH   1  11
TORSDOF 1
ENDMDL
MODEL 2
REMARK VINA RESULT: -5.640062016      0.933      1.983
REMARK  1 active torsions:
REMARK  status: ('A' for Active; 'I' for Inactive)
REMARK    1  A    between atoms: O1_1  and  C1_3 
ROOT
HETATM    1  C1  UNL     1       3.995  14.181  44.180  1.00  0.00     0.118 C 
HETATM    2  C2  UNL     1       4.059  13.132  45.250  1.00  0.00     0.032 C 
HETATM    3  C3  UNL     1       5.435  12.529  45.252  1.00  0.00     0.014 C 
HETATM    4  C4  UNL     1       5.675  11.891  43.917  1.00  0.00    -0.017 C 
HETATM    5  C5  UNL     1       7.151  11.500  43.845  1.00  0.00     0.038 C 
HETATM    6  C6  UNL     1       7.085  10.052  44.278  1.00  0.00     0.168 C 
HETATM    7  O2  UNL     1       5.924   9.590  43.630  1.00  0.00    -0.390 OA
HETATM    8  C7  UNL     1       4.961  10.568  43.807  1.00  0.00     0.177 C 
HETATM    9  C8  UNL     1       5.404  12.800  42.756  1.00  0.00     0.014 C 
HETATM   10  C9  UNL     1       4.079  13.499  42.829  1.00  0.00     0.032 C 
ENDROOT
BRANCH   1  11
HETATM   11  O1  UNL     1       2.786  14.866  44.274  1.00  0.00    -0.396 OA
ATOM     12  H1  UNL     1       2.135  14.304  44.677  1.00  0.00     0.210 HD
ENDBRANCH   1  11
TORSDOF 1
ENDMDL
MODEL 3
REMARK VINA RESULT: -5.456764986      1.174      4.303
REMARK  1 active torsions:
REMARK  status: ('A' for Active; 'I' for Inactive)
REMARK    1  A    between atoms: O1_1  and  C1_3 
ROOT
HETATM    1  C1  UNL     1       7.490   9.954  43.857  1.00  0.00     0.118 C 
HETATM    2  C2  UNL     1       7.743  11.420  43.662  1.00  0.00     0.032 C 
HETATM    3  C3  UNL     1       6.764  12.194  44.497  1.00  0.00     0.014 C 
HETATM    4  C4  UNL     1       5.378  11.863  44.032  1.00  0.00    -0.017 C 
HETATM    5  C5  UNL     1       4.392  12.460  45.037  1.00  0.00     0.038 C 
HETATM    6  C6  UNL     1       4.065  13.777  44.370  1.00  0.00     0.168 C 
HETATM    7  O2  UNL     1       3.970  13.418  43.012  1.00  0.00    -0.390 OA
HETATM    8  C7  UNL     1       5.044  12.585  42.751  1.00  0.00     0.177 C 
HETATM    9  C8  UNL     1       5.098  10.392  43.963  1.00  0.00     0.014 C 
HETATM   10  C9  UNL     1       6.151   9.608  43.237  1.00  0.00     0.032 C 
ENDROOT
BRANCH   1  11
HETATM   11  O1  UNL     1       8.491   9.222  43.225  1.00  0.00    -0.396 OA
ATOM     12  H1  UNL     1       8.174   8.910  42.386  1.00  0.00     0.210 HD
ENDBRANCH   1  11
TORSDOF 1
ENDMDL
MODEL 4
REMARK VINA RESULT: -5.197623102      1.367      1.654
REMARK  1 active torsions:
REMARK  status: ('A' for Active; 'I' for Inactive)
REMARK    1  A    between atoms: O1_1  and  C1_3 
ROOT
HETATM    1  C1  UNL     1       3.771  13.694  42.143  1.00  0.00     0.118 C 
HETATM    2  C2  UNL     1       4.726  12.751  41.474  1.00  0.00     0.032 C 
HETATM    3  C3  UNL     1       4.793  11.484  42.276  1.00  0.00     0.014 C 
HETATM    4  C4  UNL     1       5.301  11.815  43.646  1.00  0.00    -0.017 C 
HETATM    5  C5  UNL     1       5.135  10.572  44.521  1.00  0.00     0.038 C 
HETATM    6  C6  UNL     1       6.509   9.952  44.402  1.00  0.00     0.168 C 
HETATM    7  O2  UNL     1       7.358  11.073  44.458  1.00  0.00    -0.390 OA
HETATM    8  C7  UNL     1       6.793  12.034  43.638  1.00  0.00     0.177 C 
HETATM    9  C8  UNL     1       4.552  12.927  44.316  1.00  0.00     0.014 C 
HETATM   10  C9  UNL     1       4.377  14.144  43.457  1.00  0.00     0.032 C 
ENDROOT
BRANCH   1  11
HETATM   11  O1  UNL     1       3.568  14.804  41.327  1.00  0.00    -0.396 OA
ATOM     12  H1  UNL     1       3.541  15.589  41.862  1.00  0.00     0.210 HD
ENDBRANCH   1  11
TORSDOF 1
ENDMDL
MODEL 5
REMARK VINA RESULT: -5.168278364      1.956      4.334
REMARK  1 active torsions:
REMARK  status: ('A' for Active; 'I' for Inactive)
REMARK    1  A    between atoms: O1_1  and  C1_3 
ROOT
HETATM    1  C1  UNL     1       7.525  10.034  43.098  1.00  0.00     0.118 C 
HETATM    2  C2  UNL     1       6.419   9.353  43.849  1.00  0.00     0.032 C 
HETATM    3  C3  UNL     1       5.295  10.330  44.043  1.00  0.00     0.014 C 
HETATM    4  C4  UNL     1       5.805  11.486  44.849  1.00  0.00    -0.017 C 
HETATM    5  C5  UNL     1       4.734  12.577  44.832  1.00  0.00     0.038 C 
HETATM    6  C6  UNL     1       4.004  12.282  46.124  1.00  0.00     0.168 C 
HETATM    7  O2  UNL     1       5.055  11.966  47.005  1.00  0.00    -0.390 OA
HETATM    8  C7  UNL     1       5.910  11.129  46.311  1.00  0.00     0.177 C 
HETATM    9  C8  UNL     1       7.062  12.096  44.305  1.00  0.00     0.014 C 
HETATM   10  C9  UNL     1       8.135  11.096  43.992  1.00  0.00     0.032 C 
ENDROOT
BRANCH   1  11
HETATM   11  O1  UNL     1       8.501   9.100  42.763  1.00  0.00    -0.396 OA
ATOM     12  H1  UNL     1       8.506   8.971  41.821  1.00  0.00     0.210 HD
ENDBRANCH   1  11
TORSDOF 1
ENDMDL
