MODEL 1
REMARK VINA RESULT: -4.361447309      0.000      0.000
REMARK  1 active torsions:
REMARK  status: ('A' for Active; 'I' for Inactive)
REMARK    1  A    between atoms: C5_6  and  O1_7 
ROOT
HETATM    1  N1  UNL     1       9.475   4.988  38.695  1.00  0.00    -0.195 NA
HETATM    2  C1  UNL     1      10.238   5.419  39.471  1.00  0.00     0.091 C 
HETATM    3  C2  UNL     1      11.190   5.961  40.447  1.00  0.00     0.231 C 
HETATM    4  C3  UNL     1      10.629   7.324  40.842  1.00  0.00     0.052 C 
HETATM    5  C4  UNL     1       9.701   6.915  41.968  1.00  0.00     0.064 C 
HETATM    6  C5  UNL     1      10.390   5.711  42.524  1.00  0.00     0.258 C 
HETATM    7  O2  UNL     1      11.262   5.218  41.594  1.00  0.00    -0.342 OA
ENDROOT
BRANCH   6   8
HETATM    8  O1  UNL     1      11.054   6.128  43.701  1.00  0.00    -0.371 OA
ATOM      9  H1  UNL     1      10.392   6.505  44.270  1.00  0.00     0.212 HD
ENDBRANCH   6   8
TORSDOF 1
ENDMDL
MODEL 2
REMARK VINA RESULT: -4.278301063      4.598      5.443
REMARK  1 active torsions:
REMARK  status: ('A' for Active; 'I' for Inactive)
REMARK    1  A    between atoms: C5_6  and  O1_7 
ROOT
HETATM    1  N1  UNL     1       7.668  10.333  43.892  1.00  0.00    -0.195 NA
HETATM    2  C1  UNL     1       7.563   9.357  44.529  1.00  0.00     0.091 C 
HETATM    3  C2  UNL     1       7.432   8.129  45.322  1.00  0.00     0.231 C 
HETATM    4  C3  UNL     1       6.230   7.397  44.733  1.00  0.00     0.052 C 
HETATM    5  C4  UNL     1       6.909   6.614  43.628  1.00  0.00     0.064 C 
HETATM    6  C5  UNL     1       8.274   6.388  44.193  1.00  0.00     0.258 C 
HETATM    7  O2  UNL     1       8.505   7.290  45.192  1.00  0.00    -0.342 OA
ENDROOT
BRANCH   6   8
HETATM    8  O1  UNL     1       8.304   5.055  44.666  1.00  0.00    -0.371 OA
ATOM      9  H1  UNL     1       7.403   4.753  44.689  1.00  0.00     0.212 HD
ENDBRANCH   6   8
TORSDOF 1
ENDMDL
MODEL 3
REMARK VINA RESULT: -4.148116950      1.734      2.000
REMARK  1 active torsions:
REMARK  status: ('A' for Active; 'I' for Inactive)
REMARK    1  A    between atoms: C5_6  and  O1_7 
ROOT
HETATM    1  N1  UNL     1      10.596   5.363  39.541  1.00  0.00    -0.195 NA
HETATM    2  C1  UNL     1      10.433   5.742  40.636  1.00  0.00     0.091 C 
HETATM    3  C2  UNL     1      10.222   6.215  42.010  1.00  0.00     0.231 C 
HETATM    4  C3  UNL     1       8.949   7.054  41.955  1.00  0.00     0.052 C 
HETATM    5  C4  UNL     1       7.907   5.974  42.163  1.00  0.00     0.064 C 
HETATM    6  C5  UNL     1       8.640   4.988  43.013  1.00  0.00     0.258 C 
HETATM    7  O2  UNL     1       9.984   5.199  42.895  1.00  0.00    -0.342 OA
ENDROOT
BRANCH   6   8
HETATM    8  O1  UNL     1       8.189   5.179  44.340  1.00  0.00    -0.371 OA
ATOM      9  H1  UNL     1       7.306   5.523  44.282  1.00  0.00     0.212 HD
ENDBRANCH   6   8
TORSDOF 1
ENDMDL
MODEL 4
REMARK VINA RESULT: -4.129781228      8.151      9.058
REMARK  1 active torsions:
REMARK  status: ('A' for Active; 'I' for Inactive)
REMARK    1  A    between atoms: C5_6  and  O1_7 
ROOT
HETATM    1  N1  UNL     1       4.935  10.219  42.939  1.00  0.00    -0.195 NA
HETATM    2  C1  UNL     1       5.261  11.082  43.658  1.00  0.00     0.091 C 
HETATM    3  C2  UNL     1       5.665  12.164  44.564  1.00  0.00     0.231 C 
HETATM    4  C3  UNL     1       4.420  13.027  44.740  1.00  0.00     0.052 C 
HETATM    5  C4  UNL     1       3.755  12.305  45.894  1.00  0.00     0.064 C 
HETATM    6  C5  UNL     1       4.926  11.749  46.637  1.00  0.00     0.258 C 
HETATM    7  O2  UNL     1       6.013  11.717  45.810  1.00  0.00    -0.342 OA
ENDROOT
BRANCH   6   8
HETATM    8  O1  UNL     1       5.137  12.592  47.754  1.00  0.00    -0.371 OA
ATOM      9  H1  UNL     1       5.893  13.130  47.552  1.00  0.00     0.212 HD
ENDBRANCH   6   8
TORSDOF 1
ENDMDL
MODEL 5
REMARK VINA RESULT: -4.092755202      2.678      2.937
REMARK  1 active torsions:
REMARK  status: ('A' for Active; 'I' for Inactive)
REMARK    1  A    between atoms: C5_6  and  O1_7 
ROOT
HETATM    1  N1  UNL     1       6.846   4.988  40.878  1.00  0.00    -0.195 NA
HETATM    2  C1  UNL     1       7.768   5.189  41.570  1.00  0.00     0.091 C 
HETATM    3  C2  UNL     1       8.921   5.445  42.442  1.00  0.00     0.231 C 
HETATM    4  C3  UNL     1       9.090   6.961  42.448  1.00  0.00     0.052 C 
HETATM    5  C4  UNL     1       8.150   7.330  43.578  1.00  0.00     0.064 C 
HETATM    6  C5  UNL     1       8.225   6.125  44.459  1.00  0.00     0.258 C 
HETATM    7  O2  UNL     1       8.705   5.068  43.739  1.00  0.00    -0.342 OA
ENDROOT
BRANCH   6   8
HETATM    8  O1  UNL     1       9.078   6.462  45.537  1.00  0.00    -0.371 OA
ATOM      9  H1  UNL     1       8.527   6.545  46.306  1.00  0.00     0.212 HD
ENDBRANCH   6   8
TORSDOF 1
ENDMDL
