MODEL 1
REMARK VINA RESULT: -6.147492519      0.000      0.000
REMARK  1 active torsions:
REMARK  status: ('A' for Active; 'I' for Inactive)
REMARK    1  A    between atoms: N1_4  and  C4_5 
ROOT
HETATM    1  C4  UNL     1       6.656  11.491  45.021  1.00  0.00     0.261 C 
HETATM    2  C5  UNL     1       6.391  10.212  45.774  1.00  0.00     0.064 C 
HETATM    3  C6  UNL     1       6.521   8.985  44.928  1.00  0.00     0.024 A 
HETATM    4  C7  UNL     1       7.755   8.139  45.073  1.00  0.00     0.043 A 
HETATM    5  C8  UNL     1       7.598   9.132  43.944  1.00  0.00     0.165 A 
HETATM    6  O1  UNL     1       8.334  10.300  44.113  1.00  0.00    -0.233 OA
HETATM    7  O2  UNL     1       7.600  11.377  44.031  1.00  0.00    -0.214 OA
ENDROOT
BRANCH   1   8
HETATM    8  N1  UNL     1       5.458  12.066  44.453  1.00  0.00    -0.365 N 
HETATM    9  C3  UNL     1       4.494  12.522  45.359  1.00  0.00     0.060 C 
HETATM   10  C2  UNL     1       3.769  13.779  45.053  1.00  0.00     0.044 C 
HETATM   11  C1  UNL     1       3.800  14.223  43.630  1.00  0.00     0.007 C 
HETATM   12  C10 UNL     1       4.255  13.097  42.695  1.00  0.00     0.020 C 
HETATM   13  C9  UNL     1       5.651  12.737  43.227  1.00  0.00     0.124 C 
ENDBRANCH   1   8
TORSDOF 1
ENDMDL
MODEL 2
REMARK VINA RESULT: -5.981563421      2.134      3.233
REMARK  1 active torsions:
REMARK  status: ('A' for Active; 'I' for Inactive)
REMARK    1  A    between atoms: N1_4  and  C4_5 
ROOT
HETATM    1  C4  UNL     1       7.272   8.670  45.599  1.00  0.00     0.261 C 
HETATM    2  C5  UNL     1       6.373   7.796  44.762  1.00  0.00     0.064 C 
HETATM    3  C6  UNL     1       7.039   7.256  43.536  1.00  0.00     0.024 A 
HETATM    4  C7  UNL     1       7.479   5.819  43.530  1.00  0.00     0.043 A 
HETATM    5  C8  UNL     1       8.450   6.948  43.792  1.00  0.00     0.165 A 
HETATM    6  O1  UNL     1       8.803   7.090  45.130  1.00  0.00    -0.233 OA
HETATM    7  O2  UNL     1       8.593   8.297  45.583  1.00  0.00    -0.214 OA
ENDROOT
BRANCH   1   8
HETATM    8  N1  UNL     1       7.183  10.068  45.245  1.00  0.00    -0.365 N 
HETATM    9  C3  UNL     1       8.010  10.502  44.203  1.00  0.00     0.060 C 
HETATM   10  C2  UNL     1       7.472  11.484  43.231  1.00  0.00     0.044 C 
HETATM   11  C1  UNL     1       6.275  12.255  43.673  1.00  0.00     0.007 C 
HETATM   12  C10 UNL     1       6.061  12.151  45.187  1.00  0.00     0.020 C 
HETATM   13  C9  UNL     1       5.905  10.641  45.421  1.00  0.00     0.124 C 
ENDBRANCH   1   8
TORSDOF 1
ENDMDL
MODEL 3
REMARK VINA RESULT: -5.817760681      1.824      4.856
REMARK  1 active torsions:
REMARK  status: ('A' for Active; 'I' for Inactive)
REMARK    1  A    between atoms: N1_4  and  C4_5 
ROOT
HETATM    1  C4  UNL     1       6.351  11.417  45.221  1.00  0.00     0.261 C 
HETATM    2  C5  UNL     1       5.621  12.482  44.443  1.00  0.00     0.064 C 
HETATM    3  C6  UNL     1       4.198  12.660  44.867  1.00  0.00     0.024 A 
HETATM    4  C7  UNL     1       3.843  13.850  45.715  1.00  0.00     0.043 A 
HETATM    5  C8  UNL     1       4.050  12.477  46.315  1.00  0.00     0.165 A 
HETATM    6  O1  UNL     1       5.267  12.325  46.971  1.00  0.00    -0.233 OA
HETATM    7  O2  UNL     1       5.955  11.306  46.531  1.00  0.00    -0.214 OA
ENDROOT
BRANCH   1   8
HETATM    8  N1  UNL     1       6.271  10.114  44.602  1.00  0.00    -0.365 N 
HETATM    9  C3  UNL     1       6.470  10.068  43.218  1.00  0.00     0.060 C 
HETATM   10  C2  UNL     1       7.241   8.936  42.649  1.00  0.00     0.044 C 
HETATM   11  C1  UNL     1       7.368   7.729  43.514  1.00  0.00     0.007 C 
HETATM   12  C10 UNL     1       6.360   7.750  44.668  1.00  0.00     0.020 C 
HETATM   13  C9  UNL     1       6.705   9.047  45.417  1.00  0.00     0.124 C 
ENDBRANCH   1   8
TORSDOF 1
ENDMDL
MODEL 4
REMARK VINA RESULT: -5.777138768      1.280      2.125
REMARK  1 active torsions:
REMARK  status: ('A' for Active; 'I' for Inactive)
REMARK    1  A    between atoms: N1_4  and  C4_5 
ROOT
HETATM    1  C4  UNL     1       7.579  10.024  45.067  1.00  0.00     0.261 C 
HETATM    2  C5  UNL     1       6.763   8.813  45.441  1.00  0.00     0.064 C 
HETATM    3  C6  UNL     1       6.287   8.027  44.261  1.00  0.00     0.024 A 
HETATM    4  C7  UNL     1       6.984   6.738  43.925  1.00  0.00     0.043 A 
HETATM    5  C8  UNL     1       7.288   8.024  43.188  1.00  0.00     0.165 A 
HETATM    6  O1  UNL     1       8.487   8.620  43.562  1.00  0.00    -0.233 OA
HETATM    7  O2  UNL     1       8.340   9.863  43.935  1.00  0.00    -0.214 OA
ENDROOT
BRANCH   1   8
HETATM    8  N1  UNL     1       6.777  11.217  44.919  1.00  0.00    -0.365 N 
HETATM    9  C3  UNL     1       6.893  11.899  43.702  1.00  0.00     0.060 C 
HETATM   10  C2  UNL     1       5.671  12.482  43.097  1.00  0.00     0.044 C 
HETATM   11  C1  UNL     1       4.515  12.680  44.016  1.00  0.00     0.007 C 
HETATM   12  C10 UNL     1       4.938  12.593  45.486  1.00  0.00     0.020 C 
HETATM   13  C9  UNL     1       5.541  11.185  45.599  1.00  0.00     0.124 C 
ENDBRANCH   1   8
TORSDOF 1
ENDMDL
MODEL 5
REMARK VINA RESULT: -5.749135406      1.611      4.623
REMARK  1 active torsions:
REMARK  status: ('A' for Active; 'I' for Inactive)
REMARK    1  A    between atoms: N1_4  and  C4_5 
ROOT
HETATM    1  C4  UNL     1       7.130  11.456  44.698  1.00  0.00     0.261 C 
HETATM    2  C5  UNL     1       6.478  12.131  43.519  1.00  0.00     0.064 C 
HETATM    3  C6  UNL     1       4.985  12.056  43.539  1.00  0.00     0.024 A 
HETATM    4  C7  UNL     1       4.208  13.281  43.935  1.00  0.00     0.043 A 
HETATM    5  C8  UNL     1       4.468  12.153  44.908  1.00  0.00     0.165 A 
HETATM    6  O1  UNL     1       5.458  12.431  45.844  1.00  0.00    -0.233 OA
HETATM    7  O2  UNL     1       6.405  11.532  45.862  1.00  0.00    -0.214 OA
ENDROOT
BRANCH   1   8
HETATM    8  N1  UNL     1       7.451  10.070  44.445  1.00  0.00    -0.365 N 
HETATM    9  C3  UNL     1       6.861   9.127  45.293  1.00  0.00     0.060 C 
HETATM   10  C2  UNL     1       6.383   7.849  44.712  1.00  0.00     0.044 C 
HETATM   11  C1  UNL     1       6.948   7.482  43.383  1.00  0.00     0.007 C 
HETATM   12  C10 UNL     1       8.194   8.310  43.048  1.00  0.00     0.020 C 
HETATM   13  C9  UNL     1       7.680   9.757  43.088  1.00  0.00     0.124 C 
ENDBRANCH   1   8
TORSDOF 1
ENDMDL
