MODEL 1
REMARK VINA RESULT: -5.362186696      0.000      0.000
REMARK  2 active torsions:
REMARK  status: ('A' for Active; 'I' for Inactive)
REMARK    1  A    between atoms: N1_2  and  C2_4 
REMARK    2  A    between atoms: C3_7  and  C4_8 
ROOT
HETATM    1  C2  UNL     1       5.904  11.813  45.494  1.00  0.00     0.073 C 
HETATM    2  N2  UNL     1       6.974  12.177  44.922  1.00  0.00    -0.368 N 
ATOM      3  H2  UNL     1       7.713  12.712  45.379  1.00  0.00     0.161 HD
HETATM    4  C3  UNL     1       7.021  11.747  43.555  1.00  0.00     0.160 C 
HETATM    5  C6  UNL     1       5.584  11.574  43.214  1.00  0.00    -0.014 C 
HETATM    6  C7  UNL     1       4.987  12.967  43.028  1.00  0.00     0.018 C 
HETATM    7  C8  UNL     1       5.234  10.720  42.067  1.00  0.00     0.018 C 
HETATM    8  C9  UNL     1       5.043  11.068  44.547  1.00  0.00     0.087 C 
ENDROOT
BRANCH   1   9
HETATM    9  N1  UNL     1       5.474  12.037  46.844  1.00  0.00    -0.384 N 
HETATM   10  C1  UNL     1       4.067  12.188  47.124  1.00  0.00     0.147 C 
ATOM     11  H1  UNL     1       6.158  12.091  47.599  1.00  0.00     0.160 HD
ENDBRANCH   1   9
BRANCH   4  12
HETATM   12  C4  UNL     1       7.869  10.571  43.370  1.00  0.00     0.146 C 
HETATM   13  C5  UNL     1       8.474  10.171  42.090  1.00  0.00     0.093 C 
HETATM   14  O1  UNL     1       8.100   9.868  44.328  1.00  0.00    -0.296 OA
ENDBRANCH   4  12
TORSDOF 2
ENDMDL
MODEL 2
REMARK VINA RESULT: -5.228734603      1.710      3.966
REMARK  2 active torsions:
REMARK  status: ('A' for Active; 'I' for Inactive)
REMARK    1  A    between atoms: N1_2  and  C2_4 
REMARK    2  A    between atoms: C3_7  and  C4_8 
ROOT
HETATM    1  C2  UNL     1       6.885  10.842  43.861  1.00  0.00     0.073 C 
HETATM    2  N2  UNL     1       5.839  10.392  44.418  1.00  0.00    -0.368 N 
ATOM      3  H2  UNL     1       5.713   9.419  44.694  1.00  0.00     0.161 HD
HETATM    4  C3  UNL     1       4.856  11.418  44.613  1.00  0.00     0.160 C 
HETATM    5  C6  UNL     1       5.217  12.423  43.579  1.00  0.00    -0.014 C 
HETATM    6  C7  UNL     1       4.757  11.875  42.230  1.00  0.00     0.018 C 
HETATM    7  C8  UNL     1       4.741  13.805  43.749  1.00  0.00     0.018 C 
HETATM    8  C9  UNL     1       6.737  12.289  43.582  1.00  0.00     0.087 C 
ENDROOT
BRANCH   1   9
HETATM    9  N1  UNL     1       8.087  10.152  43.495  1.00  0.00    -0.384 N 
HETATM   10  C1  UNL     1       8.383   9.935  42.100  1.00  0.00     0.147 C 
ATOM     11  H1  UNL     1       8.727   9.817  44.216  1.00  0.00     0.160 HD
ENDBRANCH   1   9
BRANCH   4  12
HETATM   12  C4  UNL     1       4.823  11.901  45.992  1.00  0.00     0.146 C 
HETATM   13  C5  UNL     1       3.597  12.262  46.721  1.00  0.00     0.093 C 
HETATM   14  O1  UNL     1       5.869  12.017  46.590  1.00  0.00    -0.296 OA
ENDBRANCH   4  12
TORSDOF 2
ENDMDL
MODEL 3
REMARK VINA RESULT: -5.111973440      0.780      1.004
REMARK  2 active torsions:
REMARK  status: ('A' for Active; 'I' for Inactive)
REMARK    1  A    between atoms: N1_2  and  C2_4 
REMARK    2  A    between atoms: C3_7  and  C4_8 
ROOT
HETATM    1  C2  UNL     1       5.797  11.833  45.631  1.00  0.00     0.073 C 
HETATM    2  N2  UNL     1       6.966  11.986  45.165  1.00  0.00    -0.368 N 
ATOM      3  H2  UNL     1       7.739  12.398  45.686  1.00  0.00     0.161 HD
HETATM    4  C3  UNL     1       7.067  11.510  43.816  1.00  0.00     0.160 C 
HETATM    5  C6  UNL     1       5.663  11.581  43.334  1.00  0.00    -0.014 C 
HETATM    6  C7  UNL     1       5.343  13.050  43.069  1.00  0.00     0.018 C 
HETATM    7  C8  UNL     1       5.280  10.765  42.171  1.00  0.00     0.018 C 
HETATM    8  C9  UNL     1       4.913  11.221  44.614  1.00  0.00     0.087 C 
ENDROOT
BRANCH   1   9
HETATM    9  N1  UNL     1       5.286  12.174  46.927  1.00  0.00    -0.384 N 
HETATM   10  C1  UNL     1       3.859  12.204  47.140  1.00  0.00     0.147 C 
ATOM     11  H1  UNL     1       5.925  12.392  47.692  1.00  0.00     0.160 HD
ENDBRANCH   1   9
BRANCH   4  12
HETATM   12  C4  UNL     1       7.707  10.199  43.736  1.00  0.00     0.146 C 
HETATM   13  C5  UNL     1       7.451   9.087  44.664  1.00  0.00     0.093 C 
HETATM   14  O1  UNL     1       8.506   9.998  42.848  1.00  0.00    -0.296 OA
ENDBRANCH   4  12
TORSDOF 2
ENDMDL
MODEL 4
REMARK VINA RESULT: -5.082342429      2.072      3.879
REMARK  2 active torsions:
REMARK  status: ('A' for Active; 'I' for Inactive)
REMARK    1  A    between atoms: N1_2  and  C2_4 
REMARK    2  A    between atoms: C3_7  and  C4_8 
ROOT
HETATM    1  C2  UNL     1       4.975  12.198  43.332  1.00  0.00     0.073 C 
HETATM    2  N2  UNL     1       5.327  12.909  44.320  1.00  0.00    -0.368 N 
ATOM      3  H2  UNL     1       5.181  13.916  44.381  1.00  0.00     0.161 HD
HETATM    4  C3  UNL     1       5.957  12.125  45.342  1.00  0.00     0.160 C 
HETATM    5  C6  UNL     1       6.457  10.943  44.591  1.00  0.00    -0.014 C 
HETATM    6  C7  UNL     1       7.690  11.387  43.807  1.00  0.00     0.018 C 
HETATM    7  C8  UNL     1       6.754   9.712  45.340  1.00  0.00     0.018 C 
HETATM    8  C9  UNL     1       5.346  10.783  43.557  1.00  0.00     0.087 C 
ENDROOT
BRANCH   1   9
HETATM    9  N1  UNL     1       4.320  12.593  42.118  1.00  0.00    -0.384 N 
HETATM   10  C1  UNL     1       3.852  13.950  41.974  1.00  0.00     0.147 C 
ATOM     11  H1  UNL     1       4.186  11.919  41.364  1.00  0.00     0.160 HD
ENDBRANCH   1   9
BRANCH   4  12
HETATM   12  C4  UNL     1       5.058  11.841  46.459  1.00  0.00     0.146 C 
HETATM   13  C5  UNL     1       3.651  12.265  46.526  1.00  0.00     0.093 C 
HETATM   14  O1  UNL     1       5.486  11.214  47.401  1.00  0.00    -0.296 OA
ENDBRANCH   4  12
TORSDOF 2
ENDMDL
MODEL 5
REMARK VINA RESULT: -4.902925043      1.878      2.557
REMARK  2 active torsions:
REMARK  status: ('A' for Active; 'I' for Inactive)
REMARK    1  A    between atoms: N1_2  and  C2_4 
REMARK    2  A    between atoms: C3_7  and  C4_8 
ROOT
HETATM    1  C2  UNL     1       5.818  10.986  44.918  1.00  0.00     0.073 C 
HETATM    2  N2  UNL     1       6.710  10.537  45.698  1.00  0.00    -0.368 N 
ATOM      3  H2  UNL     1       6.713  10.681  46.707  1.00  0.00     0.161 HD
HETATM    4  C3  UNL     1       7.715   9.800  44.987  1.00  0.00     0.160 C 
HETATM    5  C6  UNL     1       7.621  10.355  43.612  1.00  0.00    -0.014 C 
HETATM    6  C7  UNL     1       8.273  11.736  43.629  1.00  0.00     0.018 C 
HETATM    7  C8  UNL     1       8.159   9.559  42.497  1.00  0.00     0.018 C 
HETATM    8  C9  UNL     1       6.120  10.610  43.519  1.00  0.00     0.087 C 
ENDROOT
BRANCH   1   9
HETATM    9  N1  UNL     1       4.652  11.764  45.226  1.00  0.00    -0.384 N 
HETATM   10  C1  UNL     1       4.431  12.203  46.582  1.00  0.00     0.147 C 
ATOM     11  H1  UNL     1       3.986  12.004  44.492  1.00  0.00     0.160 HD
ENDBRANCH   1   9
BRANCH   4  12
HETATM   12  C4  UNL     1       7.536   8.355  45.109  1.00  0.00     0.146 C 
HETATM   13  C5  UNL     1       6.279   7.643  44.831  1.00  0.00     0.093 C 
HETATM   14  O1  UNL     1       8.478   7.683  45.462  1.00  0.00    -0.296 OA
ENDBRANCH   4  12
TORSDOF 2
ENDMDL
