MODEL 1
REMARK VINA RESULT: -5.062631692      0.000      0.000
REMARK  1 active torsions:
REMARK  status: ('A' for Active; 'I' for Inactive)
REMARK    1  A    between atoms: C3_3  and  O1_4 
ROOT
HETATM    1  C1  UNL     1       9.887   6.017  42.656  1.00  0.00     0.017 C 
HETATM    2  C2  UNL     1       9.131   6.443  43.495  1.00  0.00    -0.050 C 
HETATM    3  C3  UNL     1       8.215   6.940  44.531  1.00  0.00     0.230 C 
HETATM    4  C4  UNL     1       6.784   6.602  44.213  1.00  0.00     0.086 C 
HETATM    5  C5  UNL     1       6.014   7.754  44.771  1.00  0.00     0.044 C 
HETATM    6  C6  UNL     1       7.077   8.784  45.064  1.00  0.00     0.058 C 
HETATM    7  C7  UNL     1       6.710  10.132  44.456  1.00  0.00     0.045 C 
HETATM    8  C8  UNL     1       7.138   8.982  46.556  1.00  0.00     0.045 C 
HETATM    9  O2  UNL     1       8.264   8.311  44.527  1.00  0.00    -0.335 OA
ENDROOT
BRANCH   3  10
HETATM   10  O1  UNL     1       8.629   6.383  45.755  1.00  0.00    -0.355 OA
ATOM     11  H1  UNL     1       7.965   6.598  46.401  1.00  0.00     0.214 HD
ENDBRANCH   3  10
TORSDOF 1
ENDMDL
MODEL 2
REMARK VINA RESULT: -5.029624928      2.926      5.231
REMARK  1 active torsions:
REMARK  status: ('A' for Active; 'I' for Inactive)
REMARK    1  A    between atoms: C3_3  and  O1_4 
ROOT
HETATM    1  C1  UNL     1       3.970  13.321  43.552  1.00  0.00     0.017 C 
HETATM    2  C2  UNL     1       4.764  12.607  44.115  1.00  0.00    -0.050 C 
HETATM    3  C3  UNL     1       5.735  11.757  44.818  1.00  0.00     0.230 C 
HETATM    4  C4  UNL     1       7.096  11.829  44.183  1.00  0.00     0.086 C 
HETATM    5  C5  UNL     1       7.659  10.461  44.391  1.00  0.00     0.044 C 
HETATM    6  C6  UNL     1       6.467   9.649  44.831  1.00  0.00     0.058 C 
HETATM    7  C7  UNL     1       6.340   8.377  44.001  1.00  0.00     0.045 C 
HETATM    8  C8  UNL     1       6.693   9.218  46.256  1.00  0.00     0.045 C 
HETATM    9  O2  UNL     1       5.345  10.449  44.673  1.00  0.00    -0.335 OA
ENDROOT
BRANCH   3  10
HETATM   10  O1  UNL     1       5.757  12.173  46.162  1.00  0.00    -0.355 OA
ATOM     11  H1  UNL     1       5.978  11.414  46.688  1.00  0.00     0.214 HD
ENDBRANCH   3  10
TORSDOF 1
ENDMDL
MODEL 3
REMARK VINA RESULT: -4.859453280      3.072      5.384
REMARK  1 active torsions:
REMARK  status: ('A' for Active; 'I' for Inactive)
REMARK    1  A    between atoms: C3_3  and  O1_4 
ROOT
HETATM    1  C1  UNL     1       3.628  12.747  46.510  1.00  0.00     0.017 C 
HETATM    2  C2  UNL     1       4.483  12.062  46.002  1.00  0.00    -0.050 C 
HETATM    3  C3  UNL     1       5.534  11.225  45.408  1.00  0.00     0.230 C 
HETATM    4  C4  UNL     1       6.642  12.059  44.824  1.00  0.00     0.086 C 
HETATM    5  C5  UNL     1       7.107  11.261  43.651  1.00  0.00     0.044 C 
HETATM    6  C6  UNL     1       6.031  10.219  43.479  1.00  0.00     0.058 C 
HETATM    7  C7  UNL     1       5.539  10.178  42.037  1.00  0.00     0.045 C 
HETATM    8  C8  UNL     1       6.633   8.870  43.772  1.00  0.00     0.045 C 
HETATM    9  O2  UNL     1       4.996  10.553  44.339  1.00  0.00    -0.335 OA
ENDROOT
BRANCH   3  10
HETATM   10  O1  UNL     1       5.999  10.361  46.416  1.00  0.00    -0.355 OA
ATOM     11  H1  UNL     1       5.444   9.591  46.406  1.00  0.00     0.214 HD
ENDBRANCH   3  10
TORSDOF 1
ENDMDL
MODEL 4
REMARK VINA RESULT: -4.688747178      2.734      4.274
REMARK  1 active torsions:
REMARK  status: ('A' for Active; 'I' for Inactive)
REMARK    1  A    between atoms: C3_3  and  O1_4 
ROOT
HETATM    1  C1  UNL     1       9.731  12.675  43.326  1.00  0.00     0.017 C 
HETATM    2  C2  UNL     1       8.755  12.008  43.571  1.00  0.00    -0.050 C 
HETATM    3  C3  UNL     1       7.556  11.205  43.846  1.00  0.00     0.230 C 
HETATM    4  C4  UNL     1       6.607  11.924  44.765  1.00  0.00     0.086 C 
HETATM    5  C5  UNL     1       5.978  10.825  45.557  1.00  0.00     0.044 C 
HETATM    6  C6  UNL     1       6.842   9.627  45.253  1.00  0.00     0.058 C 
HETATM    7  C7  UNL     1       7.285   8.937  46.537  1.00  0.00     0.045 C 
HETATM    8  C8  UNL     1       6.010   8.631  44.489  1.00  0.00     0.045 C 
HETATM    9  O2  UNL     1       7.939  10.084  44.539  1.00  0.00    -0.335 OA
ENDROOT
BRANCH   3  10
HETATM   10  O1  UNL     1       6.963  10.903  42.606  1.00  0.00    -0.355 OA
ATOM     11  H1  UNL     1       7.660  10.642  42.016  1.00  0.00     0.214 HD
ENDBRANCH   3  10
TORSDOF 1
ENDMDL
MODEL 5
REMARK VINA RESULT: -4.680750180      3.756      5.776
REMARK  1 active torsions:
REMARK  status: ('A' for Active; 'I' for Inactive)
REMARK    1  A    between atoms: C3_3  and  O1_4 
ROOT
HETATM    1  C1  UNL     1       3.683  13.708  42.084  1.00  0.00     0.017 C 
HETATM    2  C2  UNL     1       4.362  12.878  42.637  1.00  0.00    -0.050 C 
HETATM    3  C3  UNL     1       5.169  11.852  43.313  1.00  0.00     0.230 C 
HETATM    4  C4  UNL     1       5.326  12.150  44.779  1.00  0.00     0.086 C 
HETATM    5  C5  UNL     1       6.686  11.624  45.104  1.00  0.00     0.044 C 
HETATM    6  C6  UNL     1       7.303  11.370  43.752  1.00  0.00     0.058 C 
HETATM    7  C7  UNL     1       8.678  12.019  43.652  1.00  0.00     0.045 C 
HETATM    8  C8  UNL     1       7.509   9.887  43.602  1.00  0.00     0.045 C 
HETATM    9  O2  UNL     1       6.441  11.901  42.803  1.00  0.00    -0.335 OA
ENDROOT
BRANCH   3  10
HETATM   10  O1  UNL     1       4.539  10.614  43.091  1.00  0.00    -0.355 OA
ATOM     11  H1  UNL     1       4.921   9.991  43.697  1.00  0.00     0.214 HD
ENDBRANCH   3  10
TORSDOF 1
ENDMDL
