MODEL 1
REMARK VINA RESULT: -5.443820432      0.000      0.000
REMARK  11 active torsions:
REMARK  status: ('A' for Active; 'I' for Inactive)
REMARK    1  A    between atoms: N1_1  and  N2_4 
REMARK       I    between atoms: N2_4  and  C1_6 
REMARK    2  A    between atoms: C1_6  and  O2_8 
REMARK    3  A    between atoms: O2_8  and  N3_9 
REMARK    4  A    between atoms: C3_13  and  N4_14 
REMARK    5  A    between atoms: C4_18  and  O4_19 
REMARK    6  A    between atoms: C4_18  and  C5_21 
REMARK    7  A    between atoms: C8_26  and  O7_27 
REMARK    8  A    between atoms: C8_26  and  C9_29 
REMARK    9  A    between atoms: C9_29  and  O8_30 
REMARK   10  A    between atoms: C9_29  and  C10_32 
REMARK   11  A    between atoms: C10_32  and  O9_33 
ROOT
HETATM    1  N3  UNL     1      27.018 -34.930  12.122  1.00  0.00    -0.235 N 
ATOM      2  H3  UNL     1      26.379 -34.711  12.886  1.00  0.00     0.197 HD
HETATM    3  C2  UNL     1      26.725 -34.459  10.964  1.00  0.00     0.178 C 
HETATM    4  O3  UNL     1      27.532 -34.707   9.891  1.00  0.00    -0.298 OA
HETATM    5  C3  UNL     1      27.792 -34.061   8.680  1.00  0.00     0.371 C 
HETATM    6  C4  UNL     1      27.800 -32.559   8.770  1.00  0.00     0.198 C 
HETATM    7  C6  UNL     1      26.850 -32.020   9.807  1.00  0.00     0.057 C 
HETATM    8  C7  UNL     1      25.502 -32.682   9.793  1.00  0.00     0.053 C 
HETATM    9  C8  UNL     1      25.478 -33.660  10.939  1.00  0.00     0.152 C 
ENDROOT
BRANCH   1  10
HETATM   10  O2  UNL     1      28.094 -35.689  12.420  1.00  0.00    -0.178 OA
BRANCH  10  11
HETATM   11  C1  UNL     1      28.123 -36.423  13.596  1.00  0.00     0.401 C 
HETATM   12  N2  UNL     1      27.728 -35.917  14.850  1.00  0.00    -0.250 N 
ATOM     13  H2  UNL     1      27.396 -34.957  14.937  1.00  0.00     0.191 HD
HETATM   14  O1  UNL     1      28.541 -37.626  13.481  1.00  0.00    -0.235 OA
BRANCH  12  15
HETATM   15  N1  UNL     1      27.796 -36.741  15.968  1.00  0.00    -0.341 N 
ATOM     16  H12 UNL     1      28.568 -36.629  16.625  1.00  0.00     0.177 HD
ATOM     17  H11 UNL     1      27.073 -37.445  16.113  1.00  0.00     0.177 HD
ENDBRANCH  12  15
ENDBRANCH  10  11
ENDBRANCH   1  10
BRANCH   9  18
HETATM   18  O7  UNL     1      25.512 -32.870  12.115  1.00  0.00    -0.379 OA
ATOM     19  H7  UNL     1      24.914 -32.150  11.955  1.00  0.00     0.211 HD
ENDBRANCH   9  18
BRANCH   9  20
HETATM   20  C9  UNL     1      24.241 -34.475  11.013  1.00  0.00     0.184 C 
BRANCH  20  21
HETATM   21  O8  UNL     1      24.354 -35.529  10.108  1.00  0.00    -0.390 OA
ATOM     22  H8  UNL     1      23.498 -35.692   9.730  1.00  0.00     0.210 HD
ENDBRANCH  20  21
BRANCH  20  23
HETATM   23  C10 UNL     1      22.984 -33.725  10.674  1.00  0.00     0.199 C 
BRANCH  23  24
HETATM   24  O9  UNL     1      22.523 -32.954  11.727  1.00  0.00    -0.398 OA
ATOM     25  H9  UNL     1      22.490 -32.029  11.515  1.00  0.00     0.209 HD
ENDBRANCH  23  24
ENDBRANCH  20  23
ENDBRANCH   9  20
BRANCH   5  26
HETATM   26  N4  UNL     1      26.967 -34.519   7.591  1.00  0.00    -0.049 N 
ATOM     27  H43 UNL     1      26.051 -34.071   7.621  1.00  0.00     0.277 HD
ATOM     28  H42 UNL     1      27.308 -34.151   6.702  1.00  0.00     0.277 HD
ATOM     29  H41 UNL     1      26.870 -35.533   7.548  1.00  0.00     0.277 HD
ENDBRANCH   5  26
BRANCH   6  30
HETATM   30  O4  UNL     1      27.404 -32.017   7.542  1.00  0.00    -0.375 OA
ATOM     31  H4  UNL     1      26.527 -31.661   7.623  1.00  0.00     0.211 HD
ENDBRANCH   6  30
BRANCH   6  32
HETATM   32  C5  UNL     1      29.146 -32.042   9.096  1.00  0.00     0.213 C 
HETATM   33  O5  UNL     1      29.864 -32.597   9.951  1.00  0.00    -0.646 OA
HETATM   34  O6  UNL     1      29.602 -30.924   8.432  1.00  0.00    -0.646 OA
ENDBRANCH   6  32
TORSDOF 11
ENDMDL
MODEL 2
REMARK VINA RESULT: -5.358186399      0.662      1.135
REMARK  11 active torsions:
REMARK  status: ('A' for Active; 'I' for Inactive)
REMARK    1  A    between atoms: N1_1  and  N2_4 
REMARK       I    between atoms: N2_4  and  C1_6 
REMARK    2  A    between atoms: C1_6  and  O2_8 
REMARK    3  A    between atoms: O2_8  and  N3_9 
REMARK    4  A    between atoms: C3_13  and  N4_14 
REMARK    5  A    between atoms: C4_18  and  O4_19 
REMARK    6  A    between atoms: C4_18  and  C5_21 
REMARK    7  A    between atoms: C8_26  and  O7_27 
REMARK    8  A    between atoms: C8_26  and  C9_29 
REMARK    9  A    between atoms: C9_29  and  O8_30 
REMARK   10  A    between atoms: C9_29  and  C10_32 
REMARK   11  A    between atoms: C10_32  and  O9_33 
ROOT
HETATM    1  N3  UNL     1      27.015 -34.929  12.090  1.00  0.00    -0.235 N 
ATOM      2  H3  UNL     1      26.368 -34.709  12.847  1.00  0.00     0.197 HD
HETATM    3  C2  UNL     1      26.735 -34.462  10.928  1.00  0.00     0.178 C 
HETATM    4  O3  UNL     1      27.554 -34.711   9.865  1.00  0.00    -0.298 OA
HETATM    5  C3  UNL     1      27.827 -34.068   8.655  1.00  0.00     0.371 C 
HETATM    6  C4  UNL     1      27.832 -32.566   8.741  1.00  0.00     0.198 C 
HETATM    7  C6  UNL     1      26.869 -32.025   9.766  1.00  0.00     0.057 C 
HETATM    8  C7  UNL     1      25.523 -32.689   9.738  1.00  0.00     0.053 C 
HETATM    9  C8  UNL     1      25.487 -33.664  10.886  1.00  0.00     0.152 C 
ENDROOT
BRANCH   1  10
HETATM   10  O2  UNL     1      28.089 -35.686  12.402  1.00  0.00    -0.178 OA
BRANCH  10  11
HETATM   11  C1  UNL     1      28.111 -36.407  13.587  1.00  0.00     0.401 C 
HETATM   12  N2  UNL     1      27.708 -35.887  14.833  1.00  0.00    -0.250 N 
ATOM     13  H2  UNL     1      27.374 -34.926  14.906  1.00  0.00     0.191 HD
HETATM   14  O1  UNL     1      28.530 -37.610  13.488  1.00  0.00    -0.235 OA
BRANCH  12  15
HETATM   15  N1  UNL     1      27.769 -36.698  15.960  1.00  0.00    -0.341 N 
ATOM     16  H12 UNL     1      28.567 -37.322  16.084  1.00  0.00     0.177 HD
ATOM     17  H11 UNL     1      27.016 -36.657  16.645  1.00  0.00     0.177 HD
ENDBRANCH  12  15
ENDBRANCH  10  11
ENDBRANCH   1  10
BRANCH   9  18
HETATM   18  O7  UNL     1      25.507 -32.871  12.061  1.00  0.00    -0.379 OA
ATOM     19  H7  UNL     1      25.004 -32.093  11.851  1.00  0.00     0.211 HD
ENDBRANCH   9  18
BRANCH   9  20
HETATM   20  C9  UNL     1      24.251 -34.481  10.949  1.00  0.00     0.184 C 
BRANCH  20  21
HETATM   21  O8  UNL     1      24.019 -34.826  12.279  1.00  0.00    -0.390 OA
ATOM     22  H8  UNL     1      24.238 -35.744  12.393  1.00  0.00     0.210 HD
ENDBRANCH  20  21
BRANCH  20  23
HETATM   23  C10 UNL     1      24.311 -35.757  10.158  1.00  0.00     0.199 C 
BRANCH  23  24
HETATM   24  O9  UNL     1      24.197 -35.544   8.795  1.00  0.00    -0.398 OA
ATOM     25  H9  UNL     1      23.380 -35.875   8.441  1.00  0.00     0.209 HD
ENDBRANCH  23  24
ENDBRANCH  20  23
ENDBRANCH   9  20
BRANCH   5  26
HETATM   26  N4  UNL     1      27.014 -34.530   7.558  1.00  0.00    -0.049 N 
ATOM     27  H43 UNL     1      26.222 -35.072   7.901  1.00  0.00     0.277 HD
ATOM     28  H42 UNL     1      26.515 -33.751   7.128  1.00  0.00     0.277 HD
ATOM     29  H41 UNL     1      27.534 -35.057   6.856  1.00  0.00     0.277 HD
ENDBRANCH   5  26
BRANCH   6  30
HETATM   30  O4  UNL     1      27.449 -32.028   7.507  1.00  0.00    -0.375 OA
ATOM     31  H4  UNL     1      27.527 -32.694   6.835  1.00  0.00     0.211 HD
ENDBRANCH   6  30
BRANCH   6  32
HETATM   32  C5  UNL     1      29.173 -32.047   9.080  1.00  0.00     0.213 C 
HETATM   33  O5  UNL     1      29.880 -32.595   9.948  1.00  0.00    -0.646 OA
HETATM   34  O6  UNL     1      29.638 -30.934   8.414  1.00  0.00    -0.646 OA
ENDBRANCH   6  32
TORSDOF 11
ENDMDL
MODEL 3
REMARK VINA RESULT: -5.206033062      1.284      1.764
REMARK  11 active torsions:
REMARK  status: ('A' for Active; 'I' for Inactive)
REMARK    1  A    between atoms: N1_1  and  N2_4 
REMARK       I    between atoms: N2_4  and  C1_6 
REMARK    2  A    between atoms: C1_6  and  O2_8 
REMARK    3  A    between atoms: O2_8  and  N3_9 
REMARK    4  A    between atoms: C3_13  and  N4_14 
REMARK    5  A    between atoms: C4_18  and  O4_19 
REMARK    6  A    between atoms: C4_18  and  C5_21 
REMARK    7  A    between atoms: C8_26  and  O7_27 
REMARK    8  A    between atoms: C8_26  and  C9_29 
REMARK    9  A    between atoms: C9_29  and  O8_30 
REMARK   10  A    between atoms: C9_29  and  C10_32 
REMARK   11  A    between atoms: C10_32  and  O9_33 
ROOT
HETATM    1  N3  UNL     1      27.112 -34.819  12.106  1.00  0.00    -0.235 N 
ATOM      2  H3  UNL     1      26.440 -34.612  12.846  1.00  0.00     0.197 HD
HETATM    3  C2  UNL     1      26.819 -34.417  10.923  1.00  0.00     0.178 C 
HETATM    4  O3  UNL     1      27.667 -34.654   9.881  1.00  0.00    -0.298 OA
HETATM    5  C3  UNL     1      27.916 -34.043   8.649  1.00  0.00     0.371 C 
HETATM    6  C4  UNL     1      27.821 -32.542   8.675  1.00  0.00     0.198 C 
HETATM    7  C6  UNL     1      26.810 -32.025   9.665  1.00  0.00     0.057 C 
HETATM    8  C7  UNL     1      25.511 -32.778   9.648  1.00  0.00     0.053 C 
HETATM    9  C8  UNL     1      25.522 -33.706  10.834  1.00  0.00     0.152 C 
ENDROOT
BRANCH   1  10
HETATM   10  O2  UNL     1      28.228 -35.490  12.462  1.00  0.00    -0.178 OA
BRANCH  10  11
HETATM   11  C1  UNL     1      28.131 -36.760  13.010  1.00  0.00     0.401 C 
HETATM   12  N2  UNL     1      27.646 -37.884  12.312  1.00  0.00    -0.250 N 
ATOM     13  H2  UNL     1      27.339 -37.796  11.344  1.00  0.00     0.191 HD
HETATM   14  O1  UNL     1      28.517 -36.864  14.225  1.00  0.00    -0.235 OA
BRANCH  12  15
HETATM   15  N1  UNL     1      27.591 -39.114  12.958  1.00  0.00    -0.341 N 
ATOM     16  H12 UNL     1      27.620 -39.145  13.977  1.00  0.00     0.177 HD
ATOM     17  H11 UNL     1      27.524 -39.966  12.403  1.00  0.00     0.177 HD
ENDBRANCH  12  15
ENDBRANCH  10  11
ENDBRANCH   1  10
BRANCH   9  18
HETATM   18  O7  UNL     1      25.473 -32.868  11.976  1.00  0.00    -0.379 OA
ATOM     19  H7  UNL     1      24.550 -32.707  12.133  1.00  0.00     0.211 HD
ENDBRANCH   9  18
BRANCH   9  20
HETATM   20  C9  UNL     1      24.341 -34.600  10.915  1.00  0.00     0.184 C 
BRANCH  20  21
HETATM   21  O8  UNL     1      24.061 -34.838  12.259  1.00  0.00    -0.390 OA
ATOM     22  H8  UNL     1      24.561 -35.595  12.540  1.00  0.00     0.210 HD
ENDBRANCH  20  21
BRANCH  20  23
HETATM   23  C10 UNL     1      24.529 -35.936  10.253  1.00  0.00     0.199 C 
BRANCH  23  24
HETATM   24  O9  UNL     1      24.862 -36.934  11.152  1.00  0.00    -0.398 OA
ATOM     25  H9  UNL     1      24.427 -37.756  10.962  1.00  0.00     0.209 HD
ENDBRANCH  23  24
ENDBRANCH  20  23
ENDBRANCH   9  20
BRANCH   5  26
HETATM   26  N4  UNL     1      27.151 -34.601   7.562  1.00  0.00    -0.049 N 
ATOM     27  H43 UNL     1      26.320 -35.076   7.914  1.00  0.00     0.277 HD
ATOM     28  H42 UNL     1      26.708 -33.861   7.018  1.00  0.00     0.277 HD
ATOM     29  H41 UNL     1      27.691 -35.219   6.957  1.00  0.00     0.277 HD
ENDBRANCH   5  26
BRANCH   6  30
HETATM   30  O4  UNL     1      27.422 -32.079   7.416  1.00  0.00    -0.375 OA
ATOM     31  H4  UNL     1      26.794 -31.374   7.523  1.00  0.00     0.211 HD
ENDBRANCH   6  30
BRANCH   6  32
HETATM   32  C5  UNL     1      29.120 -31.922   9.009  1.00  0.00     0.213 C 
HETATM   33  O5  UNL     1      29.494 -30.866   8.462  1.00  0.00    -0.646 OA
HETATM   34  O6  UNL     1      29.924 -32.535   9.946  1.00  0.00    -0.646 OA
ENDBRANCH   6  32
TORSDOF 11
ENDMDL
MODEL 4
REMARK VINA RESULT: -5.197625062      2.267      3.734
REMARK  11 active torsions:
REMARK  status: ('A' for Active; 'I' for Inactive)
REMARK    1  A    between atoms: N1_1  and  N2_4 
REMARK       I    between atoms: N2_4  and  C1_6 
REMARK    2  A    between atoms: C1_6  and  O2_8 
REMARK    3  A    between atoms: O2_8  and  N3_9 
REMARK    4  A    between atoms: C3_13  and  N4_14 
REMARK    5  A    between atoms: C4_18  and  O4_19 
REMARK    6  A    between atoms: C4_18  and  C5_21 
REMARK    7  A    between atoms: C8_26  and  O7_27 
REMARK    8  A    between atoms: C8_26  and  C9_29 
REMARK    9  A    between atoms: C9_29  and  O8_30 
REMARK   10  A    between atoms: C9_29  and  C10_32 
REMARK   11  A    between atoms: C10_32  and  O9_33 
ROOT
HETATM    1  N3  UNL     1      28.137 -34.232  10.227  1.00  0.00    -0.235 N 
ATOM      2  H3  UNL     1      28.687 -33.670  10.877  1.00  0.00     0.197 HD
HETATM    3  C2  UNL     1      27.889 -33.717   9.077  1.00  0.00     0.178 C 
HETATM    4  O3  UNL     1      27.161 -34.407   8.151  1.00  0.00    -0.298 OA
HETATM    5  C3  UNL     1      27.071 -34.398   6.757  1.00  0.00     0.371 C 
HETATM    6  C4  UNL     1      28.381 -34.169   6.055  1.00  0.00     0.198 C 
HETATM    7  C6  UNL     1      29.325 -33.284   6.828  1.00  0.00     0.057 C 
HETATM    8  C7  UNL     1      28.665 -32.075   7.426  1.00  0.00     0.053 C 
HETATM    9  C8  UNL     1      28.459 -32.362   8.890  1.00  0.00     0.152 C 
ENDROOT
BRANCH   1  10
HETATM   10  O2  UNL     1      27.737 -35.449  10.653  1.00  0.00    -0.178 OA
BRANCH  10  11
HETATM   11  C1  UNL     1      27.318 -35.622  11.964  1.00  0.00     0.401 C 
HETATM   12  N2  UNL     1      26.549 -34.682  12.676  1.00  0.00    -0.250 N 
ATOM     13  H2  UNL     1      26.264 -33.808  12.233  1.00  0.00     0.191 HD
HETATM   14  O1  UNL     1      27.680 -36.719  12.514  1.00  0.00    -0.235 OA
BRANCH  12  15
HETATM   15  N1  UNL     1      26.182 -34.956  13.989  1.00  0.00    -0.341 N 
ATOM     16  H12 UNL     1      25.488 -35.681  14.173  1.00  0.00     0.177 HD
ATOM     17  H11 UNL     1      26.613 -34.429  14.748  1.00  0.00     0.177 HD
ENDBRANCH  12  15
ENDBRANCH  10  11
ENDBRANCH   1  10
BRANCH   9  18
HETATM   18  O7  UNL     1      29.758 -32.418   9.455  1.00  0.00    -0.379 OA
ATOM     19  H7  UNL     1      29.705 -31.916  10.260  1.00  0.00     0.211 HD
ENDBRANCH   9  18
BRANCH   9  20
HETATM   20  C9  UNL     1      27.726 -31.298   9.619  1.00  0.00     0.184 C 
BRANCH  20  21
HETATM   21  O8  UNL     1      28.159 -31.294  10.943  1.00  0.00    -0.390 OA
ATOM     22  H8  UNL     1      28.439 -30.414  11.164  1.00  0.00     0.210 HD
ENDBRANCH  20  21
BRANCH  20  23
HETATM   23  C10 UNL     1      26.233 -31.474   9.635  1.00  0.00     0.199 C 
BRANCH  23  24
HETATM   24  O9  UNL     1      25.800 -32.245  10.700  1.00  0.00    -0.398 OA
ATOM     25  H9  UNL     1      25.629 -33.146  10.453  1.00  0.00     0.209 HD
ENDBRANCH  23  24
ENDBRANCH  20  23
ENDBRANCH   9  20
BRANCH   5  26
HETATM   26  N4  UNL     1      26.042 -33.525   6.251  1.00  0.00    -0.049 N 
ATOM     27  H43 UNL     1      25.711 -33.849   5.342  1.00  0.00     0.277 HD
ATOM     28  H42 UNL     1      25.183 -33.629   6.792  1.00  0.00     0.277 HD
ATOM     29  H41 UNL     1      26.321 -32.546   6.204  1.00  0.00     0.277 HD
ENDBRANCH   5  26
BRANCH   6  30
HETATM   30  O4  UNL     1      28.148 -33.532   4.831  1.00  0.00    -0.375 OA
ATOM     31  H4  UNL     1      28.892 -32.983   4.614  1.00  0.00     0.211 HD
ENDBRANCH   6  30
BRANCH   6  32
HETATM   32  C5  UNL     1      29.086 -35.440   5.792  1.00  0.00     0.213 C 
HETATM   33  O5  UNL     1      30.047 -35.497   5.001  1.00  0.00    -0.646 OA
HETATM   34  O6  UNL     1      28.660 -36.578   6.443  1.00  0.00    -0.646 OA
ENDBRANCH   6  32
TORSDOF 11
ENDMDL
MODEL 5
REMARK VINA RESULT: -5.183274180      2.379      4.823
REMARK  11 active torsions:
REMARK  status: ('A' for Active; 'I' for Inactive)
REMARK    1  A    between atoms: N1_1  and  N2_4 
REMARK       I    between atoms: N2_4  and  C1_6 
REMARK    2  A    between atoms: C1_6  and  O2_8 
REMARK    3  A    between atoms: O2_8  and  N3_9 
REMARK    4  A    between atoms: C3_13  and  N4_14 
REMARK    5  A    between atoms: C4_18  and  O4_19 
REMARK    6  A    between atoms: C4_18  and  C5_21 
REMARK    7  A    between atoms: C8_26  and  O7_27 
REMARK    8  A    between atoms: C8_26  and  C9_29 
REMARK    9  A    between atoms: C9_29  and  O8_30 
REMARK   10  A    between atoms: C9_29  and  C10_32 
REMARK   11  A    between atoms: C10_32  and  O9_33 
ROOT
HETATM    1  N3  UNL     1      26.924 -33.881  11.661  1.00  0.00    -0.235 N 
ATOM      2  H3  UNL     1      27.873 -34.243  11.565  1.00  0.00     0.197 HD
HETATM    3  C2  UNL     1      26.481 -33.148  10.705  1.00  0.00     0.178 C 
HETATM    4  O3  UNL     1      25.221 -32.627  10.758  1.00  0.00    -0.298 OA
HETATM    5  C3  UNL     1      24.285 -32.204   9.810  1.00  0.00     0.371 C 
HETATM    6  C4  UNL     1      24.255 -33.037   8.558  1.00  0.00     0.198 C 
HETATM    7  C6  UNL     1      25.599 -33.612   8.192  1.00  0.00     0.057 C 
HETATM    8  C7  UNL     1      26.729 -32.631   8.318  1.00  0.00     0.053 C 
HETATM    9  C8  UNL     1      27.450 -32.949   9.602  1.00  0.00     0.152 C 
ENDROOT
BRANCH   1  10
HETATM   10  O2  UNL     1      26.249 -34.217  12.780  1.00  0.00    -0.178 OA
BRANCH  10  11
HETATM   11  C1  UNL     1      25.312 -35.239  12.747  1.00  0.00     0.401 C 
HETATM   12  N2  UNL     1      23.962 -35.058  12.389  1.00  0.00    -0.250 N 
ATOM     13  H2  UNL     1      23.616 -34.133  12.133  1.00  0.00     0.191 HD
HETATM   14  O1  UNL     1      25.751 -36.396  13.069  1.00  0.00    -0.235 OA
BRANCH  12  15
HETATM   15  N1  UNL     1      23.106 -36.154  12.388  1.00  0.00    -0.341 N 
ATOM     16  H12 UNL     1      23.421 -37.035  11.981  1.00  0.00     0.177 HD
ATOM     17  H11 UNL     1      22.175 -36.060  12.794  1.00  0.00     0.177 HD
ENDBRANCH  12  15
ENDBRANCH  10  11
ENDBRANCH   1  10
BRANCH   9  18
HETATM   18  O7  UNL     1      28.053 -34.216   9.397  1.00  0.00    -0.379 OA
ATOM     19  H7  UNL     1      27.338 -34.841   9.401  1.00  0.00     0.211 HD
ENDBRANCH   9  18
BRANCH   9  20
HETATM   20  C9  UNL     1      28.548 -32.007   9.929  1.00  0.00     0.184 C 
BRANCH  20  21
HETATM   21  O8  UNL     1      28.036 -31.004  10.750  1.00  0.00    -0.390 OA
ATOM     22  H8  UNL     1      28.312 -30.163  10.404  1.00  0.00     0.210 HD
ENDBRANCH  20  21
BRANCH  20  23
HETATM   23  C10 UNL     1      29.166 -31.337   8.734  1.00  0.00     0.199 C 
BRANCH  23  24
HETATM   24  O9  UNL     1      30.489 -31.696   8.548  1.00  0.00    -0.398 OA
ATOM     25  H9  UNL     1      30.777 -31.577   7.651  1.00  0.00     0.209 HD
ENDBRANCH  23  24
ENDBRANCH  20  23
ENDBRANCH   9  20
BRANCH   5  26
HETATM   26  N4  UNL     1      24.364 -30.798   9.507  1.00  0.00    -0.049 N 
ATOM     27  H43 UNL     1      23.985 -30.608   8.579  1.00  0.00     0.277 HD
ATOM     28  H42 UNL     1      23.701 -30.270  10.074  1.00  0.00     0.277 HD
ATOM     29  H41 UNL     1      25.304 -30.411   9.597  1.00  0.00     0.277 HD
ENDBRANCH   5  26
BRANCH   6  30
HETATM   30  O4  UNL     1      23.854 -32.240   7.479  1.00  0.00    -0.375 OA
ATOM     31  H4  UNL     1      23.300 -32.750   6.900  1.00  0.00     0.211 HD
ENDBRANCH   6  30
BRANCH   6  32
HETATM   32  C5  UNL     1      23.312 -34.167   8.679  1.00  0.00     0.213 C 
HETATM   33  O5  UNL     1      22.199 -34.146   8.118  1.00  0.00    -0.646 OA
HETATM   34  O6  UNL     1      23.683 -35.260   9.431  1.00  0.00    -0.646 OA
ENDBRANCH   6  32
TORSDOF 11
ENDMDL
