MODEL 1
REMARK VINA RESULT: -7.495881246      0.000      0.000
REMARK  12 active torsions:
REMARK  status: ('A' for Active; 'I' for Inactive)
REMARK    1  A    between atoms: C3_3  and  N1_4 
REMARK    2  A    between atoms: N1_4  and  C4_5 
REMARK    3  A    between atoms: C7_8  and  O1_9 
REMARK    4  A    between atoms: C7_8  and  N2_11 
REMARK    5  A    between atoms: C8_12  and  C9_13 
REMARK    6  A    between atoms: C9_13  and  N3_14 
REMARK    7  A    between atoms: N3_14  and  N4_16 
REMARK    8  A    between atoms: N5_22  and  C14_23 
REMARK    9  A    between atoms: C14_23  and  C16_25 
REMARK   10  A    between atoms: C16_25  and  O2_26 
REMARK   11  A    between atoms: C22_34  and  C23_35 
REMARK   12  A    between atoms: C29_43  and  C30_44 
ROOT
HETATM    1  C1  UNL     1       9.899 -16.035   8.856  1.00  0.00     0.013 C 
HETATM    2  C2  UNL     1       9.729 -16.740   9.818  1.00  0.00    -0.089 C 
HETATM    3  C3  UNL     1       9.528 -17.608  10.950  1.00  0.00     0.337 C 
ENDROOT
BRANCH   3   4
HETATM    4  N1  UNL     1       9.587 -17.019  12.271  1.00  0.00    -0.014 N 
HETATM    5  C6  UNL     1      10.486 -15.887  12.387  1.00  0.00     0.167 C 
HETATM    6  C7  UNL     1      11.637 -15.835  13.241  1.00  0.00     0.174 C 
HETATM    7  C24 UNL     1       9.886 -14.537  12.133  1.00  0.00     0.079 C 
HETATM    8  C25 UNL     1       8.428 -14.369  12.020  1.00  0.00    -0.040 C 
HETATM    9  C26 UNL     1       7.844 -13.621  13.238  1.00  0.00     0.015 C 
HETATM   10  C27 UNL     1       8.024 -13.435  10.863  1.00  0.00     0.015 C 
HETATM   11  C28 UNL     1       7.656 -15.625  11.870  1.00  0.00     0.052 C 
HETATM   12  C29 UNL     1       8.323 -16.638  12.823  1.00  0.00     0.304 C 
BRANCH   4  13
HETATM   13  C4  UNL     1      10.149 -18.111  13.079  1.00  0.00     0.241 C 
HETATM   14  C5  UNL     1      10.514 -19.363  12.367  1.00  0.00     0.035 C 
ENDBRANCH   4  13
BRANCH   6  15
HETATM   15  O1  UNL     1      12.667 -16.316  12.590  1.00  0.00    -0.344 OA
ATOM     16  H1  UNL     1      12.839 -17.198  12.900  1.00  0.00     0.219 HD
ENDBRANCH   6  15
BRANCH   6  17
HETATM   17  N2  UNL     1      12.071 -15.453  14.529  1.00  0.00    -0.317 N 
HETATM   18  C8  UNL     1      11.282 -15.764  15.693  1.00  0.00     0.112 C 
HETATM   19  C11 UNL     1      10.351 -14.634  16.134  1.00  0.00     0.024 C 
HETATM   20  C12 UNL     1       8.888 -14.997  15.931  1.00  0.00     0.014 C 
HETATM   21  C13 UNL     1      10.494 -14.287  17.586  1.00  0.00     0.132 C 
HETATM   22  N5  UNL     1      10.791 -12.886  17.754  1.00  0.00    -0.345 N 
HETATM   23  C17 UNL     1      11.889 -12.363  16.988  1.00  0.00     0.221 C 
HETATM   24  O3  UNL     1      11.774 -11.175  16.588  1.00  0.00    -0.273 OA
HETATM   25  C18 UNL     1      13.092 -13.186  16.692  1.00  0.00     0.118 C 
HETATM   26  C19 UNL     1      13.428 -13.426  15.298  1.00  0.00     0.010 C 
HETATM   27  C20 UNL     1      14.985 -13.166  15.220  1.00  0.00     0.022 C 
HETATM   28  C21 UNL     1      12.967 -12.278  14.422  1.00  0.00     0.022 C 
HETATM   29  C22 UNL     1      13.334 -14.774  14.672  1.00  0.00     0.099 C 
BRANCH  18  30
HETATM   30  C9  UNL     1      10.490 -17.021  15.770  1.00  0.00     0.138 C 
BRANCH  30  31
HETATM   31  N3  UNL     1      11.183 -18.244  16.080  1.00  0.00    -0.240 NA
HETATM   32  C10 UNL     1      10.228 -19.068  16.871  1.00  0.00     0.135 C 
BRANCH  31  33
HETATM   33  N4  UNL     1      12.184 -17.956  17.068  1.00  0.00    -0.364 NA
ATOM     34  H42 UNL     1      11.926 -17.007  17.338  1.00  0.00     0.171 HD
ATOM     35  H41 UNL     1      13.085 -17.879  16.597  1.00  0.00     0.171 HD
ENDBRANCH  31  33
ENDBRANCH  30  31
ENDBRANCH  18  30
BRANCH  22  36
HETATM   36  C14 UNL     1      10.055 -12.018  18.670  1.00  0.00     0.106 C 
HETATM   37  C15 UNL     1      10.851 -11.893  19.935  1.00  0.00     0.034 C 
BRANCH  36  38
HETATM   38  C16 UNL     1       8.675 -12.456  18.985  1.00  0.00     0.189 C 
BRANCH  38  39
HETATM   39  O2  UNL     1       8.217 -11.680  20.048  1.00  0.00    -0.399 OA
ATOM     40  H2  UNL     1       7.533 -12.169  20.488  1.00  0.00     0.209 HD
ENDBRANCH  38  39
ENDBRANCH  36  38
ENDBRANCH  22  36
BRANCH  29  41
HETATM   41  C23 UNL     1      14.428 -15.665  15.208  1.00  0.00     0.223 C 
HETATM   42  O4  UNL     1      15.314 -16.190  14.503  1.00  0.00    -0.643 OA
HETATM   43  O5  UNL     1      14.555 -15.982  16.556  1.00  0.00    -0.643 OA
ENDBRANCH  29  41
ENDBRANCH   6  17
BRANCH  12  44
HETATM   44  C30 UNL     1       7.251 -17.536  13.194  1.00  0.00     0.416 C 
HETATM   45  F1  UNL     1       7.079 -18.707  12.487  1.00  0.00    -0.169 F 
HETATM   46  F2  UNL     1       6.053 -16.847  12.922  1.00  0.00    -0.169 F 
HETATM   47  F3  UNL     1       7.061 -17.748  14.557  1.00  0.00    -0.169 F 
ENDBRANCH  12  44
ENDBRANCH   3   4
TORSDOF 12
ENDMDL
MODEL 2
REMARK VINA RESULT: -7.444952844      3.576      6.681
REMARK  12 active torsions:
REMARK  status: ('A' for Active; 'I' for Inactive)
REMARK    1  A    between atoms: C3_3  and  N1_4 
REMARK    2  A    between atoms: N1_4  and  C4_5 
REMARK    3  A    between atoms: C7_8  and  O1_9 
REMARK    4  A    between atoms: C7_8  and  N2_11 
REMARK    5  A    between atoms: C8_12  and  C9_13 
REMARK    6  A    between atoms: C9_13  and  N3_14 
REMARK    7  A    between atoms: N3_14  and  N4_16 
REMARK    8  A    between atoms: N5_22  and  C14_23 
REMARK    9  A    between atoms: C14_23  and  C16_25 
REMARK   10  A    between atoms: C16_25  and  O2_26 
REMARK   11  A    between atoms: C22_34  and  C23_35 
REMARK   12  A    between atoms: C29_43  and  C30_44 
ROOT
HETATM    1  C1  UNL     1      10.914 -20.485  18.472  1.00  0.00     0.013 C 
HETATM    2  C2  UNL     1      11.693 -20.392  17.557  1.00  0.00    -0.089 C 
HETATM    3  C3  UNL     1      12.619 -20.311  16.457  1.00  0.00     0.337 C 
ENDROOT
BRANCH   3   4
HETATM    4  N1  UNL     1      13.026 -18.994  16.012  1.00  0.00    -0.014 N 
HETATM    5  C6  UNL     1      12.523 -17.902  16.822  1.00  0.00     0.167 C 
HETATM    6  C7  UNL     1      11.656 -16.861  16.351  1.00  0.00     0.174 C 
HETATM    7  C24 UNL     1      13.395 -17.466  17.960  1.00  0.00     0.079 C 
HETATM    8  C25 UNL     1      14.778 -17.955  18.081  1.00  0.00    -0.040 C 
HETATM    9  C26 UNL     1      15.806 -16.841  17.788  1.00  0.00     0.015 C 
HETATM   10  C27 UNL     1      15.147 -18.343  19.526  1.00  0.00     0.015 C 
HETATM   11  C28 UNL     1      15.121 -19.103  17.209  1.00  0.00     0.052 C 
HETATM   12  C29 UNL     1      14.437 -18.816  15.857  1.00  0.00     0.304 C 
BRANCH   4  13
HETATM   13  C4  UNL     1      12.386 -18.896  14.693  1.00  0.00     0.241 C 
HETATM   14  C5  UNL     1      11.843 -20.147  14.106  1.00  0.00     0.035 C 
ENDBRANCH   4  13
BRANCH   6  15
HETATM   15  O1  UNL     1      10.414 -17.255  16.486  1.00  0.00    -0.344 OA
ATOM     16  H1  UNL     1       9.846 -16.494  16.450  1.00  0.00     0.219 HD
ENDBRANCH   6  15
BRANCH   6  17
HETATM   17  N2  UNL     1      11.648 -15.563  15.795  1.00  0.00    -0.317 N 
HETATM   18  C8  UNL     1      12.389 -15.273  14.595  1.00  0.00     0.112 C 
HETATM   19  C11 UNL     1      13.784 -14.697  14.848  1.00  0.00     0.024 C 
HETATM   20  C12 UNL     1      14.879 -15.668  14.431  1.00  0.00     0.014 C 
HETATM   21  C13 UNL     1      14.043 -13.430  14.091  1.00  0.00     0.132 C 
HETATM   22  N5  UNL     1      14.432 -12.367  14.984  1.00  0.00    -0.345 N 
HETATM   23  C17 UNL     1      13.576 -12.127  16.114  1.00  0.00     0.221 C 
HETATM   24  O3  UNL     1      14.144 -11.755  17.174  1.00  0.00    -0.273 OA
HETATM   25  C18 UNL     1      12.102 -12.307  16.023  1.00  0.00     0.118 C 
HETATM   26  C19 UNL     1      11.478 -13.271  16.916  1.00  0.00     0.010 C 
HETATM   27  C20 UNL     1      10.210 -12.516  17.481  1.00  0.00     0.022 C 
HETATM   28  C21 UNL     1      12.257 -13.398  18.210  1.00  0.00     0.022 C 
HETATM   29  C22 UNL     1      10.861 -14.533  16.425  1.00  0.00     0.099 C 
BRANCH  18  30
HETATM   30  C9  UNL     1      12.540 -16.292  13.520  1.00  0.00     0.138 C 
BRANCH  30  31
HETATM   31  N3  UNL     1      11.523 -16.362  12.504  1.00  0.00    -0.240 NA
HETATM   32  C10 UNL     1      12.069 -17.245  11.437  1.00  0.00     0.135 C 
BRANCH  31  33
HETATM   33  N4  UNL     1      11.478 -15.100  11.823  1.00  0.00    -0.364 NA
ATOM     34  H42 UNL     1      10.554 -14.764  12.092  1.00  0.00     0.171 HD
ATOM     35  H41 UNL     1      11.432 -15.278  10.820  1.00  0.00     0.171 HD
ENDBRANCH  31  33
ENDBRANCH  30  31
ENDBRANCH  18  30
BRANCH  22  36
HETATM   36  C14 UNL     1      15.613 -11.534  14.768  1.00  0.00     0.106 C 
HETATM   37  C15 UNL     1      15.161 -10.220  14.204  1.00  0.00     0.034 C 
BRANCH  36  38
HETATM   38  C16 UNL     1      16.652 -12.125  13.892  1.00  0.00     0.189 C 
BRANCH  38  39
HETATM   39  O2  UNL     1      16.577 -11.486  12.656  1.00  0.00    -0.399 OA
ATOM     40  H2  UNL     1      17.390 -11.013  12.526  1.00  0.00     0.209 HD
ENDBRANCH  38  39
ENDBRANCH  36  38
ENDBRANCH  22  36
BRANCH  29  41
HETATM   41  C23 UNL     1       9.585 -14.225  15.680  1.00  0.00     0.223 C 
HETATM   42  O4  UNL     1       8.481 -14.748  15.933  1.00  0.00    -0.643 OA
HETATM   43  O5  UNL     1       9.521 -13.311  14.634  1.00  0.00    -0.643 OA
ENDBRANCH  29  41
ENDBRANCH   6  17
BRANCH  12  44
HETATM   44  C30 UNL     1      15.278 -19.482  14.886  1.00  0.00     0.416 C 
HETATM   45  F1  UNL     1      15.409 -20.854  14.936  1.00  0.00    -0.169 F 
HETATM   46  F2  UNL     1      16.592 -19.049  15.144  1.00  0.00    -0.169 F 
HETATM   47  F3  UNL     1      15.173 -19.044  13.568  1.00  0.00    -0.169 F 
ENDBRANCH  12  44
ENDBRANCH   3   4
TORSDOF 12
ENDMDL
MODEL 3
REMARK VINA RESULT: -7.401668447      3.437      7.675
REMARK  12 active torsions:
REMARK  status: ('A' for Active; 'I' for Inactive)
REMARK    1  A    between atoms: C3_3  and  N1_4 
REMARK    2  A    between atoms: N1_4  and  C4_5 
REMARK    3  A    between atoms: C7_8  and  O1_9 
REMARK    4  A    between atoms: C7_8  and  N2_11 
REMARK    5  A    between atoms: C8_12  and  C9_13 
REMARK    6  A    between atoms: C9_13  and  N3_14 
REMARK    7  A    between atoms: N3_14  and  N4_16 
REMARK    8  A    between atoms: N5_22  and  C14_23 
REMARK    9  A    between atoms: C14_23  and  C16_25 
REMARK   10  A    between atoms: C16_25  and  O2_26 
REMARK   11  A    between atoms: C22_34  and  C23_35 
REMARK   12  A    between atoms: C29_43  and  C30_44 
ROOT
HETATM    1  C1  UNL     1      12.180 -18.289  17.186  1.00  0.00     0.013 C 
HETATM    2  C2  UNL     1      12.172 -17.122  16.888  1.00  0.00    -0.089 C 
HETATM    3  C3  UNL     1      12.189 -15.722  16.549  1.00  0.00     0.337 C 
ENDROOT
BRANCH   3   4
HETATM    4  N1  UNL     1      11.319 -15.274  15.482  1.00  0.00    -0.014 N 
HETATM    5  C6  UNL     1       9.969 -15.799  15.546  1.00  0.00     0.167 C 
HETATM    6  C7  UNL     1       9.360 -16.627  14.545  1.00  0.00     0.174 C 
HETATM    7  C24 UNL     1       8.974 -14.976  16.306  1.00  0.00     0.079 C 
HETATM    8  C25 UNL     1       9.302 -13.607  16.739  1.00  0.00    -0.040 C 
HETATM    9  C26 UNL     1       8.511 -12.550  15.940  1.00  0.00     0.015 C 
HETATM   10  C27 UNL     1       8.840 -13.313  18.181  1.00  0.00     0.015 C 
HETATM   11  C28 UNL     1      10.735 -13.241  16.647  1.00  0.00     0.052 C 
HETATM   12  C29 UNL     1      11.235 -13.855  15.324  1.00  0.00     0.304 C 
BRANCH   4  13
HETATM   13  C4  UNL     1      11.959 -15.850  14.291  1.00  0.00     0.241 C 
HETATM   14  C5  UNL     1      13.421 -16.106  14.361  1.00  0.00     0.035 C 
ENDBRANCH   4  13
BRANCH   6  15
HETATM   15  O1  UNL     1       9.634 -17.880  14.811  1.00  0.00    -0.344 OA
ATOM     16  H1  UNL     1       9.135 -18.434  14.222  1.00  0.00     0.219 HD
ENDBRANCH   6  15
BRANCH   6  17
HETATM   17  N2  UNL     1       8.571 -16.588  13.375  1.00  0.00    -0.317 N 
HETATM   18  C8  UNL     1       7.804 -17.737  12.968  1.00  0.00     0.112 C 
HETATM   19  C11 UNL     1       8.515 -18.632  11.950  1.00  0.00     0.024 C 
HETATM   20  C12 UNL     1       8.879 -19.984  12.545  1.00  0.00     0.014 C 
HETATM   21  C13 UNL     1       7.680 -18.924  10.739  1.00  0.00     0.132 C 
HETATM   22  N5  UNL     1       8.372 -18.545   9.533  1.00  0.00    -0.345 N 
HETATM   23  C17 UNL     1       8.902 -17.210   9.485  1.00  0.00     0.221 C 
HETATM   24  O3  UNL     1       9.983 -17.061   8.856  1.00  0.00    -0.273 OA
HETATM   25  C18 UNL     1       8.203 -16.072  10.141  1.00  0.00     0.118 C 
HETATM   26  C19 UNL     1       8.917 -15.337  11.172  1.00  0.00     0.010 C 
HETATM   27  C20 UNL     1       8.653 -13.818  10.822  1.00  0.00     0.022 C 
HETATM   28  C21 UNL     1      10.412 -15.365  10.924  1.00  0.00     0.022 C 
HETATM   29  C22 UNL     1       8.515 -15.372  12.604  1.00  0.00     0.099 C 
BRANCH  18  30
HETATM   30  C9  UNL     1       7.188 -18.645  13.973  1.00  0.00     0.138 C 
BRANCH  30  31
HETATM   31  N3  UNL     1       5.883 -18.309  14.482  1.00  0.00    -0.240 NA
HETATM   32  C10 UNL     1       5.135 -19.593  14.570  1.00  0.00     0.135 C 
BRANCH  31  33
HETATM   33  N4  UNL     1       5.156 -17.635  13.445  1.00  0.00    -0.364 NA
ATOM     34  H42 UNL     1       4.383 -17.234  13.976  1.00  0.00     0.171 HD
ATOM     35  H41 UNL     1       4.742 -18.338  12.834  1.00  0.00     0.171 HD
ENDBRANCH  31  33
ENDBRANCH  30  31
ENDBRANCH  18  30
BRANCH  22  36
HETATM   36  C14 UNL     1       8.522 -19.436   8.384  1.00  0.00     0.106 C 
HETATM   37  C15 UNL     1       7.218 -20.145   8.172  1.00  0.00     0.034 C 
BRANCH  36  38
HETATM   38  C16 UNL     1       9.620 -20.425   8.490  1.00  0.00     0.189 C 
BRANCH  38  39
HETATM   39  O2  UNL     1      10.787 -19.810   8.042  1.00  0.00    -0.399 OA
ATOM     40  H2  UNL     1      11.515 -20.182   8.528  1.00  0.00     0.209 HD
ENDBRANCH  38  39
ENDBRANCH  36  38
ENDBRANCH  22  36
BRANCH  29  41
HETATM   41  C23 UNL     1       7.226 -14.610  12.794  1.00  0.00     0.223 C 
HETATM   42  O4  UNL     1       7.133 -13.531  13.413  1.00  0.00    -0.643 OA
HETATM   43  O5  UNL     1       6.007 -15.045  12.283  1.00  0.00    -0.643 OA
ENDBRANCH  29  41
ENDBRANCH   6  17
BRANCH  12  44
HETATM   44  C30 UNL     1      12.310 -12.979  14.910  1.00  0.00     0.416 C 
HETATM   45  F1  UNL     1      13.405 -12.823  15.732  1.00  0.00    -0.169 F 
HETATM   46  F2  UNL     1      11.768 -11.680  14.886  1.00  0.00    -0.169 F 
HETATM   47  F3  UNL     1      12.701 -13.063  13.576  1.00  0.00    -0.169 F 
ENDBRANCH  12  44
ENDBRANCH   3   4
TORSDOF 12
ENDMDL
MODEL 4
REMARK VINA RESULT: -7.366240461      3.173      7.650
REMARK  12 active torsions:
REMARK  status: ('A' for Active; 'I' for Inactive)
REMARK    1  A    between atoms: C3_3  and  N1_4 
REMARK    2  A    between atoms: N1_4  and  C4_5 
REMARK    3  A    between atoms: C7_8  and  O1_9 
REMARK    4  A    between atoms: C7_8  and  N2_11 
REMARK    5  A    between atoms: C8_12  and  C9_13 
REMARK    6  A    between atoms: C9_13  and  N3_14 
REMARK    7  A    between atoms: N3_14  and  N4_16 
REMARK    8  A    between atoms: N5_22  and  C14_23 
REMARK    9  A    between atoms: C14_23  and  C16_25 
REMARK   10  A    between atoms: C16_25  and  O2_26 
REMARK   11  A    between atoms: C22_34  and  C23_35 
REMARK   12  A    between atoms: C29_43  and  C30_44 
ROOT
HETATM    1  C1  UNL     1      15.590 -12.652  13.936  1.00  0.00     0.013 C 
HETATM    2  C2  UNL     1      14.624 -12.473  14.633  1.00  0.00    -0.089 C 
HETATM    3  C3  UNL     1      13.476 -12.230  15.469  1.00  0.00     0.337 C 
ENDROOT
BRANCH   3   4
HETATM    4  N1  UNL     1      12.467 -13.265  15.550  1.00  0.00    -0.014 N 
HETATM    5  C6  UNL     1      12.692 -14.396  14.670  1.00  0.00     0.167 C 
HETATM    6  C7  UNL     1      11.810 -14.804  13.615  1.00  0.00     0.174 C 
HETATM    7  C24 UNL     1      13.484 -15.532  15.241  1.00  0.00     0.079 C 
HETATM    8  C25 UNL     1      13.792 -15.589  16.680  1.00  0.00    -0.040 C 
HETATM    9  C26 UNL     1      13.000 -16.708  17.389  1.00  0.00     0.015 C 
HETATM   10  C27 UNL     1      15.247 -16.015  16.961  1.00  0.00     0.015 C 
HETATM   11  C28 UNL     1      13.541 -14.336  17.430  1.00  0.00     0.052 C 
HETATM   12  C29 UNL     1      12.222 -13.771  16.865  1.00  0.00     0.304 C 
BRANCH   4  13
HETATM   13  C4  UNL     1      11.263 -12.570  15.074  1.00  0.00     0.241 C 
HETATM   14  C5  UNL     1      11.273 -11.085  15.119  1.00  0.00     0.035 C 
ENDBRANCH   4  13
BRANCH   6  15
HETATM   15  O1  UNL     1      12.134 -14.158  12.522  1.00  0.00    -0.344 OA
ATOM     16  H1  UNL     1      11.343 -13.970  12.032  1.00  0.00     0.219 HD
ENDBRANCH   6  15
BRANCH   6  17
HETATM   17  N2  UNL     1      10.719 -15.650  13.318  1.00  0.00    -0.317 N 
HETATM   18  C8  UNL     1      10.925 -17.049  13.052  1.00  0.00     0.112 C 
HETATM   19  C11 UNL     1      11.046 -17.389  11.565  1.00  0.00     0.024 C 
HETATM   20  C12 UNL     1      12.451 -17.850  11.204  1.00  0.00     0.014 C 
HETATM   21  C13 UNL     1      10.126 -18.492  11.137  1.00  0.00     0.132 C 
HETATM   22  N5  UNL     1       9.287 -18.068  10.043  1.00  0.00    -0.345 N 
HETATM   23  C17 UNL     1       8.569 -16.835  10.221  1.00  0.00     0.221 C 
HETATM   24  O3  UNL     1       8.405 -16.132   9.190  1.00  0.00    -0.273 OA
HETATM   25  C18 UNL     1       8.047 -16.426  11.552  1.00  0.00     0.118 C 
HETATM   26  C19 UNL     1       8.518 -15.168  12.110  1.00  0.00     0.010 C 
HETATM   27  C20 UNL     1       7.207 -14.462  12.644  1.00  0.00     0.022 C 
HETATM   28  C21 UNL     1       8.869 -14.183  11.012  1.00  0.00     0.022 C 
HETATM   29  C22 UNL     1       9.386 -15.102  13.317  1.00  0.00     0.099 C 
BRANCH  18  30
HETATM   30  C9  UNL     1      11.994 -17.815  13.750  1.00  0.00     0.138 C 
BRANCH  30  31
HETATM   31  N3  UNL     1      11.600 -18.780  14.743  1.00  0.00    -0.240 NA
HETATM   32  C10 UNL     1      11.851 -20.117  14.140  1.00  0.00     0.135 C 
BRANCH  31  33
HETATM   33  N4  UNL     1      10.168 -18.779  14.828  1.00  0.00    -0.364 NA
ATOM     34  H42 UNL     1      10.011 -18.030  15.502  1.00  0.00     0.171 HD
ATOM     35  H41 UNL     1       9.874 -19.639  15.290  1.00  0.00     0.171 HD
ENDBRANCH  31  33
ENDBRANCH  30  31
ENDBRANCH  18  30
BRANCH  22  36
HETATM   36  C14 UNL     1       9.127 -18.840   8.813  1.00  0.00     0.106 C 
HETATM   37  C15 UNL     1       7.812 -19.557   8.880  1.00  0.00     0.034 C 
BRANCH  36  38
HETATM   38  C16 UNL     1      10.213 -19.807   8.528  1.00  0.00     0.189 C 
BRANCH  38  39
HETATM   39  O2  UNL     1      10.191 -20.077   7.162  1.00  0.00    -0.399 OA
ATOM     40  H2  UNL     1      10.831 -19.511   6.745  1.00  0.00     0.209 HD
ENDBRANCH  38  39
ENDBRANCH  36  38
ENDBRANCH  22  36
BRANCH  29  41
HETATM   41  C23 UNL     1       8.591 -15.479  14.543  1.00  0.00     0.223 C 
HETATM   42  O4  UNL     1       8.439 -14.740  15.536  1.00  0.00    -0.643 OA
HETATM   43  O5  UNL     1       7.938 -16.701  14.676  1.00  0.00    -0.643 OA
ENDBRANCH  29  41
ENDBRANCH   6  17
BRANCH  12  44
HETATM   44  C30 UNL     1      11.651 -13.031  17.969  1.00  0.00     0.416 C 
HETATM   45  F1  UNL     1      11.940 -11.689  18.101  1.00  0.00    -0.169 F 
HETATM   46  F2  UNL     1      12.218 -13.573  19.138  1.00  0.00    -0.169 F 
HETATM   47  F3  UNL     1      10.311 -13.278  18.258  1.00  0.00    -0.169 F 
ENDBRANCH  12  44
ENDBRANCH   3   4
TORSDOF 12
ENDMDL
MODEL 5
REMARK VINA RESULT: -7.163168658      3.364      6.962
REMARK  12 active torsions:
REMARK  status: ('A' for Active; 'I' for Inactive)
REMARK    1  A    between atoms: C3_3  and  N1_4 
REMARK    2  A    between atoms: N1_4  and  C4_5 
REMARK    3  A    between atoms: C7_8  and  O1_9 
REMARK    4  A    between atoms: C7_8  and  N2_11 
REMARK    5  A    between atoms: C8_12  and  C9_13 
REMARK    6  A    between atoms: C9_13  and  N3_14 
REMARK    7  A    between atoms: N3_14  and  N4_16 
REMARK    8  A    between atoms: N5_22  and  C14_23 
REMARK    9  A    between atoms: C14_23  and  C16_25 
REMARK   10  A    between atoms: C16_25  and  O2_26 
REMARK   11  A    between atoms: C22_34  and  C23_35 
REMARK   12  A    between atoms: C29_43  and  C30_44 
ROOT
HETATM    1  C1  UNL     1      13.548 -17.310  18.478  1.00  0.00     0.013 C 
HETATM    2  C2  UNL     1      13.292 -16.263  17.939  1.00  0.00    -0.089 C 
HETATM    3  C3  UNL     1      13.009 -14.997  17.313  1.00  0.00     0.337 C 
ENDROOT
BRANCH   3   4
HETATM    4  N1  UNL     1      12.199 -15.003  16.113  1.00  0.00    -0.014 N 
HETATM    5  C6  UNL     1      11.041 -15.874  16.171  1.00  0.00     0.167 C 
HETATM    6  C7  UNL     1      10.812 -16.997  15.309  1.00  0.00     0.174 C 
HETATM    7  C24 UNL     1       9.772 -15.254  16.671  1.00  0.00     0.079 C 
HETATM    8  C25 UNL     1       9.664 -13.796  16.849  1.00  0.00    -0.040 C 
HETATM    9  C26 UNL     1       8.732 -13.160  15.795  1.00  0.00     0.015 C 
HETATM   10  C27 UNL     1       8.954 -13.408  18.162  1.00  0.00     0.015 C 
HETATM   11  C28 UNL     1      10.947 -13.056  16.800  1.00  0.00     0.052 C 
HETATM   12  C29 UNL     1      11.762 -13.715  15.669  1.00  0.00     0.304 C 
BRANCH   4  13
HETATM   13  C4  UNL     1      13.120 -15.564  15.114  1.00  0.00     0.241 C 
HETATM   14  C5  UNL     1      14.573 -15.333  15.324  1.00  0.00     0.035 C 
ENDBRANCH   4  13
BRANCH   6  15
HETATM   15  O1  UNL     1      11.372 -18.056  15.840  1.00  0.00    -0.344 OA
ATOM     16  H1  UNL     1      12.014 -18.400  15.231  1.00  0.00     0.219 HD
ENDBRANCH   6  15
BRANCH   6  17
HETATM   17  N2  UNL     1      10.203 -17.384  14.096  1.00  0.00    -0.317 N 
HETATM   18  C8  UNL     1      10.605 -16.788  12.849  1.00  0.00     0.112 C 
HETATM   19  C11 UNL     1       9.739 -15.604  12.416  1.00  0.00     0.024 C 
HETATM   20  C12 UNL     1      10.510 -14.293  12.464  1.00  0.00     0.014 C 
HETATM   21  C13 UNL     1       9.227 -15.732  11.012  1.00  0.00     0.132 C 
HETATM   22  N5  UNL     1       7.789 -15.631  10.977  1.00  0.00    -0.345 N 
HETATM   23  C17 UNL     1       7.060 -16.486  11.872  1.00  0.00     0.221 C 
HETATM   24  O3  UNL     1       5.994 -16.016  12.349  1.00  0.00    -0.273 OA
HETATM   25  C18 UNL     1       7.543 -17.853  12.207  1.00  0.00     0.118 C 
HETATM   26  C19 UNL     1       7.815 -18.156  13.603  1.00  0.00     0.010 C 
HETATM   27  C20 UNL     1       7.144 -19.569  13.833  1.00  0.00     0.022 C 
HETATM   28  C21 UNL     1       6.930 -17.337  14.520  1.00  0.00     0.022 C 
HETATM   29  C22 UNL     1       9.190 -18.409  14.114  1.00  0.00     0.099 C 
BRANCH  18  30
HETATM   30  C9  UNL     1      12.019 -16.390  12.609  1.00  0.00     0.138 C 
BRANCH  30  31
HETATM   31  N3  UNL     1      12.917 -17.370  12.057  1.00  0.00    -0.240 NA
HETATM   32  C10 UNL     1      12.143 -18.093  11.011  1.00  0.00     0.135 C 
BRANCH  31  33
HETATM   33  N4  UNL     1      13.104 -18.408  13.030  1.00  0.00    -0.364 NA
ATOM     34  H42 UNL     1      13.955 -18.092  13.494  1.00  0.00     0.171 HD
ATOM     35  H41 UNL     1      13.353 -19.266  12.539  1.00  0.00     0.171 HD
ENDBRANCH  31  33
ENDBRANCH  30  31
ENDBRANCH  18  30
BRANCH  22  36
HETATM   36  C14 UNL     1       7.074 -14.737  10.070  1.00  0.00     0.106 C 
HETATM   37  C15 UNL     1       7.903 -14.566   8.833  1.00  0.00     0.034 C 
BRANCH  36  38
HETATM   38  C16 UNL     1       6.730 -13.409  10.631  1.00  0.00     0.189 C 
BRANCH  38  39
HETATM   39  O2  UNL     1       5.402 -13.457  11.048  1.00  0.00    -0.399 OA
ATOM     40  H2  UNL     1       5.303 -12.847  11.770  1.00  0.00     0.209 HD
ENDBRANCH  38  39
ENDBRANCH  36  38
ENDBRANCH  22  36
BRANCH  29  41
HETATM   41  C23 UNL     1       9.688 -19.741  13.609  1.00  0.00     0.223 C 
HETATM   42  O4  UNL     1      10.148 -20.642  14.340  1.00  0.00    -0.643 OA
HETATM   43  O5  UNL     1       9.673 -20.095  12.263  1.00  0.00    -0.643 OA
ENDBRANCH  29  41
ENDBRANCH   6  17
BRANCH  12  44
HETATM   44  C30 UNL     1      12.610 -12.652  15.176  1.00  0.00     0.416 C 
HETATM   45  F1  UNL     1      13.599 -12.146  15.993  1.00  0.00    -0.169 F 
HETATM   46  F2  UNL     1      11.772 -11.535  14.998  1.00  0.00    -0.169 F 
HETATM   47  F3  UNL     1      13.067 -12.777  13.867  1.00  0.00    -0.169 F 
ENDBRANCH  12  44
ENDBRANCH   3   4
TORSDOF 12
ENDMDL
