MODEL 1
REMARK VINA RESULT: -8.201550522      0.000      0.000
REMARK  8 active torsions:
REMARK  status: ('A' for Active; 'I' for Inactive)
REMARK    1  A    between atoms: C2_2  and  C16_28 
REMARK    2  A    between atoms: N1_3  and  N2_5 
REMARK    3  A    between atoms: N2_5  and  C3_7 
REMARK    4  A    between atoms: C3_7  and  N3_9 
REMARK    5  A    between atoms: N3_9  and  N4_11 
REMARK    6  A    between atoms: C4_13  and  C5_14 
REMARK    7  A    between atoms: C6_16  and  C7_17 
REMARK    8  A    between atoms: C15_25  and  O2_26 
ROOT
HETATM    1  N3  UNL     1       8.886  74.531  27.599  1.00  0.00    -0.275 N 
ATOM      2  H3  UNL     1       8.532  75.413  27.970  1.00  0.00     0.189 HD
ENDROOT
BRANCH   1   3
HETATM    3  C3  UNL     1       9.896  73.894  28.333  1.00  0.00     0.205 C 
HETATM    4  S1  UNL     1       9.771  72.213  28.393  1.00  0.00    -0.038 SA
BRANCH   3   5
HETATM    5  N2  UNL     1      10.934  74.475  29.021  1.00  0.00    -0.275 N 
ATOM      6  H2  UNL     1      10.867  74.311  30.025  1.00  0.00     0.189 HD
BRANCH   5   7
HETATM    7  N1  UNL     1      12.047  75.227  28.691  1.00  0.00    -0.301 N 
HETATM    8  C2  UNL     1      12.199  76.420  29.179  1.00  0.00     0.050 C 
HETATM    9  C1  UNL     1      11.142  76.919  30.106  1.00  0.00     0.072 C 
ATOM     10  H1  UNL     1      12.751  74.842  28.061  1.00  0.00     0.186 HD
BRANCH   8  11
HETATM   11  C16 UNL     1      13.314  77.236  28.773  1.00  0.00     0.082 A 
HETATM   12  N5  UNL     1      13.195  78.320  27.920  1.00  0.00    -0.305 N 
HETATM   13  C17 UNL     1      14.433  78.834  27.721  1.00  0.00     0.325 A 
ATOM     14  H5  UNL     1      12.328  78.670  27.512  1.00  0.00     0.171 HD
HETATM   15  O3  UNL     1      14.678  79.838  26.991  1.00  0.00    -0.247 OA
HETATM   16  N6  UNL     1      15.325  78.136  28.401  1.00  0.00    -0.310 N 
HETATM   17  C18 UNL     1      14.630  77.143  29.057  1.00  0.00     0.038 A 
ATOM     18  H6  UNL     1      16.331  78.300  28.434  1.00  0.00     0.170 HD
HETATM   19  C19 UNL     1      15.316  76.172  29.950  1.00  0.00     0.071 C 
ENDBRANCH   8  11
ENDBRANCH   5   7
ENDBRANCH   3   5
ENDBRANCH   1   3
BRANCH   1  20
HETATM   20  N4  UNL     1       8.335  74.086  26.439  1.00  0.00    -0.307 N 
HETATM   21  C4  UNL     1       7.150  73.999  26.078  1.00  0.00     0.147 C 
ATOM     22  H4  UNL     1       9.012  73.767  25.746  1.00  0.00     0.186 HD
BRANCH  21  23
HETATM   23  C5  UNL     1       6.017  74.406  26.919  1.00  0.00     0.126 A 
HETATM   24  O1  UNL     1       5.769  75.623  27.256  1.00  0.00    -0.306 OA
HETATM   25  C6  UNL     1       4.680  75.735  28.026  1.00  0.00     0.087 A 
HETATM   26  C13 UNL     1       4.184  74.472  28.209  1.00  0.00     0.008 A 
HETATM   27  C14 UNL     1       3.081  73.996  29.055  1.00  0.00     0.054 C 
HETATM   28  C15 UNL     1       5.033  73.636  27.506  1.00  0.00     0.109 A 
BRANCH  25  29
HETATM   29  C7  UNL     1       4.122  76.986  28.555  1.00  0.00    -0.045 C 
HETATM   30  C8  UNL     1       2.700  76.887  29.073  1.00  0.00     0.037 C 
HETATM   31  C9  UNL     1       1.745  77.698  28.204  1.00  0.00     0.004 C 
HETATM   32  C10 UNL     1       2.361  78.929  27.595  1.00  0.00     0.001 C 
HETATM   33  C11 UNL     1       3.574  79.370  28.384  1.00  0.00     0.004 C 
HETATM   34  C12 UNL     1       4.625  78.271  28.084  1.00  0.00     0.037 C 
ENDBRANCH  25  29
BRANCH  28  35
HETATM   35  O2  UNL     1       4.899  72.271  27.416  1.00  0.00    -0.357 OA
ATOM     36  H2  UNL     1       4.226  71.741  27.825  1.00  0.00     0.217 HD
ENDBRANCH  28  35
ENDBRANCH  21  23
ENDBRANCH   1  20
TORSDOF 8
ENDMDL
MODEL 2
REMARK VINA RESULT: -8.018634251      4.627      5.214
REMARK  8 active torsions:
REMARK  status: ('A' for Active; 'I' for Inactive)
REMARK    1  A    between atoms: C2_2  and  C16_28 
REMARK    2  A    between atoms: N1_3  and  N2_5 
REMARK    3  A    between atoms: N2_5  and  C3_7 
REMARK    4  A    between atoms: C3_7  and  N3_9 
REMARK    5  A    between atoms: N3_9  and  N4_11 
REMARK    6  A    between atoms: C4_13  and  C5_14 
REMARK    7  A    between atoms: C6_16  and  C7_17 
REMARK    8  A    between atoms: C15_25  and  O2_26 
ROOT
HETATM    1  N3  UNL     1       7.475  72.176  28.191  1.00  0.00    -0.275 N 
ATOM      2  H3  UNL     1       7.019  72.624  28.986  1.00  0.00     0.189 HD
ENDROOT
BRANCH   1   3
HETATM    3  C3  UNL     1       7.913  70.856  28.372  1.00  0.00     0.205 C 
HETATM    4  S1  UNL     1       6.679  69.708  28.446  1.00  0.00    -0.038 SA
BRANCH   3   5
HETATM    5  N2  UNL     1       9.202  70.408  28.527  1.00  0.00    -0.275 N 
ATOM      6  H2  UNL     1       9.554  69.956  27.684  1.00  0.00     0.189 HD
BRANCH   5   7
HETATM    7  N1  UNL     1      10.142  70.419  29.542  1.00  0.00    -0.301 N 
HETATM    8  C2  UNL     1      11.279  69.812  29.387  1.00  0.00     0.050 C 
HETATM    9  C1  UNL     1      11.518  69.131  28.080  1.00  0.00     0.072 C 
ATOM     10  H1  UNL     1       9.941  70.905  30.415  1.00  0.00     0.186 HD
BRANCH   8  11
HETATM   11  C16 UNL     1      12.226  69.750  30.470  1.00  0.00     0.082 A 
HETATM   12  N5  UNL     1      13.177  70.727  30.709  1.00  0.00    -0.305 N 
HETATM   13  C17 UNL     1      13.921  70.337  31.773  1.00  0.00     0.325 A 
ATOM     14  H5  UNL     1      13.297  71.590  30.178  1.00  0.00     0.171 HD
HETATM   15  O3  UNL     1      14.878  71.009  32.256  1.00  0.00    -0.247 OA
HETATM   16  N6  UNL     1      13.491  69.170  32.217  1.00  0.00    -0.310 N 
HETATM   17  C18 UNL     1      12.437  68.804  31.409  1.00  0.00     0.038 A 
ATOM     18  H6  UNL     1      13.867  68.642  33.006  1.00  0.00     0.170 HD
HETATM   19  C19 UNL     1      11.683  67.543  31.636  1.00  0.00     0.071 C 
ENDBRANCH   8  11
ENDBRANCH   5   7
ENDBRANCH   3   5
ENDBRANCH   1   3
BRANCH   1  20
HETATM   20  N4  UNL     1       7.602  72.915  27.057  1.00  0.00    -0.307 N 
HETATM   21  C4  UNL     1       6.924  73.856  26.615  1.00  0.00     0.147 C 
ATOM     22  H4  UNL     1       8.390  72.649  26.467  1.00  0.00     0.186 HD
BRANCH  21  23
HETATM   23  C5  UNL     1       5.748  74.399  27.307  1.00  0.00     0.126 A 
HETATM   24  O1  UNL     1       5.581  75.647  27.576  1.00  0.00    -0.306 OA
HETATM   25  C6  UNL     1       4.428  75.890  28.210  1.00  0.00     0.087 A 
HETATM   26  C13 UNL     1       3.796  74.686  28.373  1.00  0.00     0.008 A 
HETATM   27  C14 UNL     1       2.564  74.348  29.100  1.00  0.00     0.054 C 
HETATM   28  C15 UNL     1       4.635  73.748  27.799  1.00  0.00     0.109 A 
BRANCH  25  29
HETATM   29  C7  UNL     1       3.936  77.207  28.633  1.00  0.00    -0.045 C 
HETATM   30  C8  UNL     1       2.431  77.310  28.794  1.00  0.00     0.037 C 
HETATM   31  C9  UNL     1       1.833  78.247  27.750  1.00  0.00     0.004 C 
HETATM   32  C10 UNL     1       2.740  79.378  27.347  1.00  0.00     0.001 C 
HETATM   33  C11 UNL     1       3.777  79.645  28.416  1.00  0.00     0.004 C 
HETATM   34  C12 UNL     1       4.709  78.408  28.338  1.00  0.00     0.037 C 
ENDBRANCH  25  29
BRANCH  28  35
HETATM   35  O2  UNL     1       4.382  72.398  27.735  1.00  0.00    -0.357 OA
ATOM     36  H2  UNL     1       4.962  71.700  28.015  1.00  0.00     0.217 HD
ENDBRANCH  28  35
ENDBRANCH  21  23
ENDBRANCH   1  20
TORSDOF 8
ENDMDL
MODEL 3
REMARK VINA RESULT: -7.961455284      5.313      6.609
REMARK  8 active torsions:
REMARK  status: ('A' for Active; 'I' for Inactive)
REMARK    1  A    between atoms: C2_2  and  C16_28 
REMARK    2  A    between atoms: N1_3  and  N2_5 
REMARK    3  A    between atoms: N2_5  and  C3_7 
REMARK    4  A    between atoms: C3_7  and  N3_9 
REMARK    5  A    between atoms: N3_9  and  N4_11 
REMARK    6  A    between atoms: C4_13  and  C5_14 
REMARK    7  A    between atoms: C6_16  and  C7_17 
REMARK    8  A    between atoms: C15_25  and  O2_26 
ROOT
HETATM    1  N3  UNL     1       6.107  70.907  28.589  1.00  0.00    -0.275 N 
ATOM      2  H3  UNL     1       5.172  70.512  28.485  1.00  0.00     0.189 HD
ENDROOT
BRANCH   1   3
HETATM    3  C3  UNL     1       6.788  70.620  29.780  1.00  0.00     0.205 C 
HETATM    4  S1  UNL     1       5.828  70.655  31.167  1.00  0.00    -0.038 SA
BRANCH   3   5
HETATM    5  N2  UNL     1       8.126  70.354  29.945  1.00  0.00    -0.275 N 
ATOM      6  H2  UNL     1       8.699  71.190  29.840  1.00  0.00     0.189 HD
BRANCH   5   7
HETATM    7  N1  UNL     1       8.889  69.232  30.218  1.00  0.00    -0.301 N 
HETATM    8  C2  UNL     1      10.081  69.115  29.718  1.00  0.00     0.050 C 
HETATM    9  C1  UNL     1      10.579  70.235  28.866  1.00  0.00     0.072 C 
ATOM     10  H1  UNL     1       8.513  68.495  30.813  1.00  0.00     0.186 HD
BRANCH   8  11
HETATM   11  C16 UNL     1      10.846  67.914  29.932  1.00  0.00     0.082 A 
HETATM   12  N5  UNL     1      10.575  66.713  29.299  1.00  0.00    -0.305 N 
HETATM   13  C17 UNL     1      11.456  65.790  29.755  1.00  0.00     0.325 A 
ATOM     14  H5  UNL     1       9.839  66.551  28.610  1.00  0.00     0.171 HD
HETATM   15  O3  UNL     1      11.483  64.584  29.374  1.00  0.00    -0.247 OA
HETATM   16  N6  UNL     1      12.268  66.342  30.638  1.00  0.00    -0.310 N 
HETATM   17  C18 UNL     1      11.891  67.663  30.749  1.00  0.00     0.038 A 
ATOM     18  H6  UNL     1      13.026  65.880  31.141  1.00  0.00     0.170 HD
HETATM   19  C19 UNL     1      12.611  68.606  31.644  1.00  0.00     0.071 C 
ENDBRANCH   8  11
ENDBRANCH   5   7
ENDBRANCH   3   5
ENDBRANCH   1   3
BRANCH   1  20
HETATM   20  N4  UNL     1       6.575  71.661  27.559  1.00  0.00    -0.307 N 
HETATM   21  C4  UNL     1       6.223  72.774  27.136  1.00  0.00     0.147 C 
ATOM     22  H4  UNL     1       7.350  71.240  27.046  1.00  0.00     0.186 HD
BRANCH  21  23
HETATM   23  C5  UNL     1       5.131  73.556  27.730  1.00  0.00     0.126 A 
HETATM   24  O1  UNL     1       5.172  74.829  27.912  1.00  0.00    -0.306 OA
HETATM   25  C6  UNL     1       4.054  75.308  28.469  1.00  0.00     0.087 A 
HETATM   26  C13 UNL     1       3.216  74.244  28.672  1.00  0.00     0.008 A 
HETATM   27  C14 UNL     1       1.916  74.172  29.353  1.00  0.00     0.054 C 
HETATM   28  C15 UNL     1       3.903  73.139  28.202  1.00  0.00     0.109 A 
BRANCH  25  29
HETATM   29  C7  UNL     1       3.780  76.717  28.783  1.00  0.00    -0.045 C 
HETATM   30  C8  UNL     1       2.316  77.058  28.982  1.00  0.00     0.037 C 
HETATM   31  C9  UNL     1       1.815  77.980  27.876  1.00  0.00     0.004 C 
HETATM   32  C10 UNL     1       2.860  78.923  27.341  1.00  0.00     0.001 C 
HETATM   33  C11 UNL     1       3.972  79.122  28.347  1.00  0.00     0.004 C 
HETATM   34  C12 UNL     1       4.707  77.757  28.355  1.00  0.00     0.037 C 
ENDBRANCH  25  29
BRANCH  28  35
HETATM   35  O2  UNL     1       3.422  71.851  28.209  1.00  0.00    -0.357 OA
ATOM     36  H2  UNL     1       3.876  71.079  28.527  1.00  0.00     0.217 HD
ENDBRANCH  28  35
ENDBRANCH  21  23
ENDBRANCH   1  20
TORSDOF 8
ENDMDL
MODEL 4
REMARK VINA RESULT: -7.950727256      6.103      8.779
REMARK  8 active torsions:
REMARK  status: ('A' for Active; 'I' for Inactive)
REMARK    1  A    between atoms: C2_2  and  C16_28 
REMARK    2  A    between atoms: N1_3  and  N2_5 
REMARK    3  A    between atoms: N2_5  and  C3_7 
REMARK    4  A    between atoms: C3_7  and  N3_9 
REMARK    5  A    between atoms: N3_9  and  N4_11 
REMARK    6  A    between atoms: C4_13  and  C5_14 
REMARK    7  A    between atoms: C6_16  and  C7_17 
REMARK    8  A    between atoms: C15_25  and  O2_26 
ROOT
HETATM    1  N3  UNL     1      14.047  70.862  30.441  1.00  0.00    -0.275 N 
ATOM      2  H3  UNL     1      13.110  70.796  30.042  1.00  0.00     0.189 HD
ENDROOT
BRANCH   1   3
HETATM    3  C3  UNL     1      14.228  71.780  31.485  1.00  0.00     0.205 C 
HETATM    4  S1  UNL     1      14.738  71.100  32.942  1.00  0.00    -0.038 SA
BRANCH   3   5
HETATM    5  N2  UNL     1      14.010  73.136  31.464  1.00  0.00    -0.275 N 
ATOM      6  H2  UNL     1      14.370  73.596  32.299  1.00  0.00     0.189 HD
BRANCH   5   7
HETATM    7  N1  UNL     1      13.422  74.034  30.590  1.00  0.00    -0.301 N 
HETATM    8  C2  UNL     1      13.996  75.169  30.334  1.00  0.00     0.050 C 
HETATM    9  C1  UNL     1      15.301  75.442  31.007  1.00  0.00     0.072 C 
ATOM     10  H1  UNL     1      12.535  73.802  30.144  1.00  0.00     0.186 HD
BRANCH   8  11
HETATM   11  C16 UNL     1      13.349  76.140  29.490  1.00  0.00     0.082 A 
HETATM   12  N5  UNL     1      12.329  76.970  29.924  1.00  0.00    -0.305 N 
HETATM   13  C17 UNL     1      11.927  77.725  28.873  1.00  0.00     0.325 A 
ATOM     14  H5  UNL     1      11.948  77.007  30.869  1.00  0.00     0.171 HD
HETATM   15  O3  UNL     1      11.009  78.594  28.931  1.00  0.00    -0.247 OA
HETATM   16  N6  UNL     1      12.636  77.418  27.801  1.00  0.00    -0.310 N 
HETATM   17  C18 UNL     1      13.521  76.433  28.184  1.00  0.00     0.038 A 
ATOM     18  H6  UNL     1      12.546  77.829  26.872  1.00  0.00     0.170 HD
HETATM   19  C19 UNL     1      14.507  75.858  27.230  1.00  0.00     0.071 C 
ENDBRANCH   8  11
ENDBRANCH   5   7
ENDBRANCH   3   5
ENDBRANCH   1   3
BRANCH   1  20
HETATM   20  N4  UNL     1      15.001  70.051  29.912  1.00  0.00    -0.307 N 
HETATM   21  C4  UNL     1      15.027  68.821  29.746  1.00  0.00     0.147 C 
ATOM     22  H4  UNL     1      15.839  70.538  29.595  1.00  0.00     0.186 HD
BRANCH  21  23
HETATM   23  C5  UNL     1      13.924  67.930  30.128  1.00  0.00     0.126 A 
HETATM   24  O1  UNL     1      12.683  68.270  30.106  1.00  0.00    -0.306 OA
HETATM   25  C6  UNL     1      11.869  67.282  30.498  1.00  0.00     0.087 A 
HETATM   26  C13 UNL     1      12.659  66.208  30.807  1.00  0.00     0.008 A 
HETATM   27  C14 UNL     1      12.311  64.907  31.396  1.00  0.00     0.054 C 
HETATM   28  C15 UNL     1      13.958  66.624  30.571  1.00  0.00     0.109 A 
BRANCH  25  29
HETATM   29  C7  UNL     1      10.403  67.344  30.562  1.00  0.00    -0.045 C 
HETATM   30  C8  UNL     1       9.681  66.729  29.379  1.00  0.00     0.037 C 
HETATM   31  C9  UNL     1       8.949  67.795  28.571  1.00  0.00     0.004 C 
HETATM   32  C10 UNL     1       8.438  68.947  29.394  1.00  0.00     0.001 C 
HETATM   33  C11 UNL     1       8.285  68.547  30.845  1.00  0.00     0.004 C 
HETATM   34  C12 UNL     1       9.747  68.390  31.337  1.00  0.00     0.037 C 
ENDBRANCH  25  29
BRANCH  28  35
HETATM   35  O2  UNL     1      15.079  65.848  30.749  1.00  0.00    -0.357 OA
ATOM     36  H2  UNL     1      15.651  65.847  31.507  1.00  0.00     0.217 HD
ENDBRANCH  28  35
ENDBRANCH  21  23
ENDBRANCH   1  20
TORSDOF 8
ENDMDL
MODEL 5
REMARK VINA RESULT: -7.921294599      3.774      6.389
REMARK  8 active torsions:
REMARK  status: ('A' for Active; 'I' for Inactive)
REMARK    1  A    between atoms: C2_2  and  C16_28 
REMARK    2  A    between atoms: N1_3  and  N2_5 
REMARK    3  A    between atoms: N2_5  and  C3_7 
REMARK    4  A    between atoms: C3_7  and  N3_9 
REMARK    5  A    between atoms: N3_9  and  N4_11 
REMARK    6  A    between atoms: C4_13  and  C5_14 
REMARK    7  A    between atoms: C6_16  and  C7_17 
REMARK    8  A    between atoms: C15_25  and  O2_26 
ROOT
HETATM    1  N3  UNL     1       8.651  74.498  27.237  1.00  0.00    -0.275 N 
ATOM      2  H3  UNL     1       8.502  75.500  27.365  1.00  0.00     0.189 HD
ENDROOT
BRANCH   1   3
HETATM    3  C3  UNL     1       9.530  73.869  28.130  1.00  0.00     0.205 C 
HETATM    4  S1  UNL     1      10.909  74.763  28.510  1.00  0.00    -0.038 SA
BRANCH   3   5
HETATM    5  N2  UNL     1       9.413  72.620  28.690  1.00  0.00    -0.275 N 
ATOM      6  H2  UNL     1      10.155  71.991  28.383  1.00  0.00     0.189 HD
BRANCH   5   7
HETATM    7  N1  UNL     1       8.540  72.003  29.568  1.00  0.00    -0.301 N 
HETATM    8  C2  UNL     1       7.782  71.031  29.161  1.00  0.00     0.050 C 
HETATM    9  C1  UNL     1       7.911  70.614  27.734  1.00  0.00     0.072 C 
ATOM     10  H1  UNL     1       8.491  72.314  30.538  1.00  0.00     0.186 HD
BRANCH   8  11
HETATM   11  C16 UNL     1       6.813  70.442  30.049  1.00  0.00     0.082 A 
HETATM   12  N5  UNL     1       5.735  71.135  30.572  1.00  0.00    -0.305 N 
HETATM   13  C17 UNL     1       5.055  70.297  31.391  1.00  0.00     0.325 A 
ATOM     14  H5  UNL     1       5.495  72.107  30.375  1.00  0.00     0.171 HD
HETATM   15  O3  UNL     1       4.010  70.618  32.028  1.00  0.00    -0.247 OA
HETATM   16  N6  UNL     1       5.643  69.114  31.413  1.00  0.00    -0.310 N 
HETATM   17  C18 UNL     1       6.735  69.202  30.579  1.00  0.00     0.038 A 
ATOM     18  H6  UNL     1       5.346  68.296  31.945  1.00  0.00     0.170 HD
HETATM   19  C19 UNL     1       7.627  68.037  30.336  1.00  0.00     0.071 C 
ENDBRANCH   8  11
ENDBRANCH   5   7
ENDBRANCH   3   5
ENDBRANCH   1   3
BRANCH   1  20
HETATM   20  N4  UNL     1       7.978  73.900  26.219  1.00  0.00    -0.307 N 
HETATM   21  C4  UNL     1       6.762  73.737  26.028  1.00  0.00     0.147 C 
ATOM     22  H4  UNL     1       8.576  73.521  25.485  1.00  0.00     0.186 HD
BRANCH  21  23
HETATM   23  C5  UNL     1       5.728  74.208  26.957  1.00  0.00     0.126 A 
HETATM   24  O1  UNL     1       5.500  75.449  27.213  1.00  0.00    -0.306 OA
HETATM   25  C6  UNL     1       4.505  75.621  28.092  1.00  0.00     0.087 A 
HETATM   26  C13 UNL     1       4.055  74.376  28.441  1.00  0.00     0.008 A 
HETATM   27  C14 UNL     1       3.067  73.969  29.449  1.00  0.00     0.054 C 
HETATM   28  C15 UNL     1       4.832  73.487  27.719  1.00  0.00     0.109 A 
BRANCH  25  29
HETATM   29  C7  UNL     1       3.990  76.910  28.571  1.00  0.00    -0.045 C 
HETATM   30  C8  UNL     1       2.496  76.949  28.833  1.00  0.00     0.037 C 
HETATM   31  C9  UNL     1       1.794  77.877  27.849  1.00  0.00     0.004 C 
HETATM   32  C10 UNL     1       2.626  79.052  27.409  1.00  0.00     0.001 C 
HETATM   33  C11 UNL     1       3.720  79.342  28.413  1.00  0.00     0.004 C 
HETATM   34  C12 UNL     1       4.693  78.146  28.250  1.00  0.00     0.037 C 
ENDBRANCH  25  29
BRANCH  28  35
HETATM   35  O2  UNL     1       4.712  72.118  27.766  1.00  0.00    -0.357 OA
ATOM     36  H2  UNL     1       5.064  71.541  28.433  1.00  0.00     0.217 HD
ENDBRANCH  28  35
ENDBRANCH  21  23
ENDBRANCH   1  20
TORSDOF 8
ENDMDL
