MODEL 1
REMARK VINA RESULT: -7.248963518      0.000      0.000
REMARK  13 active torsions:
REMARK  status: ('A' for Active; 'I' for Inactive)
REMARK    1  A    between atoms: N1_2  and  C2_5 
REMARK    2  A    between atoms: C5_11  and  C6_12 
REMARK    3  A    between atoms: C6_12  and  O1_13 
REMARK    4  A    between atoms: C6_12  and  O2_15 
REMARK    5  A    between atoms: C7_17  and  C8_18 
REMARK    6  A    between atoms: C8_18  and  C9_20 
REMARK    7  A    between atoms: C9_20  and  O4_21 
REMARK    8  A    between atoms: C9_20  and  O5_23 
REMARK    9  A    between atoms: N4_25  and  N5_26 
REMARK   10  A    between atoms: C12_32  and  O6_33 
REMARK   11  A    between atoms: C13_35  and  N6_36 
REMARK   12  A    between atoms: N6_36  and  O7_37 
REMARK   13  A    between atoms: C14_39  and  O8_40 
ROOT
HETATM    1  C2  UNL     1      11.808 -10.230  -3.196  1.00  0.00     0.245 C 
HETATM    2  C3  UNL     1      11.639  -8.898  -2.508  1.00  0.00     0.184 C 
HETATM    3  N2  UNL     1      10.414  -8.193  -2.882  1.00  0.00    -0.174 N 
HETATM    4  C4  UNL     1       9.393  -8.611  -3.604  1.00  0.00     0.703 A 
HETATM    5  N3  UNL     1       8.475  -7.643  -3.715  1.00  0.00    -0.186 N 
ATOM      6  H3  UNL     1       7.590  -7.698  -4.219  1.00  0.00     0.184 HD
HETATM    7  C5  UNL     1       8.962  -6.559  -3.017  1.00  0.00     0.112 A 
HETATM    8  C7  UNL     1      10.176  -6.878  -2.484  1.00  0.00     0.130 A 
HETATM    9  N4  UNL     1       9.179  -9.895  -4.225  1.00  0.00    -0.104 N 
HETATM   10  C10 UNL     1       9.631 -11.138  -3.923  1.00  0.00     0.177 C 
HETATM   11  S1  UNL     1       8.553 -12.436  -3.251  1.00  0.00    -0.127 SA
HETATM   12  C11 UNL     1      10.024 -13.564  -3.096  1.00  0.00     0.120 C 
HETATM   13  C12 UNL     1      11.072 -12.572  -3.554  1.00  0.00     0.126 C 
HETATM   14  C13 UNL     1      10.494 -11.957  -4.812  1.00  0.00     0.189 C 
HETATM   15  C14 UNL     1      10.757 -11.234  -2.888  1.00  0.00     0.162 C 
ENDROOT
BRANCH   8  16
HETATM   16  C8  UNL     1      11.106  -6.122  -1.665  1.00  0.00     0.233 C 
HETATM   17  O3  UNL     1      10.741  -5.021  -1.144  1.00  0.00    -0.285 OA
BRANCH  16  18
HETATM   18  C9  UNL     1      12.483  -6.529  -1.374  1.00  0.00     0.332 C 
BRANCH  18  19
HETATM   19  O4  UNL     1      12.888  -6.014  -0.102  1.00  0.00    -0.365 OA
ATOM     20  H4  UNL     1      12.417  -6.460   0.592  1.00  0.00     0.213 HD
ENDBRANCH  18  19
BRANCH  18  21
HETATM   21  O5  UNL     1      13.339  -6.001  -2.341  1.00  0.00    -0.365 OA
ATOM     22  H5  UNL     1      13.720  -6.709  -2.847  1.00  0.00     0.213 HD
ENDBRANCH  18  21
ENDBRANCH  16  18
ENDBRANCH   8  16
BRANCH   7  23
HETATM   23  C6  UNL     1       8.169  -5.323  -2.998  1.00  0.00     0.308 C 
BRANCH  23  24
HETATM   24  O1  UNL     1       7.786  -5.034  -1.641  1.00  0.00    -0.366 OA
ATOM     25  H1  UNL     1       7.279  -5.762  -1.302  1.00  0.00     0.213 HD
ENDBRANCH  23  24
BRANCH  23  26
HETATM   26  O2  UNL     1       8.839  -4.195  -3.427  1.00  0.00    -0.366 OA
ATOM     27  H2  UNL     1       9.517  -3.883  -2.838  1.00  0.00     0.213 HD
ENDBRANCH  23  26
ENDBRANCH   7  23
BRANCH   1  28
HETATM   28  N1  UNL     1      13.151 -10.689  -3.002  1.00  0.00    -0.070 N 
HETATM   29  C1  UNL     1      13.848  -9.904  -1.982  1.00  0.00     0.267 C 
ATOM     30  H12 UNL     1      13.670 -10.703  -3.880  1.00  0.00     0.277 HD
ATOM     31  H11 UNL     1      13.176 -11.686  -2.787  1.00  0.00     0.277 HD
ENDBRANCH   1  28
BRANCH   9  32
HETATM   32  N5  UNL     1       8.341  -9.797  -5.341  1.00  0.00    -0.327 N 
ATOM     33  H52 UNL     1       8.517  -9.013  -5.969  1.00  0.00     0.177 HD
ATOM     34  H51 UNL     1       7.653 -10.550  -5.365  1.00  0.00     0.177 HD
ENDBRANCH   9  32
BRANCH  15  35
HETATM   35  O8  UNL     1      10.282 -11.291  -1.636  1.00  0.00    -0.376 OA
HETATM   36  C15 UNL     1      10.980 -11.800  -0.609  1.00  0.00     0.202 C 
ENDBRANCH  15  35
BRANCH  13  37
HETATM   37  O6  UNL     1      12.358 -12.970  -3.578  1.00  0.00    -0.384 OA
ATOM     38  H6  UNL     1      13.015 -12.347  -3.864  1.00  0.00     0.210 HD
ENDBRANCH  13  37
BRANCH  14  39
HETATM   39  N6  UNL     1       9.651 -12.923  -5.537  1.00  0.00    -0.092 NA
BRANCH  39  40
HETATM   40  O7  UNL     1      10.378 -13.576  -6.471  1.00  0.00    -0.295 OA
ATOM     41  H7  UNL     1      11.241 -13.190  -6.550  1.00  0.00     0.238 HD
ENDBRANCH  39  40
ENDBRANCH  14  39
TORSDOF 13
ENDMDL
MODEL 2
REMARK VINA RESULT: -7.136009754      2.356      3.488
REMARK  13 active torsions:
REMARK  status: ('A' for Active; 'I' for Inactive)
REMARK    1  A    between atoms: N1_2  and  C2_5 
REMARK    2  A    between atoms: C5_11  and  C6_12 
REMARK    3  A    between atoms: C6_12  and  O1_13 
REMARK    4  A    between atoms: C6_12  and  O2_15 
REMARK    5  A    between atoms: C7_17  and  C8_18 
REMARK    6  A    between atoms: C8_18  and  C9_20 
REMARK    7  A    between atoms: C9_20  and  O4_21 
REMARK    8  A    between atoms: C9_20  and  O5_23 
REMARK    9  A    between atoms: N4_25  and  N5_26 
REMARK   10  A    between atoms: C12_32  and  O6_33 
REMARK   11  A    between atoms: C13_35  and  N6_36 
REMARK   12  A    between atoms: N6_36  and  O7_37 
REMARK   13  A    between atoms: C14_39  and  O8_40 
ROOT
HETATM    1  C2  UNL     1      10.200 -11.791  -3.254  1.00  0.00     0.245 C 
HETATM    2  C3  UNL     1      11.284 -11.150  -2.424  1.00  0.00     0.184 C 
HETATM    3  N2  UNL     1      11.189  -9.693  -2.352  1.00  0.00    -0.174 N 
HETATM    4  C4  UNL     1      10.229  -8.894  -2.778  1.00  0.00     0.703 A 
HETATM    5  N3  UNL     1      10.541  -7.617  -2.523  1.00  0.00    -0.186 N 
ATOM      6  H3  UNL     1       9.978  -6.796  -2.745  1.00  0.00     0.184 HD
HETATM    7  C5  UNL     1      11.770  -7.631  -1.899  1.00  0.00     0.112 A 
HETATM    8  C7  UNL     1      12.198  -8.921  -1.780  1.00  0.00     0.130 A 
HETATM    9  N4  UNL     1       8.985  -9.226  -3.427  1.00  0.00    -0.104 N 
HETATM   10  C10 UNL     1       8.209 -10.338  -3.390  1.00  0.00     0.177 C 
HETATM   11  S1  UNL     1       6.596 -10.380  -2.556  1.00  0.00    -0.127 SA
HETATM   12  C11 UNL     1       6.451 -12.192  -2.948  1.00  0.00     0.120 C 
HETATM   13  C12 UNL     1       7.808 -12.353  -3.599  1.00  0.00     0.126 C 
HETATM   14  C13 UNL     1       7.910 -11.193  -4.566  1.00  0.00     0.189 C 
HETATM   15  C14 UNL     1       8.818 -11.588  -2.746  1.00  0.00     0.162 C 
ENDROOT
BRANCH   8  16
HETATM   16  C8  UNL     1      13.400  -9.495  -1.204  1.00  0.00     0.233 C 
HETATM   17  O3  UNL     1      13.578  -9.461   0.054  1.00  0.00    -0.285 OA
BRANCH  16  18
HETATM   18  C9  UNL     1      14.469 -10.138  -1.974  1.00  0.00     0.332 C 
BRANCH  18  19
HETATM   19  O4  UNL     1      15.686 -10.129  -1.222  1.00  0.00    -0.365 OA
ATOM     20  H4  UNL     1      16.360  -9.661  -1.701  1.00  0.00     0.213 HD
ENDBRANCH  18  19
BRANCH  18  21
HETATM   21  O5  UNL     1      14.688  -9.423  -3.151  1.00  0.00    -0.365 OA
ATOM     22  H5  UNL     1      15.053 -10.002  -3.810  1.00  0.00     0.213 HD
ENDBRANCH  18  21
ENDBRANCH  16  18
ENDBRANCH   8  16
BRANCH   7  23
HETATM   23  C6  UNL     1      12.385  -6.349  -1.532  1.00  0.00     0.308 C 
BRANCH  23  24
HETATM   24  O1  UNL     1      12.785  -6.401  -0.150  1.00  0.00    -0.366 OA
ATOM     25  H1  UNL     1      13.711  -6.197  -0.089  1.00  0.00     0.213 HD
ENDBRANCH  23  24
BRANCH  23  26
HETATM   26  O2  UNL     1      13.536  -6.034  -2.224  1.00  0.00    -0.366 OA
ATOM     27  H2  UNL     1      13.494  -5.230  -2.728  1.00  0.00     0.213 HD
ENDBRANCH  23  26
ENDBRANCH   7  23
BRANCH   1  28
HETATM   28  N1  UNL     1      10.551 -13.156  -3.508  1.00  0.00    -0.070 N 
HETATM   29  C1  UNL     1      11.814 -13.518  -2.864  1.00  0.00     0.267 C 
ATOM     30  H12 UNL     1      10.573 -13.355  -4.509  1.00  0.00     0.277 HD
ATOM     31  H11 UNL     1       9.799 -13.790  -3.237  1.00  0.00     0.277 HD
ENDBRANCH   1  28
BRANCH   9  32
HETATM   32  N5  UNL     1       8.525  -8.178  -4.232  1.00  0.00    -0.327 N 
ATOM     33  H52 UNL     1       9.177  -7.408  -4.385  1.00  0.00     0.177 HD
ATOM     34  H51 UNL     1       7.574  -8.344  -4.562  1.00  0.00     0.177 HD
ENDBRANCH   9  32
BRANCH  15  35
HETATM   35  O8  UNL     1       8.619 -11.616  -1.422  1.00  0.00    -0.376 OA
HETATM   36  C15 UNL     1       8.937 -12.670  -0.654  1.00  0.00     0.202 C 
ENDBRANCH  15  35
BRANCH  13  37
HETATM   37  O6  UNL     1       8.162 -13.576  -4.037  1.00  0.00    -0.384 OA
ATOM     38  H6  UNL     1       9.049 -13.874  -3.870  1.00  0.00     0.210 HD
ENDBRANCH  13  37
BRANCH  14  39
HETATM   39  N6  UNL     1       6.587 -10.827  -5.100  1.00  0.00    -0.092 NA
BRANCH  39  40
HETATM   40  O7  UNL     1       6.412 -11.351  -6.333  1.00  0.00    -0.295 OA
ATOM     41  H7  UNL     1       7.072 -11.021  -6.931  1.00  0.00     0.238 HD
ENDBRANCH  39  40
ENDBRANCH  14  39
TORSDOF 13
ENDMDL
MODEL 3
REMARK VINA RESULT: -6.990284745      2.956      6.465
REMARK  13 active torsions:
REMARK  status: ('A' for Active; 'I' for Inactive)
REMARK    1  A    between atoms: N1_2  and  C2_5 
REMARK    2  A    between atoms: C5_11  and  C6_12 
REMARK    3  A    between atoms: C6_12  and  O1_13 
REMARK    4  A    between atoms: C6_12  and  O2_15 
REMARK    5  A    between atoms: C7_17  and  C8_18 
REMARK    6  A    between atoms: C8_18  and  C9_20 
REMARK    7  A    between atoms: C9_20  and  O4_21 
REMARK    8  A    between atoms: C9_20  and  O5_23 
REMARK    9  A    between atoms: N4_25  and  N5_26 
REMARK   10  A    between atoms: C12_32  and  O6_33 
REMARK   11  A    between atoms: C13_35  and  N6_36 
REMARK   12  A    between atoms: N6_36  and  O7_37 
REMARK   13  A    between atoms: C14_39  and  O8_40 
ROOT
HETATM    1  C2  UNL     1       7.319  -7.474  -3.649  1.00  0.00     0.245 C 
HETATM    2  C3  UNL     1       8.428  -8.242  -2.974  1.00  0.00     0.184 C 
HETATM    3  N2  UNL     1       9.509  -7.396  -2.471  1.00  0.00    -0.174 N 
HETATM    4  C4  UNL     1       9.578  -6.081  -2.396  1.00  0.00     0.703 A 
HETATM    5  N3  UNL     1      10.754  -5.707  -1.876  1.00  0.00    -0.186 N 
ATOM      6  H3  UNL     1      11.070  -4.752  -1.708  1.00  0.00     0.184 HD
HETATM    7  C5  UNL     1      11.454  -6.865  -1.614  1.00  0.00     0.112 A 
HETATM    8  C7  UNL     1      10.694  -7.939  -1.977  1.00  0.00     0.130 A 
HETATM    9  N4  UNL     1       8.600  -5.091  -2.775  1.00  0.00    -0.104 N 
HETATM   10  C10 UNL     1       7.247  -5.136  -2.860  1.00  0.00     0.177 C 
HETATM   11  S1  UNL     1       6.163  -4.264  -1.692  1.00  0.00    -0.127 SA
HETATM   12  C11 UNL     1       4.679  -5.006  -2.531  1.00  0.00     0.120 C 
HETATM   13  C12 UNL     1       5.433  -5.867  -3.523  1.00  0.00     0.126 C 
HETATM   14  C13 UNL     1       6.477  -4.945  -4.115  1.00  0.00     0.189 C 
HETATM   15  C14 UNL     1       6.593  -6.519  -2.773  1.00  0.00     0.162 C 
ENDROOT
BRANCH   8  16
HETATM   16  C8  UNL     1      10.939  -9.368  -1.911  1.00  0.00     0.233 C 
HETATM   17  O3  UNL     1      10.510 -10.039  -0.920  1.00  0.00    -0.285 OA
BRANCH  16  18
HETATM   18  C9  UNL     1      11.666 -10.138  -2.925  1.00  0.00     0.332 C 
BRANCH  18  19
HETATM   19  O4  UNL     1      13.041  -9.746  -2.944  1.00  0.00    -0.365 OA
ATOM     20  H4  UNL     1      13.202  -9.162  -3.675  1.00  0.00     0.213 HD
ENDBRANCH  18  19
BRANCH  18  21
HETATM   21  O5  UNL     1      11.128  -9.873  -4.184  1.00  0.00    -0.365 OA
ATOM     22  H5  UNL     1      11.472  -9.048  -4.509  1.00  0.00     0.213 HD
ENDBRANCH  18  21
ENDBRANCH  16  18
ENDBRANCH   8  16
BRANCH   7  23
HETATM   23  C6  UNL     1      12.812  -6.757  -1.067  1.00  0.00     0.308 C 
BRANCH  23  24
HETATM   24  O1  UNL     1      13.675  -6.183  -2.066  1.00  0.00    -0.366 OA
ATOM     25  H1  UNL     1      13.331  -5.334  -2.320  1.00  0.00     0.213 HD
ENDBRANCH  23  24
BRANCH  23  26
HETATM   26  O2  UNL     1      12.934  -5.926   0.029  1.00  0.00    -0.366 OA
ATOM     27  H2  UNL     1      13.698  -6.087   0.570  1.00  0.00     0.213 HD
ENDBRANCH  23  26
ENDBRANCH   7  23
BRANCH   1  28
HETATM   28  N1  UNL     1       6.480  -8.392  -4.360  1.00  0.00    -0.070 N 
HETATM   29  C1  UNL     1       7.168  -8.970  -5.515  1.00  0.00     0.267 C 
ATOM     30  H12 UNL     1       5.598  -7.957  -4.632  1.00  0.00     0.277 HD
ATOM     31  H11 UNL     1       6.115  -9.118  -3.743  1.00  0.00     0.277 HD
ENDBRANCH   1  28
BRANCH   9  32
HETATM   32  N5  UNL     1       9.200  -3.871  -3.107  1.00  0.00    -0.327 N 
ATOM     33  H52 UNL     1      10.203  -3.801  -2.936  1.00  0.00     0.177 HD
ATOM     34  H51 UNL     1       8.524  -3.209  -3.487  1.00  0.00     0.177 HD
ENDBRANCH   9  32
BRANCH  15  35
HETATM   35  O8  UNL     1       6.352  -6.879  -1.504  1.00  0.00    -0.376 OA
HETATM   36  C15 UNL     1       5.598  -7.939  -1.173  1.00  0.00     0.202 C 
ENDBRANCH  15  35
BRANCH  13  37
HETATM   37  O6  UNL     1       4.721  -6.641  -4.364  1.00  0.00    -0.384 OA
ATOM     38  H6  UNL     1       5.053  -7.507  -4.567  1.00  0.00     0.210 HD
ENDBRANCH  13  37
BRANCH  14  39
HETATM   39  N6  UNL     1       5.991  -3.556  -4.170  1.00  0.00    -0.092 NA
BRANCH  39  40
HETATM   40  O7  UNL     1       6.881  -2.768  -4.812  1.00  0.00    -0.295 OA
ATOM     41  H7  UNL     1       6.537  -1.888  -4.907  1.00  0.00     0.238 HD
ENDBRANCH  39  40
ENDBRANCH  14  39
TORSDOF 13
ENDMDL
MODEL 4
REMARK VINA RESULT: -6.815521883      2.110      4.219
REMARK  13 active torsions:
REMARK  status: ('A' for Active; 'I' for Inactive)
REMARK    1  A    between atoms: N1_2  and  C2_5 
REMARK    2  A    between atoms: C5_11  and  C6_12 
REMARK    3  A    between atoms: C6_12  and  O1_13 
REMARK    4  A    between atoms: C6_12  and  O2_15 
REMARK    5  A    between atoms: C7_17  and  C8_18 
REMARK    6  A    between atoms: C8_18  and  C9_20 
REMARK    7  A    between atoms: C9_20  and  O4_21 
REMARK    8  A    between atoms: C9_20  and  O5_23 
REMARK    9  A    between atoms: N4_25  and  N5_26 
REMARK   10  A    between atoms: C12_32  and  O6_33 
REMARK   11  A    between atoms: C13_35  and  N6_36 
REMARK   12  A    between atoms: N6_36  and  O7_37 
REMARK   13  A    between atoms: C14_39  and  O8_40 
ROOT
HETATM    1  C2  UNL     1       7.650  -9.361  -2.845  1.00  0.00     0.245 C 
HETATM    2  C3  UNL     1       8.082  -7.929  -2.654  1.00  0.00     0.184 C 
HETATM    3  N2  UNL     1       9.514  -7.774  -2.400  1.00  0.00    -0.174 N 
HETATM    4  C4  UNL     1      10.478  -8.673  -2.460  1.00  0.00     0.703 A 
HETATM    5  N3  UNL     1      11.653  -8.116  -2.144  1.00  0.00    -0.186 N 
ATOM      6  H3  UNL     1      12.559  -8.582  -2.110  1.00  0.00     0.184 HD
HETATM    7  C5  UNL     1      11.397  -6.789  -1.872  1.00  0.00     0.112 A 
HETATM    8  C7  UNL     1      10.063  -6.548  -2.027  1.00  0.00     0.130 A 
HETATM    9  N4  UNL     1      10.403 -10.071  -2.808  1.00  0.00    -0.104 N 
HETATM   10  C10 UNL     1       9.538 -10.769  -3.585  1.00  0.00     0.177 C 
HETATM   11  S1  UNL     1      10.005 -11.451  -5.203  1.00  0.00    -0.127 SA
HETATM   12  C11 UNL     1       8.257 -12.037  -5.450  1.00  0.00     0.120 C 
HETATM   13  C12 UNL     1       7.681 -11.455  -4.176  1.00  0.00     0.126 C 
HETATM   14  C13 UNL     1       8.658 -11.859  -3.093  1.00  0.00     0.189 C 
HETATM   15  C14 UNL     1       8.255 -10.049  -4.015  1.00  0.00     0.162 C 
ENDROOT
BRANCH   8  16
HETATM   16  C8  UNL     1       9.270  -5.342  -1.877  1.00  0.00     0.233 C 
HETATM   17  O3  UNL     1       8.615  -5.144  -0.806  1.00  0.00    -0.285 OA
BRANCH  16  18
HETATM   18  C9  UNL     1       9.151  -4.291  -2.891  1.00  0.00     0.332 C 
BRANCH  18  19
HETATM   19  O4  UNL     1       8.135  -4.637  -3.837  1.00  0.00    -0.365 OA
ATOM     20  H4  UNL     1       7.767  -5.486  -3.623  1.00  0.00     0.213 HD
ENDBRANCH  18  19
BRANCH  18  21
HETATM   21  O5  UNL     1      10.357  -4.172  -3.582  1.00  0.00    -0.365 OA
ATOM     22  H5  UNL     1      10.672  -3.278  -3.519  1.00  0.00     0.213 HD
ENDBRANCH  18  21
ENDBRANCH  16  18
ENDBRANCH   8  16
BRANCH   7  23
HETATM   23  C6  UNL     1      12.513  -5.930  -1.456  1.00  0.00     0.308 C 
BRANCH  23  24
HETATM   24  O1  UNL     1      12.744  -6.114  -0.047  1.00  0.00    -0.366 OA
ATOM     25  H1  UNL     1      11.926  -6.355   0.372  1.00  0.00     0.213 HD
ENDBRANCH  23  24
BRANCH  23  26
HETATM   26  O2  UNL     1      13.723  -6.214  -2.055  1.00  0.00    -0.366 OA
ATOM     27  H2  UNL     1      13.677  -6.391  -2.987  1.00  0.00     0.213 HD
ENDBRANCH  23  26
ENDBRANCH   7  23
BRANCH   1  28
HETATM   28  N1  UNL     1       6.220  -9.430  -2.784  1.00  0.00    -0.070 N 
HETATM   29  C1  UNL     1       5.630  -8.126  -2.479  1.00  0.00     0.267 C 
ATOM     30  H12 UNL     1       5.910 -10.143  -2.123  1.00  0.00     0.277 HD
ATOM     31  H11 UNL     1       5.829  -9.825  -3.639  1.00  0.00     0.277 HD
ENDBRANCH   1  28
BRANCH   9  32
HETATM   32  N5  UNL     1      11.434 -10.807  -2.215  1.00  0.00    -0.327 N 
ATOM     33  H52 UNL     1      11.257 -11.802  -2.081  1.00  0.00     0.177 HD
ATOM     34  H51 UNL     1      12.241 -10.222  -2.000  1.00  0.00     0.177 HD
ENDBRANCH   9  32
BRANCH  15  35
HETATM   35  O8  UNL     1       8.431  -9.346  -5.143  1.00  0.00    -0.376 OA
HETATM   36  C15 UNL     1       7.414  -8.827  -5.849  1.00  0.00     0.202 C 
ENDBRANCH  15  35
BRANCH  13  37
HETATM   37  O6  UNL     1       6.366 -11.623  -3.938  1.00  0.00    -0.384 OA
ATOM     38  H6  UNL     1       6.109 -12.202  -3.230  1.00  0.00     0.210 HD
ENDBRANCH  13  37
BRANCH  14  39
HETATM   39  N6  UNL     1       9.287 -13.155  -3.401  1.00  0.00    -0.092 NA
BRANCH  39  40
HETATM   40  O7  UNL     1      10.038 -13.576  -2.359  1.00  0.00    -0.295 OA
ATOM     41  H7  UNL     1      10.586 -14.307  -2.619  1.00  0.00     0.238 HD
ENDBRANCH  39  40
ENDBRANCH  14  39
TORSDOF 13
ENDMDL
MODEL 5
REMARK VINA RESULT: -6.786267847      2.483      6.482
REMARK  13 active torsions:
REMARK  status: ('A' for Active; 'I' for Inactive)
REMARK    1  A    between atoms: N1_2  and  C2_5 
REMARK    2  A    between atoms: C5_11  and  C6_12 
REMARK    3  A    between atoms: C6_12  and  O1_13 
REMARK    4  A    between atoms: C6_12  and  O2_15 
REMARK    5  A    between atoms: C7_17  and  C8_18 
REMARK    6  A    between atoms: C8_18  and  C9_20 
REMARK    7  A    between atoms: C9_20  and  O4_21 
REMARK    8  A    between atoms: C9_20  and  O5_23 
REMARK    9  A    between atoms: N4_25  and  N5_26 
REMARK   10  A    between atoms: C12_32  and  O6_33 
REMARK   11  A    between atoms: C13_35  and  N6_36 
REMARK   12  A    between atoms: N6_36  and  O7_37 
REMARK   13  A    between atoms: C14_39  and  O8_40 
ROOT
HETATM    1  C2  UNL     1       8.883  -8.380  -3.702  1.00  0.00     0.245 C 
HETATM    2  C3  UNL     1       9.492  -9.669  -3.209  1.00  0.00     0.184 C 
HETATM    3  N2  UNL     1      10.736  -9.486  -2.462  1.00  0.00    -0.174 N 
HETATM    4  C4  UNL     1      11.306  -8.372  -2.044  1.00  0.00     0.703 A 
HETATM    5  N3  UNL     1      12.447  -8.648  -1.401  1.00  0.00    -0.186 N 
ATOM      6  H3  UNL     1      13.086  -7.976  -0.978  1.00  0.00     0.184 HD
HETATM    7  C5  UNL     1      12.589 -10.019  -1.424  1.00  0.00     0.112 A 
HETATM    8  C7  UNL     1      11.528 -10.568  -2.083  1.00  0.00     0.130 A 
HETATM    9  N4  UNL     1      10.861  -7.008  -2.189  1.00  0.00    -0.104 N 
HETATM   10  C10 UNL     1       9.627  -6.465  -2.334  1.00  0.00     0.177 C 
HETATM   11  S1  UNL     1       8.819  -5.503  -1.021  1.00  0.00    -0.127 SA
HETATM   12  C11 UNL     1       7.298  -5.352  -2.080  1.00  0.00     0.120 C 
HETATM   13  C12 UNL     1       7.785  -6.206  -3.232  1.00  0.00     0.126 C 
HETATM   14  C13 UNL     1       9.181  -5.697  -3.524  1.00  0.00     0.189 C 
HETATM   15  C14 UNL     1       8.475  -7.430  -2.635  1.00  0.00     0.162 C 
ENDROOT
BRANCH   8  16
HETATM   16  C8  UNL     1      11.178 -11.945  -2.383  1.00  0.00     0.233 C 
HETATM   17  O3  UNL     1      10.457 -12.606  -1.572  1.00  0.00    -0.285 OA
BRANCH  16  18
HETATM   18  C9  UNL     1      11.599 -12.669  -3.585  1.00  0.00     0.332 C 
BRANCH  18  19
HETATM   19  O4  UNL     1      12.659 -13.574  -3.265  1.00  0.00    -0.365 OA
ATOM     20  H4  UNL     1      12.665 -14.298  -3.881  1.00  0.00     0.213 HD
ENDBRANCH  18  19
BRANCH  18  21
HETATM   21  O5  UNL     1      12.081 -11.763  -4.530  1.00  0.00    -0.365 OA
ATOM     22  H5  UNL     1      12.150 -12.192  -5.375  1.00  0.00     0.213 HD
ENDBRANCH  18  21
ENDBRANCH  16  18
ENDBRANCH   8  16
BRANCH   7  23
HETATM   23  C6  UNL     1      13.787 -10.611  -0.816  1.00  0.00     0.308 C 
BRANCH  23  24
HETATM   24  O1  UNL     1      14.059 -11.874  -1.452  1.00  0.00    -0.366 OA
ATOM     25  H1  UNL     1      13.241 -12.248  -1.758  1.00  0.00     0.213 HD
ENDBRANCH  23  24
BRANCH  23  26
HETATM   26  O2  UNL     1      14.945  -9.877  -0.975  1.00  0.00    -0.366 OA
ATOM     27  H2  UNL     1      15.737 -10.309  -0.677  1.00  0.00     0.213 HD
ENDBRANCH  23  26
ENDBRANCH   7  23
BRANCH   1  28
HETATM   28  N1  UNL     1       7.861  -8.682  -4.659  1.00  0.00    -0.070 N 
HETATM   29  C1  UNL     1       8.413  -9.314  -5.858  1.00  0.00     0.267 C 
ATOM     30  H12 UNL     1       7.314  -7.853  -4.894  1.00  0.00     0.277 HD
ATOM     31  H11 UNL     1       7.120  -9.249  -4.247  1.00  0.00     0.277 HD
ENDBRANCH   1  28
BRANCH   9  32
HETATM   32  N5  UNL     1      11.933  -6.109  -2.168  1.00  0.00    -0.327 N 
ATOM     33  H52 UNL     1      12.453  -6.007  -3.040  1.00  0.00     0.177 HD
ATOM     34  H51 UNL     1      12.041  -5.671  -1.254  1.00  0.00     0.177 HD
ENDBRANCH   9  32
BRANCH  15  35
HETATM   35  O8  UNL     1       7.935  -7.929  -1.515  1.00  0.00    -0.376 OA
HETATM   36  C15 UNL     1       6.821  -8.679  -1.508  1.00  0.00     0.202 C 
ENDBRANCH  15  35
BRANCH  13  37
HETATM   37  O6  UNL     1       6.953  -6.404  -4.273  1.00  0.00    -0.384 OA
ATOM     38  H6  UNL     1       6.090  -6.759  -4.096  1.00  0.00     0.210 HD
ENDBRANCH  13  37
BRANCH  14  39
HETATM   39  N6  UNL     1       9.294  -4.257  -3.233  1.00  0.00    -0.092 NA
BRANCH  39  40
HETATM   40  O7  UNL     1      10.546  -3.820  -3.488  1.00  0.00    -0.295 OA
ATOM     41  H7  UNL     1      11.128  -4.038  -2.770  1.00  0.00     0.238 HD
ENDBRANCH  39  40
ENDBRANCH  14  39
TORSDOF 13
ENDMDL
