MODEL 1
REMARK VINA RESULT: -6.912630759      0.000      0.000
REMARK  8 active torsions:
REMARK  status: ('A' for Active; 'I' for Inactive)
REMARK    1  A    between atoms: N1_1  and  N2_4 
REMARK       I    between atoms: N2_4  and  C1_5 
REMARK       I    between atoms: C1_5  and  N3_6 
REMARK       I    between atoms: C1_5  and  N4_10 
REMARK    2  A    between atoms: N4_10  and  C2_12 
REMARK    3  A    between atoms: N5_13  and  C3_14 
REMARK    4  A    between atoms: C3_14  and  C4_15 
REMARK    5  A    between atoms: N8_22  and  C5_23 
REMARK    6  A    between atoms: C5_23  and  C6_24 
REMARK    7  A    between atoms: C9_31  and  O3_32 
REMARK    8  A    between atoms: C10_34  and  S1_35 
ROOT
HETATM    1  C2  UNL     1       6.263  -6.137  -2.880  1.00  0.00     0.717 A 
HETATM    2  N5  UNL     1       5.399  -6.013  -1.870  1.00  0.00    -0.097 N 
HETATM    3  N6  UNL     1       5.047  -7.232  -1.486  1.00  0.00    -0.210 N 
ATOM      4  H6  UNL     1       4.394  -7.440  -0.729  1.00  0.00     0.210 HD
HETATM    5  N7  UNL     1       5.653  -8.125  -2.210  1.00  0.00    -0.211 N 
ATOM      6  H7  UNL     1       5.553  -9.136  -2.113  1.00  0.00     0.210 HD
HETATM    7  N8  UNL     1       6.405  -7.522  -3.074  1.00  0.00    -0.101 N 
ENDROOT
BRANCH   7   8
HETATM    8  C5  UNL     1       7.311  -8.030  -4.116  1.00  0.00     0.229 C 
BRANCH   8   9
HETATM    9  C6  UNL     1       8.316  -8.971  -3.618  1.00  0.00     0.060 A 
HETATM   10  N9  UNL     1       8.214 -10.343  -3.667  1.00  0.00    -0.302 N 
HETATM   11  N10 UNL     1       9.254 -10.892  -3.072  1.00  0.00    -0.300 N 
ATOM     12  H9  UNL     1       7.447 -10.858  -4.100  1.00  0.00     0.186 HD
HETATM   13  C7  UNL     1      10.070  -9.928  -2.615  1.00  0.00     0.065 A 
ATOM     14  H10 UNL     1       9.414 -11.895  -2.973  1.00  0.00     0.187 HD
HETATM   15  C8  UNL     1      11.275  -9.938  -1.945  1.00  0.00     0.070 A 
HETATM   16  C12 UNL     1       9.477  -8.705  -2.962  1.00  0.00     0.044 A 
HETATM   17  C9  UNL     1      11.938  -8.782  -1.597  1.00  0.00     0.094 A 
HETATM   18  C10 UNL     1      11.347  -7.580  -1.947  1.00  0.00     0.138 A 
HETATM   19  C11 UNL     1      10.141  -7.545  -2.616  1.00  0.00     0.088 A 
HETATM   20  N11 UNL     1       9.642  -6.281  -2.965  1.00  0.00    -0.100 NA
BRANCH  17  21
HETATM   21  O3  UNL     1      13.147  -8.821  -0.925  1.00  0.00    -0.359 OA
ATOM     22  H3  UNL     1      13.659  -8.034  -0.783  1.00  0.00     0.217 HD
ENDBRANCH  17  21
BRANCH  18  23
HETATM   23  S1  UNL     1      12.147  -6.107  -1.533  1.00  0.00     0.142 S 
HETATM   24  O4  UNL     1      12.676  -6.088  -0.128  1.00  0.00    -0.591 OA
HETATM   25  O5  UNL     1      13.356  -5.958  -2.445  1.00  0.00    -0.591 OA
HETATM   26  O6  UNL     1      11.165  -4.751  -1.785  1.00  0.00    -0.591 OA
ENDBRANCH  18  23
ENDBRANCH   8   9
ENDBRANCH   7   8
BRANCH   1  27
HETATM   27  N4  UNL     1       6.866  -5.313  -3.594  1.00  0.00    -0.178 N 
HETATM   28  C1  UNL     1       7.027  -4.041  -4.043  1.00  0.00     0.410 C 
HETATM   29  N2  UNL     1       7.370  -3.090  -2.992  1.00  0.00    -0.093 NA
HETATM   30  N3  UNL     1       5.912  -3.458  -4.786  1.00  0.00    -0.042 N 
ATOM     31  H33 UNL     1       5.120  -3.209  -4.194  1.00  0.00     0.278 HD
ATOM     32  H32 UNL     1       6.107  -2.521  -5.138  1.00  0.00     0.278 HD
ATOM     33  H31 UNL     1       5.672  -4.123  -5.521  1.00  0.00     0.278 HD
ATOM     34  H4  UNL     1       7.586  -5.855  -4.072  1.00  0.00     0.181 HD
BRANCH  29  35
HETATM   35  N1  UNL     1       8.440  -3.557  -2.217  1.00  0.00    -0.345 N 
ATOM     36  H12 UNL     1       8.801  -4.508  -2.269  1.00  0.00     0.172 HD
ATOM     37  H11 UNL     1       8.798  -2.824  -1.604  1.00  0.00     0.172 HD
ENDBRANCH  29  35
ENDBRANCH   1  27
BRANCH   2  38
HETATM   38  C3  UNL     1       4.896  -4.835  -1.222  1.00  0.00     0.282 C 
BRANCH  38  39
HETATM   39  C4  UNL     1       5.726  -4.457  -0.039  1.00  0.00     0.194 C 
HETATM   40  O1  UNL     1       6.162  -3.292   0.103  1.00  0.00    -0.647 OA
HETATM   41  O2  UNL     1       6.000  -5.433   0.897  1.00  0.00    -0.647 OA
ENDBRANCH  38  39
ENDBRANCH   2  38
TORSDOF 8
ENDMDL
MODEL 2
REMARK VINA RESULT: -6.498491646      2.448      3.730
REMARK  8 active torsions:
REMARK  status: ('A' for Active; 'I' for Inactive)
REMARK    1  A    between atoms: N1_1  and  N2_4 
REMARK       I    between atoms: N2_4  and  C1_5 
REMARK       I    between atoms: C1_5  and  N3_6 
REMARK       I    between atoms: C1_5  and  N4_10 
REMARK    2  A    between atoms: N4_10  and  C2_12 
REMARK    3  A    between atoms: N5_13  and  C3_14 
REMARK    4  A    between atoms: C3_14  and  C4_15 
REMARK    5  A    between atoms: N8_22  and  C5_23 
REMARK    6  A    between atoms: C5_23  and  C6_24 
REMARK    7  A    between atoms: C9_31  and  O3_32 
REMARK    8  A    between atoms: C10_34  and  S1_35 
ROOT
HETATM    1  C2  UNL     1       6.669  -2.357  -2.163  1.00  0.00     0.717 A 
HETATM    2  N5  UNL     1       6.910  -1.765  -0.992  1.00  0.00    -0.097 N 
HETATM    3  N6  UNL     1       7.940  -2.382  -0.429  1.00  0.00    -0.210 N 
ATOM      4  H6  UNL     1       8.342  -2.139   0.477  1.00  0.00     0.210 HD
HETATM    5  N7  UNL     1       8.363  -3.343  -1.196  1.00  0.00    -0.211 N 
ATOM      6  H7  UNL     1       9.143  -3.967  -0.990  1.00  0.00     0.210 HD
HETATM    7  N8  UNL     1       7.632  -3.377  -2.264  1.00  0.00    -0.101 N 
ENDROOT
BRANCH   7   8
HETATM    8  C5  UNL     1       7.671  -4.236  -3.457  1.00  0.00     0.229 C 
BRANCH   8   9
HETATM    9  C6  UNL     1       7.693  -5.668  -3.154  1.00  0.00     0.060 A 
HETATM   10  N9  UNL     1       6.612  -6.517  -3.243  1.00  0.00    -0.302 N 
HETATM   11  N10 UNL     1       6.953  -7.722  -2.833  1.00  0.00    -0.300 N 
ATOM     12  H9  UNL     1       5.686  -6.251  -3.577  1.00  0.00     0.186 HD
HETATM   13  C7  UNL     1       8.245  -7.722  -2.465  1.00  0.00     0.065 A 
ATOM     14  H10 UNL     1       6.331  -8.531  -2.800  1.00  0.00     0.187 HD
HETATM   15  C8  UNL     1       9.099  -8.692  -1.984  1.00  0.00     0.070 A 
HETATM   16  C12 UNL     1       8.719  -6.417  -2.670  1.00  0.00     0.044 A 
HETATM   17  C9  UNL     1      10.420  -8.436  -1.693  1.00  0.00     0.094 A 
HETATM   18  C10 UNL     1      10.880  -7.148  -1.901  1.00  0.00     0.138 A 
HETATM   19  C11 UNL     1      10.044  -6.159  -2.380  1.00  0.00     0.088 A 
HETATM   20  N11 UNL     1      10.611  -4.895  -2.598  1.00  0.00    -0.100 NA
BRANCH  17  21
HETATM   21  O3  UNL     1      11.256  -9.429  -1.212  1.00  0.00    -0.359 OA
ATOM     22  H3  UNL     1      10.982 -10.338  -1.194  1.00  0.00     0.217 HD
ENDBRANCH  17  21
BRANCH  18  23
HETATM   23  S1  UNL     1      12.531  -6.785  -1.552  1.00  0.00     0.142 S 
HETATM   24  O4  UNL     1      13.429  -7.987  -1.592  1.00  0.00    -0.591 OA
HETATM   25  O5  UNL     1      13.041  -5.838  -2.629  1.00  0.00    -0.591 OA
HETATM   26  O6  UNL     1      12.714  -5.991  -0.067  1.00  0.00    -0.591 OA
ENDBRANCH  18  23
ENDBRANCH   8   9
ENDBRANCH   7   8
BRANCH   1  27
HETATM   27  N4  UNL     1       5.817  -2.174  -3.053  1.00  0.00    -0.178 N 
HETATM   28  C1  UNL     1       5.062  -1.331  -3.805  1.00  0.00     0.410 C 
HETATM   29  N2  UNL     1       5.849  -0.434  -4.644  1.00  0.00    -0.093 NA
HETATM   30  N3  UNL     1       4.098  -0.496  -3.090  1.00  0.00    -0.042 N 
ATOM     31  H33 UNL     1       4.533   0.265  -2.569  1.00  0.00     0.278 HD
ATOM     32  H32 UNL     1       3.528   0.081  -3.708  1.00  0.00     0.278 HD
ATOM     33  H31 UNL     1       3.548  -1.123  -2.503  1.00  0.00     0.278 HD
ATOM     34  H4  UNL     1       5.563  -3.110  -3.372  1.00  0.00     0.181 HD
BRANCH  29  35
HETATM   35  N1  UNL     1       6.809  -1.141  -5.379  1.00  0.00    -0.345 N 
ATOM     36  H12 UNL     1       7.728  -1.388  -5.015  1.00  0.00     0.172 HD
ATOM     37  H11 UNL     1       6.464  -1.370  -6.311  1.00  0.00     0.172 HD
ENDBRANCH  29  35
ENDBRANCH   1  27
BRANCH   2  38
HETATM   38  C3  UNL     1       6.261  -0.645  -0.371  1.00  0.00     0.282 C 
BRANCH  38  39
HETATM   39  C4  UNL     1       6.774   0.655  -0.898  1.00  0.00     0.194 C 
HETATM   40  O1  UNL     1       7.956   1.017  -0.699  1.00  0.00    -0.647 OA
HETATM   41  O2  UNL     1       5.904   1.450  -1.617  1.00  0.00    -0.647 OA
ENDBRANCH  38  39
ENDBRANCH   2  38
TORSDOF 8
ENDMDL
MODEL 3
REMARK VINA RESULT: -6.492015166      4.699      7.037
REMARK  8 active torsions:
REMARK  status: ('A' for Active; 'I' for Inactive)
REMARK    1  A    between atoms: N1_1  and  N2_4 
REMARK       I    between atoms: N2_4  and  C1_5 
REMARK       I    between atoms: C1_5  and  N3_6 
REMARK       I    between atoms: C1_5  and  N4_10 
REMARK    2  A    between atoms: N4_10  and  C2_12 
REMARK    3  A    between atoms: N5_13  and  C3_14 
REMARK    4  A    between atoms: C3_14  and  C4_15 
REMARK    5  A    between atoms: N8_22  and  C5_23 
REMARK    6  A    between atoms: C5_23  and  C6_24 
REMARK    7  A    between atoms: C9_31  and  O3_32 
REMARK    8  A    between atoms: C10_34  and  S1_35 
ROOT
HETATM    1  C2  UNL     1       6.925   0.570  -0.024  1.00  0.00     0.717 A 
HETATM    2  N5  UNL     1       8.187   0.957   0.172  1.00  0.00    -0.097 N 
HETATM    3  N6  UNL     1       8.971   0.165  -0.548  1.00  0.00    -0.210 N 
ATOM      4  H6  UNL     1       9.988   0.232  -0.589  1.00  0.00     0.210 HD
HETATM    5  N7  UNL     1       8.257  -0.709  -1.193  1.00  0.00    -0.211 N 
ATOM      6  H7  UNL     1       8.622  -1.430  -1.815  1.00  0.00     0.210 HD
HETATM    7  N8  UNL     1       7.008  -0.514  -0.916  1.00  0.00    -0.101 N 
ENDROOT
BRANCH   7   8
HETATM    8  C5  UNL     1       5.782  -1.188  -1.370  1.00  0.00     0.229 C 
BRANCH   8   9
HETATM    9  C6  UNL     1       5.529  -2.467  -0.704  1.00  0.00     0.060 A 
HETATM   10  N9  UNL     1       4.596  -2.677   0.286  1.00  0.00    -0.302 N 
HETATM   11  N10 UNL     1       4.673  -3.920   0.719  1.00  0.00    -0.300 N 
ATOM     12  H9  UNL     1       3.942  -1.976   0.633  1.00  0.00     0.186 HD
HETATM   13  C7  UNL     1       5.638  -4.570   0.047  1.00  0.00     0.065 A 
ATOM     14  H10 UNL     1       4.090  -4.326   1.452  1.00  0.00     0.187 HD
HETATM   15  C8  UNL     1       6.122  -5.860   0.085  1.00  0.00     0.070 A 
HETATM   16  C12 UNL     1       6.184  -3.648  -0.860  1.00  0.00     0.044 A 
HETATM   17  C9  UNL     1       7.132  -6.296  -0.743  1.00  0.00     0.094 A 
HETATM   18  C10 UNL     1       7.662  -5.382  -1.637  1.00  0.00     0.138 A 
HETATM   19  C11 UNL     1       7.195  -4.084  -1.692  1.00  0.00     0.088 A 
HETATM   20  N11 UNL     1       7.765  -3.242  -2.659  1.00  0.00    -0.100 NA
BRANCH  17  21
HETATM   21  O3  UNL     1       7.599  -7.598  -0.684  1.00  0.00    -0.359 OA
ATOM     22  H3  UNL     1       7.347  -8.242  -1.334  1.00  0.00     0.217 HD
ENDBRANCH  17  21
BRANCH  18  23
HETATM   23  S1  UNL     1       8.928  -5.888  -2.695  1.00  0.00     0.142 S 
HETATM   24  O4  UNL     1       9.954  -6.758  -2.029  1.00  0.00    -0.591 OA
HETATM   25  O5  UNL     1       8.306  -6.732  -3.799  1.00  0.00    -0.591 OA
HETATM   26  O6  UNL     1       9.698  -4.580  -3.447  1.00  0.00    -0.591 OA
ENDBRANCH  18  23
ENDBRANCH   8   9
ENDBRANCH   7   8
BRANCH   1  27
HETATM   27  N4  UNL     1       5.832   0.964   0.424  1.00  0.00    -0.178 N 
HETATM   28  C1  UNL     1       5.103   1.885   1.107  1.00  0.00     0.410 C 
HETATM   29  N2  UNL     1       5.107   3.207   0.490  1.00  0.00    -0.093 NA
HETATM   30  N3  UNL     1       5.442   2.081   2.515  1.00  0.00    -0.042 N 
ATOM     31  H33 UNL     1       6.316   2.587   2.653  1.00  0.00     0.278 HD
ATOM     32  H32 UNL     1       4.832   2.748   2.988  1.00  0.00     0.278 HD
ATOM     33  H31 UNL     1       5.439   1.156   2.947  1.00  0.00     0.278 HD
ATOM     34  H4  UNL     1       5.159   0.252   0.142  1.00  0.00     0.181 HD
BRANCH  29  35
HETATM   35  N1  UNL     1       4.789   3.130  -0.873  1.00  0.00    -0.345 N 
ATOM     36  H12 UNL     1       5.358   3.548  -1.608  1.00  0.00     0.172 HD
ATOM     37  H11 UNL     1       3.926   2.608  -1.020  1.00  0.00     0.172 HD
ENDBRANCH  29  35
ENDBRANCH   1  27
BRANCH   2  38
HETATM   38  C3  UNL     1       8.713   2.032   0.965  1.00  0.00     0.282 C 
BRANCH  38  39
HETATM   39  C4  UNL     1      10.204   2.089   0.901  1.00  0.00     0.194 C 
HETATM   40  O1  UNL     1      10.792   2.958   0.220  1.00  0.00    -0.647 OA
HETATM   41  O2  UNL     1      10.919   1.152   1.620  1.00  0.00    -0.647 OA
ENDBRANCH  38  39
ENDBRANCH   2  38
TORSDOF 8
ENDMDL
MODEL 4
REMARK VINA RESULT: -6.444527494      2.443      3.535
REMARK  8 active torsions:
REMARK  status: ('A' for Active; 'I' for Inactive)
REMARK    1  A    between atoms: N1_1  and  N2_4 
REMARK       I    between atoms: N2_4  and  C1_5 
REMARK       I    between atoms: C1_5  and  N3_6 
REMARK       I    between atoms: C1_5  and  N4_10 
REMARK    2  A    between atoms: N4_10  and  C2_12 
REMARK    3  A    between atoms: N5_13  and  C3_14 
REMARK    4  A    between atoms: C3_14  and  C4_15 
REMARK    5  A    between atoms: N8_22  and  C5_23 
REMARK    6  A    between atoms: C5_23  and  C6_24 
REMARK    7  A    between atoms: C9_31  and  O3_32 
REMARK    8  A    between atoms: C10_34  and  S1_35 
ROOT
HETATM    1  C2  UNL     1       8.939  -6.855  -2.561  1.00  0.00     0.717 A 
HETATM    2  N5  UNL     1       8.051  -6.481  -1.639  1.00  0.00    -0.097 N 
HETATM    3  N6  UNL     1       7.062  -7.365  -1.645  1.00  0.00    -0.210 N 
ATOM      4  H6  UNL     1       6.242  -7.327  -1.039  1.00  0.00     0.210 HD
HETATM    5  N7  UNL     1       7.288  -8.287  -2.533  1.00  0.00    -0.211 N 
ATOM      6  H7  UNL     1       6.680  -9.080  -2.733  1.00  0.00     0.210 HD
HETATM    7  N8  UNL     1       8.413  -8.032  -3.122  1.00  0.00    -0.101 N 
ENDROOT
BRANCH   7   8
HETATM    8  C5  UNL     1       9.153  -8.739  -4.179  1.00  0.00     0.229 C 
BRANCH   8   9
HETATM    9  C6  UNL     1       9.446 -10.138  -3.861  1.00  0.00     0.060 A 
HETATM   10  N9  UNL     1       8.605 -11.200  -4.103  1.00  0.00    -0.302 N 
HETATM   11  N10 UNL     1       9.139 -12.311  -3.634  1.00  0.00    -0.300 N 
ATOM     12  H9  UNL     1       7.703 -11.138  -4.574  1.00  0.00     0.186 HD
HETATM   13  C7  UNL     1      10.330 -12.036  -3.077  1.00  0.00     0.065 A 
ATOM     14  H10 UNL     1       8.713 -13.237  -3.686  1.00  0.00     0.187 HD
HETATM   15  C8  UNL     1      11.295 -12.804  -2.464  1.00  0.00     0.070 A 
HETATM   16  C12 UNL     1      10.528 -10.654  -3.221  1.00  0.00     0.044 A 
HETATM   17  C9  UNL     1      12.469 -12.271  -1.980  1.00  0.00     0.094 A 
HETATM   18  C10 UNL     1      12.658 -10.909  -2.130  1.00  0.00     0.138 A 
HETATM   19  C11 UNL     1      11.705 -10.118  -2.739  1.00  0.00     0.088 A 
HETATM   20  N11 UNL     1      12.005  -8.755  -2.882  1.00  0.00    -0.100 NA
BRANCH  17  21
HETATM   21  O3  UNL     1      13.422 -13.067  -1.369  1.00  0.00    -0.359 OA
ATOM     22  H3  UNL     1      13.455 -14.004  -1.521  1.00  0.00     0.217 HD
ENDBRANCH  17  21
BRANCH  18  23
HETATM   23  S1  UNL     1      14.118 -10.200  -1.541  1.00  0.00     0.142 S 
HETATM   24  O4  UNL     1      14.322  -8.784  -1.997  1.00  0.00    -0.591 OA
HETATM   25  O5  UNL     1      14.034 -10.149  -0.021  1.00  0.00    -0.591 OA
HETATM   26  O6  UNL     1      15.483 -11.123  -1.931  1.00  0.00    -0.591 OA
ENDBRANCH  18  23
ENDBRANCH   8   9
ENDBRANCH   7   8
BRANCH   1  27
HETATM   27  N4  UNL     1      10.015  -6.368  -2.958  1.00  0.00    -0.178 N 
HETATM   28  C1  UNL     1      10.958  -5.392  -2.898  1.00  0.00     0.410 C 
HETATM   29  N2  UNL     1      11.617  -5.296  -1.600  1.00  0.00    -0.093 NA
HETATM   30  N3  UNL     1      10.530  -4.040  -3.250  1.00  0.00    -0.042 N 
ATOM     31  H33 UNL     1       9.950  -3.602  -2.535  1.00  0.00     0.278 HD
ATOM     32  H32 UNL     1      11.289  -3.359  -3.233  1.00  0.00     0.278 HD
ATOM     33  H31 UNL     1      10.069  -4.107  -4.158  1.00  0.00     0.278 HD
ATOM     34  H4  UNL     1      10.349  -7.014  -3.674  1.00  0.00     0.181 HD
BRANCH  29  35
HETATM   35  N1  UNL     1      12.071  -6.550  -1.169  1.00  0.00    -0.345 N 
ATOM     36  H12 UNL     1      11.850  -7.424  -1.646  1.00  0.00     0.172 HD
ATOM     37  H11 UNL     1      12.642  -6.466  -0.328  1.00  0.00     0.172 HD
ENDBRANCH  29  35
ENDBRANCH   1  27
BRANCH   2  38
HETATM   38  C3  UNL     1       8.070  -5.366  -0.734  1.00  0.00     0.282 C 
BRANCH  38  39
HETATM   39  C4  UNL     1       7.490  -4.138  -1.356  1.00  0.00     0.194 C 
HETATM   40  O1  UNL     1       6.290  -4.092  -1.707  1.00  0.00    -0.647 OA
HETATM   41  O2  UNL     1       8.320  -3.050  -1.534  1.00  0.00    -0.647 OA
ENDBRANCH  38  39
ENDBRANCH   2  38
TORSDOF 8
ENDMDL
MODEL 5
REMARK VINA RESULT: -6.429136336      2.784      7.115
REMARK  8 active torsions:
REMARK  status: ('A' for Active; 'I' for Inactive)
REMARK    1  A    between atoms: N1_1  and  N2_4 
REMARK       I    between atoms: N2_4  and  C1_5 
REMARK       I    between atoms: C1_5  and  N3_6 
REMARK       I    between atoms: C1_5  and  N4_10 
REMARK    2  A    between atoms: N4_10  and  C2_12 
REMARK    3  A    between atoms: N5_13  and  C3_14 
REMARK    4  A    between atoms: C3_14  and  C4_15 
REMARK    5  A    between atoms: N8_22  and  C5_23 
REMARK    6  A    between atoms: C5_23  and  C6_24 
REMARK    7  A    between atoms: C9_31  and  O3_32 
REMARK    8  A    between atoms: C10_34  and  S1_35 
ROOT
HETATM    1  C2  UNL     1       8.986  -5.957  -2.618  1.00  0.00     0.717 A 
HETATM    2  N5  UNL     1      10.269  -5.845  -2.268  1.00  0.00    -0.097 N 
HETATM    3  N6  UNL     1      10.561  -4.553  -2.205  1.00  0.00    -0.210 N 
ATOM      4  H6  UNL     1      11.475  -4.172  -1.960  1.00  0.00     0.210 HD
HETATM    5  N7  UNL     1       9.514  -3.840  -2.501  1.00  0.00    -0.211 N 
ATOM      6  H7  UNL     1       9.477  -2.821  -2.524  1.00  0.00     0.210 HD
HETATM    7  N8  UNL     1       8.527  -4.636  -2.761  1.00  0.00    -0.101 N 
ENDROOT
BRANCH   7   8
HETATM    8  C5  UNL     1       7.127  -4.380  -3.131  1.00  0.00     0.229 C 
BRANCH   8   9
HETATM    9  C6  UNL     1       6.217  -4.304  -1.987  1.00  0.00     0.060 A 
HETATM   10  N9  UNL     1       5.351  -5.299  -1.591  1.00  0.00    -0.302 N 
HETATM   11  N10 UNL     1       4.627  -4.884  -0.571  1.00  0.00    -0.300 N 
ATOM     12  H9  UNL     1       5.281  -6.220  -2.024  1.00  0.00     0.186 HD
HETATM   13  C7  UNL     1       4.976  -3.626  -0.255  1.00  0.00     0.065 A 
ATOM     14  H10 UNL     1       3.911  -5.434  -0.095  1.00  0.00     0.187 HD
HETATM   15  C8  UNL     1       4.560  -2.737   0.712  1.00  0.00     0.070 A 
HETATM   16  C12 UNL     1       5.989  -3.255  -1.152  1.00  0.00     0.044 A 
HETATM   17  C9  UNL     1       5.104  -1.478   0.844  1.00  0.00     0.094 A 
HETATM   18  C10 UNL     1       6.105  -1.122  -0.043  1.00  0.00     0.138 A 
HETATM   19  C11 UNL     1       6.537  -1.994  -1.021  1.00  0.00     0.088 A 
HETATM   20  N11 UNL     1       7.584  -1.559  -1.847  1.00  0.00    -0.100 NA
BRANCH  17  21
HETATM   21  O3  UNL     1       4.668  -0.605   1.825  1.00  0.00    -0.359 OA
ATOM     22  H3  UNL     1       3.859  -0.118   1.728  1.00  0.00     0.217 HD
ENDBRANCH  17  21
BRANCH  18  23
HETATM   23  S1  UNL     1       6.816   0.445   0.089  1.00  0.00     0.142 S 
HETATM   24  O4  UNL     1       6.333   1.224   1.278  1.00  0.00    -0.591 OA
HETATM   25  O5  UNL     1       8.316   0.265   0.280  1.00  0.00    -0.591 OA
HETATM   26  O6  UNL     1       6.604   1.367  -1.316  1.00  0.00    -0.591 OA
ENDBRANCH  18  23
ENDBRANCH   8   9
ENDBRANCH   7   8
BRANCH   1  27
HETATM   27  N4  UNL     1       8.241  -6.933  -2.829  1.00  0.00    -0.178 N 
HETATM   28  C1  UNL     1       8.020  -8.273  -2.799  1.00  0.00     0.410 C 
HETATM   29  N2  UNL     1       8.066  -8.843  -1.457  1.00  0.00    -0.093 NA
HETATM   30  N3  UNL     1       8.887  -9.102  -3.634  1.00  0.00    -0.042 N 
ATOM     31  H33 UNL     1       9.834  -9.192  -3.267  1.00  0.00     0.278 HD
ATOM     32  H32 UNL     1       8.646 -10.092  -3.609  1.00  0.00     0.278 HD
ATOM     33  H31 UNL     1       8.856  -8.703  -4.573  1.00  0.00     0.278 HD
ATOM     34  H4  UNL     1       7.381  -6.532  -3.204  1.00  0.00     0.181 HD
BRANCH  29  35
HETATM   35  N1  UNL     1       7.258  -8.117  -0.572  1.00  0.00    -0.345 N 
ATOM     36  H12 UNL     1       7.626  -7.567   0.204  1.00  0.00     0.172 HD
ATOM     37  H11 UNL     1       6.271  -8.214  -0.809  1.00  0.00     0.172 HD
ENDBRANCH  29  35
ENDBRANCH   1  27
BRANCH   2  38
HETATM   38  C3  UNL     1      11.237  -6.860  -1.964  1.00  0.00     0.282 C 
BRANCH  38  39
HETATM   39  C4  UNL     1      12.537  -6.270  -1.521  1.00  0.00     0.194 C 
HETATM   40  O1  UNL     1      13.453  -6.030  -2.338  1.00  0.00    -0.647 OA
HETATM   41  O2  UNL     1      12.698  -5.996  -0.178  1.00  0.00    -0.647 OA
ENDBRANCH  38  39
ENDBRANCH   2  38
TORSDOF 8
ENDMDL
