MODEL 1
REMARK VINA RESULT: -7.493985285      0.000      0.000
REMARK  13 active torsions:
REMARK  status: ('A' for Active; 'I' for Inactive)
REMARK    1  A    between atoms: C2_2  and  C3_3 
REMARK    2  A    between atoms: C3_3  and  C4_4 
REMARK    3  A    between atoms: C5_5  and  C6_6 
REMARK    4  A    between atoms: C7_7  and  C8_8 
REMARK    5  A    between atoms: C9_9  and  C10_10 
REMARK    6  A    between atoms: C10_10  and  C11_11 
REMARK    7  A    between atoms: C10_10  and  O2_14 
REMARK    8  A    between atoms: C11_11  and  O1_12 
REMARK    9  A    between atoms: O2_14  and  C12_15 
REMARK   10  A    between atoms: C15_19  and  O4_20 
REMARK   11  A    between atoms: C16_22  and  O5_23 
REMARK   12  A    between atoms: C17_25  and  S1_26 
REMARK   13  A    between atoms: S1_26  and  O6_27 
ROOT
HETATM    1  C12 UNL     1       8.118  13.778  24.993  1.00  0.00     0.279 C 
HETATM    2  O3  UNL     1       7.910  13.137  26.168  1.00  0.00    -0.352 OA
HETATM    3  C13 UNL     1       8.707  13.628  27.163  1.00  0.00     0.152 C 
HETATM    4  C14 UNL     1       7.868  14.668  27.919  1.00  0.00     0.042 C 
HETATM    5  C15 UNL     1      10.009  14.211  26.713  1.00  0.00     0.176 C 
HETATM    6  C16 UNL     1      10.509  13.715  25.396  1.00  0.00     0.170 C 
HETATM    7  C17 UNL     1       9.457  13.247  24.454  1.00  0.00     0.162 C 
ENDROOT
BRANCH   1   8
HETATM    8  O2  UNL     1       7.993  15.128  24.922  1.00  0.00    -0.349 OA
BRANCH   8   9
HETATM    9  C10 UNL     1       6.753  15.638  24.627  1.00  0.00     0.171 C 
BRANCH   9  10
HETATM   10  C9  UNL     1       5.812  14.734  23.986  1.00  0.00     0.007 C 
HETATM   11  C8  UNL     1       4.918  15.141  23.105  1.00  0.00    -0.001 C 
BRANCH  11  12
HETATM   12  C7  UNL     1       4.831  16.514  22.731  1.00  0.00    -0.000 C 
HETATM   13  C6  UNL     1       3.979  17.361  23.248  1.00  0.00    -0.000 C 
BRANCH  13  14
HETATM   14  C5  UNL     1       3.010  17.028  24.269  1.00  0.00    -0.004 C 
HETATM   15  C4  UNL     1       2.639  17.838  25.233  1.00  0.00    -0.027 C 
BRANCH  15  16
HETATM   16  C3  UNL     1       3.159  19.189  25.395  1.00  0.00     0.027 C 
BRANCH  16  17
HETATM   17  C2  UNL     1       2.490  20.204  24.471  1.00  0.00    -0.001 C 
HETATM   18  C1  UNL     1       3.652  20.928  23.776  1.00  0.00     0.005 C 
ENDBRANCH  16  17
ENDBRANCH  15  16
ENDBRANCH  13  14
ENDBRANCH  11  12
ENDBRANCH   9  10
BRANCH   9  19
HETATM   19  C11 UNL     1       6.168  16.387  25.825  1.00  0.00     0.200 C 
BRANCH  19  20
HETATM   20  O1  UNL     1       6.856  17.573  26.061  1.00  0.00    -0.398 OA
ATOM     21  H1  UNL     1       7.426  17.495  26.817  1.00  0.00     0.209 HD
ENDBRANCH  19  20
ENDBRANCH   9  19
ENDBRANCH   8   9
ENDBRANCH   1   8
BRANCH   7  22
HETATM   22  S1  UNL     1       9.395  11.489  24.199  1.00  0.00    -0.003 SA
BRANCH  22  23
HETATM   23  O6  UNL     1       8.070  10.849  24.462  1.00  0.00    -0.329 OA
ATOM     24  H6  UNL     1       8.078  10.137  25.090  1.00  0.00     0.227 HD
ENDBRANCH  22  23
ENDBRANCH   7  22
BRANCH   6  25
HETATM   25  O5  UNL     1      11.440  12.664  25.560  1.00  0.00    -0.391 OA
ATOM     26  H5  UNL     1      11.366  12.023  24.864  1.00  0.00     0.210 HD
ENDBRANCH   6  25
BRANCH   5  27
HETATM   27  O4  UNL     1      10.987  13.953  27.671  1.00  0.00    -0.390 OA
ATOM     28  H4  UNL     1      11.811  14.336  27.392  1.00  0.00     0.210 HD
ENDBRANCH   5  27
TORSDOF 13
ENDMDL
MODEL 2
REMARK VINA RESULT: -7.492850739      1.758      2.635
REMARK  13 active torsions:
REMARK  status: ('A' for Active; 'I' for Inactive)
REMARK    1  A    between atoms: C2_2  and  C3_3 
REMARK    2  A    between atoms: C3_3  and  C4_4 
REMARK    3  A    between atoms: C5_5  and  C6_6 
REMARK    4  A    between atoms: C7_7  and  C8_8 
REMARK    5  A    between atoms: C9_9  and  C10_10 
REMARK    6  A    between atoms: C10_10  and  C11_11 
REMARK    7  A    between atoms: C10_10  and  O2_14 
REMARK    8  A    between atoms: C11_11  and  O1_12 
REMARK    9  A    between atoms: O2_14  and  C12_15 
REMARK   10  A    between atoms: C15_19  and  O4_20 
REMARK   11  A    between atoms: C16_22  and  O5_23 
REMARK   12  A    between atoms: C17_25  and  S1_26 
REMARK   13  A    between atoms: S1_26  and  O6_27 
ROOT
HETATM    1  C12 UNL     1       8.911  13.254  24.527  1.00  0.00     0.279 C 
HETATM    2  O3  UNL     1       8.308  12.451  25.436  1.00  0.00    -0.352 OA
HETATM    3  C13 UNL     1       7.889  13.150  26.533  1.00  0.00     0.152 C 
HETATM    4  C14 UNL     1       6.412  13.492  26.292  1.00  0.00     0.042 C 
HETATM    5  C15 UNL     1       8.681  14.378  26.852  1.00  0.00     0.176 C 
HETATM    6  C16 UNL     1      10.077  14.391  26.324  1.00  0.00     0.170 C 
HETATM    7  C17 UNL     1      10.301  13.573  25.102  1.00  0.00     0.162 C 
ENDROOT
BRANCH   1   8
HETATM    8  O2  UNL     1       8.258  14.338  24.035  1.00  0.00    -0.349 OA
BRANCH   8   9
HETATM    9  C10 UNL     1       7.757  14.255  22.760  1.00  0.00     0.171 C 
BRANCH   9  10
HETATM   10  C9  UNL     1       7.349  15.503  22.138  1.00  0.00     0.007 C 
HETATM   11  C8  UNL     1       6.115  15.967  22.207  1.00  0.00    -0.001 C 
BRANCH  11  12
HETATM   12  C7  UNL     1       5.104  15.251  22.912  1.00  0.00    -0.000 C 
HETATM   13  C6  UNL     1       4.631  15.610  24.078  1.00  0.00    -0.000 C 
BRANCH  13  14
HETATM   14  C5  UNL     1       5.065  16.779  24.813  1.00  0.00    -0.004 C 
HETATM   15  C4  UNL     1       4.366  17.885  24.926  1.00  0.00    -0.027 C 
BRANCH  15  16
HETATM   16  C3  UNL     1       3.055  18.076  24.323  1.00  0.00     0.027 C 
BRANCH  16  17
HETATM   17  C2  UNL     1       3.078  19.022  23.124  1.00  0.00    -0.001 C 
HETATM   18  C1  UNL     1       3.096  20.429  23.737  1.00  0.00     0.005 C 
ENDBRANCH  16  17
ENDBRANCH  15  16
ENDBRANCH  13  14
ENDBRANCH  11  12
ENDBRANCH   9  10
BRANCH   9  19
HETATM   19  C11 UNL     1       8.654  13.389  21.873  1.00  0.00     0.200 C 
BRANCH  19  20
HETATM   20  O1  UNL     1       9.396  14.171  20.993  1.00  0.00    -0.398 OA
ATOM     21  H1  UNL     1      10.327  14.081  21.157  1.00  0.00     0.209 HD
ENDBRANCH  19  20
ENDBRANCH   9  19
ENDBRANCH   8   9
ENDBRANCH   1   8
BRANCH   7  22
HETATM   22  S1  UNL     1      11.250  12.090  25.346  1.00  0.00    -0.003 SA
BRANCH  22  23
HETATM   23  O6  UNL     1      12.714  12.293  25.565  1.00  0.00    -0.329 OA
ATOM     24  H6  UNL     1      12.992  12.313  26.474  1.00  0.00     0.227 HD
ENDBRANCH  22  23
ENDBRANCH   7  22
BRANCH   6  25
HETATM   25  O5  UNL     1      11.004  13.966  27.304  1.00  0.00    -0.391 OA
ATOM     26  H5  UNL     1      11.465  14.703  27.688  1.00  0.00     0.210 HD
ENDBRANCH   6  25
BRANCH   5  27
HETATM   27  O4  UNL     1       8.740  14.543  28.234  1.00  0.00    -0.390 OA
ATOM     28  H4  UNL     1       9.645  14.490  28.519  1.00  0.00     0.210 HD
ENDBRANCH   5  27
TORSDOF 13
ENDMDL
MODEL 3
REMARK VINA RESULT: -7.490649278      1.614      2.481
REMARK  13 active torsions:
REMARK  status: ('A' for Active; 'I' for Inactive)
REMARK    1  A    between atoms: C2_2  and  C3_3 
REMARK    2  A    between atoms: C3_3  and  C4_4 
REMARK    3  A    between atoms: C5_5  and  C6_6 
REMARK    4  A    between atoms: C7_7  and  C8_8 
REMARK    5  A    between atoms: C9_9  and  C10_10 
REMARK    6  A    between atoms: C10_10  and  C11_11 
REMARK    7  A    between atoms: C10_10  and  O2_14 
REMARK    8  A    between atoms: C11_11  and  O1_12 
REMARK    9  A    between atoms: O2_14  and  C12_15 
REMARK   10  A    between atoms: C15_19  and  O4_20 
REMARK   11  A    between atoms: C16_22  and  O5_23 
REMARK   12  A    between atoms: C17_25  and  S1_26 
REMARK   13  A    between atoms: S1_26  and  O6_27 
ROOT
HETATM    1  C12 UNL     1       8.774  13.223  24.547  1.00  0.00     0.279 C 
HETATM    2  O3  UNL     1       8.251  12.373  25.461  1.00  0.00    -0.352 OA
HETATM    3  C13 UNL     1       7.864  13.024  26.598  1.00  0.00     0.152 C 
HETATM    4  C14 UNL     1       6.364  13.315  26.444  1.00  0.00     0.042 C 
HETATM    5  C15 UNL     1       8.624  14.273  26.913  1.00  0.00     0.176 C 
HETATM    6  C16 UNL     1       9.989  14.356  26.314  1.00  0.00     0.170 C 
HETATM    7  C17 UNL     1      10.180  13.581  25.058  1.00  0.00     0.162 C 
ENDROOT
BRANCH   1   8
HETATM    8  O2  UNL     1       8.055  14.294  24.121  1.00  0.00    -0.349 OA
BRANCH   8   9
HETATM    9  C10 UNL     1       7.573  14.268  22.836  1.00  0.00     0.171 C 
BRANCH   9  10
HETATM   10  C9  UNL     1       6.147  14.043  22.680  1.00  0.00     0.007 C 
HETATM   11  C8  UNL     1       5.236  14.794  23.272  1.00  0.00    -0.001 C 
BRANCH  11  12
HETATM   12  C7  UNL     1       5.618  15.884  24.107  1.00  0.00    -0.000 C 
HETATM   13  C6  UNL     1       4.945  17.002  24.203  1.00  0.00    -0.000 C 
BRANCH  13  14
HETATM   14  C5  UNL     1       3.725  17.289  23.481  1.00  0.00    -0.004 C 
HETATM   15  C4  UNL     1       2.942  18.314  23.725  1.00  0.00    -0.027 C 
BRANCH  15  16
HETATM   16  C3  UNL     1       3.207  19.302  24.761  1.00  0.00     0.027 C 
BRANCH  16  17
HETATM   17  C2  UNL     1       2.150  19.312  25.864  1.00  0.00    -0.001 C 
HETATM   18  C1  UNL     1       2.161  17.886  26.430  1.00  0.00     0.005 C 
ENDBRANCH  16  17
ENDBRANCH  15  16
ENDBRANCH  13  14
ENDBRANCH  11  12
ENDBRANCH   9  10
BRANCH   9  19
HETATM   19  C11 UNL     1       8.102  15.453  22.027  1.00  0.00     0.200 C 
BRANCH  19  20
HETATM   20  O1  UNL     1       9.154  15.069  21.201  1.00  0.00    -0.398 OA
ATOM     21  H1  UNL     1       8.859  14.940  20.308  1.00  0.00     0.209 HD
ENDBRANCH  19  20
ENDBRANCH   9  19
ENDBRANCH   8   9
ENDBRANCH   1   8
BRANCH   7  22
HETATM   22  S1  UNL     1      11.195  12.130  25.209  1.00  0.00    -0.003 SA
BRANCH  22  23
HETATM   23  O6  UNL     1      12.656  12.385  25.397  1.00  0.00    -0.329 OA
ATOM     24  H6  UNL     1      12.988  12.226  26.273  1.00  0.00     0.227 HD
ENDBRANCH  22  23
ENDBRANCH   7  22
BRANCH   6  25
HETATM   25  O5  UNL     1      10.982  13.941  27.232  1.00  0.00    -0.391 OA
ATOM     26  H5  UNL     1      11.003  14.503  27.997  1.00  0.00     0.210 HD
ENDBRANCH   6  25
BRANCH   5  27
HETATM   27  O4  UNL     1       8.750  14.402  28.294  1.00  0.00    -0.390 OA
ATOM     28  H4  UNL     1       9.648  14.623  28.509  1.00  0.00     0.210 HD
ENDBRANCH   5  27
TORSDOF 13
ENDMDL
MODEL 4
REMARK VINA RESULT: -7.488491956      1.814      3.538
REMARK  13 active torsions:
REMARK  status: ('A' for Active; 'I' for Inactive)
REMARK    1  A    between atoms: C2_2  and  C3_3 
REMARK    2  A    between atoms: C3_3  and  C4_4 
REMARK    3  A    between atoms: C5_5  and  C6_6 
REMARK    4  A    between atoms: C7_7  and  C8_8 
REMARK    5  A    between atoms: C9_9  and  C10_10 
REMARK    6  A    between atoms: C10_10  and  C11_11 
REMARK    7  A    between atoms: C10_10  and  O2_14 
REMARK    8  A    between atoms: C11_11  and  O1_12 
REMARK    9  A    between atoms: O2_14  and  C12_15 
REMARK   10  A    between atoms: C15_19  and  O4_20 
REMARK   11  A    between atoms: C16_22  and  O5_23 
REMARK   12  A    between atoms: C17_25  and  S1_26 
REMARK   13  A    between atoms: S1_26  and  O6_27 
ROOT
HETATM    1  C12 UNL     1       7.811  14.488  25.204  1.00  0.00     0.279 C 
HETATM    2  O3  UNL     1       8.925  15.214  24.948  1.00  0.00    -0.352 OA
HETATM    3  C13 UNL     1      10.012  14.732  25.621  1.00  0.00     0.152 C 
HETATM    4  C14 UNL     1      10.750  13.802  24.647  1.00  0.00     0.042 C 
HETATM    5  C15 UNL     1       9.711  14.033  26.908  1.00  0.00     0.176 C 
HETATM    6  C16 UNL     1       8.417  14.410  27.551  1.00  0.00     0.170 C 
HETATM    7  C17 UNL     1       7.361  14.890  26.619  1.00  0.00     0.162 C 
ENDROOT
BRANCH   1   8
HETATM    8  O2  UNL     1       7.805  13.149  24.985  1.00  0.00    -0.349 OA
BRANCH   8   9
HETATM    9  C10 UNL     1       7.371  12.706  23.759  1.00  0.00     0.171 C 
BRANCH   9  10
HETATM   10  C9  UNL     1       7.313  13.691  22.694  1.00  0.00     0.007 C 
HETATM   11  C8  UNL     1       6.308  14.536  22.557  1.00  0.00    -0.001 C 
BRANCH  11  12
HETATM   12  C7  UNL     1       5.212  14.523  23.468  1.00  0.00    -0.000 C 
HETATM   13  C6  UNL     1       4.411  15.539  23.663  1.00  0.00    -0.000 C 
BRANCH  13  14
HETATM   14  C5  UNL     1       4.523  16.812  22.985  1.00  0.00    -0.004 C 
HETATM   15  C4  UNL     1       3.793  17.868  23.264  1.00  0.00    -0.027 C 
BRANCH  15  16
HETATM   16  C3  UNL     1       2.772  17.891  24.303  1.00  0.00     0.027 C 
BRANCH  16  17
HETATM   17  C2  UNL     1       2.450  19.300  24.796  1.00  0.00    -0.001 C 
HETATM   18  C1  UNL     1       3.010  20.231  23.712  1.00  0.00     0.005 C 
ENDBRANCH  16  17
ENDBRANCH  15  16
ENDBRANCH  13  14
ENDBRANCH  11  12
ENDBRANCH   9  10
BRANCH   9  19
HETATM   19  C11 UNL     1       8.081  11.410  23.362  1.00  0.00     0.200 C 
BRANCH  19  20
HETATM   20  O1  UNL     1       7.715  10.360  24.198  1.00  0.00    -0.398 OA
ATOM     21  H1  UNL     1       8.469  10.009  24.658  1.00  0.00     0.209 HD
ENDBRANCH  19  20
ENDBRANCH   9  19
ENDBRANCH   8   9
ENDBRANCH   1   8
BRANCH   7  22
HETATM   22  S1  UNL     1       7.004  16.629  26.709  1.00  0.00    -0.003 SA
BRANCH  22  23
HETATM   23  O6  UNL     1       5.553  16.988  26.696  1.00  0.00    -0.329 OA
ATOM     24  H6  UNL     1       4.960  16.280  26.473  1.00  0.00     0.227 HD
ENDBRANCH  22  23
ENDBRANCH   7  22
BRANCH   6  25
HETATM   25  O5  UNL     1       8.602  15.402  28.541  1.00  0.00    -0.391 OA
ATOM     26  H5  UNL     1       8.757  16.254  28.153  1.00  0.00     0.210 HD
ENDBRANCH   6  25
BRANCH   5  27
HETATM   27  O4  UNL     1      10.734  14.281  27.820  1.00  0.00    -0.390 OA
ATOM     28  H4  UNL     1      10.438  14.059  28.695  1.00  0.00     0.210 HD
ENDBRANCH   5  27
TORSDOF 13
ENDMDL
MODEL 5
REMARK VINA RESULT: -7.476412884      1.395      2.006
REMARK  13 active torsions:
REMARK  status: ('A' for Active; 'I' for Inactive)
REMARK    1  A    between atoms: C2_2  and  C3_3 
REMARK    2  A    between atoms: C3_3  and  C4_4 
REMARK    3  A    between atoms: C5_5  and  C6_6 
REMARK    4  A    between atoms: C7_7  and  C8_8 
REMARK    5  A    between atoms: C9_9  and  C10_10 
REMARK    6  A    between atoms: C10_10  and  C11_11 
REMARK    7  A    between atoms: C10_10  and  O2_14 
REMARK    8  A    between atoms: C11_11  and  O1_12 
REMARK    9  A    between atoms: O2_14  and  C12_15 
REMARK   10  A    between atoms: C15_19  and  O4_20 
REMARK   11  A    between atoms: C16_22  and  O5_23 
REMARK   12  A    between atoms: C17_25  and  S1_26 
REMARK   13  A    between atoms: S1_26  and  O6_27 
ROOT
HETATM    1  C12 UNL     1       8.322  12.830  24.524  1.00  0.00     0.279 C 
HETATM    2  O3  UNL     1       8.109  12.319  25.759  1.00  0.00    -0.352 OA
HETATM    3  C13 UNL     1       8.629  13.119  26.737  1.00  0.00     0.152 C 
HETATM    4  C14 UNL     1       7.479  14.009  27.228  1.00  0.00     0.042 C 
HETATM    5  C15 UNL     1       9.811  13.942  26.332  1.00  0.00     0.176 C 
HETATM    6  C16 UNL     1      10.585  13.415  25.169  1.00  0.00     0.170 C 
HETATM    7  C17 UNL     1       9.807  12.581  24.214  1.00  0.00     0.162 C 
ENDROOT
BRANCH   1   8
HETATM    8  O2  UNL     1       7.901  14.086  24.223  1.00  0.00    -0.349 OA
BRANCH   8   9
HETATM    9  C10 UNL     1       7.476  14.325  22.940  1.00  0.00     0.171 C 
BRANCH   9  10
HETATM   10  C9  UNL     1       6.057  14.158  22.681  1.00  0.00     0.007 C 
HETATM   11  C8  UNL     1       5.130  14.873  23.292  1.00  0.00    -0.001 C 
BRANCH  11  12
HETATM   12  C7  UNL     1       5.486  15.865  24.251  1.00  0.00    -0.000 C 
HETATM   13  C6  UNL     1       4.923  17.043  24.329  1.00  0.00    -0.000 C 
BRANCH  13  14
HETATM   14  C5  UNL     1       3.863  17.503  23.459  1.00  0.00    -0.004 C 
HETATM   15  C4  UNL     1       3.091  18.535  23.710  1.00  0.00    -0.027 C 
BRANCH  15  16
HETATM   16  C3  UNL     1       3.209  19.357  24.907  1.00  0.00     0.027 C 
BRANCH  16  17
HETATM   17  C2  UNL     1       2.018  19.211  25.853  1.00  0.00    -0.001 C 
HETATM   18  C1  UNL     1       2.278  17.903  26.612  1.00  0.00     0.005 C 
ENDBRANCH  16  17
ENDBRANCH  15  16
ENDBRANCH  13  14
ENDBRANCH  11  12
ENDBRANCH   9  10
BRANCH   9  19
HETATM   19  C11 UNL     1       8.048  15.641  22.409  1.00  0.00     0.200 C 
BRANCH  19  20
HETATM   20  O1  UNL     1       8.726  15.446  21.210  1.00  0.00    -0.398 OA
ATOM     21  H1  UNL     1       8.740  16.242  20.691  1.00  0.00     0.209 HD
ENDBRANCH  19  20
ENDBRANCH   9  19
ENDBRANCH   8   9
ENDBRANCH   1   8
BRANCH   7  22
HETATM   22  S1  UNL     1      10.185  10.845  24.241  1.00  0.00    -0.003 SA
BRANCH  22  23
HETATM   23  O6  UNL     1       9.047   9.934  23.911  1.00  0.00    -0.329 OA
ATOM     24  H6  UNL     1       9.263   9.196  23.354  1.00  0.00     0.227 HD
ENDBRANCH  22  23
ENDBRANCH   7  22
BRANCH   6  25
HETATM   25  O5  UNL     1      11.702  12.658  25.593  1.00  0.00    -0.391 OA
ATOM     26  H5  UNL     1      11.436  11.905  26.107  1.00  0.00     0.210 HD
ENDBRANCH   6  25
BRANCH   5  27
HETATM   27  O4  UNL     1      10.682  14.063  27.412  1.00  0.00    -0.390 OA
ATOM     28  H4  UNL     1      11.557  14.249  27.092  1.00  0.00     0.210 HD
ENDBRANCH   5  27
TORSDOF 13
ENDMDL
