MODEL 1
REMARK VINA RESULT: -8.722556940      0.000      0.000
REMARK  8 active torsions:
REMARK  status: ('A' for Active; 'I' for Inactive)
REMARK    1  A    between atoms: C2_2  and  C5_5 
REMARK    2  A    between atoms: C8_8  and  N1_10 
REMARK    3  A    between atoms: C15_19  and  C16_20 
REMARK    4  A    between atoms: C16_20  and  C17_21 
REMARK    5  A    between atoms: C27_36  and  C28_37 
REMARK       I    between atoms: C28_37  and  N4_39 
REMARK    6  A    between atoms: N4_39  and  C29_41 
REMARK    7  A    between atoms: C29_41  and  C30_42 
REMARK    8  A    between atoms: C30_42  and  N5_43 
ROOT
HETATM    1  N1  UNL     1      -7.994  18.046  -9.037  1.00  0.00    -0.404 N 
HETATM    2  C10 UNL     1      -8.706  16.913  -8.582  1.00  0.00     0.120 C 
HETATM    3  C11 UNL     1      -9.779  17.212  -7.557  1.00  0.00     0.059 C 
HETATM    4  C12 UNL     1     -10.684  18.322  -7.944  1.00  0.00     0.141 C 
HETATM    5  C13 UNL     1      -9.986  19.305  -8.904  1.00  0.00     0.059 C 
HETATM    6  C14 UNL     1      -8.499  19.264  -8.518  1.00  0.00     0.120 C 
HETATM    7  N2  UNL     1     -11.896  17.911  -8.635  1.00  0.00    -0.060 N 
ATOM      8  H21 UNL     1     -12.028  16.900  -8.629  1.00  0.00     0.278 HD
ATOM      9  H22 UNL     1     -11.835  18.035  -9.646  1.00  0.00     0.278 HD
HETATM   10  C15 UNL     1     -12.991  18.612  -8.059  1.00  0.00     0.205 C 
HETATM   11  C26 UNL     1     -12.423  19.756  -7.281  1.00  0.00     0.050 C 
HETATM   12  C27 UNL     1     -11.095  19.126  -6.768  1.00  0.00     0.116 C 
ENDROOT
BRANCH  12  13
HETATM   13  C28 UNL     1     -11.355  18.400  -5.524  1.00  0.00     0.224 C 
HETATM   14  O1  UNL     1     -12.352  17.657  -5.355  1.00  0.00    -0.273 OA
HETATM   15  N4  UNL     1     -10.465  18.510  -4.424  1.00  0.00    -0.359 N 
ATOM     16  H4  UNL     1      -9.641  19.105  -4.518  1.00  0.00     0.162 HD
BRANCH  15  17
HETATM   17  C29 UNL     1     -10.680  17.811  -3.170  1.00  0.00     0.150 C 
BRANCH  17  18
HETATM   18  C30 UNL     1      -9.380  17.538  -2.456  1.00  0.00     0.249 C 
BRANCH  18  19
HETATM   19  N5  UNL     1      -9.556  16.856  -1.213  1.00  0.00    -0.078 N 
ATOM     20  H53 UNL     1     -10.405  17.170  -0.742  1.00  0.00     0.274 HD
ATOM     21  H52 UNL     1      -9.804  15.878  -1.367  1.00  0.00     0.274 HD
ATOM     22  H51 UNL     1      -8.748  16.934  -0.595  1.00  0.00     0.274 HD
ENDBRANCH  18  19
ENDBRANCH  17  18
ENDBRANCH  15  17
ENDBRANCH  12  13
BRANCH  10  23
HETATM   23  C16 UNL     1     -14.120  18.951  -8.993  1.00  0.00     0.086 C 
HETATM   24  C18 UNL     1     -14.017  20.391  -9.356  1.00  0.00     0.021 C 
HETATM   25  C19 UNL     1     -14.906  20.912 -10.412  1.00  0.00     0.001 C 
HETATM   26  C20 UNL     1     -14.163  21.894 -11.331  1.00  0.00     0.005 C 
HETATM   27  C21 UNL     1     -14.580  21.751 -12.745  1.00  0.00     0.044 C 
HETATM   28  C22 UNL     1     -14.471  20.408 -13.349  1.00  0.00     0.055 C 
HETATM   29  N3  UNL     1     -13.303  19.668 -13.154  1.00  0.00    -0.402 N 
HETATM   30  C23 UNL     1     -13.406  18.356 -12.616  1.00  0.00     0.118 C 
ATOM     31  H3  UNL     1     -12.393  20.061 -13.395  1.00  0.00     0.158 HD
HETATM   32  C24 UNL     1     -12.958  18.316 -11.147  1.00  0.00     0.021 C 
HETATM   33  C25 UNL     1     -14.073  18.034 -10.201  1.00  0.00     0.022 C 
BRANCH  23  34
HETATM   34  C17 UNL     1     -15.473  18.709  -8.358  1.00  0.00     0.397 C 
HETATM   35  F1  UNL     1     -15.420  17.760  -7.353  1.00  0.00    -0.170 F 
HETATM   36  F2  UNL     1     -16.430  18.374  -9.311  1.00  0.00    -0.170 F 
HETATM   37  F3  UNL     1     -15.942  19.868  -7.786  1.00  0.00    -0.170 F 
ENDBRANCH  23  34
ENDBRANCH  10  23
BRANCH   1  38
HETATM   38  C8  UNL     1      -6.599  17.931  -9.236  1.00  0.00     0.024 C 
HETATM   39  C7  UNL     1      -6.204  18.163 -10.666  1.00  0.00     0.031 C 
HETATM   40  C6  UNL     1      -4.905  17.597 -11.075  1.00  0.00     0.008 C 
HETATM   41  C5  UNL     1      -4.012  17.050 -10.022  1.00  0.00    -0.007 C 
HETATM   42  C32 UNL     1      -4.699  16.325  -8.911  1.00  0.00     0.008 C 
HETATM   43  C31 UNL     1      -6.192  16.500  -8.909  1.00  0.00     0.031 C 
HETATM   44  C9  UNL     1      -5.848  18.844  -8.294  1.00  0.00     0.038 C 
BRANCH  41  45
HETATM   45  C2  UNL     1      -3.080  16.034 -10.702  1.00  0.00    -0.048 C 
HETATM   46  C1  UNL     1      -3.686  14.653 -10.681  1.00  0.00     0.015 C 
HETATM   47  C3  UNL     1      -1.697  16.061 -10.140  1.00  0.00     0.015 C 
HETATM   48  C4  UNL     1      -3.006  16.453 -12.163  1.00  0.00     0.015 C 
ENDBRANCH  41  45
ENDBRANCH   1  38
TORSDOF 8
ENDMDL
MODEL 2
REMARK VINA RESULT: -8.621548135      1.249      1.568
REMARK  8 active torsions:
REMARK  status: ('A' for Active; 'I' for Inactive)
REMARK    1  A    between atoms: C2_2  and  C5_5 
REMARK    2  A    between atoms: C8_8  and  N1_10 
REMARK    3  A    between atoms: C15_19  and  C16_20 
REMARK    4  A    between atoms: C16_20  and  C17_21 
REMARK    5  A    between atoms: C27_36  and  C28_37 
REMARK       I    between atoms: C28_37  and  N4_39 
REMARK    6  A    between atoms: N4_39  and  C29_41 
REMARK    7  A    between atoms: C29_41  and  C30_42 
REMARK    8  A    between atoms: C30_42  and  N5_43 
ROOT
HETATM    1  N1  UNL     1      -8.063  18.065  -9.083  1.00  0.00    -0.404 N 
HETATM    2  C10 UNL     1      -8.789  16.899  -8.753  1.00  0.00     0.120 C 
HETATM    3  C11 UNL     1      -9.895  17.109  -7.741  1.00  0.00     0.059 C 
HETATM    4  C12 UNL     1     -10.787  18.250  -8.058  1.00  0.00     0.141 C 
HETATM    5  C13 UNL     1     -10.059  19.313  -8.905  1.00  0.00     0.059 C 
HETATM    6  C14 UNL     1      -8.585  19.234  -8.476  1.00  0.00     0.120 C 
HETATM    7  N2  UNL     1     -11.976  17.904  -8.821  1.00  0.00    -0.060 N 
ATOM      8  H21 UNL     1     -12.108  16.897  -8.908  1.00  0.00     0.278 HD
ATOM      9  H22 UNL     1     -11.883  18.117  -9.814  1.00  0.00     0.278 HD
HETATM   10  C15 UNL     1     -13.089  18.555  -8.222  1.00  0.00     0.205 C 
HETATM   11  C26 UNL     1     -12.547  19.625  -7.328  1.00  0.00     0.050 C 
HETATM   12  C27 UNL     1     -11.236  18.950  -6.830  1.00  0.00     0.116 C 
ENDROOT
BRANCH  12  13
HETATM   13  C28 UNL     1     -11.535  18.117  -5.664  1.00  0.00     0.224 C 
HETATM   14  O1  UNL     1     -10.883  18.171  -4.593  1.00  0.00    -0.273 OA
HETATM   15  N4  UNL     1     -12.606  17.185  -5.697  1.00  0.00    -0.359 N 
ATOM     16  H4  UNL     1     -13.161  17.109  -6.549  1.00  0.00     0.162 HD
BRANCH  15  17
HETATM   17  C29 UNL     1     -12.940  16.337  -4.568  1.00  0.00     0.150 C 
BRANCH  17  18
HETATM   18  C30 UNL     1     -13.017  14.885  -4.967  1.00  0.00     0.249 C 
BRANCH  18  19
HETATM   19  N5  UNL     1     -12.311  14.599  -6.176  1.00  0.00    -0.078 N 
ATOM     20  H53 UNL     1     -11.393  15.043  -6.176  1.00  0.00     0.274 HD
ATOM     21  H52 UNL     1     -12.022  13.620  -6.206  1.00  0.00     0.274 HD
ATOM     22  H51 UNL     1     -12.836  14.849  -7.015  1.00  0.00     0.274 HD
ENDBRANCH  18  19
ENDBRANCH  17  18
ENDBRANCH  15  17
ENDBRANCH  12  13
BRANCH  10  23
HETATM   23  C16 UNL     1     -14.188  18.978  -9.158  1.00  0.00     0.086 C 
HETATM   24  C18 UNL     1     -13.976  20.405  -9.522  1.00  0.00     0.021 C 
HETATM   25  C19 UNL     1     -14.821  20.991 -10.580  1.00  0.00     0.001 C 
HETATM   26  C20 UNL     1     -14.004  21.913 -11.498  1.00  0.00     0.005 C 
HETATM   27  C21 UNL     1     -14.428  21.800 -12.913  1.00  0.00     0.044 C 
HETATM   28  C22 UNL     1     -14.420  20.452 -13.515  1.00  0.00     0.055 C 
HETATM   29  N3  UNL     1     -13.312  19.626 -13.318  1.00  0.00    -0.402 N 
HETATM   30  C23 UNL     1     -13.514  18.326 -12.779  1.00  0.00     0.118 C 
ATOM     31  H3  UNL     1     -12.374  19.949 -13.557  1.00  0.00     0.158 HD
HETATM   32  C24 UNL     1     -13.073  18.254 -11.309  1.00  0.00     0.021 C 
HETATM   33  C25 UNL     1     -14.208  18.058 -10.365  1.00  0.00     0.022 C 
BRANCH  23  34
HETATM   34  C17 UNL     1     -15.556  18.839  -8.525  1.00  0.00     0.397 C 
HETATM   35  F1  UNL     1     -16.534  18.520  -9.452  1.00  0.00    -0.170 F 
HETATM   36  F2  UNL     1     -15.904  19.979  -7.807  1.00  0.00    -0.170 F 
HETATM   37  F3  UNL     1     -15.547  17.828  -7.593  1.00  0.00    -0.170 F 
ENDBRANCH  23  34
ENDBRANCH  10  23
BRANCH   1  38
HETATM   38  C8  UNL     1      -6.663  17.964  -9.247  1.00  0.00     0.024 C 
HETATM   39  C7  UNL     1      -6.231  18.228 -10.661  1.00  0.00     0.031 C 
HETATM   40  C6  UNL     1      -4.917  17.679 -11.046  1.00  0.00     0.008 C 
HETATM   41  C5  UNL     1      -4.048  17.119  -9.979  1.00  0.00    -0.007 C 
HETATM   42  C32 UNL     1      -4.758  16.367  -8.902  1.00  0.00     0.008 C 
HETATM   43  C31 UNL     1      -6.253  16.531  -8.937  1.00  0.00     0.031 C 
HETATM   44  C9  UNL     1      -5.945  18.864  -8.268  1.00  0.00     0.038 C 
BRANCH  41  45
HETATM   45  C2  UNL     1      -3.090  16.123 -10.653  1.00  0.00    -0.048 C 
HETATM   46  C1  UNL     1      -3.667  14.730 -10.639  1.00  0.00     0.015 C 
HETATM   47  C3  UNL     1      -1.712  16.178 -10.081  1.00  0.00     0.015 C 
HETATM   48  C4  UNL     1      -3.013  16.546 -12.114  1.00  0.00     0.015 C 
ENDBRANCH  41  45
ENDBRANCH   1  38
TORSDOF 8
ENDMDL
MODEL 3
REMARK VINA RESULT: -8.423423511      3.201      4.376
REMARK  8 active torsions:
REMARK  status: ('A' for Active; 'I' for Inactive)
REMARK    1  A    between atoms: C2_2  and  C5_5 
REMARK    2  A    between atoms: C8_8  and  N1_10 
REMARK    3  A    between atoms: C15_19  and  C16_20 
REMARK    4  A    between atoms: C16_20  and  C17_21 
REMARK    5  A    between atoms: C27_36  and  C28_37 
REMARK       I    between atoms: C28_37  and  N4_39 
REMARK    6  A    between atoms: N4_39  and  C29_41 
REMARK    7  A    between atoms: C29_41  and  C30_42 
REMARK    8  A    between atoms: C30_42  and  N5_43 
ROOT
HETATM    1  N1  UNL     1      -8.743  18.557  -5.450  1.00  0.00    -0.404 N 
HETATM    2  C10 UNL     1      -8.888  17.551  -6.431  1.00  0.00     0.120 C 
HETATM    3  C11 UNL     1     -10.233  16.856  -6.431  1.00  0.00     0.059 C 
HETATM    4  C12 UNL     1     -11.387  17.787  -6.413  1.00  0.00     0.141 C 
HETATM    5  C13 UNL     1     -11.012  19.133  -5.761  1.00  0.00     0.059 C 
HETATM    6  C14 UNL     1      -9.934  18.793  -4.719  1.00  0.00     0.120 C 
HETATM    7  N2  UNL     1     -11.915  18.132  -7.722  1.00  0.00    -0.060 N 
ATOM      8  H21 UNL     1     -11.510  17.570  -8.471  1.00  0.00     0.278 HD
ATOM      9  H22 UNL     1     -11.596  19.045  -8.049  1.00  0.00     0.278 HD
HETATM   10  C15 UNL     1     -13.333  18.035  -7.666  1.00  0.00     0.205 C 
HETATM   11  C26 UNL     1     -13.717  18.018  -6.221  1.00  0.00     0.050 C 
HETATM   12  C27 UNL     1     -12.511  17.248  -5.609  1.00  0.00     0.116 C 
ENDROOT
BRANCH  12  13
HETATM   13  C28 UNL     1     -12.761  15.808  -5.700  1.00  0.00     0.224 C 
HETATM   14  O1  UNL     1     -12.887  15.198  -6.789  1.00  0.00    -0.273 OA
HETATM   15  N4  UNL     1     -12.878  15.020  -4.525  1.00  0.00    -0.359 N 
ATOM     16  H4  UNL     1     -12.783  15.476  -3.618  1.00  0.00     0.162 HD
BRANCH  15  17
HETATM   17  C29 UNL     1     -13.127  13.590  -4.564  1.00  0.00     0.150 C 
BRANCH  17  18
HETATM   18  C30 UNL     1     -14.575  13.271  -4.287  1.00  0.00     0.249 C 
BRANCH  18  19
HETATM   19  N5  UNL     1     -15.065  12.177  -5.064  1.00  0.00    -0.078 N 
ATOM     20  H53 UNL     1     -16.085  12.187  -5.104  1.00  0.00     0.274 HD
ATOM     21  H52 UNL     1     -14.859  12.312  -6.055  1.00  0.00     0.274 HD
ATOM     22  H51 UNL     1     -14.723  11.272  -4.741  1.00  0.00     0.274 HD
ENDBRANCH  18  19
ENDBRANCH  17  18
ENDBRANCH  15  17
ENDBRANCH  12  13
BRANCH  10  23
HETATM   23  C16 UNL     1     -14.095  18.997  -8.536  1.00  0.00     0.086 C 
HETATM   24  C18 UNL     1     -14.236  20.285  -7.804  1.00  0.00     0.021 C 
HETATM   25  C19 UNL     1     -14.785  21.446  -8.531  1.00  0.00     0.001 C 
HETATM   26  C20 UNL     1     -14.035  22.736  -8.165  1.00  0.00     0.005 C 
HETATM   27  C21 UNL     1     -13.862  23.626  -9.336  1.00  0.00     0.044 C 
HETATM   28  C22 UNL     1     -13.206  23.053 -10.529  1.00  0.00     0.055 C 
HETATM   29  N3  UNL     1     -12.040  22.301 -10.368  1.00  0.00    -0.402 N 
HETATM   30  C23 UNL     1     -11.994  20.986 -10.906  1.00  0.00     0.118 C 
ATOM     31  H3  UNL     1     -11.237  22.688  -9.873  1.00  0.00     0.158 HD
HETATM   32  C24 UNL     1     -12.112  19.924  -9.803  1.00  0.00     0.021 C 
HETATM   33  C25 UNL     1     -13.384  19.150  -9.867  1.00  0.00     0.022 C 
BRANCH  23  34
HETATM   34  C17 UNL     1     -15.477  18.481  -8.876  1.00  0.00     0.397 C 
HETATM   35  F1  UNL     1     -15.949  18.993 -10.072  1.00  0.00    -0.170 F 
HETATM   36  F2  UNL     1     -16.378  18.715  -7.842  1.00  0.00    -0.170 F 
HETATM   37  F3  UNL     1     -15.451  17.113  -9.013  1.00  0.00    -0.170 F 
ENDBRANCH  23  34
ENDBRANCH  10  23
BRANCH   1  38
HETATM   38  C8  UNL     1      -7.509  18.664  -4.771  1.00  0.00     0.024 C 
HETATM   39  C7  UNL     1      -6.962  20.063  -4.793  1.00  0.00     0.031 C 
HETATM   40  C6  UNL     1      -5.510  20.191  -4.571  1.00  0.00     0.008 C 
HETATM   41  C5  UNL     1      -4.756  18.988  -4.134  1.00  0.00    -0.007 C 
HETATM   42  C32 UNL     1      -5.193  17.699  -4.748  1.00  0.00     0.008 C 
HETATM   43  C31 UNL     1      -6.491  17.798  -5.500  1.00  0.00     0.031 C 
HETATM   44  C9  UNL     1      -7.627  18.135  -3.360  1.00  0.00     0.038 C 
BRANCH  41  45
HETATM   45  C2  UNL     1      -3.290  19.199  -4.547  1.00  0.00    -0.048 C 
HETATM   46  C1  UNL     1      -2.864  20.624  -4.301  1.00  0.00     0.015 C 
HETATM   47  C3  UNL     1      -3.021  18.754  -5.947  1.00  0.00     0.015 C 
HETATM   48  C4  UNL     1      -2.466  18.330  -3.607  1.00  0.00     0.015 C 
ENDBRANCH  41  45
ENDBRANCH   1  38
TORSDOF 8
ENDMDL
MODEL 4
REMARK VINA RESULT: -8.249650083      3.349      5.051
REMARK  8 active torsions:
REMARK  status: ('A' for Active; 'I' for Inactive)
REMARK    1  A    between atoms: C2_2  and  C5_5 
REMARK    2  A    between atoms: C8_8  and  N1_10 
REMARK    3  A    between atoms: C15_19  and  C16_20 
REMARK    4  A    between atoms: C16_20  and  C17_21 
REMARK    5  A    between atoms: C27_36  and  C28_37 
REMARK       I    between atoms: C28_37  and  N4_39 
REMARK    6  A    between atoms: N4_39  and  C29_41 
REMARK    7  A    between atoms: C29_41  and  C30_42 
REMARK    8  A    between atoms: C30_42  and  N5_43 
ROOT
HETATM    1  N1  UNL     1      -8.717  18.518  -5.595  1.00  0.00    -0.404 N 
HETATM    2  C10 UNL     1      -8.891  17.500  -6.560  1.00  0.00     0.120 C 
HETATM    3  C11 UNL     1     -10.244  16.822  -6.525  1.00  0.00     0.059 C 
HETATM    4  C12 UNL     1     -11.387  17.768  -6.499  1.00  0.00     0.141 C 
HETATM    5  C13 UNL     1     -10.984  19.117  -5.873  1.00  0.00     0.059 C 
HETATM    6  C14 UNL     1      -9.891  18.779  -4.846  1.00  0.00     0.120 C 
HETATM    7  N2  UNL     1     -11.935  18.101  -7.803  1.00  0.00    -0.060 N 
ATOM      8  H21 UNL     1     -11.551  17.524  -8.551  1.00  0.00     0.278 HD
ATOM      9  H22 UNL     1     -11.610  19.005  -8.148  1.00  0.00     0.278 HD
HETATM   10  C15 UNL     1     -13.353  18.022  -7.720  1.00  0.00     0.205 C 
HETATM   11  C26 UNL     1     -13.710  18.030  -6.268  1.00  0.00     0.050 C 
HETATM   12  C27 UNL     1     -12.502  17.253  -5.667  1.00  0.00     0.116 C 
ENDROOT
BRANCH  12  13
HETATM   13  C28 UNL     1     -12.771  15.816  -5.734  1.00  0.00     0.224 C 
HETATM   14  O1  UNL     1     -12.935  15.194  -6.811  1.00  0.00    -0.273 OA
HETATM   15  N4  UNL     1     -12.864  15.043  -4.546  1.00  0.00    -0.359 N 
ATOM     16  H4  UNL     1     -12.737  15.509  -3.648  1.00  0.00     0.162 HD
BRANCH  15  17
HETATM   17  C29 UNL     1     -13.130  13.616  -4.560  1.00  0.00     0.150 C 
BRANCH  17  18
HETATM   18  C30 UNL     1     -14.578  13.319  -4.264  1.00  0.00     0.249 C 
BRANCH  18  19
HETATM   19  N5  UNL     1     -15.091  12.220  -5.021  1.00  0.00    -0.078 N 
ATOM     20  H53 UNL     1     -16.063  12.032  -4.776  1.00  0.00     0.274 HD
ATOM     21  H52 UNL     1     -15.213  12.479  -6.000  1.00  0.00     0.274 HD
ATOM     22  H51 UNL     1     -14.525  11.376  -4.935  1.00  0.00     0.274 HD
ENDBRANCH  18  19
ENDBRANCH  17  18
ENDBRANCH  15  17
ENDBRANCH  12  13
BRANCH  10  23
HETATM   23  C16 UNL     1     -14.119  18.981  -8.589  1.00  0.00     0.086 C 
HETATM   24  C18 UNL     1     -14.246  20.275  -7.866  1.00  0.00     0.021 C 
HETATM   25  C19 UNL     1     -14.796  21.434  -8.596  1.00  0.00     0.001 C 
HETATM   26  C20 UNL     1     -14.036  22.723  -8.247  1.00  0.00     0.005 C 
HETATM   27  C21 UNL     1     -13.871  23.603  -9.427  1.00  0.00     0.044 C 
HETATM   28  C22 UNL     1     -13.230  23.017 -10.622  1.00  0.00     0.055 C 
HETATM   29  N3  UNL     1     -12.067  22.261 -10.468  1.00  0.00    -0.402 N 
HETATM   30  C23 UNL     1     -12.033  20.942 -10.996  1.00  0.00     0.118 C 
ATOM     31  H3  UNL     1     -11.256  22.647  -9.985  1.00  0.00     0.158 HD
HETATM   32  C24 UNL     1     -12.145  19.888  -9.884  1.00  0.00     0.021 C 
HETATM   33  C25 UNL     1     -13.421  19.121  -9.929  1.00  0.00     0.022 C 
BRANCH  23  34
HETATM   34  C17 UNL     1     -15.507  18.469  -8.911  1.00  0.00     0.397 C 
HETATM   35  F1  UNL     1     -15.986  18.969 -10.109  1.00  0.00    -0.170 F 
HETATM   36  F2  UNL     1     -16.397  18.723  -7.872  1.00  0.00    -0.170 F 
HETATM   37  F3  UNL     1     -15.490  17.099  -9.030  1.00  0.00    -0.170 F 
ENDBRANCH  23  34
ENDBRANCH  10  23
BRANCH   1  38
HETATM   38  C8  UNL     1      -7.469  18.620  -4.940  1.00  0.00     0.024 C 
HETATM   39  C7  UNL     1      -7.546  18.220  -3.494  1.00  0.00     0.031 C 
HETATM   40  C6  UNL     1      -6.477  18.744  -2.623  1.00  0.00     0.008 C 
HETATM   41  C5  UNL     1      -5.318  19.420  -3.260  1.00  0.00    -0.007 C 
HETATM   42  C32 UNL     1      -5.642  20.268  -4.447  1.00  0.00     0.008 C 
HETATM   43  C31 UNL     1      -7.045  20.082  -4.955  1.00  0.00     0.031 C 
HETATM   44  C9  UNL     1      -6.412  17.832  -5.680  1.00  0.00     0.038 C 
BRANCH  41  45
HETATM   45  C2  UNL     1      -4.705  20.355  -2.205  1.00  0.00    -0.048 C 
HETATM   46  C1  UNL     1      -4.897  19.797  -0.818  1.00  0.00     0.015 C 
HETATM   47  C3  UNL     1      -5.195  21.760  -2.331  1.00  0.00     0.015 C 
HETATM   48  C4  UNL     1      -3.205  20.352  -2.471  1.00  0.00     0.015 C 
ENDBRANCH  41  45
ENDBRANCH   1  38
TORSDOF 8
ENDMDL
MODEL 5
REMARK VINA RESULT: -8.199604021      1.575      2.113
REMARK  8 active torsions:
REMARK  status: ('A' for Active; 'I' for Inactive)
REMARK    1  A    between atoms: C2_2  and  C5_5 
REMARK    2  A    between atoms: C8_8  and  N1_10 
REMARK    3  A    between atoms: C15_19  and  C16_20 
REMARK    4  A    between atoms: C16_20  and  C17_21 
REMARK    5  A    between atoms: C27_36  and  C28_37 
REMARK       I    between atoms: C28_37  and  N4_39 
REMARK    6  A    between atoms: N4_39  and  C29_41 
REMARK    7  A    between atoms: C29_41  and  C30_42 
REMARK    8  A    between atoms: C30_42  and  N5_43 
ROOT
HETATM    1  N1  UNL     1      -8.173  18.185  -7.917  1.00  0.00    -0.404 N 
HETATM    2  C10 UNL     1      -8.875  16.959  -7.871  1.00  0.00     0.120 C 
HETATM    3  C11 UNL     1     -10.133  16.983  -7.029  1.00  0.00     0.059 C 
HETATM    4  C12 UNL     1     -11.029  18.127  -7.325  1.00  0.00     0.141 C 
HETATM    5  C13 UNL     1     -10.240  19.325  -7.890  1.00  0.00     0.059 C 
HETATM    6  C14 UNL     1      -8.848  19.235  -7.246  1.00  0.00     0.120 C 
HETATM    7  N2  UNL     1     -12.065  17.856  -8.308  1.00  0.00    -0.060 N 
ATOM      8  H21 UNL     1     -12.125  16.868  -8.554  1.00  0.00     0.278 HD
ATOM      9  H22 UNL     1     -11.832  18.213  -9.235  1.00  0.00     0.278 HD
HETATM   10  C15 UNL     1     -13.292  18.375  -7.811  1.00  0.00     0.205 C 
HETATM   11  C26 UNL     1     -12.954  19.322  -6.704  1.00  0.00     0.050 C 
HETATM   12  C27 UNL     1     -11.700  18.626  -6.100  1.00  0.00     0.116 C 
ENDROOT
BRANCH  12  13
HETATM   13  C28 UNL     1     -12.127  17.624  -5.123  1.00  0.00     0.224 C 
HETATM   14  O1  UNL     1     -11.604  17.500  -3.989  1.00  0.00    -0.273 OA
HETATM   15  N4  UNL     1     -13.181  16.723  -5.427  1.00  0.00    -0.359 N 
ATOM     16  H4  UNL     1     -13.634  16.789  -6.338  1.00  0.00     0.162 HD
BRANCH  15  17
HETATM   17  C29 UNL     1     -13.640  15.711  -4.492  1.00  0.00     0.150 C 
BRANCH  17  18
HETATM   18  C30 UNL     1     -13.137  14.340  -4.866  1.00  0.00     0.249 C 
BRANCH  18  19
HETATM   19  N5  UNL     1     -12.413  14.326  -6.098  1.00  0.00    -0.078 N 
ATOM     20  H53 UNL     1     -12.724  15.079  -6.712  1.00  0.00     0.274 HD
ATOM     21  H52 UNL     1     -11.445  14.616  -5.955  1.00  0.00     0.274 HD
ATOM     22  H51 UNL     1     -12.456  13.426  -6.577  1.00  0.00     0.274 HD
ENDBRANCH  18  19
ENDBRANCH  17  18
ENDBRANCH  15  17
ENDBRANCH  12  13
BRANCH  10  23
HETATM   23  C16 UNL     1     -14.256  18.891  -8.844  1.00  0.00     0.086 C 
HETATM   24  C18 UNL     1     -13.939  20.320  -9.114  1.00  0.00     0.021 C 
HETATM   25  C19 UNL     1     -14.630  20.991 -10.232  1.00  0.00     0.001 C 
HETATM   26  C20 UNL     1     -13.672  21.910 -11.007  1.00  0.00     0.005 C 
HETATM   27  C21 UNL     1     -13.935  21.878 -12.464  1.00  0.00     0.044 C 
HETATM   28  C22 UNL     1     -13.919  20.557 -13.125  1.00  0.00     0.055 C 
HETATM   29  N3  UNL     1     -12.879  19.669 -12.844  1.00  0.00    -0.402 N 
HETATM   30  C23 UNL     1     -13.200  18.360 -12.393  1.00  0.00     0.118 C 
ATOM     31  H3  UNL     1     -11.907  19.954 -12.960  1.00  0.00     0.158 HD
HETATM   32  C24 UNL     1     -12.935  18.203 -10.888  1.00  0.00     0.021 C 
HETATM   33  C25 UNL     1     -14.178  18.026 -10.088  1.00  0.00     0.022 C 
BRANCH  23  34
HETATM   34  C17 UNL     1     -15.693  18.795  -8.377  1.00  0.00     0.397 C 
HETATM   35  F1  UNL     1     -16.127  19.959  -7.768  1.00  0.00    -0.170 F 
HETATM   36  F2  UNL     1     -15.886  17.695  -7.547  1.00  0.00    -0.170 F 
HETATM   37  F3  UNL     1     -16.525  18.573  -9.450  1.00  0.00    -0.170 F 
ENDBRANCH  23  34
ENDBRANCH  10  23
BRANCH   1  38
HETATM   38  C8  UNL     1      -6.761  18.156  -7.866  1.00  0.00     0.024 C 
HETATM   39  C7  UNL     1      -6.139  19.332  -8.562  1.00  0.00     0.031 C 
HETATM   40  C6  UNL     1      -4.741  19.158  -8.997  1.00  0.00     0.008 C 
HETATM   41  C5  UNL     1      -4.004  17.954  -8.532  1.00  0.00    -0.007 C 
HETATM   42  C32 UNL     1      -4.808  16.697  -8.460  1.00  0.00     0.008 C 
HETATM   43  C31 UNL     1      -6.287  16.918  -8.616  1.00  0.00     0.031 C 
HETATM   44  C9  UNL     1      -6.280  18.035  -6.439  1.00  0.00     0.038 C 
BRANCH  41  45
HETATM   45  C2  UNL     1      -2.874  17.698  -9.543  1.00  0.00    -0.048 C 
HETATM   46  C1  UNL     1      -1.547  18.147  -8.988  1.00  0.00     0.015 C 
HETATM   47  C3  UNL     1      -3.163  18.285 -10.885  1.00  0.00     0.015 C 
HETATM   48  C4  UNL     1      -2.791  16.185  -9.696  1.00  0.00     0.015 C 
ENDBRANCH  41  45
ENDBRANCH   1  38
TORSDOF 8
ENDMDL
