MODEL 1
REMARK VINA RESULT: -6.308041446      0.000      0.000
REMARK  10 active torsions:
REMARK  status: ('A' for Active; 'I' for Inactive)
REMARK    1  A    between atoms: C2_2  and  C4_4 
REMARK    2  A    between atoms: C4_4  and  C5_5 
REMARK    3  A    between atoms: C5_5  and  C6_6 
REMARK    4  A    between atoms: C8_8  and  C9_9 
REMARK    5  A    between atoms: C10_10  and  C11_11 
REMARK    6  A    between atoms: C11_11  and  O1_12 
REMARK    7  A    between atoms: C11_11  and  C12_14 
REMARK    8  A    between atoms: C12_14  and  C14_16 
REMARK    9  A    between atoms: C14_16  and  C15_17 
REMARK   10  A    between atoms: N2_19  and  O2_21 
ROOT
HETATM    1  C11 UNL     1      29.064 -13.217   2.110  1.00  0.00     0.144 C 
ENDROOT
BRANCH   1   2
HETATM    2  C10 UNL     1      28.122 -14.271   1.700  1.00  0.00     0.001 C 
HETATM    3  C9  UNL     1      27.921 -14.577   0.447  1.00  0.00    -0.023 C 
BRANCH   3   4
HETATM    4  C8  UNL     1      26.992 -15.621  -0.039  1.00  0.00     0.012 A 
HETATM    5  C6  UNL     1      27.248 -17.057   0.193  1.00  0.00    -0.006 A 
HETATM    6  C7  UNL     1      27.594 -16.475  -1.164  1.00  0.00     0.014 A 
BRANCH   5   7
HETATM    7  C5  UNL     1      26.072 -18.002   0.153  1.00  0.00     0.005 C 
BRANCH   7   8
HETATM    8  C4  UNL     1      25.076 -17.626  -0.921  1.00  0.00     0.004 C 
BRANCH   8   9
HETATM    9  C2  UNL     1      23.693 -17.708  -0.263  1.00  0.00    -0.023 C 
HETATM   10  C1  UNL     1      22.929 -18.908  -0.809  1.00  0.00     0.009 C 
HETATM   11  C3  UNL     1      22.883 -16.479  -0.638  1.00  0.00     0.009 C 
ENDBRANCH   8   9
ENDBRANCH   7   8
ENDBRANCH   5   7
ENDBRANCH   3   4
ENDBRANCH   1   2
BRANCH   1  12
HETATM   12  O1  UNL     1      29.131 -12.288   1.059  1.00  0.00    -0.391 OA
ATOM     13  H1  UNL     1      28.713 -11.490   1.362  1.00  0.00     0.210 HD
ENDBRANCH   1  12
BRANCH   1  14
HETATM   14  C12 UNL     1      28.664 -12.471   3.341  1.00  0.00     0.021 C 
HETATM   15  C13 UNL     1      27.680 -11.368   3.077  1.00  0.00     0.013 C 
BRANCH  14  16
HETATM   16  C14 UNL     1      27.979 -13.467   4.270  1.00  0.00     0.082 C 
BRANCH  16  17
HETATM   17  C15 UNL     1      28.664 -13.528   5.588  1.00  0.00     0.113 C 
HETATM   18  N1  UNL     1      28.260 -12.615   6.603  1.00  0.00    -0.086 NA
HETATM   19  N2  UNL     1      29.599 -14.355   5.866  1.00  0.00    -0.260 N 
ATOM     20  H2  UNL     1      30.000 -14.311   6.803  1.00  0.00     0.195 HD
BRANCH  19  21
HETATM   21  O2  UNL     1      30.101 -15.290   5.014  1.00  0.00    -0.289 OA
ATOM     22  H2  UNL     1      29.584 -15.839   4.435  1.00  0.00     0.244 HD
ENDBRANCH  19  21
ENDBRANCH  16  17
ENDBRANCH  14  16
ENDBRANCH   1  14
TORSDOF 10
ENDMDL
MODEL 2
REMARK VINA RESULT: -6.194669056      4.710      7.761
REMARK  10 active torsions:
REMARK  status: ('A' for Active; 'I' for Inactive)
REMARK    1  A    between atoms: C2_2  and  C4_4 
REMARK    2  A    between atoms: C4_4  and  C5_5 
REMARK    3  A    between atoms: C5_5  and  C6_6 
REMARK    4  A    between atoms: C8_8  and  C9_9 
REMARK    5  A    between atoms: C10_10  and  C11_11 
REMARK    6  A    between atoms: C11_11  and  O1_12 
REMARK    7  A    between atoms: C11_11  and  C12_14 
REMARK    8  A    between atoms: C12_14  and  C14_16 
REMARK    9  A    between atoms: C14_16  and  C15_17 
REMARK   10  A    between atoms: N2_19  and  O2_21 
ROOT
HETATM    1  C11 UNL     1      25.049 -16.401  -1.008  1.00  0.00     0.144 C 
ENDROOT
BRANCH   1   2
HETATM    2  C10 UNL     1      26.262 -15.755  -0.480  1.00  0.00     0.001 C 
HETATM    3  C9  UNL     1      26.247 -14.551   0.023  1.00  0.00    -0.023 C 
BRANCH   3   4
HETATM    4  C8  UNL     1      27.425 -13.840   0.570  1.00  0.00     0.012 A 
HETATM    5  C6  UNL     1      27.694 -13.785   2.020  1.00  0.00    -0.006 A 
HETATM    6  C7  UNL     1      27.043 -12.582   1.364  1.00  0.00     0.014 A 
BRANCH   5   7
HETATM    7  C5  UNL     1      29.111 -13.523   2.469  1.00  0.00     0.005 C 
BRANCH   7   8
HETATM    8  C4  UNL     1      29.165 -12.654   3.705  1.00  0.00     0.004 C 
BRANCH   8   9
HETATM    9  C2  UNL     1      28.401 -13.418   4.794  1.00  0.00    -0.023 C 
HETATM   10  C1  UNL     1      28.201 -12.524   6.012  1.00  0.00     0.009 C 
HETATM   11  C3  UNL     1      29.234 -14.598   5.260  1.00  0.00     0.009 C 
ENDBRANCH   8   9
ENDBRANCH   7   8
ENDBRANCH   5   7
ENDBRANCH   3   4
ENDBRANCH   1   2
BRANCH   1  12
HETATM   12  O1  UNL     1      25.147 -16.388  -2.408  1.00  0.00    -0.391 OA
ATOM     13  H1  UNL     1      25.369 -17.270  -2.683  1.00  0.00     0.210 HD
ENDBRANCH   1  12
BRANCH   1  14
HETATM   14  C12 UNL     1      24.867 -17.821  -0.586  1.00  0.00     0.021 C 
HETATM   15  C13 UNL     1      25.936 -18.307   0.351  1.00  0.00     0.013 C 
BRANCH  14  16
HETATM   16  C14 UNL     1      23.544 -17.905   0.168  1.00  0.00     0.082 C 
BRANCH  16  17
HETATM   17  C15 UNL     1      22.560 -18.741  -0.569  1.00  0.00     0.113 C 
HETATM   18  N1  UNL     1      22.836 -19.073  -1.925  1.00  0.00    -0.086 NA
HETATM   19  N2  UNL     1      21.476 -19.183  -0.054  1.00  0.00    -0.260 N 
ATOM     20  H2  UNL     1      20.872 -19.748  -0.649  1.00  0.00     0.195 HD
BRANCH  19  21
HETATM   21  O2  UNL     1      21.064 -18.959   1.223  1.00  0.00    -0.289 OA
ATOM     22  H2  UNL     1      20.815 -19.632   1.846  1.00  0.00     0.244 HD
ENDBRANCH  19  21
ENDBRANCH  16  17
ENDBRANCH  14  16
ENDBRANCH   1  14
TORSDOF 10
ENDMDL
MODEL 3
REMARK VINA RESULT: -6.121649460      4.809      7.587
REMARK  10 active torsions:
REMARK  status: ('A' for Active; 'I' for Inactive)
REMARK    1  A    between atoms: C2_2  and  C4_4 
REMARK    2  A    between atoms: C4_4  and  C5_5 
REMARK    3  A    between atoms: C5_5  and  C6_6 
REMARK    4  A    between atoms: C8_8  and  C9_9 
REMARK    5  A    between atoms: C10_10  and  C11_11 
REMARK    6  A    between atoms: C11_11  and  O1_12 
REMARK    7  A    between atoms: C11_11  and  C12_14 
REMARK    8  A    between atoms: C12_14  and  C14_16 
REMARK    9  A    between atoms: C14_16  and  C15_17 
REMARK   10  A    between atoms: N2_19  and  O2_21 
ROOT
HETATM    1  C11 UNL     1      24.802 -16.413  -1.096  1.00  0.00     0.144 C 
ENDROOT
BRANCH   1   2
HETATM    2  C10 UNL     1      25.837 -15.631  -0.401  1.00  0.00     0.001 C 
HETATM    3  C9  UNL     1      26.477 -14.652  -0.982  1.00  0.00    -0.023 C 
BRANCH   3   4
HETATM    4  C8  UNL     1      27.528 -13.825  -0.348  1.00  0.00     0.012 A 
HETATM    5  C6  UNL     1      27.196 -12.651   0.483  1.00  0.00    -0.006 A 
HETATM    6  C7  UNL     1      27.622 -12.417  -0.955  1.00  0.00     0.014 A 
BRANCH   5   7
HETATM    7  C5  UNL     1      28.219 -12.182   1.490  1.00  0.00     0.005 C 
BRANCH   7   8
HETATM    8  C4  UNL     1      27.738 -12.361   2.913  1.00  0.00     0.004 C 
BRANCH   8   9
HETATM    9  C2  UNL     1      28.261 -13.729   3.368  1.00  0.00    -0.023 C 
HETATM   10  C1  UNL     1      27.777 -14.025   4.783  1.00  0.00     0.009 C 
HETATM   11  C3  UNL     1      29.777 -13.693   3.433  1.00  0.00     0.009 C 
ENDBRANCH   8   9
ENDBRANCH   7   8
ENDBRANCH   5   7
ENDBRANCH   3   4
ENDBRANCH   1   2
BRANCH   1  12
HETATM   12  O1  UNL     1      25.141 -16.434  -2.458  1.00  0.00    -0.391 OA
ATOM     13  H1  UNL     1      25.910 -16.986  -2.548  1.00  0.00     0.210 HD
ENDBRANCH   1  12
BRANCH   1  14
HETATM   14  C12 UNL     1      24.686 -17.831  -0.642  1.00  0.00     0.021 C 
HETATM   15  C13 UNL     1      25.813 -18.266   0.250  1.00  0.00     0.013 C 
BRANCH  14  16
HETATM   16  C14 UNL     1      23.403 -17.941   0.175  1.00  0.00     0.082 C 
BRANCH  16  17
HETATM   17  C15 UNL     1      22.399 -18.792  -0.516  1.00  0.00     0.113 C 
HETATM   18  N1  UNL     1      22.627 -19.136  -1.878  1.00  0.00    -0.086 NA
HETATM   19  N2  UNL     1      21.338 -19.236   0.043  1.00  0.00    -0.260 N 
ATOM     20  H2  UNL     1      20.716 -19.812  -0.523  1.00  0.00     0.195 HD
BRANCH  19  21
HETATM   21  O2  UNL     1      20.972 -19.001   1.333  1.00  0.00    -0.289 OA
ATOM     22  H2  UNL     1      20.106 -18.731   1.618  1.00  0.00     0.244 HD
ENDBRANCH  19  21
ENDBRANCH  16  17
ENDBRANCH  14  16
ENDBRANCH   1  14
TORSDOF 10
ENDMDL
MODEL 4
REMARK VINA RESULT: -6.008511957      4.876      7.480
REMARK  10 active torsions:
REMARK  status: ('A' for Active; 'I' for Inactive)
REMARK    1  A    between atoms: C2_2  and  C4_4 
REMARK    2  A    between atoms: C4_4  and  C5_5 
REMARK    3  A    between atoms: C5_5  and  C6_6 
REMARK    4  A    between atoms: C8_8  and  C9_9 
REMARK    5  A    between atoms: C10_10  and  C11_11 
REMARK    6  A    between atoms: C11_11  and  O1_12 
REMARK    7  A    between atoms: C11_11  and  C12_14 
REMARK    8  A    between atoms: C12_14  and  C14_16 
REMARK    9  A    between atoms: C14_16  and  C15_17 
REMARK   10  A    between atoms: N2_19  and  O2_21 
ROOT
HETATM    1  C11 UNL     1      24.993 -16.343  -1.053  1.00  0.00     0.144 C 
ENDROOT
BRANCH   1   2
HETATM    2  C10 UNL     1      26.196 -15.537  -0.788  1.00  0.00     0.001 C 
HETATM    3  C9  UNL     1      26.598 -14.597  -1.599  1.00  0.00    -0.023 C 
BRANCH   3   4
HETATM    4  C8  UNL     1      27.794 -13.749  -1.398  1.00  0.00     0.012 A 
HETATM    5  C6  UNL     1      27.685 -12.297  -1.153  1.00  0.00    -0.006 A 
HETATM    6  C7  UNL     1      28.027 -12.767  -2.555  1.00  0.00     0.014 A 
BRANCH   5   7
HETATM    7  C5  UNL     1      28.835 -11.607  -0.460  1.00  0.00     0.005 C 
BRANCH   7   8
HETATM    8  C4  UNL     1      28.812 -11.827   1.036  1.00  0.00     0.004 C 
BRANCH   8   9
HETATM    9  C2  UNL     1      27.331 -11.894   1.431  1.00  0.00    -0.023 C 
HETATM   10  C1  UNL     1      26.955 -10.665   2.249  1.00  0.00     0.009 C 
HETATM   11  C3  UNL     1      27.104 -13.094   2.333  1.00  0.00     0.009 C 
ENDBRANCH   8   9
ENDBRANCH   7   8
ENDBRANCH   5   7
ENDBRANCH   3   4
ENDBRANCH   1   2
BRANCH   1  12
HETATM   12  O1  UNL     1      24.806 -16.364  -2.445  1.00  0.00    -0.391 OA
ATOM     13  H1  UNL     1      25.598 -16.722  -2.829  1.00  0.00     0.210 HD
ENDBRANCH   1  12
BRANCH   1  14
HETATM   14  C12 UNL     1      25.082 -17.761  -0.593  1.00  0.00     0.021 C 
HETATM   15  C13 UNL     1      26.265 -18.028   0.293  1.00  0.00     0.013 C 
BRANCH  14  16
HETATM   16  C14 UNL     1      23.833 -18.047   0.234  1.00  0.00     0.082 C 
BRANCH  16  17
HETATM   17  C15 UNL     1      22.787 -18.711  -0.588  1.00  0.00     0.113 C 
HETATM   18  N1  UNL     1      23.073 -18.982  -1.956  1.00  0.00    -0.086 NA
HETATM   19  N2  UNL     1      21.641 -19.056  -0.137  1.00  0.00    -0.260 N 
ATOM     20  H2  UNL     1      20.998 -19.506  -0.787  1.00  0.00     0.195 HD
BRANCH  19  21
HETATM   21  O2  UNL     1      21.211 -18.871   1.141  1.00  0.00    -0.289 OA
ATOM     22  H2  UNL     1      21.167 -19.546   1.809  1.00  0.00     0.244 HD
ENDBRANCH  19  21
ENDBRANCH  16  17
ENDBRANCH  14  16
ENDBRANCH   1  14
TORSDOF 10
ENDMDL
MODEL 5
REMARK VINA RESULT: -5.961275737      1.759      2.086
REMARK  10 active torsions:
REMARK  status: ('A' for Active; 'I' for Inactive)
REMARK    1  A    between atoms: C2_2  and  C4_4 
REMARK    2  A    between atoms: C4_4  and  C5_5 
REMARK    3  A    between atoms: C5_5  and  C6_6 
REMARK    4  A    between atoms: C8_8  and  C9_9 
REMARK    5  A    between atoms: C10_10  and  C11_11 
REMARK    6  A    between atoms: C11_11  and  O1_12 
REMARK    7  A    between atoms: C11_11  and  C12_14 
REMARK    8  A    between atoms: C12_14  and  C14_16 
REMARK    9  A    between atoms: C14_16  and  C15_17 
REMARK   10  A    between atoms: N2_19  and  O2_21 
ROOT
HETATM    1  C11 UNL     1      27.585 -12.415   2.807  1.00  0.00     0.144 C 
ENDROOT
BRANCH   1   2
HETATM    2  C10 UNL     1      27.121 -13.258   1.692  1.00  0.00     0.001 C 
HETATM    3  C9  UNL     1      27.777 -14.316   1.300  1.00  0.00    -0.023 C 
BRANCH   3   4
HETATM    4  C8  UNL     1      27.374 -15.208   0.189  1.00  0.00     0.012 A 
HETATM    5  C6  UNL     1      27.363 -16.677   0.337  1.00  0.00    -0.006 A 
HETATM    6  C7  UNL     1      28.544 -16.033  -0.365  1.00  0.00     0.014 A 
BRANCH   5   7
HETATM    7  C5  UNL     1      26.482 -17.477  -0.592  1.00  0.00     0.005 C 
BRANCH   7   8
HETATM    8  C4  UNL     1      25.416 -18.244   0.157  1.00  0.00     0.004 C 
BRANCH   8   9
HETATM    9  C2  UNL     1      24.079 -17.602  -0.236  1.00  0.00    -0.023 C 
HETATM   10  C1  UNL     1      23.124 -18.670  -0.758  1.00  0.00     0.009 C 
HETATM   11  C3  UNL     1      24.303 -16.631  -1.381  1.00  0.00     0.009 C 
ENDBRANCH   8   9
ENDBRANCH   7   8
ENDBRANCH   5   7
ENDBRANCH   3   4
ENDBRANCH   1   2
BRANCH   1  12
HETATM   12  O1  UNL     1      27.721 -13.249   3.928  1.00  0.00    -0.391 OA
ATOM     13  H1  UNL     1      28.647 -13.288   4.139  1.00  0.00     0.210 HD
ENDBRANCH   1  12
BRANCH   1  14
HETATM   14  C12 UNL     1      28.904 -11.754   2.578  1.00  0.00     0.021 C 
HETATM   15  C13 UNL     1      28.847 -10.257   2.685  1.00  0.00     0.013 C 
BRANCH  14  16
HETATM   16  C14 UNL     1      29.850 -12.242   3.669  1.00  0.00     0.082 C 
BRANCH  16  17
HETATM   17  C15 UNL     1      30.723 -13.337   3.169  1.00  0.00     0.113 C 
HETATM   18  N1  UNL     1      31.552 -13.079   2.041  1.00  0.00    -0.086 NA
HETATM   19  N2  UNL     1      30.775 -14.502   3.695  1.00  0.00    -0.260 N 
ATOM     20  H2  UNL     1      31.409 -15.179   3.272  1.00  0.00     0.195 HD
BRANCH  19  21
HETATM   21  O2  UNL     1      30.051 -14.911   4.772  1.00  0.00    -0.289 OA
ATOM     22  H2  UNL     1      29.204 -14.564   5.029  1.00  0.00     0.244 HD
ENDBRANCH  19  21
ENDBRANCH  16  17
ENDBRANCH  14  16
ENDBRANCH   1  14
TORSDOF 10
ENDMDL
