MODEL 1
REMARK VINA RESULT: -7.452354074      0.000      0.000
REMARK  6 active torsions:
REMARK  status: ('A' for Active; 'I' for Inactive)
REMARK    1  A    between atoms: C2_2  and  C3_3 
REMARK    2  A    between atoms: C5_5  and  C6_6 
REMARK    3  A    between atoms: C6_6  and  C9_9 
REMARK    4  A    between atoms: C10_10  and  O1_11 
REMARK    5  A    between atoms: C17_21  and  O2_22 
REMARK    6  A    between atoms: N2_27  and  O3_29 
ROOT
HETATM    1  C9  UNL     1      28.510 -14.771  -2.920  1.00  0.00     0.021 A 
HETATM    2  C10 UNL     1      27.594 -13.865  -3.502  1.00  0.00     0.084 A 
HETATM    3  C11 UNL     1      26.243 -13.952  -3.295  1.00  0.00    -0.001 A 
HETATM    4  C12 UNL     1      25.277 -12.993  -3.913  1.00  0.00     0.054 C 
HETATM    5  C13 UNL     1      25.776 -14.966  -2.486  1.00  0.00     0.055 A 
HETATM    6  N1  UNL     1      24.512 -15.298  -2.104  1.00  0.00    -0.353 N 
ATOM      7  H1  UNL     1      23.662 -14.809  -2.381  1.00  0.00     0.166 HD
HETATM    8  C14 UNL     1      24.569 -16.380  -1.299  1.00  0.00     0.064 A 
HETATM    9  C15 UNL     1      25.871 -16.779  -1.137  1.00  0.00    -0.014 A 
HETATM   10  C16 UNL     1      26.625 -15.875  -1.894  1.00  0.00     0.034 A 
HETATM   11  C17 UNL     1      28.008 -15.761  -2.124  1.00  0.00     0.088 A 
HETATM   12  C18 UNL     1      25.988 -17.969  -0.256  1.00  0.00     0.048 C 
HETATM   13  C19 UNL     1      24.623 -18.175   0.302  1.00  0.00     0.066 C 
HETATM   14  C20 UNL     1      23.750 -17.311  -0.517  1.00  0.00     0.059 C 
HETATM   15  N2  UNL     1      22.479 -17.355  -0.549  1.00  0.00    -0.269 N 
ATOM     16  H2  UNL     1      21.967 -16.710  -1.152  1.00  0.00     0.194 HD
ENDROOT
BRANCH   1  17
HETATM   17  C6  UNL     1      29.951 -14.594  -3.205  1.00  0.00     0.003 C 
HETATM   18  C7  UNL     1      30.818 -15.346  -2.267  1.00  0.00     0.025 C 
HETATM   19  C8  UNL     1      30.198 -13.087  -3.030  1.00  0.00     0.025 C 
BRANCH  17  20
HETATM   20  C5  UNL     1      30.268 -14.977  -4.586  1.00  0.00    -0.006 C 
HETATM   21  C3  UNL     1      30.467 -16.153  -5.100  1.00  0.00    -0.066 C 
HETATM   22  C4  UNL     1      30.786 -16.270  -6.591  1.00  0.00     0.048 C 
BRANCH  21  23
HETATM   23  C2  UNL     1      30.423 -17.430  -4.414  1.00  0.00    -0.004 C 
HETATM   24  C1  UNL     1      30.770 -18.566  -5.041  1.00  0.00     0.012 C 
ENDBRANCH  21  23
ENDBRANCH  17  20
ENDBRANCH   1  17
BRANCH   2  25
HETATM   25  O1  UNL     1      28.125 -12.868  -4.306  1.00  0.00    -0.359 OA
ATOM     26  H1  UNL     1      27.548 -12.491  -4.959  1.00  0.00     0.217 HD
ENDBRANCH   2  25
BRANCH  11  27
HETATM   27  O2  UNL     1      28.778 -16.708  -1.497  1.00  0.00    -0.359 OA
ATOM     28  H2  UNL     1      28.497 -17.204  -0.737  1.00  0.00     0.217 HD
ENDBRANCH  11  27
BRANCH  15  29
HETATM   29  O3  UNL     1      21.790 -18.258   0.215  1.00  0.00    -0.285 OA
HETATM   30  C21 UNL     1      20.644 -18.944  -0.193  1.00  0.00     0.237 C 
ENDBRANCH  15  29
TORSDOF 6
ENDMDL
MODEL 2
REMARK VINA RESULT: -7.055298282      3.061      7.000
REMARK  6 active torsions:
REMARK  status: ('A' for Active; 'I' for Inactive)
REMARK    1  A    between atoms: C2_2  and  C3_3 
REMARK    2  A    between atoms: C5_5  and  C6_6 
REMARK    3  A    between atoms: C6_6  and  C9_9 
REMARK    4  A    between atoms: C10_10  and  O1_11 
REMARK    5  A    between atoms: C17_21  and  O2_22 
REMARK    6  A    between atoms: N2_27  and  O3_29 
ROOT
HETATM    1  C9  UNL     1      28.149 -15.273  -1.904  1.00  0.00     0.021 A 
HETATM    2  C10 UNL     1      27.637 -14.342  -2.836  1.00  0.00     0.084 A 
HETATM    3  C11 UNL     1      28.014 -14.339  -4.154  1.00  0.00    -0.001 A 
HETATM    4  C12 UNL     1      27.471 -13.352  -5.137  1.00  0.00     0.054 C 
HETATM    5  C13 UNL     1      28.927 -15.286  -4.568  1.00  0.00     0.055 A 
HETATM    6  N1  UNL     1      29.479 -15.524  -5.790  1.00  0.00    -0.353 N 
ATOM      7  H1  UNL     1      29.284 -14.998  -6.641  1.00  0.00     0.166 HD
HETATM    8  C14 UNL     1      30.326 -16.569  -5.690  1.00  0.00     0.064 A 
HETATM    9  C15 UNL     1      30.347 -17.038  -4.401  1.00  0.00    -0.014 A 
HETATM   10  C16 UNL     1      29.456 -16.216  -3.701  1.00  0.00     0.034 A 
HETATM   11  C17 UNL     1      29.050 -16.196  -2.355  1.00  0.00     0.088 A 
HETATM   12  C18 UNL     1      31.266 -18.193  -4.238  1.00  0.00     0.048 C 
HETATM   13  C19 UNL     1      31.688 -18.551  -5.620  1.00  0.00     0.066 C 
HETATM   14  C20 UNL     1      31.253 -17.412  -6.452  1.00  0.00     0.059 C 
HETATM   15  N2  UNL     1      31.618 -17.182  -7.649  1.00  0.00    -0.269 N 
ATOM     16  H2  UNL     1      31.256 -16.362  -8.137  1.00  0.00     0.194 HD
ENDROOT
BRANCH   1  17
HETATM   17  C6  UNL     1      27.680 -15.195  -0.503  1.00  0.00     0.003 C 
HETATM   18  C7  UNL     1      26.747 -14.066  -0.272  1.00  0.00     0.025 C 
HETATM   19  C8  UNL     1      28.958 -14.978   0.321  1.00  0.00     0.025 C 
BRANCH  17  20
HETATM   20  C5  UNL     1      27.046 -16.453  -0.087  1.00  0.00    -0.006 C 
HETATM   21  C3  UNL     1      25.913 -16.974  -0.449  1.00  0.00    -0.066 C 
HETATM   22  C4  UNL     1      25.486 -18.316   0.149  1.00  0.00     0.048 C 
BRANCH  21  23
HETATM   23  C2  UNL     1      24.954 -16.427  -1.389  1.00  0.00    -0.004 C 
HETATM   24  C1  UNL     1      23.710 -16.103  -1.002  1.00  0.00     0.012 C 
ENDBRANCH  21  23
ENDBRANCH  17  20
ENDBRANCH   1  17
BRANCH   2  25
HETATM   25  O1  UNL     1      26.723 -13.415  -2.359  1.00  0.00    -0.359 OA
ATOM     26  H1  UNL     1      25.840 -13.466  -2.704  1.00  0.00     0.217 HD
ENDBRANCH   2  25
BRANCH  11  27
HETATM   27  O2  UNL     1      29.628 -17.156  -1.563  1.00  0.00    -0.359 OA
ATOM     28  H2  UNL     1      30.246 -17.804  -1.879  1.00  0.00     0.217 HD
ENDBRANCH  11  27
BRANCH  15  29
HETATM   29  O3  UNL     1      32.490 -18.021  -8.288  1.00  0.00    -0.285 OA
HETATM   30  C21 UNL     1      33.690 -17.627  -8.884  1.00  0.00     0.237 C 
ENDBRANCH  15  29
TORSDOF 6
ENDMDL
MODEL 3
REMARK VINA RESULT: -7.053109754      1.124      2.784
REMARK  6 active torsions:
REMARK  status: ('A' for Active; 'I' for Inactive)
REMARK    1  A    between atoms: C2_2  and  C3_3 
REMARK    2  A    between atoms: C5_5  and  C6_6 
REMARK    3  A    between atoms: C6_6  and  C9_9 
REMARK    4  A    between atoms: C10_10  and  O1_11 
REMARK    5  A    between atoms: C17_21  and  O2_22 
REMARK    6  A    between atoms: N2_27  and  O3_29 
ROOT
HETATM    1  C9  UNL     1      28.492 -14.734  -2.888  1.00  0.00     0.021 A 
HETATM    2  C10 UNL     1      27.581 -13.796  -3.422  1.00  0.00     0.084 A 
HETATM    3  C11 UNL     1      26.231 -13.873  -3.198  1.00  0.00    -0.001 A 
HETATM    4  C12 UNL     1      25.270 -12.878  -3.765  1.00  0.00     0.054 C 
HETATM    5  C13 UNL     1      25.762 -14.910  -2.420  1.00  0.00     0.055 A 
HETATM    6  N1  UNL     1      24.499 -15.239  -2.032  1.00  0.00    -0.353 N 
ATOM      7  H1  UNL     1      23.652 -14.729  -2.278  1.00  0.00     0.166 HD
HETATM    8  C14 UNL     1      24.552 -16.351  -1.269  1.00  0.00     0.064 A 
HETATM    9  C15 UNL     1      25.852 -16.773  -1.141  1.00  0.00    -0.014 A 
HETATM   10  C16 UNL     1      26.607 -15.852  -1.875  1.00  0.00     0.034 A 
HETATM   11  C17 UNL     1      27.988 -15.747  -2.122  1.00  0.00     0.088 A 
HETATM   12  C18 UNL     1      25.965 -17.996  -0.307  1.00  0.00     0.048 C 
HETATM   13  C19 UNL     1      24.605 -18.205   0.263  1.00  0.00     0.066 C 
HETATM   14  C20 UNL     1      23.733 -17.299  -0.510  1.00  0.00     0.059 C 
HETATM   15  N2  UNL     1      22.460 -17.325  -0.525  1.00  0.00    -0.269 N 
ATOM     16  H2  UNL     1      21.949 -16.651  -1.095  1.00  0.00     0.194 HD
ENDROOT
BRANCH   1  17
HETATM   17  C6  UNL     1      29.931 -14.566  -3.187  1.00  0.00     0.003 C 
HETATM   18  C7  UNL     1      30.211 -13.356  -3.996  1.00  0.00     0.025 C 
HETATM   19  C8  UNL     1      30.307 -15.818  -3.996  1.00  0.00     0.025 C 
BRANCH  17  20
HETATM   20  C5  UNL     1      30.727 -14.531  -1.954  1.00  0.00    -0.006 C 
HETATM   21  C3  UNL     1      30.703 -13.684  -0.970  1.00  0.00    -0.066 C 
HETATM   22  C4  UNL     1      31.655 -13.886   0.210  1.00  0.00     0.048 C 
BRANCH  21  23
HETATM   23  C2  UNL     1      29.851 -12.519  -0.836  1.00  0.00    -0.004 C 
HETATM   24  C1  UNL     1      28.759 -12.543  -0.054  1.00  0.00     0.012 C 
ENDBRANCH  21  23
ENDBRANCH  17  20
ENDBRANCH   1  17
BRANCH   2  25
HETATM   25  O1  UNL     1      28.113 -12.776  -4.196  1.00  0.00    -0.359 OA
ATOM     26  H1  UNL     1      29.048 -12.625  -4.123  1.00  0.00     0.217 HD
ENDBRANCH   2  25
BRANCH  11  27
HETATM   27  O2  UNL     1      28.753 -16.727  -1.542  1.00  0.00    -0.359 OA
ATOM     28  H2  UNL     1      28.401 -17.524  -1.165  1.00  0.00     0.217 HD
ENDBRANCH  11  27
BRANCH  15  29
HETATM   29  O3  UNL     1      21.771 -18.247   0.216  1.00  0.00    -0.285 OA
HETATM   30  C21 UNL     1      20.637 -18.937  -0.219  1.00  0.00     0.237 C 
ENDBRANCH  15  29
TORSDOF 6
ENDMDL
MODEL 4
REMARK VINA RESULT: -6.774855362      5.000      6.771
REMARK  6 active torsions:
REMARK  status: ('A' for Active; 'I' for Inactive)
REMARK    1  A    between atoms: C2_2  and  C3_3 
REMARK    2  A    between atoms: C5_5  and  C6_6 
REMARK    3  A    between atoms: C6_6  and  C9_9 
REMARK    4  A    between atoms: C10_10  and  O1_11 
REMARK    5  A    between atoms: C17_21  and  O2_22 
REMARK    6  A    between atoms: N2_27  and  O3_29 
ROOT
HETATM    1  C9  UNL     1      27.483 -14.565  -0.836  1.00  0.00     0.021 A 
HETATM    2  C10 UNL     1      27.371 -13.284  -1.422  1.00  0.00     0.084 A 
HETATM    3  C11 UNL     1      27.490 -12.130  -0.693  1.00  0.00    -0.001 A 
HETATM    4  C12 UNL     1      27.371 -10.776  -1.316  1.00  0.00     0.054 C 
HETATM    5  C13 UNL     1      27.729 -12.241   0.661  1.00  0.00     0.055 A 
HETATM    6  N1  UNL     1      27.891 -11.292   1.623  1.00  0.00    -0.353 N 
ATOM      7  H1  UNL     1      27.857 -10.284   1.473  1.00  0.00     0.166 HD
HETATM    8  C14 UNL     1      28.104 -11.902   2.807  1.00  0.00     0.064 A 
HETATM    9  C15 UNL     1      28.086 -13.265   2.646  1.00  0.00    -0.014 A 
HETATM   10  C16 UNL     1      27.847 -13.465   1.281  1.00  0.00     0.034 A 
HETATM   11  C17 UNL     1      27.721 -14.633   0.508  1.00  0.00     0.088 A 
HETATM   12  C18 UNL     1      28.317 -13.985   3.923  1.00  0.00     0.048 C 
HETATM   13  C19 UNL     1      28.691 -12.928   4.903  1.00  0.00     0.066 C 
HETATM   14  C20 UNL     1      28.351 -11.658   4.232  1.00  0.00     0.059 C 
HETATM   15  N2  UNL     1      28.280 -10.517   4.790  1.00  0.00    -0.269 N 
ATOM     16  H2  UNL     1      28.036  -9.697   4.233  1.00  0.00     0.194 HD
ENDROOT
BRANCH   1  17
HETATM   17  C6  UNL     1      27.338 -15.752  -1.708  1.00  0.00     0.003 C 
HETATM   18  C7  UNL     1      28.640 -16.277  -2.184  1.00  0.00     0.025 C 
HETATM   19  C8  UNL     1      26.521 -15.252  -2.909  1.00  0.00     0.025 C 
BRANCH  17  20
HETATM   20  C5  UNL     1      26.593 -16.819  -1.029  1.00  0.00    -0.006 C 
HETATM   21  C3  UNL     1      25.325 -16.912  -0.764  1.00  0.00    -0.066 C 
HETATM   22  C4  UNL     1      24.806 -18.152  -0.034  1.00  0.00     0.048 C 
BRANCH  21  23
HETATM   23  C2  UNL     1      24.288 -15.952  -1.086  1.00  0.00    -0.004 C 
HETATM   24  C1  UNL     1      23.013 -16.157  -0.717  1.00  0.00     0.012 C 
ENDBRANCH  21  23
ENDBRANCH  17  20
ENDBRANCH   1  17
BRANCH   2  25
HETATM   25  O1  UNL     1      27.130 -13.238  -2.786  1.00  0.00    -0.359 OA
ATOM     26  H1  UNL     1      27.061 -14.070  -3.238  1.00  0.00     0.217 HD
ENDBRANCH   2  25
BRANCH  11  27
HETATM   27  O2  UNL     1      27.850 -15.806   1.207  1.00  0.00    -0.359 OA
ATOM     28  H2  UNL     1      27.190 -16.149   1.796  1.00  0.00     0.217 HD
ENDBRANCH  11  27
BRANCH  15  29
HETATM   29  O3  UNL     1      28.526 -10.376   6.129  1.00  0.00    -0.285 OA
HETATM   30  C21 UNL     1      29.496  -9.536   6.681  1.00  0.00     0.237 C 
ENDBRANCH  15  29
TORSDOF 6
ENDMDL
MODEL 5
REMARK VINA RESULT: -6.761010329      2.393      3.884
REMARK  6 active torsions:
REMARK  status: ('A' for Active; 'I' for Inactive)
REMARK    1  A    between atoms: C2_2  and  C3_3 
REMARK    2  A    between atoms: C5_5  and  C6_6 
REMARK    3  A    between atoms: C6_6  and  C9_9 
REMARK    4  A    between atoms: C10_10  and  O1_11 
REMARK    5  A    between atoms: C17_21  and  O2_22 
REMARK    6  A    between atoms: N2_27  and  O3_29 
ROOT
HETATM    1  C9  UNL     1      28.654 -14.060  -1.107  1.00  0.00     0.021 A 
HETATM    2  C10 UNL     1      27.821 -13.179  -1.833  1.00  0.00     0.084 A 
HETATM    3  C11 UNL     1      26.509 -13.466  -2.106  1.00  0.00    -0.001 A 
HETATM    4  C12 UNL     1      25.631 -12.531  -2.874  1.00  0.00     0.054 C 
HETATM    5  C13 UNL     1      25.999 -14.663  -1.648  1.00  0.00     0.055 A 
HETATM    6  N1  UNL     1      24.758 -15.211  -1.764  1.00  0.00    -0.353 N 
ATOM      7  H1  UNL     1      23.964 -14.785  -2.241  1.00  0.00     0.166 HD
HETATM    8  C14 UNL     1      24.750 -16.409  -1.144  1.00  0.00     0.064 A 
HETATM    9  C15 UNL     1      25.987 -16.671  -0.609  1.00  0.00    -0.014 A 
HETATM   10  C16 UNL     1      26.768 -15.557  -0.937  1.00  0.00     0.034 A 
HETATM   11  C17 UNL     1      28.111 -15.236  -0.670  1.00  0.00     0.088 A 
HETATM   12  C18 UNL     1      26.031 -17.982   0.087  1.00  0.00     0.048 C 
HETATM   13  C19 UNL     1      24.618 -18.452   0.119  1.00  0.00     0.066 C 
HETATM   14  C20 UNL     1      23.906 -17.562  -0.818  1.00  0.00     0.059 C 
HETATM   15  N2  UNL     1      22.736 -17.752  -1.282  1.00  0.00    -0.269 N 
ATOM     16  H2  UNL     1      22.333 -17.072  -1.927  1.00  0.00     0.194 HD
ENDROOT
BRANCH   1  17
HETATM   17  C6  UNL     1      30.057 -13.660  -0.863  1.00  0.00     0.003 C 
HETATM   18  C7  UNL     1      30.382 -12.330  -1.432  1.00  0.00     0.025 C 
HETATM   19  C8  UNL     1      30.895 -14.736  -1.572  1.00  0.00     0.025 C 
BRANCH  17  20
HETATM   20  C5  UNL     1      30.369 -13.674   0.571  1.00  0.00    -0.006 C 
HETATM   21  C3  UNL     1      29.771 -13.081   1.560  1.00  0.00    -0.066 C 
HETATM   22  C4  UNL     1      30.314 -13.267   2.978  1.00  0.00     0.048 C 
BRANCH  21  23
HETATM   23  C2  UNL     1      28.602 -12.226   1.494  1.00  0.00    -0.004 C 
HETATM   24  C1  UNL     1      27.425 -12.620   2.008  1.00  0.00     0.012 C 
ENDBRANCH  21  23
ENDBRANCH  17  20
ENDBRANCH   1  17
BRANCH   2  25
HETATM   25  O1  UNL     1      28.391 -11.992  -2.266  1.00  0.00    -0.359 OA
ATOM     26  H1  UNL     1      27.911 -11.194  -2.084  1.00  0.00     0.217 HD
ENDBRANCH   2  25
BRANCH  11  27
HETATM   27  O2  UNL     1      28.801 -16.184   0.042  1.00  0.00    -0.359 OA
ATOM     28  H2  UNL     1      29.103 -17.007  -0.322  1.00  0.00     0.217 HD
ENDBRANCH  11  27
BRANCH  15  29
HETATM   29  O3  UNL     1      22.014 -18.859  -0.926  1.00  0.00    -0.285 OA
HETATM   30  C21 UNL     1      20.825 -18.838  -0.194  1.00  0.00     0.237 C 
ENDBRANCH  15  29
TORSDOF 6
ENDMDL
