MODEL 1
REMARK VINA RESULT: -8.213116233      0.000      0.000
REMARK  5 active torsions:
REMARK  status: ('A' for Active; 'I' for Inactive)
REMARK    1  A    between atoms: C2_2  and  C3_3 
REMARK    2  A    between atoms: C4_5  and  N1_6 
REMARK    3  A    between atoms: N2_9  and  C7_10 
REMARK    4  A    between atoms: C7_10  and  C8_11 
REMARK    5  A    between atoms: C14_23  and  C15_24 
ROOT
HETATM    1  C3  UNL     1     -12.714   5.513   0.687  1.00  0.00     0.022 A 
HETATM    2  S1  UNL     1     -11.463   6.697   0.399  1.00  0.00    -0.056 SA
HETATM    3  C4  UNL     1     -10.394   6.284   1.667  1.00  0.00     0.147 A 
HETATM    4  N4  UNL     1     -11.033   5.295   2.220  1.00  0.00    -0.335 N 
ATOM      5  H4  UNL     1     -10.628   4.827   3.031  1.00  0.00     0.168 HD
HETATM    6  C14 UNL     1     -12.191   4.886   1.754  1.00  0.00     0.058 A 
ENDROOT
BRANCH   3   7
HETATM    7  N1  UNL     1      -9.146   6.892   1.992  1.00  0.00    -0.358 N 
HETATM    8  C5  UNL     1      -8.120   6.950   0.998  1.00  0.00     0.155 C 
HETATM    9  C6  UNL     1      -7.522   8.362   1.107  1.00  0.00     0.292 C 
HETATM   10  N2  UNL     1      -6.874   8.511   2.363  1.00  0.00     0.094 N 
HETATM   11  C12 UNL     1      -7.490   7.902   3.488  1.00  0.00     0.292 C 
HETATM   12  C13 UNL     1      -8.911   7.443   3.290  1.00  0.00     0.155 C 
BRANCH  10  13
HETATM   13  C7  UNL     1      -5.470   8.292   2.274  1.00  0.00     0.306 C 
BRANCH  13  14
HETATM   14  C8  UNL     1      -4.862   7.851   3.582  1.00  0.00     0.175 C 
HETATM   15  C9  UNL     1      -3.846   6.772   3.304  1.00  0.00     0.265 C 
HETATM   16  N3  UNL     1      -2.518   7.278   3.582  1.00  0.00    -0.071 N 
HETATM   17  C10 UNL     1      -2.381   7.687   4.961  1.00  0.00     0.258 C 
ATOM     18  H32 UNL     1      -1.800   6.603   3.320  1.00  0.00     0.277 HD
ATOM     19  H31 UNL     1      -2.266   8.032   2.943  1.00  0.00     0.277 HD
HETATM   20  C11 UNL     1      -3.582   8.505   5.356  1.00  0.00     0.196 C 
HETATM   21  O1  UNL     1      -4.227   8.933   4.217  1.00  0.00    -0.381 OA
ENDBRANCH  13  14
ENDBRANCH  10  13
ENDBRANCH   3   7
BRANCH   1  22
HETATM   22  C2  UNL     1     -13.942   5.480  -0.111  1.00  0.00    -0.008 A 
HETATM   23  C1  UNL     1     -13.659   5.653  -1.645  1.00  0.00     0.021 C 
HETATM   24  C21 UNL     1     -14.875   6.670   0.346  1.00  0.00     0.015 A 
HETATM   25  C22 UNL     1     -15.309   5.230   0.191  1.00  0.00     0.015 A 
ENDBRANCH   1  22
BRANCH   6  26
HETATM   26  C15 UNL     1     -12.842   3.746   2.461  1.00  0.00    -0.008 A 
HETATM   27  C16 UNL     1     -13.893   3.085   1.900  1.00  0.00     0.014 A 
HETATM   28  C17 UNL     1     -14.481   2.033   2.574  1.00  0.00     0.001 A 
HETATM   29  C18 UNL     1     -14.029   1.630   3.810  1.00  0.00     0.000 A 
HETATM   30  C19 UNL     1     -12.955   2.329   4.350  1.00  0.00     0.001 A 
HETATM   31  C20 UNL     1     -12.370   3.370   3.685  1.00  0.00     0.014 A 
ENDBRANCH   6  26
TORSDOF 5
ENDMDL
MODEL 2
REMARK VINA RESULT: -8.205779399      1.448      2.126
REMARK  5 active torsions:
REMARK  status: ('A' for Active; 'I' for Inactive)
REMARK    1  A    between atoms: C2_2  and  C3_3 
REMARK    2  A    between atoms: C4_5  and  N1_6 
REMARK    3  A    between atoms: N2_9  and  C7_10 
REMARK    4  A    between atoms: C7_10  and  C8_11 
REMARK    5  A    between atoms: C14_23  and  C15_24 
ROOT
HETATM    1  C3  UNL     1     -11.726   6.288  -0.944  1.00  0.00     0.022 A 
HETATM    2  S1  UNL     1     -10.304   7.298  -1.036  1.00  0.00    -0.056 SA
HETATM    3  C4  UNL     1      -9.679   7.038   0.534  1.00  0.00     0.147 A 
HETATM    4  N4  UNL     1     -10.565   6.218   1.022  1.00  0.00    -0.335 N 
ATOM      5  H4  UNL     1     -10.456   5.874   1.976  1.00  0.00     0.168 HD
HETATM    6  C14 UNL     1     -11.595   5.825   0.310  1.00  0.00     0.058 A 
ENDROOT
BRANCH   3   7
HETATM    7  N1  UNL     1      -8.499   7.593   1.109  1.00  0.00    -0.358 N 
HETATM    8  C5  UNL     1      -8.178   7.293   2.469  1.00  0.00     0.155 C 
HETATM    9  C6  UNL     1      -6.667   7.016   2.484  1.00  0.00     0.292 C 
HETATM   10  N2  UNL     1      -5.960   8.206   2.157  1.00  0.00     0.094 N 
HETATM   11  C12 UNL     1      -6.527   9.046   1.164  1.00  0.00     0.292 C 
HETATM   12  C13 UNL     1      -7.635   8.439   0.345  1.00  0.00     0.155 C 
BRANCH  10  13
HETATM   13  C7  UNL     1      -5.501   8.895   3.316  1.00  0.00     0.306 C 
BRANCH  13  14
HETATM   14  C8  UNL     1      -4.017   8.737   3.541  1.00  0.00     0.175 C 
HETATM   15  C9  UNL     1      -3.798   8.095   4.887  1.00  0.00     0.265 C 
HETATM   16  N3  UNL     1      -3.274   6.757   4.703  1.00  0.00    -0.071 N 
HETATM   17  C10 UNL     1      -2.013   6.772   3.995  1.00  0.00     0.258 C 
ATOM     18  H32 UNL     1      -3.197   6.262   5.591  1.00  0.00     0.277 HD
ATOM     19  H31 UNL     1      -3.952   6.152   4.242  1.00  0.00     0.277 HD
HETATM   20  C11 UNL     1      -2.122   7.694   2.810  1.00  0.00     0.196 C 
HETATM   21  O1  UNL     1      -3.453   7.924   2.542  1.00  0.00    -0.381 OA
ENDBRANCH  13  14
ENDBRANCH  10  13
ENDBRANCH   3   7
BRANCH   1  22
HETATM   22  C2  UNL     1     -12.686   6.209  -2.047  1.00  0.00    -0.008 A 
HETATM   23  C1  UNL     1     -11.988   6.291  -3.451  1.00  0.00     0.021 C 
HETATM   24  C21 UNL     1     -13.689   7.425  -1.935  1.00  0.00     0.015 A 
HETATM   25  C22 UNL     1     -14.088   5.978  -2.122  1.00  0.00     0.015 A 
ENDBRANCH   1  22
BRANCH   6  26
HETATM   26  C15 UNL     1     -12.552   4.887   0.963  1.00  0.00    -0.008 A 
HETATM   27  C16 UNL     1     -13.878   5.192   1.052  1.00  0.00     0.014 A 
HETATM   28  C17 UNL     1     -14.745   4.308   1.662  1.00  0.00     0.001 A 
HETATM   29  C18 UNL     1     -14.304   3.117   2.189  1.00  0.00     0.000 A 
HETATM   30  C19 UNL     1     -12.945   2.841   2.081  1.00  0.00     0.001 A 
HETATM   31  C20 UNL     1     -12.083   3.713   1.476  1.00  0.00     0.014 A 
ENDBRANCH   6  26
TORSDOF 5
ENDMDL
MODEL 3
REMARK VINA RESULT: -8.072848085      1.737      2.633
REMARK  5 active torsions:
REMARK  status: ('A' for Active; 'I' for Inactive)
REMARK    1  A    between atoms: C2_2  and  C3_3 
REMARK    2  A    between atoms: C4_5  and  N1_6 
REMARK    3  A    between atoms: N2_9  and  C7_10 
REMARK    4  A    between atoms: C7_10  and  C8_11 
REMARK    5  A    between atoms: C14_23  and  C15_24 
ROOT
HETATM    1  C3  UNL     1     -10.418   6.338  -0.428  1.00  0.00     0.022 A 
HETATM    2  S1  UNL     1      -8.969   7.239  -0.054  1.00  0.00    -0.056 SA
HETATM    3  C4  UNL     1      -8.986   7.092   1.650  1.00  0.00     0.147 A 
HETATM    4  N4  UNL     1     -10.062   6.384   1.828  1.00  0.00    -0.335 N 
ATOM      5  H4  UNL     1     -10.342   6.129   2.776  1.00  0.00     0.168 HD
HETATM    6  C14 UNL     1     -10.797   5.992   0.813  1.00  0.00     0.058 A 
ENDROOT
BRANCH   3   7
HETATM    7  N1  UNL     1      -8.047   7.623   2.582  1.00  0.00    -0.358 N 
HETATM    8  C5  UNL     1      -6.652   7.382   2.380  1.00  0.00     0.155 C 
HETATM    9  C6  UNL     1      -5.957   8.720   2.677  1.00  0.00     0.292 C 
HETATM   10  N2  UNL     1      -6.114   9.045   4.052  1.00  0.00     0.094 N 
HETATM   11  C12 UNL     1      -7.360   8.734   4.655  1.00  0.00     0.292 C 
HETATM   12  C13 UNL     1      -8.480   8.390   3.708  1.00  0.00     0.155 C 
BRANCH  10  13
HETATM   13  C7  UNL     1      -4.979   8.673   4.826  1.00  0.00     0.306 C 
BRANCH  13  14
HETATM   14  C8  UNL     1      -3.890   8.034   4.000  1.00  0.00     0.175 C 
HETATM   15  C9  UNL     1      -2.571   8.664   4.367  1.00  0.00     0.265 C 
HETATM   16  N3  UNL     1      -1.748   7.691   5.056  1.00  0.00    -0.071 N 
HETATM   17  C10 UNL     1      -1.485   6.535   4.230  1.00  0.00     0.258 C 
ATOM     18  H32 UNL     1      -0.883   8.110   5.397  1.00  0.00     0.277 HD
ATOM     19  H31 UNL     1      -2.158   7.425   5.951  1.00  0.00     0.277 HD
HETATM   20  C11 UNL     1      -2.769   6.090   3.579  1.00  0.00     0.196 C 
HETATM   21  O1  UNL     1      -3.830   6.652   4.252  1.00  0.00    -0.381 OA
ENDBRANCH  13  14
ENDBRANCH  10  13
ENDBRANCH   3   7
BRANCH   1  22
HETATM   22  C2  UNL     1     -10.915   6.215  -1.800  1.00  0.00    -0.008 A 
HETATM   23  C1  UNL     1      -9.751   6.053  -2.842  1.00  0.00     0.021 C 
HETATM   24  C21 UNL     1     -11.714   7.526  -2.170  1.00  0.00     0.015 A 
HETATM   25  C22 UNL     1     -12.211   6.113  -2.376  1.00  0.00     0.015 A 
ENDBRANCH   1  22
BRANCH   6  26
HETATM   26  C15 UNL     1     -12.012   5.187   1.127  1.00  0.00    -0.008 A 
HETATM   27  C16 UNL     1     -11.906   3.885   1.514  1.00  0.00     0.014 A 
HETATM   28  C17 UNL     1     -13.046   3.159   1.799  1.00  0.00     0.001 A 
HETATM   29  C18 UNL     1     -14.298   3.721   1.701  1.00  0.00     0.000 A 
HETATM   30  C19 UNL     1     -14.366   5.051   1.302  1.00  0.00     0.001 A 
HETATM   31  C20 UNL     1     -13.240   5.773   1.020  1.00  0.00     0.014 A 
ENDBRANCH   6  26
TORSDOF 5
ENDMDL
MODEL 4
REMARK VINA RESULT: -8.069629924      1.423      2.087
REMARK  5 active torsions:
REMARK  status: ('A' for Active; 'I' for Inactive)
REMARK    1  A    between atoms: C2_2  and  C3_3 
REMARK    2  A    between atoms: C4_5  and  N1_6 
REMARK    3  A    between atoms: N2_9  and  C7_10 
REMARK    4  A    between atoms: C7_10  and  C8_11 
REMARK    5  A    between atoms: C14_23  and  C15_24 
ROOT
HETATM    1  C3  UNL     1     -11.578   6.306  -0.977  1.00  0.00     0.022 A 
HETATM    2  S1  UNL     1     -10.131   7.284  -1.014  1.00  0.00    -0.056 SA
HETATM    3  C4  UNL     1      -9.594   7.043   0.591  1.00  0.00     0.147 A 
HETATM    4  N4  UNL     1     -10.520   6.252   1.047  1.00  0.00    -0.335 N 
ATOM      5  H4  UNL     1     -10.468   5.925   2.012  1.00  0.00     0.168 HD
HETATM    6  C14 UNL     1     -11.521   5.866   0.291  1.00  0.00     0.058 A 
ENDROOT
BRANCH   3   7
HETATM    7  N1  UNL     1      -8.432   7.585   1.215  1.00  0.00    -0.358 N 
HETATM    8  C5  UNL     1      -8.110   7.191   2.550  1.00  0.00     0.155 C 
HETATM    9  C6  UNL     1      -6.592   6.955   2.555  1.00  0.00     0.292 C 
HETATM   10  N2  UNL     1      -5.917   8.186   2.325  1.00  0.00     0.094 N 
HETATM   11  C12 UNL     1      -6.503   9.083   1.395  1.00  0.00     0.292 C 
HETATM   12  C13 UNL     1      -7.589   8.510   0.524  1.00  0.00     0.155 C 
BRANCH  10  13
HETATM   13  C7  UNL     1      -5.484   8.796   3.536  1.00  0.00     0.306 C 
BRANCH  13  14
HETATM   14  C8  UNL     1      -4.336   8.062   4.184  1.00  0.00     0.175 C 
HETATM   15  C9  UNL     1      -3.125   8.175   3.293  1.00  0.00     0.265 C 
HETATM   16  N3  UNL     1      -2.130   9.007   3.936  1.00  0.00    -0.071 N 
HETATM   17  C10 UNL     1      -1.711   8.454   5.204  1.00  0.00     0.258 C 
ATOM     18  H32 UNL     1      -1.333   9.178   3.322  1.00  0.00     0.277 HD
ATOM     19  H31 UNL     1      -2.458   9.967   4.039  1.00  0.00     0.277 HD
HETATM   20  C11 UNL     1      -2.927   8.020   5.980  1.00  0.00     0.196 C 
HETATM   21  O1  UNL     1      -4.041   8.622   5.440  1.00  0.00    -0.381 OA
ENDBRANCH  13  14
ENDBRANCH  10  13
ENDBRANCH   3   7
BRANCH   1  22
HETATM   22  C2  UNL     1     -12.482   6.225  -2.126  1.00  0.00    -0.008 A 
HETATM   23  C1  UNL     1     -11.714   6.302  -3.494  1.00  0.00     0.021 C 
HETATM   24  C21 UNL     1     -13.487   7.442  -2.068  1.00  0.00     0.015 A 
HETATM   25  C22 UNL     1     -13.878   5.995  -2.270  1.00  0.00     0.015 A 
ENDBRANCH   1  22
BRANCH   6  26
HETATM   26  C15 UNL     1     -12.531   4.962   0.911  1.00  0.00    -0.008 A 
HETATM   27  C16 UNL     1     -13.843   5.322   0.980  1.00  0.00     0.014 A 
HETATM   28  C17 UNL     1     -14.760   4.469   1.561  1.00  0.00     0.001 A 
HETATM   29  C18 UNL     1     -14.381   3.251   2.077  1.00  0.00     0.000 A 
HETATM   30  C19 UNL     1     -13.034   2.918   1.990  1.00  0.00     0.001 A 
HETATM   31  C20 UNL     1     -12.123   3.760   1.415  1.00  0.00     0.014 A 
ENDBRANCH   6  26
TORSDOF 5
ENDMDL
MODEL 5
REMARK VINA RESULT: -7.843552416      2.092      2.957
REMARK  5 active torsions:
REMARK  status: ('A' for Active; 'I' for Inactive)
REMARK    1  A    between atoms: C2_2  and  C3_3 
REMARK    2  A    between atoms: C4_5  and  N1_6 
REMARK    3  A    between atoms: N2_9  and  C7_10 
REMARK    4  A    between atoms: C7_10  and  C8_11 
REMARK    5  A    between atoms: C14_23  and  C15_24 
ROOT
HETATM    1  C3  UNL     1     -10.424   6.353  -0.421  1.00  0.00     0.022 A 
HETATM    2  S1  UNL     1      -8.969   7.255  -0.077  1.00  0.00    -0.056 SA
HETATM    3  C4  UNL     1      -8.943   7.097   1.626  1.00  0.00     0.147 A 
HETATM    4  N4  UNL     1     -10.013   6.384   1.826  1.00  0.00    -0.335 N 
ATOM      5  H4  UNL     1     -10.268   6.122   2.778  1.00  0.00     0.168 HD
HETATM    6  C14 UNL     1     -10.771   5.997   0.827  1.00  0.00     0.058 A 
ENDROOT
BRANCH   3   7
HETATM    7  N1  UNL     1      -7.982   7.623   2.538  1.00  0.00    -0.358 N 
HETATM    8  C5  UNL     1      -6.591   7.432   2.272  1.00  0.00     0.155 C 
HETATM    9  C6  UNL     1      -5.923   8.780   2.588  1.00  0.00     0.292 C 
HETATM   10  N2  UNL     1      -6.033   9.053   3.979  1.00  0.00     0.094 N 
HETATM   11  C12 UNL     1      -7.244   8.684   4.619  1.00  0.00     0.292 C 
HETATM   12  C13 UNL     1      -8.391   8.339   3.707  1.00  0.00     0.155 C 
BRANCH  10  13
HETATM   13  C7  UNL     1      -4.857   8.689   4.693  1.00  0.00     0.306 C 
BRANCH  13  14
HETATM   14  C8  UNL     1      -4.882   9.142   6.132  1.00  0.00     0.175 C 
HETATM   15  C9  UNL     1      -3.627   8.659   6.813  1.00  0.00     0.265 C 
HETATM   16  N3  UNL     1      -2.784   9.794   7.129  1.00  0.00    -0.071 N 
HETATM   17  C10 UNL     1      -3.451  10.724   8.012  1.00  0.00     0.258 C 
ATOM     18  H32 UNL     1      -1.886   9.496   7.512  1.00  0.00     0.277 HD
ATOM     19  H31 UNL     1      -2.450  10.256   6.284  1.00  0.00     0.277 HD
HETATM   20  C11 UNL     1      -4.852  10.960   7.513  1.00  0.00     0.196 C 
HETATM   21  O1  UNL     1      -4.938  10.546   6.203  1.00  0.00    -0.381 OA
ENDBRANCH  13  14
ENDBRANCH  10  13
ENDBRANCH   3   7
BRANCH   1  22
HETATM   22  C2  UNL     1     -10.955   6.238  -1.781  1.00  0.00    -0.008 A 
HETATM   23  C1  UNL     1      -9.819   6.050  -2.849  1.00  0.00     0.021 C 
HETATM   24  C21 UNL     1     -11.735   7.565  -2.135  1.00  0.00     0.015 A 
HETATM   25  C22 UNL     1     -12.266   6.161  -2.327  1.00  0.00     0.015 A 
ENDBRANCH   1  22
BRANCH   6  26
HETATM   26  C15 UNL     1     -11.976   5.187   1.165  1.00  0.00    -0.008 A 
HETATM   27  C16 UNL     1     -11.857   3.884   1.548  1.00  0.00     0.014 A 
HETATM   28  C17 UNL     1     -12.987   3.153   1.856  1.00  0.00     0.001 A 
HETATM   29  C18 UNL     1     -14.244   3.710   1.785  1.00  0.00     0.000 A 
HETATM   30  C19 UNL     1     -14.326   5.041   1.390  1.00  0.00     0.001 A 
HETATM   31  C20 UNL     1     -13.208   5.768   1.085  1.00  0.00     0.014 A 
ENDBRANCH   6  26
TORSDOF 5
ENDMDL
