MODEL 1
REMARK VINA RESULT: -11.723774499      0.000      0.000
REMARK  6 active torsions:
REMARK  status: ('A' for Active; 'I' for Inactive)
REMARK    1  A    between atoms: C2_2  and  N1_3 
REMARK    2  A    between atoms: N1_3  and  C3_5 
REMARK       I    between atoms: N3_12  and  C6_14 
REMARK    3  A    between atoms: C6_14  and  C7_16 
REMARK    4  A    between atoms: N4_19  and  C10_20 
REMARK    5  A    between atoms: C14_28  and  O3_29 
REMARK    6  A    between atoms: C18_34  and  N7_35 
ROOT
HETATM    1  C7  UNL     1     -15.724 -42.793  25.031  1.00  0.00     0.081 C 
HETATM    2  C8  UNL     1     -16.559 -43.282  26.186  1.00  0.00     0.034 C 
HETATM    3  C9  UNL     1     -15.645 -43.370  27.412  1.00  0.00     0.142 C 
HETATM    4  N4  UNL     1     -14.431 -44.064  27.039  1.00  0.00    -0.218 N 
HETATM    5  C23 UNL     1     -14.306 -44.694  25.762  1.00  0.00     0.142 C 
HETATM    6  C24 UNL     1     -14.779 -43.894  24.604  1.00  0.00     0.034 C 
ENDROOT
BRANCH   4   7
HETATM    7  C10 UNL     1     -13.365 -44.135  27.971  1.00  0.00     0.680 A 
HETATM    8  N5  UNL     1     -12.141 -44.578  27.643  1.00  0.00    -0.201 N 
HETATM    9  C11 UNL     1     -11.124 -44.685  28.503  1.00  0.00     0.117 A 
ATOM     10  H5  UNL     1     -11.977 -44.850  26.674  1.00  0.00     0.183 HD
HETATM   11  C12 UNL     1     -11.371 -44.305  29.829  1.00  0.00     0.017 A 
HETATM   12  C13 UNL     1     -12.616 -43.851  30.179  1.00  0.00     0.065 A 
HETATM   13  C18 UNL     1     -10.317 -44.393  30.856  1.00  0.00     0.263 C 
HETATM   14  N6  UNL     1     -13.575 -43.776  29.253  1.00  0.00    -0.192 N 
HETATM   15  C14 UNL     1     -12.818 -43.479  31.605  1.00  0.00     0.169 C 
ATOM     16  H6  UNL     1     -14.496 -43.435  29.525  1.00  0.00     0.184 HD
HETATM   17  C15 UNL     1     -11.657 -42.518  31.904  1.00  0.00     0.044 C 
HETATM   18  C16 UNL     1     -10.328 -43.216  31.754  1.00  0.00     0.022 C 
HETATM   19  C17 UNL     1      -9.936 -43.689  33.154  1.00  0.00     0.012 C 
BRANCH  15  20
HETATM   20  O3  UNL     1     -13.989 -42.785  31.810  1.00  0.00    -0.389 OA
ATOM     21  H3  UNL     1     -14.404 -43.004  32.635  1.00  0.00     0.210 HD
ENDBRANCH  15  20
BRANCH  13  22
HETATM   22  N7  UNL     1      -9.079 -44.753  30.259  1.00  0.00     0.098 N 
HETATM   23  C19 UNL     1      -8.797 -46.166  30.412  1.00  0.00     0.273 C 
HETATM   24  C20 UNL     1      -7.915 -46.334  31.615  1.00  0.00     0.032 C 
HETATM   25  C21 UNL     1      -7.128 -45.053  31.614  1.00  0.00     0.032 C 
HETATM   26  C22 UNL     1      -7.896 -44.127  30.694  1.00  0.00     0.273 C 
ENDBRANCH  13  22
ENDBRANCH   4   7
BRANCH   1  27
HETATM   27  C6  UNL     1     -16.657 -42.470  23.894  1.00  0.00     0.227 C 
HETATM   28  N3  UNL     1     -17.969 -42.157  24.199  1.00  0.00    -0.313 N 
HETATM   29  C5  UNL     1     -18.968 -41.813  23.525  1.00  0.00     0.108 A 
ATOM     30  H3  UNL     1     -18.169 -42.220  25.197  1.00  0.00     0.170 HD
HETATM   31  N2  UNL     1     -19.006 -41.650  22.209  1.00  0.00    -0.334 N 
HETATM   32  C25 UNL     1     -20.190 -41.566  24.171  1.00  0.00     0.050 A 
HETATM   33  C4  UNL     1     -20.138 -41.273  21.526  1.00  0.00     0.114 A 
ATOM     34  H2  UNL     1     -18.152 -41.813  21.677  1.00  0.00     0.168 HD
HETATM   35  S1  UNL     1     -20.506 -40.989  19.885  1.00  0.00     0.057 SA
HETATM   36  C27 UNL     1     -21.343 -41.025  22.128  1.00  0.00     0.052 A 
HETATM   37  O1  UNL     1     -22.068 -40.594  20.007  1.00  0.00    -0.254 OA
HETATM   38  C3  UNL     1     -22.374 -40.663  21.321  1.00  0.00     0.169 A 
HETATM   39  C26 UNL     1     -21.339 -41.191  23.532  1.00  0.00     0.022 A 
HETATM   40  O2  UNL     1     -16.203 -42.500  22.743  1.00  0.00    -0.273 OA
BRANCH  38  41
HETATM   41  N1  UNL     1     -23.582 -40.373  21.577  1.00  0.00    -0.349 N 
ATOM     42  H1  UNL     1     -24.149 -41.220  21.623  1.00  0.00     0.167 HD
BRANCH  41  43
HETATM   43  C2  UNL     1     -24.350 -39.270  21.809  1.00  0.00     0.059 C 
HETATM   44  C1  UNL     1     -23.604 -38.063  22.372  1.00  0.00     0.055 C 
ENDBRANCH  41  43
ENDBRANCH  38  41
ENDBRANCH   1  27
TORSDOF 6
ENDMDL
MODEL 2
REMARK VINA RESULT: -11.476742047      3.015     13.411
REMARK  6 active torsions:
REMARK  status: ('A' for Active; 'I' for Inactive)
REMARK    1  A    between atoms: C2_2  and  N1_3 
REMARK    2  A    between atoms: N1_3  and  C3_5 
REMARK       I    between atoms: N3_12  and  C6_14 
REMARK    3  A    between atoms: C6_14  and  C7_16 
REMARK    4  A    between atoms: N4_19  and  C10_20 
REMARK    5  A    between atoms: C14_28  and  O3_29 
REMARK    6  A    between atoms: C18_34  and  N7_35 
ROOT
HETATM    1  C7  UNL     1     -17.341 -42.630  26.857  1.00  0.00     0.081 C 
HETATM    2  C8  UNL     1     -16.904 -43.262  25.561  1.00  0.00     0.034 C 
HETATM    3  C9  UNL     1     -17.617 -42.524  24.423  1.00  0.00     0.142 C 
HETATM    4  N4  UNL     1     -19.023 -42.415  24.748  1.00  0.00    -0.218 N 
HETATM    5  C23 UNL     1     -19.573 -43.099  25.876  1.00  0.00     0.142 C 
HETATM    6  C24 UNL     1     -18.780 -43.008  27.129  1.00  0.00     0.034 C 
ENDROOT
BRANCH   4   7
HETATM    7  C10 UNL     1     -19.863 -41.636  23.914  1.00  0.00     0.680 A 
HETATM    8  N5  UNL     1     -21.104 -41.270  24.270  1.00  0.00    -0.201 N 
HETATM    9  C11 UNL     1     -21.932 -40.562  23.496  1.00  0.00     0.117 A 
ATOM     10  H5  UNL     1     -21.436 -41.550  25.192  1.00  0.00     0.183 HD
HETATM   11  C12 UNL     1     -21.455 -40.186  22.233  1.00  0.00     0.017 A 
HETATM   12  C13 UNL     1     -20.190 -40.555  21.854  1.00  0.00     0.065 A 
HETATM   13  C18 UNL     1     -22.293 -39.411  21.301  1.00  0.00     0.263 C 
HETATM   14  N6  UNL     1     -19.430 -41.262  22.693  1.00  0.00    -0.192 N 
HETATM   15  C14 UNL     1     -19.749 -40.140  20.495  1.00  0.00     0.169 C 
ATOM     16  H6  UNL     1     -18.490 -41.529  22.400  1.00  0.00     0.184 HD
HETATM   17  C15 UNL     1     -20.037 -38.631  20.459  1.00  0.00     0.044 C 
HETATM   18  C16 UNL     1     -21.513 -38.360  20.609  1.00  0.00     0.022 C 
HETATM   19  C17 UNL     1     -22.066 -38.223  19.189  1.00  0.00     0.012 C 
BRANCH  15  20
HETATM   20  O3  UNL     1     -18.396 -40.304  20.304  1.00  0.00    -0.389 OA
ATOM     21  H3  UNL     1     -18.190 -40.681  19.457  1.00  0.00     0.210 HD
ENDBRANCH  15  20
BRANCH  13  22
HETATM   22  N7  UNL     1     -23.502 -39.021  21.937  1.00  0.00     0.098 N 
HETATM   23  C19 UNL     1     -24.658 -39.648  21.330  1.00  0.00     0.273 C 
HETATM   24  C20 UNL     1     -25.234 -38.688  20.330  1.00  0.00     0.032 C 
HETATM   25  C21 UNL     1     -24.905 -37.355  20.945  1.00  0.00     0.032 C 
HETATM   26  C22 UNL     1     -23.847 -37.658  21.985  1.00  0.00     0.273 C 
ENDBRANCH  13  22
ENDBRANCH   4   7
BRANCH   1  27
HETATM   27  C6  UNL     1     -16.468 -43.178  27.954  1.00  0.00     0.227 C 
HETATM   28  N3  UNL     1     -15.180 -43.562  27.628  1.00  0.00    -0.313 N 
HETATM   29  C5  UNL     1     -14.206 -44.007  28.279  1.00  0.00     0.108 A 
ATOM     30  H3  UNL     1     -14.976 -43.459  26.633  1.00  0.00     0.170 HD
HETATM   31  N2  UNL     1     -14.179 -44.243  29.584  1.00  0.00    -0.334 N 
HETATM   32  C25 UNL     1     -13.005 -44.306  27.615  1.00  0.00     0.050 A 
HETATM   33  C4  UNL     1     -13.078 -44.737  30.240  1.00  0.00     0.114 A 
ATOM     34  H2  UNL     1     -15.019 -44.049  30.128  1.00  0.00     0.168 HD
HETATM   35  S1  UNL     1     -12.732 -45.142  31.861  1.00  0.00     0.057 SA
HETATM   36  C27 UNL     1     -11.893 -45.037  29.621  1.00  0.00     0.052 A 
HETATM   37  O1  UNL     1     -11.204 -45.644  31.711  1.00  0.00    -0.254 OA
HETATM   38  C3  UNL     1     -10.892 -45.520  30.402  1.00  0.00     0.169 A 
HETATM   39  C26 UNL     1     -11.886 -44.798  28.228  1.00  0.00     0.022 A 
HETATM   40  O2  UNL     1     -16.946 -43.257  29.093  1.00  0.00    -0.273 OA
BRANCH  38  41
HETATM   41  N1  UNL     1      -9.708 -45.879  30.127  1.00  0.00    -0.349 N 
ATOM     42  H1  UNL     1      -9.496 -45.688  29.147  1.00  0.00     0.167 HD
BRANCH  41  43
HETATM   43  C2  UNL     1      -8.630 -46.443  30.746  1.00  0.00     0.059 C 
HETATM   44  C1  UNL     1      -7.817 -45.497  31.627  1.00  0.00     0.055 C 
ENDBRANCH  41  43
ENDBRANCH  38  41
ENDBRANCH   1  27
TORSDOF 6
ENDMDL
MODEL 3
REMARK VINA RESULT: -11.022212068      3.476     12.973
REMARK  6 active torsions:
REMARK  status: ('A' for Active; 'I' for Inactive)
REMARK    1  A    between atoms: C2_2  and  N1_3 
REMARK    2  A    between atoms: N1_3  and  C3_5 
REMARK       I    between atoms: N3_12  and  C6_14 
REMARK    3  A    between atoms: C6_14  and  C7_16 
REMARK    4  A    between atoms: N4_19  and  C10_20 
REMARK    5  A    between atoms: C14_28  and  O3_29 
REMARK    6  A    between atoms: C18_34  and  N7_35 
ROOT
HETATM    1  C7  UNL     1     -14.535 -44.438  26.398  1.00  0.00     0.081 C 
HETATM    2  C8  UNL     1     -15.250 -43.500  27.336  1.00  0.00     0.034 C 
HETATM    3  C9  UNL     1     -16.614 -43.179  26.717  1.00  0.00     0.142 C 
HETATM    4  N4  UNL     1     -16.423 -42.822  25.328  1.00  0.00    -0.218 N 
HETATM    5  C23 UNL     1     -15.112 -42.639  24.789  1.00  0.00     0.142 C 
HETATM    6  C24 UNL     1     -14.115 -43.675  25.162  1.00  0.00     0.034 C 
ENDROOT
BRANCH   4   7
HETATM    7  C10 UNL     1     -17.560 -42.630  24.504  1.00  0.00     0.680 A 
HETATM    8  N5  UNL     1     -18.761 -43.158  24.787  1.00  0.00    -0.201 N 
HETATM    9  C11 UNL     1     -19.844 -43.021  24.016  1.00  0.00     0.117 A 
ATOM     10  H5  UNL     1     -18.852 -43.699  25.646  1.00  0.00     0.183 HD
HETATM   11  C12 UNL     1     -19.697 -42.273  22.840  1.00  0.00     0.017 A 
HETATM   12  C13 UNL     1     -18.476 -41.728  22.538  1.00  0.00     0.065 A 
HETATM   13  C18 UNL     1     -20.829 -42.070  21.919  1.00  0.00     0.263 C 
HETATM   14  N6  UNL     1     -17.446 -41.915  23.366  1.00  0.00    -0.192 N 
HETATM   15  C14 UNL     1     -18.381 -40.959  21.267  1.00  0.00     0.169 C 
ATOM     16  H6  UNL     1     -16.544 -41.504  23.130  1.00  0.00     0.184 HD
HETATM   17  C15 UNL     1     -19.546 -39.962  21.351  1.00  0.00     0.044 C 
HETATM   18  C16 UNL     1     -20.870 -40.684  21.400  1.00  0.00     0.022 C 
HETATM   19  C17 UNL     1     -21.378 -40.737  19.959  1.00  0.00     0.012 C 
BRANCH  15  20
HETATM   20  O3  UNL     1     -17.219 -40.227  21.178  1.00  0.00    -0.389 OA
ATOM     21  H3  UNL     1     -16.942 -40.090  20.280  1.00  0.00     0.210 HD
ENDBRANCH  15  20
BRANCH  13  22
HETATM   22  N7  UNL     1     -22.022 -42.596  22.485  1.00  0.00     0.098 N 
HETATM   23  C19 UNL     1     -22.451 -43.804  21.810  1.00  0.00     0.273 C 
HETATM   24  C20 UNL     1     -23.473 -43.421  20.779  1.00  0.00     0.032 C 
HETATM   25  C21 UNL     1     -24.131 -42.226  21.413  1.00  0.00     0.032 C 
HETATM   26  C22 UNL     1     -23.181 -41.798  22.512  1.00  0.00     0.273 C 
ENDBRANCH  13  22
ENDBRANCH   4   7
BRANCH   1  27
HETATM   27  C6  UNL     1     -13.309 -44.950  27.107  1.00  0.00     0.227 C 
HETATM   28  N3  UNL     1     -12.562 -44.050  27.845  1.00  0.00    -0.313 N 
HETATM   29  C5  UNL     1     -11.541 -44.142  28.566  1.00  0.00     0.108 A 
ATOM     30  H3  UNL     1     -12.924 -43.098  27.791  1.00  0.00     0.170 HD
HETATM   31  N2  UNL     1     -10.858 -45.250  28.819  1.00  0.00    -0.334 N 
HETATM   32  C25 UNL     1     -11.025 -42.992  29.188  1.00  0.00     0.050 A 
HETATM   33  C4  UNL     1      -9.741 -45.283  29.618  1.00  0.00     0.114 A 
ATOM     34  H2  UNL     1     -11.178 -46.122  28.398  1.00  0.00     0.168 HD
HETATM   35  S1  UNL     1      -8.667 -46.509  30.123  1.00  0.00     0.057 SA
HETATM   36  C27 UNL     1      -9.214 -44.181  30.238  1.00  0.00     0.052 A 
HETATM   37  O1  UNL     1      -7.655 -45.643  31.039  1.00  0.00    -0.254 OA
HETATM   38  C3  UNL     1      -8.103 -44.369  30.996  1.00  0.00     0.169 A 
HETATM   39  C26 UNL     1      -9.918 -42.980  29.989  1.00  0.00     0.022 A 
HETATM   40  O2  UNL     1     -13.031 -46.151  26.993  1.00  0.00    -0.273 OA
BRANCH  38  41
HETATM   41  N1  UNL     1      -7.403 -43.562  31.679  1.00  0.00    -0.349 N 
ATOM     42  H1  UNL     1      -6.759 -43.050  31.075  1.00  0.00     0.167 HD
BRANCH  41  43
HETATM   43  C2  UNL     1      -7.251 -43.173  32.978  1.00  0.00     0.059 C 
HETATM   44  C1  UNL     1      -8.550 -42.887  33.728  1.00  0.00     0.055 C 
ENDBRANCH  41  43
ENDBRANCH  38  41
ENDBRANCH   1  27
TORSDOF 6
ENDMDL
MODEL 4
REMARK VINA RESULT: -10.948799738      3.598     12.904
REMARK  6 active torsions:
REMARK  status: ('A' for Active; 'I' for Inactive)
REMARK    1  A    between atoms: C2_2  and  N1_3 
REMARK    2  A    between atoms: N1_3  and  C3_5 
REMARK       I    between atoms: N3_12  and  C6_14 
REMARK    3  A    between atoms: C6_14  and  C7_16 
REMARK    4  A    between atoms: N4_19  and  C10_20 
REMARK    5  A    between atoms: C14_28  and  O3_29 
REMARK    6  A    between atoms: C18_34  and  N7_35 
ROOT
HETATM    1  C7  UNL     1     -14.477 -44.486  26.443  1.00  0.00     0.081 C 
HETATM    2  C8  UNL     1     -15.168 -43.507  27.357  1.00  0.00     0.034 C 
HETATM    3  C9  UNL     1     -16.536 -43.189  26.744  1.00  0.00     0.142 C 
HETATM    4  N4  UNL     1     -16.357 -42.882  25.341  1.00  0.00    -0.218 N 
HETATM    5  C23 UNL     1     -15.050 -42.734  24.780  1.00  0.00     0.142 C 
HETATM    6  C24 UNL     1     -14.063 -43.770  25.176  1.00  0.00     0.034 C 
ENDROOT
BRANCH   4   7
HETATM    7  C10 UNL     1     -17.502 -42.702  24.525  1.00  0.00     0.680 A 
HETATM    8  N5  UNL     1     -17.496 -41.937  23.422  1.00  0.00    -0.201 N 
HETATM    9  C11 UNL     1     -18.565 -41.723  22.648  1.00  0.00     0.117 A 
ATOM     10  H5  UNL     1     -16.619 -41.490  23.158  1.00  0.00     0.183 HD
HETATM   11  C12 UNL     1     -19.760 -42.349  23.029  1.00  0.00     0.017 A 
HETATM   12  C13 UNL     1     -19.781 -43.132  24.153  1.00  0.00     0.065 A 
HETATM   13  C18 UNL     1     -20.996 -42.169  22.247  1.00  0.00     0.263 C 
HETATM   14  N6  UNL     1     -18.665 -43.291  24.868  1.00  0.00    -0.192 N 
HETATM   15  C14 UNL     1     -21.084 -43.755  24.513  1.00  0.00     0.169 C 
ATOM     16  H6  UNL     1     -18.693 -43.878  25.701  1.00  0.00     0.184 HD
HETATM   17  C15 UNL     1     -21.532 -44.446  23.217  1.00  0.00     0.044 C 
HETATM   18  C16 UNL     1     -21.748 -43.438  22.115  1.00  0.00     0.022 C 
HETATM   19  C17 UNL     1     -23.240 -43.104  22.131  1.00  0.00     0.012 C 
BRANCH  15  20
HETATM   20  O3  UNL     1     -20.957 -44.729  25.476  1.00  0.00    -0.389 OA
ATOM     21  H3  UNL     1     -21.765 -45.207  25.621  1.00  0.00     0.210 HD
ENDBRANCH  15  20
BRANCH  13  22
HETATM   22  N7  UNL     1     -20.724 -41.439  21.059  1.00  0.00     0.098 N 
HETATM   23  C19 UNL     1     -21.157 -40.061  21.162  1.00  0.00     0.273 C 
HETATM   24  C20 UNL     1     -22.522 -39.957  20.548  1.00  0.00     0.032 C 
HETATM   25  C21 UNL     1     -22.471 -41.013  19.478  1.00  0.00     0.032 C 
HETATM   26  C22 UNL     1     -21.279 -41.874  19.841  1.00  0.00     0.273 C 
ENDBRANCH  13  22
ENDBRANCH   4   7
BRANCH   1  27
HETATM   27  C6  UNL     1     -13.249 -44.990  27.153  1.00  0.00     0.227 C 
HETATM   28  N3  UNL     1     -12.499 -44.081  27.877  1.00  0.00    -0.313 N 
HETATM   29  C5  UNL     1     -11.475 -44.164  28.596  1.00  0.00     0.108 A 
ATOM     30  H3  UNL     1     -12.859 -43.129  27.812  1.00  0.00     0.170 HD
HETATM   31  N2  UNL     1     -10.792 -45.270  28.860  1.00  0.00    -0.334 N 
HETATM   32  C25 UNL     1     -10.956 -43.008  29.200  1.00  0.00     0.050 A 
HETATM   33  C4  UNL     1      -9.672 -45.294  29.656  1.00  0.00     0.114 A 
ATOM     34  H2  UNL     1     -11.114 -46.147  28.452  1.00  0.00     0.168 HD
HETATM   35  S1  UNL     1      -8.597 -46.515  30.173  1.00  0.00     0.057 SA
HETATM   36  C27 UNL     1      -9.142 -44.184  30.259  1.00  0.00     0.052 A 
HETATM   37  O1  UNL     1      -7.581 -45.638  31.074  1.00  0.00    -0.254 OA
HETATM   38  C3  UNL     1      -8.028 -44.364  31.016  1.00  0.00     0.169 A 
HETATM   39  C26 UNL     1      -9.845 -42.986  29.997  1.00  0.00     0.022 A 
HETATM   40  O2  UNL     1     -12.972 -46.193  27.054  1.00  0.00    -0.273 OA
BRANCH  38  41
HETATM   41  N1  UNL     1      -7.325 -43.549  31.686  1.00  0.00    -0.349 N 
ATOM     42  H1  UNL     1      -6.666 -43.063  31.077  1.00  0.00     0.167 HD
BRANCH  41  43
HETATM   43  C2  UNL     1      -7.184 -43.127  32.975  1.00  0.00     0.059 C 
HETATM   44  C1  UNL     1      -8.490 -42.883  33.727  1.00  0.00     0.055 C 
ENDBRANCH  41  43
ENDBRANCH  38  41
ENDBRANCH   1  27
TORSDOF 6
ENDMDL
MODEL 5
REMARK VINA RESULT: -10.828798271      3.315     13.033
REMARK  6 active torsions:
REMARK  status: ('A' for Active; 'I' for Inactive)
REMARK    1  A    between atoms: C2_2  and  N1_3 
REMARK    2  A    between atoms: N1_3  and  C3_5 
REMARK       I    between atoms: N3_12  and  C6_14 
REMARK    3  A    between atoms: C6_14  and  C7_16 
REMARK    4  A    between atoms: N4_19  and  C10_20 
REMARK    5  A    between atoms: C14_28  and  O3_29 
REMARK    6  A    between atoms: C18_34  and  N7_35 
ROOT
HETATM    1  C7  UNL     1     -15.126 -43.158  25.147  1.00  0.00     0.081 C 
HETATM    2  C8  UNL     1     -15.317 -43.937  23.872  1.00  0.00     0.034 C 
HETATM    3  C9  UNL     1     -16.257 -43.127  22.972  1.00  0.00     0.142 C 
HETATM    4  N4  UNL     1     -17.401 -42.707  23.753  1.00  0.00    -0.218 N 
HETATM    5  C23 UNL     1     -17.607 -43.198  25.080  1.00  0.00     0.142 C 
HETATM    6  C24 UNL     1     -16.405 -43.210  25.953  1.00  0.00     0.034 C 
ENDROOT
BRANCH   4   7
HETATM    7  C10 UNL     1     -18.338 -41.814  23.176  1.00  0.00     0.680 A 
HETATM    8  N5  UNL     1     -18.091 -41.128  22.050  1.00  0.00    -0.201 N 
HETATM    9  C11 UNL     1     -18.939 -40.257  21.496  1.00  0.00     0.117 A 
ATOM     10  H5  UNL     1     -17.196 -41.282  21.585  1.00  0.00     0.183 HD
HETATM   11  C12 UNL     1     -20.163 -40.061  22.150  1.00  0.00     0.017 A 
HETATM   12  C13 UNL     1     -20.430 -40.753  23.302  1.00  0.00     0.065 A 
HETATM   13  C18 UNL     1     -21.164 -39.115  21.624  1.00  0.00     0.263 C 
HETATM   14  N6  UNL     1     -19.523 -41.605  23.784  1.00  0.00    -0.192 N 
HETATM   15  C14 UNL     1     -21.740 -40.488  23.957  1.00  0.00     0.169 C 
ATOM     16  H6  UNL     1     -19.734 -42.116  24.642  1.00  0.00     0.184 HD
HETATM   17  C15 UNL     1     -22.761 -40.671  22.824  1.00  0.00     0.044 C 
HETATM   18  C16 UNL     1     -22.538 -39.660  21.727  1.00  0.00     0.022 C 
HETATM   19  C17 UNL     1     -23.484 -38.495  22.024  1.00  0.00     0.012 C 
BRANCH  15  20
HETATM   20  O3  UNL     1     -22.040 -41.410  24.934  1.00  0.00    -0.389 OA
ATOM     21  H3  UNL     1     -22.853 -41.214  25.383  1.00  0.00     0.210 HD
ENDBRANCH  15  20
BRANCH  13  22
HETATM   22  N7  UNL     1     -20.749 -38.612  20.362  1.00  0.00     0.098 N 
HETATM   23  C19 UNL     1     -20.838 -37.167  20.302  1.00  0.00     0.273 C 
HETATM   24  C20 UNL     1     -22.151 -36.810  19.669  1.00  0.00     0.032 C 
HETATM   25  C21 UNL     1     -22.375 -37.963  18.728  1.00  0.00     0.032 C 
HETATM   26  C22 UNL     1     -21.417 -39.037  19.198  1.00  0.00     0.273 C 
ENDBRANCH  13  22
ENDBRANCH   4   7
BRANCH   1  27
HETATM   27  C6  UNL     1     -14.021 -43.819  25.928  1.00  0.00     0.227 C 
HETATM   28  N3  UNL     1     -13.298 -43.043  26.815  1.00  0.00    -0.313 N 
HETATM   29  C5  UNL     1     -12.369 -43.271  27.625  1.00  0.00     0.108 A 
ATOM     30  H3  UNL     1     -13.586 -42.064  26.810  1.00  0.00     0.170 HD
HETATM   31  N2  UNL     1     -11.794 -44.445  27.846  1.00  0.00    -0.334 N 
HETATM   32  C25 UNL     1     -11.846 -42.219  28.396  1.00  0.00     0.050 A 
HETATM   33  C4  UNL     1     -10.774 -44.630  28.748  1.00  0.00     0.114 A 
ATOM     34  H2  UNL     1     -12.126 -45.253  27.319  1.00  0.00     0.168 HD
HETATM   35  S1  UNL     1      -9.847 -45.972  29.248  1.00  0.00     0.057 SA
HETATM   36  C27 UNL     1     -10.244 -43.626  29.514  1.00  0.00     0.052 A 
HETATM   37  O1  UNL     1      -8.883 -45.265  30.335  1.00  0.00    -0.254 OA
HETATM   38  C3  UNL     1      -9.236 -43.961  30.361  1.00  0.00     0.169 A 
HETATM   39  C26 UNL     1     -10.833 -42.358  29.303  1.00  0.00     0.022 A 
HETATM   40  O2  UNL     1     -13.814 -45.025  25.736  1.00  0.00    -0.273 OA
BRANCH  38  41
HETATM   41  N1  UNL     1      -8.560 -43.268  31.181  1.00  0.00    -0.349 N 
ATOM     42  H1  UNL     1      -8.283 -42.383  30.756  1.00  0.00     0.167 HD
BRANCH  41  43
HETATM   43  C2  UNL     1      -8.091 -43.351  32.459  1.00  0.00     0.059 C 
HETATM   44  C1  UNL     1      -9.052 -42.857  33.538  1.00  0.00     0.055 C 
ENDBRANCH  41  43
ENDBRANCH  38  41
ENDBRANCH   1  27
TORSDOF 6
ENDMDL
