MODEL 1
REMARK VINA RESULT: -4.159192834      0.000      0.000
REMARK  9 active torsions:
REMARK  status: ('A' for Active; 'I' for Inactive)
REMARK    1  A    between atoms: C2_2  and  C4_4 
REMARK    2  A    between atoms: C2_2  and  C15_15 
REMARK    3  A    between atoms: C4_4  and  C5_5 
REMARK    4  A    between atoms: C15_15  and  O2_17 
REMARK    5  A    between atoms: O2_17  and  C16_18 
REMARK    6  A    between atoms: C16_18  and  C17_19 
REMARK    7  A    between atoms: C16_18  and  C18_22 
REMARK    8  A    between atoms: C18_22  and  O5_24 
REMARK    9  A    between atoms: C18_22  and  O6_26 
ROOT
HETATM    1  C1  UNL     1     -12.152   2.569  18.938  1.00  0.00     0.025 C 
HETATM    2  C2  UNL     1     -13.119   2.546  20.054  1.00  0.00     0.041 C 
HETATM    3  C3  UNL     1     -14.429   1.875  19.577  1.00  0.00     0.025 C 
ENDROOT
BRANCH   2   4
HETATM    4  C4  UNL     1     -12.711   2.094  21.380  1.00  0.00     0.028 C 
BRANCH   4   5
HETATM    5  C5  UNL     1     -11.698   1.076  21.631  1.00  0.00    -0.038 C 
HETATM    6  C6  UNL     1     -11.904   0.623  23.104  1.00  0.00     0.014 C 
HETATM    7  C7  UNL     1     -10.838  -0.298  23.571  1.00  0.00    -0.013 C 
HETATM    8  C8  UNL     1     -10.858  -1.550  22.732  1.00  0.00     0.009 C 
HETATM    9  C12 UNL     1      -9.454   0.301  23.478  1.00  0.00     0.009 C 
HETATM   10  C9  UNL     1     -10.674  -1.120  21.294  1.00  0.00    -0.013 C 
HETATM   11  C10 UNL     1      -9.318  -0.478  21.122  1.00  0.00     0.009 C 
HETATM   12  C14 UNL     1     -11.790  -0.191  20.845  1.00  0.00     0.014 C 
HETATM   13  C11 UNL     1      -9.239   0.696  22.060  1.00  0.00    -0.013 C 
HETATM   14  C13 UNL     1     -10.315   1.673  21.634  1.00  0.00     0.014 C 
ENDBRANCH   4   5
ENDBRANCH   2   4
BRANCH   2  15
HETATM   15  C15 UNL     1     -13.565   3.987  20.253  1.00  0.00     0.268 C 
HETATM   16  O1  UNL     1     -14.377   4.546  19.475  1.00  0.00    -0.264 OA
BRANCH  15  17
HETATM   17  O2  UNL     1     -13.083   4.738  21.310  1.00  0.00    -0.299 OA
BRANCH  17  18
HETATM   18  C16 UNL     1     -12.533   6.032  21.159  1.00  0.00     0.293 C 
BRANCH  18  19
HETATM   19  C17 UNL     1     -11.304   6.014  20.329  1.00  0.00     0.209 C 
HETATM   20  O3  UNL     1     -11.092   6.812  19.393  1.00  0.00    -0.646 OA
HETATM   21  O4  UNL     1     -10.332   5.061  20.600  1.00  0.00    -0.646 OA
ENDBRANCH  18  19
BRANCH  18  22
HETATM   22  C18 UNL     1     -12.320   6.710  22.494  1.00  0.00     0.193 C 
HETATM   23  C19 UNL     1     -12.361   5.685  23.582  1.00  0.00     0.082 C 
BRANCH  22  24
HETATM   24  O5  UNL     1     -13.352   7.622  22.705  1.00  0.00    -0.363 OA
ATOM     25  H5  UNL     1     -13.902   7.303  23.411  1.00  0.00     0.213 HD
ENDBRANCH  22  24
BRANCH  22  26
HETATM   26  O6  UNL     1     -11.125   7.422  22.533  1.00  0.00    -0.363 OA
ATOM     27  H6  UNL     1     -11.269   8.356  22.631  1.00  0.00     0.213 HD
ENDBRANCH  22  26
ENDBRANCH  18  22
ENDBRANCH  17  18
ENDBRANCH  15  17
ENDBRANCH   2  15
TORSDOF 9
ENDMDL
MODEL 2
REMARK VINA RESULT: -3.965411863     10.504     12.826
REMARK  9 active torsions:
REMARK  status: ('A' for Active; 'I' for Inactive)
REMARK    1  A    between atoms: C2_2  and  C4_4 
REMARK    2  A    between atoms: C2_2  and  C15_15 
REMARK    3  A    between atoms: C4_4  and  C5_5 
REMARK    4  A    between atoms: C15_15  and  O2_17 
REMARK    5  A    between atoms: O2_17  and  C16_18 
REMARK    6  A    between atoms: C16_18  and  C17_19 
REMARK    7  A    between atoms: C16_18  and  C18_22 
REMARK    8  A    between atoms: C18_22  and  O5_24 
REMARK    9  A    between atoms: C18_22  and  O6_26 
ROOT
HETATM    1  C1  UNL     1      -5.720   7.723  15.247  1.00  0.00     0.025 C 
HETATM    2  C2  UNL     1      -6.090   8.560  14.087  1.00  0.00     0.041 C 
HETATM    3  C3  UNL     1      -6.500   7.644  12.910  1.00  0.00     0.025 C 
ENDROOT
BRANCH   2   4
HETATM    4  C4  UNL     1      -6.991   9.696  14.250  1.00  0.00     0.028 C 
BRANCH   4   5
HETATM    5  C5  UNL     1      -7.317  10.317  15.529  1.00  0.00    -0.038 C 
HETATM    6  C6  UNL     1      -8.618  11.131  15.288  1.00  0.00     0.014 C 
HETATM    7  C7  UNL     1      -8.994  11.963  16.459  1.00  0.00    -0.013 C 
HETATM    8  C8  UNL     1      -9.263  11.068  17.642  1.00  0.00     0.009 C 
HETATM    9  C12 UNL     1      -7.919  12.947  16.857  1.00  0.00     0.009 C 
HETATM   10  C9  UNL     1      -8.007  10.258  17.875  1.00  0.00    -0.013 C 
HETATM   11  C10 UNL     1      -6.869  11.177  18.249  1.00  0.00     0.009 C 
HETATM   12  C14 UNL     1      -7.661   9.407  16.663  1.00  0.00     0.014 C 
HETATM   13  C11 UNL     1      -6.684  12.164  17.129  1.00  0.00    -0.013 C 
HETATM   14  C13 UNL     1      -6.304  11.369  15.899  1.00  0.00     0.014 C 
ENDBRANCH   4   5
ENDBRANCH   2   4
BRANCH   2  15
HETATM   15  C15 UNL     1      -4.792   9.163  13.573  1.00  0.00     0.268 C 
HETATM   16  O1  UNL     1      -3.680   8.607  13.759  1.00  0.00    -0.264 OA
BRANCH  15  17
HETATM   17  O2  UNL     1      -4.793  10.357  12.874  1.00  0.00    -0.299 OA
BRANCH  17  18
HETATM   18  C16 UNL     1      -5.291  10.487  11.557  1.00  0.00     0.293 C 
BRANCH  18  19
HETATM   19  C17 UNL     1      -4.413   9.816  10.568  1.00  0.00     0.209 C 
HETATM   20  O3  UNL     1      -4.380   8.580  10.403  1.00  0.00    -0.646 OA
HETATM   21  O4  UNL     1      -3.579  10.598   9.780  1.00  0.00    -0.646 OA
ENDBRANCH  18  19
BRANCH  18  22
HETATM   22  C18 UNL     1      -5.564  11.932  11.202  1.00  0.00     0.193 C 
HETATM   23  C19 UNL     1      -6.674  12.452  12.059  1.00  0.00     0.082 C 
BRANCH  22  24
HETATM   24  O5  UNL     1      -5.965  11.999   9.869  1.00  0.00    -0.363 OA
ATOM     25  H5  UNL     1      -5.215  12.231   9.335  1.00  0.00     0.213 HD
ENDBRANCH  22  24
BRANCH  22  26
HETATM   26  O6  UNL     1      -4.429  12.726  11.332  1.00  0.00    -0.363 OA
ATOM     27  H6  UNL     1      -4.512  13.355  12.038  1.00  0.00     0.213 HD
ENDBRANCH  22  26
ENDBRANCH  18  22
ENDBRANCH  17  18
ENDBRANCH  15  17
ENDBRANCH   2  15
TORSDOF 9
ENDMDL
MODEL 3
REMARK VINA RESULT: -3.824316676      9.082     11.904
REMARK  9 active torsions:
REMARK  status: ('A' for Active; 'I' for Inactive)
REMARK    1  A    between atoms: C2_2  and  C4_4 
REMARK    2  A    between atoms: C2_2  and  C15_15 
REMARK    3  A    between atoms: C4_4  and  C5_5 
REMARK    4  A    between atoms: C15_15  and  O2_17 
REMARK    5  A    between atoms: O2_17  and  C16_18 
REMARK    6  A    between atoms: C16_18  and  C17_19 
REMARK    7  A    between atoms: C16_18  and  C18_22 
REMARK    8  A    between atoms: C18_22  and  O5_24 
REMARK    9  A    between atoms: C18_22  and  O6_26 
ROOT
HETATM    1  C1  UNL     1      -6.057  11.102  12.443  1.00  0.00     0.025 C 
HETATM    2  C2  UNL     1      -5.770  10.086  13.477  1.00  0.00     0.041 C 
HETATM    3  C3  UNL     1      -4.392  10.384  14.113  1.00  0.00     0.025 C 
ENDROOT
BRANCH   2   4
HETATM    4  C4  UNL     1      -6.779   9.734  14.471  1.00  0.00     0.028 C 
BRANCH   4   5
HETATM    5  C5  UNL     1      -7.181  10.590  15.580  1.00  0.00    -0.038 C 
HETATM    6  C6  UNL     1      -7.500   9.634  16.763  1.00  0.00     0.014 C 
HETATM    7  C7  UNL     1      -8.088  10.344  17.927  1.00  0.00    -0.013 C 
HETATM    8  C8  UNL     1      -7.097  11.354  18.448  1.00  0.00     0.009 C 
HETATM    9  C12 UNL     1      -9.365  11.079  17.591  1.00  0.00     0.009 C 
HETATM   10  C9  UNL     1      -6.767  12.281  17.299  1.00  0.00    -0.013 C 
HETATM   11  C10 UNL     1      -8.006  13.034  16.879  1.00  0.00     0.009 C 
HETATM   12  C14 UNL     1      -6.154  11.524  16.133  1.00  0.00     0.014 C 
HETATM   13  C11 UNL     1      -9.051  12.025  16.486  1.00  0.00    -0.013 C 
HETATM   14  C13 UNL     1      -8.501  11.261  15.301  1.00  0.00     0.014 C 
ENDBRANCH   4   5
ENDBRANCH   2   4
BRANCH   2  15
HETATM   15  C15 UNL     1      -5.492   8.792  12.728  1.00  0.00     0.268 C 
HETATM   16  O1  UNL     1      -5.091   8.785  11.538  1.00  0.00    -0.264 OA
BRANCH  15  17
HETATM   17  O2  UNL     1      -5.674   7.565  13.342  1.00  0.00    -0.299 OA
BRANCH  17  18
HETATM   18  C16 UNL     1      -5.142   7.244  14.612  1.00  0.00     0.293 C 
BRANCH  18  19
HETATM   19  C17 UNL     1      -3.670   7.073  14.564  1.00  0.00     0.209 C 
HETATM   20  O3  UNL     1      -2.987   7.262  13.537  1.00  0.00    -0.646 OA
HETATM   21  O4  UNL     1      -3.007   6.684  15.720  1.00  0.00    -0.646 OA
ENDBRANCH  18  19
BRANCH  18  22
HETATM   22  C18 UNL     1      -5.843   6.054  15.228  1.00  0.00     0.193 C 
HETATM   23  C19 UNL     1      -6.691   5.387  14.192  1.00  0.00     0.082 C 
BRANCH  22  24
HETATM   24  O5  UNL     1      -6.671   6.502  16.256  1.00  0.00    -0.363 OA
ATOM     25  H5  UNL     1      -6.213   6.404  17.082  1.00  0.00     0.213 HD
ENDBRANCH  22  24
BRANCH  22  26
HETATM   26  O6  UNL     1      -4.945   5.150  15.786  1.00  0.00    -0.363 OA
ATOM     27  H6  UNL     1      -5.039   4.279  15.417  1.00  0.00     0.213 HD
ENDBRANCH  22  26
ENDBRANCH  18  22
ENDBRANCH  17  18
ENDBRANCH  15  17
ENDBRANCH   2  15
TORSDOF 9
ENDMDL
MODEL 4
REMARK VINA RESULT: -3.763692620      9.948     12.258
REMARK  9 active torsions:
REMARK  status: ('A' for Active; 'I' for Inactive)
REMARK    1  A    between atoms: C2_2  and  C4_4 
REMARK    2  A    between atoms: C2_2  and  C15_15 
REMARK    3  A    between atoms: C4_4  and  C5_5 
REMARK    4  A    between atoms: C15_15  and  O2_17 
REMARK    5  A    between atoms: O2_17  and  C16_18 
REMARK    6  A    between atoms: C16_18  and  C17_19 
REMARK    7  A    between atoms: C16_18  and  C18_22 
REMARK    8  A    between atoms: C18_22  and  O5_24 
REMARK    9  A    between atoms: C18_22  and  O6_26 
ROOT
HETATM    1  C1  UNL     1      -6.587   7.682  14.804  1.00  0.00     0.025 C 
HETATM    2  C2  UNL     1      -6.299   8.852  13.950  1.00  0.00     0.041 C 
HETATM    3  C3  UNL     1      -6.449   8.447  12.465  1.00  0.00     0.025 C 
ENDROOT
BRANCH   2   4
HETATM    4  C4  UNL     1      -6.905  10.148  14.239  1.00  0.00     0.028 C 
BRANCH   4   5
HETATM    5  C5  UNL     1      -7.280  10.607  15.572  1.00  0.00    -0.038 C 
HETATM    6  C6  UNL     1      -8.638  11.344  15.403  1.00  0.00     0.014 C 
HETATM    7  C7  UNL     1      -9.078  12.020  16.649  1.00  0.00    -0.013 C 
HETATM    8  C8  UNL     1      -9.283  10.990  17.730  1.00  0.00     0.009 C 
HETATM    9  C12 UNL     1      -8.080  13.034  17.158  1.00  0.00     0.009 C 
HETATM   10  C9  UNL     1      -7.971  10.254  17.892  1.00  0.00    -0.013 C 
HETATM   11  C10 UNL     1      -6.905  11.210  18.370  1.00  0.00     0.009 C 
HETATM   12  C14 UNL     1      -7.559   9.562  16.603  1.00  0.00     0.014 C 
HETATM   13  C11 UNL     1      -6.791  12.320  17.361  1.00  0.00    -0.013 C 
HETATM   14  C13 UNL     1      -6.349  11.686  16.059  1.00  0.00     0.014 C 
ENDBRANCH   4   5
ENDBRANCH   2   4
BRANCH   2  15
HETATM   15  C15 UNL     1      -4.800   9.091  14.056  1.00  0.00     0.268 C 
HETATM   16  O1  UNL     1      -4.219   9.978  13.382  1.00  0.00    -0.264 OA
BRANCH  15  17
HETATM   17  O2  UNL     1      -4.020   8.330  14.907  1.00  0.00    -0.299 OA
BRANCH  17  18
HETATM   18  C16 UNL     1      -3.378   7.133  14.513  1.00  0.00     0.293 C 
BRANCH  18  19
HETATM   19  C17 UNL     1      -3.408   6.113  15.589  1.00  0.00     0.209 C 
HETATM   20  O3  UNL     1      -2.440   5.875  16.340  1.00  0.00    -0.646 OA
HETATM   21  O4  UNL     1      -4.571   5.379  15.779  1.00  0.00    -0.646 OA
ENDBRANCH  18  19
BRANCH  18  22
HETATM   22  C18 UNL     1      -1.980   7.390  13.998  1.00  0.00     0.193 C 
HETATM   23  C19 UNL     1      -1.314   8.412  14.864  1.00  0.00     0.082 C 
BRANCH  22  24
HETATM   24  O5  UNL     1      -2.064   7.895  12.702  1.00  0.00    -0.363 OA
ATOM     25  H5  UNL     1      -1.391   7.488  12.170  1.00  0.00     0.213 HD
ENDBRANCH  22  24
BRANCH  22  26
HETATM   26  O6  UNL     1      -1.222   6.225  13.939  1.00  0.00    -0.363 OA
ATOM     27  H6  UNL     1      -0.298   6.407  13.808  1.00  0.00     0.213 HD
ENDBRANCH  22  26
ENDBRANCH  18  22
ENDBRANCH  17  18
ENDBRANCH  15  17
ENDBRANCH   2  15
TORSDOF 9
ENDMDL
MODEL 5
REMARK VINA RESULT: -3.729658174      9.124     11.941
REMARK  9 active torsions:
REMARK  status: ('A' for Active; 'I' for Inactive)
REMARK    1  A    between atoms: C2_2  and  C4_4 
REMARK    2  A    between atoms: C2_2  and  C15_15 
REMARK    3  A    between atoms: C4_4  and  C5_5 
REMARK    4  A    between atoms: C15_15  and  O2_17 
REMARK    5  A    between atoms: O2_17  and  C16_18 
REMARK    6  A    between atoms: C16_18  and  C17_19 
REMARK    7  A    between atoms: C16_18  and  C18_22 
REMARK    8  A    between atoms: C18_22  and  O5_24 
REMARK    9  A    between atoms: C18_22  and  O6_26 
ROOT
HETATM    1  C1  UNL     1      -6.142  11.054  12.576  1.00  0.00     0.025 C 
HETATM    2  C2  UNL     1      -5.776  10.016  13.562  1.00  0.00     0.041 C 
HETATM    3  C3  UNL     1      -4.416  10.381  14.202  1.00  0.00     0.025 C 
ENDROOT
BRANCH   2   4
HETATM    4  C4  UNL     1      -6.749   9.551  14.545  1.00  0.00     0.028 C 
BRANCH   4   5
HETATM    5  C5  UNL     1      -7.358  10.393  15.569  1.00  0.00    -0.038 C 
HETATM    6  C6  UNL     1      -6.270  11.426  15.973  1.00  0.00     0.014 C 
HETATM    7  C7  UNL     1      -6.678  12.259  17.133  1.00  0.00    -0.013 C 
HETATM    8  C8  UNL     1      -7.907  13.052  16.769  1.00  0.00     0.009 C 
HETATM    9  C12 UNL     1      -6.999  11.444  18.364  1.00  0.00     0.009 C 
HETATM   10  C9  UNL     1      -8.969  12.056  16.358  1.00  0.00    -0.013 C 
HETATM   11  C10 UNL     1      -9.326  11.176  17.531  1.00  0.00     0.009 C 
HETATM   12  C14 UNL     1      -8.524  11.233  15.160  1.00  0.00     0.014 C 
HETATM   13  C11 UNL     1      -8.071  10.483  17.989  1.00  0.00    -0.013 C 
HETATM   14  C13 UNL     1      -7.601   9.619  16.838  1.00  0.00     0.014 C 
ENDBRANCH   4   5
ENDBRANCH   2   4
BRANCH   2  15
HETATM   15  C15 UNL     1      -5.416   8.778  12.755  1.00  0.00     0.268 C 
HETATM   16  O1  UNL     1      -5.023   8.852  11.564  1.00  0.00    -0.264 OA
BRANCH  15  17
HETATM   17  O2  UNL     1      -5.511   7.516  13.312  1.00  0.00    -0.299 OA
BRANCH  17  18
HETATM   18  C16 UNL     1      -5.050   7.203  14.612  1.00  0.00     0.293 C 
BRANCH  18  19
HETATM   19  C17 UNL     1      -3.582   6.990  14.637  1.00  0.00     0.209 C 
HETATM   20  O3  UNL     1      -2.970   6.522  15.619  1.00  0.00    -0.646 OA
HETATM   21  O4  UNL     1      -2.841   7.328  13.513  1.00  0.00    -0.646 OA
ENDBRANCH  18  19
BRANCH  18  22
HETATM   22  C18 UNL     1      -5.813   6.043  15.213  1.00  0.00     0.193 C 
HETATM   23  C19 UNL     1      -6.678   5.423  14.163  1.00  0.00     0.082 C 
BRANCH  22  24
HETATM   24  O5  UNL     1      -6.630   6.525  16.234  1.00  0.00    -0.363 OA
ATOM     25  H5  UNL     1      -6.289   7.361  16.530  1.00  0.00     0.213 HD
ENDBRANCH  22  24
BRANCH  22  26
HETATM   26  O6  UNL     1      -4.964   5.095  15.775  1.00  0.00    -0.363 OA
ATOM     27  H6  UNL     1      -4.636   4.482  15.129  1.00  0.00     0.213 HD
ENDBRANCH  22  26
ENDBRANCH  18  22
ENDBRANCH  17  18
ENDBRANCH  15  17
ENDBRANCH   2  15
TORSDOF 9
ENDMDL
