MODEL 1
REMARK VINA RESULT: -5.793886572      0.000      0.000
REMARK  6 active torsions:
REMARK  status: ('A' for Active; 'I' for Inactive)
REMARK    1  A    between atoms: N1_1  and  C1_4 
REMARK    2  A    between atoms: C5_11  and  C6_12 
REMARK    3  A    between atoms: C6_12  and  C7_13 
REMARK    4  A    between atoms: N4_16  and  C8_17 
REMARK    5  A    between atoms: C8_17  and  C9_18 
REMARK    6  A    between atoms: C9_18  and  C10_19 
ROOT
HETATM    1  C1  UNL     1      -2.303   6.248  14.927  1.00  0.00     0.142 A 
HETATM    2  N2  UNL     1      -3.611   6.493  14.950  1.00  0.00    -0.339 N 
ATOM      3  H2  UNL     1      -4.265   5.787  15.287  1.00  0.00     0.168 HD
HETATM    4  C2  UNL     1      -4.042   7.649  14.535  1.00  0.00     0.026 A 
HETATM    5  C3  UNL     1      -3.111   8.551  14.094  1.00  0.00     0.011 A 
HETATM    6  S1  UNL     1      -1.652   7.693  14.298  1.00  0.00    -0.057 SA
HETATM    7  C4  UNL     1      -3.302   9.949  13.563  1.00  0.00     0.074 C 
HETATM    8  C5  UNL     1      -4.617   9.938  12.815  1.00  0.00     0.096 C 
HETATM    9  N4  UNL     1      -5.626  10.330  13.747  1.00  0.00    -0.388 N 
HETATM   10  C17 UNL     1      -5.703   9.454  14.881  1.00  0.00     0.128 C 
HETATM   11  C18 UNL     1      -5.531   7.992  14.536  1.00  0.00     0.078 C 
ENDROOT
BRANCH   9  12
HETATM   12  C8  UNL     1      -6.858  10.781  13.248  1.00  0.00     0.059 C 
BRANCH  12  13
HETATM   13  C9  UNL     1      -7.423  12.042  13.797  1.00  0.00     0.049 C 
BRANCH  13  14
HETATM   14  C10 UNL     1      -7.422  11.916  15.325  1.00  0.00    -0.010 C 
HETATM   15  C11 UNL     1      -8.459  10.898  15.768  1.00  0.00     0.005 C 
HETATM   16  C12 UNL     1      -8.145  10.453  17.181  1.00  0.00     0.000 C 
HETATM   17  C13 UNL     1      -8.352  11.600  18.157  1.00  0.00     0.000 C 
HETATM   18  C14 UNL     1      -7.070  12.403  18.153  1.00  0.00     0.000 C 
HETATM   19  C15 UNL     1      -7.197  13.557  17.217  1.00  0.00     0.000 C 
HETATM   20  C16 UNL     1      -7.833  13.240  15.907  1.00  0.00     0.005 C 
ENDBRANCH  13  14
ENDBRANCH  12  13
ENDBRANCH   9  12
BRANCH   8  21
HETATM   21  C6  UNL     1      -4.543  10.782  11.597  1.00  0.00     0.125 C 
BRANCH  21  22
HETATM   22  C7  UNL     1      -4.333   9.963  10.379  1.00  0.00     0.233 C 
HETATM   23  N3  UNL     1      -3.977  10.626   9.161  1.00  0.00    -0.062 NA
HETATM   24  O1  UNL     1      -4.465   8.701  10.407  1.00  0.00    -0.277 OA
ENDBRANCH  21  22
ENDBRANCH   8  21
BRANCH   1  25
HETATM   25  N1  UNL     1      -1.668   5.161  15.298  1.00  0.00    -0.380 N 
ATOM     26  H12 UNL     1      -1.819   4.592  16.132  1.00  0.00     0.158 HD
ATOM     27  H11 UNL     1      -0.905   4.678  14.825  1.00  0.00     0.158 HD
ENDBRANCH   1  25
TORSDOF 6
ENDMDL
MODEL 2
REMARK VINA RESULT: -5.450907278      2.915      5.972
REMARK  6 active torsions:
REMARK  status: ('A' for Active; 'I' for Inactive)
REMARK    1  A    between atoms: N1_1  and  C1_4 
REMARK    2  A    between atoms: C5_11  and  C6_12 
REMARK    3  A    between atoms: C6_12  and  C7_13 
REMARK    4  A    between atoms: N4_16  and  C8_17 
REMARK    5  A    between atoms: C8_17  and  C9_18 
REMARK    6  A    between atoms: C9_18  and  C10_19 
ROOT
HETATM    1  C1  UNL     1      -7.953  12.716  17.461  1.00  0.00     0.142 A 
HETATM    2  N2  UNL     1      -7.599  11.456  17.219  1.00  0.00    -0.339 N 
ATOM      3  H2  UNL     1      -7.588  10.767  17.971  1.00  0.00     0.168 HD
HETATM    4  C2  UNL     1      -7.269  11.117  16.007  1.00  0.00     0.026 A 
HETATM    5  C3  UNL     1      -7.305  12.091  15.044  1.00  0.00     0.011 A 
HETATM    6  S1  UNL     1      -7.816  13.455  15.930  1.00  0.00    -0.057 SA
HETATM    7  C4  UNL     1      -6.984  12.003  13.574  1.00  0.00     0.074 C 
HETATM    8  C5  UNL     1      -5.866  10.991  13.449  1.00  0.00     0.096 C 
HETATM    9  N4  UNL     1      -6.480   9.722  13.223  1.00  0.00    -0.388 N 
HETATM   10  C17 UNL     1      -7.367   9.339  14.284  1.00  0.00     0.128 C 
HETATM   11  C18 UNL     1      -6.854   9.687  15.663  1.00  0.00     0.078 C 
ENDROOT
BRANCH   9  12
HETATM   12  C8  UNL     1      -5.698   8.687  12.687  1.00  0.00     0.059 C 
BRANCH  12  13
HETATM   13  C9  UNL     1      -5.833   7.326  13.270  1.00  0.00     0.049 C 
BRANCH  13  14
HETATM   14  C10 UNL     1      -4.466   6.936  13.844  1.00  0.00    -0.010 C 
HETATM   15  C11 UNL     1      -4.609   6.507  15.293  1.00  0.00     0.005 C 
HETATM   16  C12 UNL     1      -3.385   5.712  15.698  1.00  0.00     0.000 C 
HETATM   17  C13 UNL     1      -2.156   6.606  15.725  1.00  0.00     0.000 C 
HETATM   18  C14 UNL     1      -1.627   6.651  14.309  1.00  0.00     0.000 C 
HETATM   19  C15 UNL     1      -2.140   7.865  13.613  1.00  0.00     0.000 C 
HETATM   20  C16 UNL     1      -3.586   8.155  13.833  1.00  0.00     0.005 C 
ENDBRANCH  13  14
ENDBRANCH  12  13
ENDBRANCH   9  12
BRANCH   8  21
HETATM   21  C6  UNL     1      -4.894  11.399  12.404  1.00  0.00     0.125 C 
BRANCH  21  22
HETATM   22  C7  UNL     1      -5.576  11.995  11.229  1.00  0.00     0.233 C 
HETATM   23  N3  UNL     1      -5.538  11.290   9.984  1.00  0.00    -0.062 NA
HETATM   24  O1  UNL     1      -6.183  13.107  11.319  1.00  0.00    -0.277 OA
ENDBRANCH  21  22
ENDBRANCH   8  21
BRANCH   1  25
HETATM   25  N1  UNL     1      -8.319  13.259  18.599  1.00  0.00    -0.380 N 
ATOM     26  H12 UNL     1      -7.804  13.296  19.479  1.00  0.00     0.158 HD
ATOM     27  H11 UNL     1      -9.187  13.746  18.820  1.00  0.00     0.158 HD
ENDBRANCH   1  25
TORSDOF 6
ENDMDL
MODEL 3
REMARK VINA RESULT: -5.370681924      2.880      5.904
REMARK  6 active torsions:
REMARK  status: ('A' for Active; 'I' for Inactive)
REMARK    1  A    between atoms: N1_1  and  C1_4 
REMARK    2  A    between atoms: C5_11  and  C6_12 
REMARK    3  A    between atoms: C6_12  and  C7_13 
REMARK    4  A    between atoms: N4_16  and  C8_17 
REMARK    5  A    between atoms: C8_17  and  C9_18 
REMARK    6  A    between atoms: C9_18  and  C10_19 
ROOT
HETATM    1  C1  UNL     1      -8.525  10.812  17.567  1.00  0.00     0.142 A 
HETATM    2  N2  UNL     1      -7.832   9.755  17.148  1.00  0.00    -0.339 N 
ATOM      3  H2  UNL     1      -7.681   8.957  17.765  1.00  0.00     0.168 HD
HETATM    4  C2  UNL     1      -7.351   9.758  15.939  1.00  0.00     0.026 A 
HETATM    5  C3  UNL     1      -7.590  10.861  15.164  1.00  0.00     0.011 A 
HETATM    6  S1  UNL     1      -8.500  11.850  16.213  1.00  0.00    -0.057 SA
HETATM    7  C4  UNL     1      -7.169  11.150  13.745  1.00  0.00     0.074 C 
HETATM    8  C5  UNL     1      -5.815  10.498  13.569  1.00  0.00     0.096 C 
HETATM    9  N4  UNL     1      -6.051   9.185  13.058  1.00  0.00    -0.388 N 
HETATM   10  C17 UNL     1      -6.865   8.389  13.932  1.00  0.00     0.128 C 
HETATM   11  C18 UNL     1      -6.548   8.576  15.398  1.00  0.00     0.078 C 
ENDROOT
BRANCH   9  12
HETATM   12  C8  UNL     1      -4.990   8.508  12.438  1.00  0.00     0.059 C 
BRANCH  12  13
HETATM   13  C9  UNL     1      -3.603   8.962  12.719  1.00  0.00     0.049 C 
BRANCH  13  14
HETATM   14  C10 UNL     1      -3.095   8.163  13.925  1.00  0.00    -0.010 C 
HETATM   15  C11 UNL     1      -1.587   7.997  13.847  1.00  0.00     0.005 C 
HETATM   16  C12 UNL     1      -1.057   7.629  15.217  1.00  0.00     0.000 C 
HETATM   17  C13 UNL     1      -1.534   6.242  15.615  1.00  0.00     0.000 C 
HETATM   18  C14 UNL     1      -2.908   6.418  16.222  1.00  0.00     0.000 C 
HETATM   19  C15 UNL     1      -3.955   6.168  15.192  1.00  0.00     0.000 C 
HETATM   20  C16 UNL     1      -3.690   6.784  13.860  1.00  0.00     0.005 C 
ENDBRANCH  13  14
ENDBRANCH  12  13
ENDBRANCH   9  12
BRANCH   8  21
HETATM   21  C6  UNL     1      -4.928  11.336  12.724  1.00  0.00     0.125 C 
BRANCH  21  22
HETATM   22  C7  UNL     1      -5.662  11.919  11.575  1.00  0.00     0.233 C 
HETATM   23  N3  UNL     1      -5.536  11.293  10.293  1.00  0.00    -0.062 NA
HETATM   24  O1  UNL     1      -6.388  12.950  11.716  1.00  0.00    -0.277 OA
ENDBRANCH  21  22
ENDBRANCH   8  21
BRANCH   1  25
HETATM   25  N1  UNL     1      -9.091  11.009  18.735  1.00  0.00    -0.380 N 
ATOM     26  H12 UNL     1      -8.680  10.908  19.664  1.00  0.00     0.158 HD
ATOM     27  H11 UNL     1     -10.047  11.299  18.936  1.00  0.00     0.158 HD
ENDBRANCH   1  25
TORSDOF 6
ENDMDL
MODEL 4
REMARK VINA RESULT: -5.353398826      2.810      5.759
REMARK  6 active torsions:
REMARK  status: ('A' for Active; 'I' for Inactive)
REMARK    1  A    between atoms: N1_1  and  C1_4 
REMARK    2  A    between atoms: C5_11  and  C6_12 
REMARK    3  A    between atoms: C6_12  and  C7_13 
REMARK    4  A    between atoms: N4_16  and  C8_17 
REMARK    5  A    between atoms: C8_17  and  C9_18 
REMARK    6  A    between atoms: C9_18  and  C10_19 
ROOT
HETATM    1  C1  UNL     1      -8.414  10.878  17.467  1.00  0.00     0.142 A 
HETATM    2  N2  UNL     1      -7.787   9.775  17.064  1.00  0.00    -0.339 N 
ATOM      3  H2  UNL     1      -7.693   8.974  17.689  1.00  0.00     0.168 HD
HETATM    4  C2  UNL     1      -7.295   9.736  15.860  1.00  0.00     0.026 A 
HETATM    5  C3  UNL     1      -7.455  10.846  15.073  1.00  0.00     0.011 A 
HETATM    6  S1  UNL     1      -8.310  11.899  16.105  1.00  0.00    -0.057 SA
HETATM    7  C4  UNL     1      -7.002  11.095  13.657  1.00  0.00     0.074 C 
HETATM    8  C5  UNL     1      -5.691  10.356  13.499  1.00  0.00     0.096 C 
HETATM    9  N4  UNL     1      -6.006   9.056  12.997  1.00  0.00    -0.388 N 
HETATM   10  C17 UNL     1      -6.877   8.322  13.869  1.00  0.00     0.128 C 
HETATM   11  C18 UNL     1      -6.563   8.501  15.337  1.00  0.00     0.078 C 
ENDROOT
BRANCH   9  12
HETATM   12  C8  UNL     1      -4.984   8.307  12.393  1.00  0.00     0.059 C 
BRANCH  12  13
HETATM   13  C9  UNL     1      -3.575   8.716  12.632  1.00  0.00     0.049 C 
BRANCH  13  14
HETATM   14  C10 UNL     1      -2.989   7.751  13.669  1.00  0.00    -0.010 C 
HETATM   15  C11 UNL     1      -4.097   7.161  14.523  1.00  0.00     0.005 C 
HETATM   16  C12 UNL     1      -3.586   5.910  15.205  1.00  0.00     0.000 C 
HETATM   17  C13 UNL     1      -2.518   6.262  16.228  1.00  0.00     0.000 C 
HETATM   18  C14 UNL     1      -1.212   6.352  15.471  1.00  0.00     0.000 C 
HETATM   19  C15 UNL     1      -0.929   7.772  15.112  1.00  0.00     0.000 C 
HETATM   20  C16 UNL     1      -2.098   8.536  14.592  1.00  0.00     0.005 C 
ENDBRANCH  13  14
ENDBRANCH  12  13
ENDBRANCH   9  12
BRANCH   8  21
HETATM   21  C6  UNL     1      -4.745  11.128  12.657  1.00  0.00     0.125 C 
BRANCH  21  22
HETATM   22  C7  UNL     1      -5.426  11.733  11.487  1.00  0.00     0.233 C 
HETATM   23  N3  UNL     1      -5.292  11.096  10.212  1.00  0.00    -0.062 NA
HETATM   24  O1  UNL     1      -6.114  12.794  11.605  1.00  0.00    -0.277 OA
ENDBRANCH  21  22
ENDBRANCH   8  21
BRANCH   1  25
HETATM   25  N1  UNL     1      -8.977  11.120  18.628  1.00  0.00    -0.380 N 
ATOM     26  H12 UNL     1      -8.553  11.509  19.470  1.00  0.00     0.158 HD
ATOM     27  H11 UNL     1      -9.946  10.966  18.908  1.00  0.00     0.158 HD
ENDBRANCH   1  25
TORSDOF 6
ENDMDL
MODEL 5
REMARK VINA RESULT: -5.198607338      2.800      6.156
REMARK  6 active torsions:
REMARK  status: ('A' for Active; 'I' for Inactive)
REMARK    1  A    between atoms: N1_1  and  C1_4 
REMARK    2  A    between atoms: C5_11  and  C6_12 
REMARK    3  A    between atoms: C6_12  and  C7_13 
REMARK    4  A    between atoms: N4_16  and  C8_17 
REMARK    5  A    between atoms: C8_17  and  C9_18 
REMARK    6  A    between atoms: C9_18  and  C10_19 
ROOT
HETATM    1  C1  UNL     1      -8.079  12.763  17.579  1.00  0.00     0.142 A 
HETATM    2  N2  UNL     1      -7.821  11.464  17.443  1.00  0.00    -0.339 N 
ATOM      3  H2  UNL     1      -7.919  10.830  18.236  1.00  0.00     0.168 HD
HETATM    4  C2  UNL     1      -7.443  11.017  16.281  1.00  0.00     0.026 A 
HETATM    5  C3  UNL     1      -7.332  11.922  15.259  1.00  0.00     0.011 A 
HETATM    6  S1  UNL     1      -7.779  13.381  16.019  1.00  0.00    -0.057 SA
HETATM    7  C4  UNL     1      -6.923  11.707  13.824  1.00  0.00     0.074 C 
HETATM    8  C5  UNL     1      -5.891  10.601  13.843  1.00  0.00     0.096 C 
HETATM    9  N4  UNL     1      -6.597   9.373  13.654  1.00  0.00    -0.388 N 
HETATM   10  C17 UNL     1      -7.582   9.139  14.672  1.00  0.00     0.128 C 
HETATM   11  C18 UNL     1      -7.132   9.538  16.058  1.00  0.00     0.078 C 
ENDROOT
BRANCH   9  12
HETATM   12  C8  UNL     1      -5.875   8.243  13.241  1.00  0.00     0.059 C 
BRANCH  12  13
HETATM   13  C9  UNL     1      -5.569   7.194  14.248  1.00  0.00     0.049 C 
BRANCH  13  14
HETATM   14  C10 UNL     1      -4.089   7.335  14.621  1.00  0.00    -0.010 C 
HETATM   15  C11 UNL     1      -3.271   7.695  13.393  1.00  0.00     0.005 C 
HETATM   16  C12 UNL     1      -1.940   8.267  13.833  1.00  0.00     0.000 C 
HETATM   17  C13 UNL     1      -1.097   7.195  14.505  1.00  0.00     0.000 C 
HETATM   18  C14 UNL     1      -1.529   7.154  15.953  1.00  0.00     0.000 C 
HETATM   19  C15 UNL     1      -2.540   6.076  16.151  1.00  0.00     0.000 C 
HETATM   20  C16 UNL     1      -3.594   5.998  15.099  1.00  0.00     0.005 C 
ENDBRANCH  13  14
ENDBRANCH  12  13
ENDBRANCH   9  12
BRANCH   8  21
HETATM   21  C6  UNL     1      -4.822  10.855  12.845  1.00  0.00     0.125 C 
BRANCH  21  22
HETATM   22  C7  UNL     1      -5.372  11.422  11.590  1.00  0.00     0.233 C 
HETATM   23  N3  UNL     1      -5.312  10.633  10.398  1.00  0.00    -0.062 NA
HETATM   24  O1  UNL     1      -5.885  12.583  11.566  1.00  0.00    -0.277 OA
ENDBRANCH  21  22
ENDBRANCH   8  21
BRANCH   1  25
HETATM   25  N1  UNL     1      -8.471  13.411  18.652  1.00  0.00    -0.380 N 
ATOM     26  H12 UNL     1      -8.096  13.354  19.600  1.00  0.00     0.158 HD
ATOM     27  H11 UNL     1      -9.223  14.093  18.743  1.00  0.00     0.158 HD
ENDBRANCH   1  25
TORSDOF 6
ENDMDL
