MODEL 1
REMARK VINA RESULT: -6.752479092      0.000      0.000
REMARK  7 active torsions:
REMARK  status: ('A' for Active; 'I' for Inactive)
REMARK    1  A    between atoms: C2_2  and  C3_3 
REMARK    2  A    between atoms: C5_6  and  N1_7 
REMARK       I    between atoms: N1_7  and  C6_9 
REMARK    3  A    between atoms: C6_9  and  C7_11 
REMARK    4  A    between atoms: C7_11  and  C8_12 
REMARK    5  A    between atoms: C15_23  and  C16_24 
REMARK    6  A    between atoms: C16_24  and  C17_25 
REMARK    7  A    between atoms: C17_25  and  O3_28 
ROOT
HETATM    1  C3  UNL     1       8.809   9.505  18.418  1.00  0.00     0.087 C 
HETATM    2  C4  UNL     1      10.250   9.631  18.871  1.00  0.00     0.049 C 
HETATM    3  O1  UNL     1       8.064   9.019  19.488  1.00  0.00    -0.309 OA
HETATM    4  C5  UNL     1       8.255   7.618  19.487  1.00  0.00     0.223 C 
HETATM    5  N3  UNL     1       8.631   7.236  18.314  1.00  0.00    -0.348 N 
ATOM      6  H3  UNL     1       8.836   6.272  18.048  1.00  0.00     0.163 HD
HETATM    7  C15 UNL     1       8.719   8.382  17.428  1.00  0.00     0.122 C 
ENDROOT
BRANCH   4   8
HETATM    8  N1  UNL     1       8.069   6.744  20.597  1.00  0.00    -0.293 N 
HETATM    9  C6  UNL     1       6.921   5.909  20.715  1.00  0.00     0.226 C 
HETATM   10  O2  UNL     1       6.067   5.974  19.790  1.00  0.00    -0.273 OA
ATOM     11  H1  UNL     1       8.778   6.716  21.329  1.00  0.00     0.172 HD
BRANCH   9  12
HETATM   12  C7  UNL     1       6.790   5.025  21.895  1.00  0.00     0.128 C 
BRANCH  12  13
HETATM   13  C8  UNL     1       6.260   5.722  23.110  1.00  0.00     0.093 C 
HETATM   14  N2  UNL     1       5.005   6.359  22.905  1.00  0.00    -0.416 N 
HETATM   15  C9  UNL     1       3.985   5.534  22.367  1.00  0.00     0.114 C 
ATOM     16  H2  UNL     1       4.850   7.342  23.130  1.00  0.00     0.153 HD
HETATM   17  C10 UNL     1       3.828   4.204  23.008  1.00  0.00     0.020 C 
HETATM   18  C11 UNL     1       4.986   3.668  23.759  1.00  0.00     0.012 C 
HETATM   19  C12 UNL     1       5.999   4.685  24.217  1.00  0.00    -0.027 C 
HETATM   20  C13 UNL     1       5.416   5.414  25.409  1.00  0.00     0.017 C 
HETATM   21  C14 UNL     1       7.281   4.034  24.637  1.00  0.00     0.017 C 
ENDBRANCH  12  13
ENDBRANCH   9  12
ENDBRANCH   4   8
BRANCH   1  22
HETATM   22  C2  UNL     1       8.367  10.825  17.889  1.00  0.00     0.036 C 
HETATM   23  C1  UNL     1       7.366  11.540  18.727  1.00  0.00     0.008 C 
ENDBRANCH   1  22
BRANCH   7  24
HETATM   24  C16 UNL     1       9.949   8.351  16.561  1.00  0.00     0.065 C 
BRANCH  24  25
HETATM   25  C17 UNL     1       9.631   8.186  15.105  1.00  0.00     0.052 C 
HETATM   26  C18 UNL     1      10.858   8.071  14.236  1.00  0.00     0.045 C 
HETATM   27  C19 UNL     1       8.740   9.251  14.557  1.00  0.00     0.045 C 
BRANCH  25  28
HETATM   28  O3  UNL     1       8.941   6.962  14.977  1.00  0.00    -0.391 OA
ATOM     29  H3  UNL     1       8.490   6.988  14.141  1.00  0.00     0.210 HD
ENDBRANCH  25  28
ENDBRANCH  24  25
ENDBRANCH   7  24
TORSDOF 7
ENDMDL
MODEL 2
REMARK VINA RESULT: -6.618600189      1.591      2.541
REMARK  7 active torsions:
REMARK  status: ('A' for Active; 'I' for Inactive)
REMARK    1  A    between atoms: C2_2  and  C3_3 
REMARK    2  A    between atoms: C5_6  and  N1_7 
REMARK       I    between atoms: N1_7  and  C6_9 
REMARK    3  A    between atoms: C6_9  and  C7_11 
REMARK    4  A    between atoms: C7_11  and  C8_12 
REMARK    5  A    between atoms: C15_23  and  C16_24 
REMARK    6  A    between atoms: C16_24  and  C17_25 
REMARK    7  A    between atoms: C17_25  and  O3_28 
ROOT
HETATM    1  C3  UNL     1      10.517   8.257  17.792  1.00  0.00     0.087 C 
HETATM    2  C4  UNL     1      10.496   6.793  17.397  1.00  0.00     0.049 C 
HETATM    3  O1  UNL     1      10.435   8.328  19.179  1.00  0.00    -0.309 OA
HETATM    4  C5  UNL     1       9.063   8.195  19.493  1.00  0.00     0.223 C 
HETATM    5  N3  UNL     1       8.354   8.509  18.462  1.00  0.00    -0.348 N 
ATOM      6  H3  UNL     1       7.334   8.497  18.426  1.00  0.00     0.163 HD
HETATM    7  C15 UNL     1       9.223   8.883  17.362  1.00  0.00     0.122 C 
ENDROOT
BRANCH   4   8
HETATM    8  N1  UNL     1       8.524   7.780  20.745  1.00  0.00    -0.293 N 
HETATM    9  C6  UNL     1       7.519   6.775  20.838  1.00  0.00     0.226 C 
HETATM   10  O2  UNL     1       7.120   6.262  19.758  1.00  0.00    -0.273 OA
ATOM     11  H1  UNL     1       8.868   8.216  21.600  1.00  0.00     0.172 HD
BRANCH   9  12
HETATM   12  C7  UNL     1       7.003   6.392  22.171  1.00  0.00     0.128 C 
BRANCH  12  13
HETATM   13  C8  UNL     1       6.364   5.037  22.200  1.00  0.00     0.093 C 
HETATM   14  N2  UNL     1       7.165   4.038  22.819  1.00  0.00    -0.416 N 
HETATM   15  C9  UNL     1       7.633   4.354  24.120  1.00  0.00     0.114 C 
ATOM     16  H2  UNL     1       7.388   3.155  22.358  1.00  0.00     0.153 HD
HETATM   17  C10 UNL     1       6.617   4.900  25.054  1.00  0.00     0.020 C 
HETATM   18  C11 UNL     1       5.406   5.514  24.462  1.00  0.00     0.012 C 
HETATM   19  C12 UNL     1       5.083   5.097  23.050  1.00  0.00    -0.027 C 
HETATM   20  C13 UNL     1       4.494   3.704  23.103  1.00  0.00     0.017 C 
HETATM   21  C14 UNL     1       4.080   6.016  22.422  1.00  0.00     0.017 C 
ENDBRANCH  12  13
ENDBRANCH   9  12
ENDBRANCH   4   8
BRANCH   1  22
HETATM   22  C2  UNL     1      11.728   8.885  17.197  1.00  0.00     0.036 C 
HETATM   23  C1  UNL     1      11.724  10.374  17.178  1.00  0.00     0.008 C 
ENDBRANCH   1  22
BRANCH   7  24
HETATM   24  C16 UNL     1       8.775   8.304  16.047  1.00  0.00     0.065 C 
BRANCH  24  25
HETATM   25  C17 UNL     1       8.626   9.342  14.975  1.00  0.00     0.052 C 
HETATM   26  C18 UNL     1       9.807   9.406  14.040  1.00  0.00     0.045 C 
HETATM   27  C19 UNL     1       8.339  10.711  15.496  1.00  0.00     0.045 C 
BRANCH  25  28
HETATM   28  O3  UNL     1       7.521   8.958  14.188  1.00  0.00    -0.391 OA
ATOM     29  H3  UNL     1       7.791   8.196  13.689  1.00  0.00     0.210 HD
ENDBRANCH  25  28
ENDBRANCH  24  25
ENDBRANCH   7  24
TORSDOF 7
ENDMDL
MODEL 3
REMARK VINA RESULT: -6.613374636      1.486      1.953
REMARK  7 active torsions:
REMARK  status: ('A' for Active; 'I' for Inactive)
REMARK    1  A    between atoms: C2_2  and  C3_3 
REMARK    2  A    between atoms: C5_6  and  N1_7 
REMARK       I    between atoms: N1_7  and  C6_9 
REMARK    3  A    between atoms: C6_9  and  C7_11 
REMARK    4  A    between atoms: C7_11  and  C8_12 
REMARK    5  A    between atoms: C15_23  and  C16_24 
REMARK    6  A    between atoms: C16_24  and  C17_25 
REMARK    7  A    between atoms: C17_25  and  O3_28 
ROOT
HETATM    1  C3  UNL     1      10.854   7.430  17.922  1.00  0.00     0.087 C 
HETATM    2  C4  UNL     1      11.354   6.181  17.225  1.00  0.00     0.049 C 
HETATM    3  O1  UNL     1      10.352   7.056  19.164  1.00  0.00    -0.309 OA
HETATM    4  C5  UNL     1       9.040   6.585  18.926  1.00  0.00     0.223 C 
HETATM    5  N3  UNL     1       8.607   7.066  17.809  1.00  0.00    -0.348 N 
ATOM      6  H3  UNL     1       7.688   6.879  17.408  1.00  0.00     0.163 HD
HETATM    7  C15 UNL     1       9.624   7.911  17.210  1.00  0.00     0.122 C 
ENDROOT
BRANCH   4   8
HETATM    8  N1  UNL     1       8.293   5.716  19.771  1.00  0.00    -0.293 N 
HETATM    9  C6  UNL     1       7.490   6.208  20.839  1.00  0.00     0.226 C 
HETATM   10  O2  UNL     1       7.465   7.456  21.010  1.00  0.00    -0.273 OA
ATOM     11  H1  UNL     1       8.335   4.710  19.607  1.00  0.00     0.172 HD
BRANCH   9  12
HETATM   12  C7  UNL     1       6.739   5.248  21.679  1.00  0.00     0.128 C 
BRANCH  12  13
HETATM   13  C8  UNL     1       6.242   5.837  22.964  1.00  0.00     0.093 C 
HETATM   14  N2  UNL     1       4.985   6.492  22.847  1.00  0.00    -0.416 N 
HETATM   15  C9  UNL     1       3.949   5.719  22.264  1.00  0.00     0.114 C 
ATOM     16  H2  UNL     1       4.839   7.452  23.160  1.00  0.00     0.153 HD
HETATM   17  C10 UNL     1       3.801   4.339  22.789  1.00  0.00     0.020 C 
HETATM   18  C11 UNL     1       4.976   3.737  23.461  1.00  0.00     0.012 C 
HETATM   19  C12 UNL     1       6.004   4.708  23.982  1.00  0.00    -0.027 C 
HETATM   20  C13 UNL     1       5.452   5.331  25.247  1.00  0.00     0.017 C 
HETATM   21  C14 UNL     1       7.293   4.020  24.312  1.00  0.00     0.017 C 
ENDBRANCH  12  13
ENDBRANCH   9  12
ENDBRANCH   4   8
BRANCH   1  22
HETATM   22  C2  UNL     1      11.965   8.421  17.961  1.00  0.00     0.036 C 
HETATM   23  C1  UNL     1      11.560   9.812  18.306  1.00  0.00     0.008 C 
ENDBRANCH   1  22
BRANCH   7  24
HETATM   24  C16 UNL     1       9.760   7.691  15.727  1.00  0.00     0.065 C 
BRANCH  24  25
HETATM   25  C17 UNL     1       9.047   8.732  14.918  1.00  0.00     0.052 C 
HETATM   26  C18 UNL     1       9.446   8.733  13.464  1.00  0.00     0.045 C 
HETATM   27  C19 UNL     1       9.178  10.116  15.462  1.00  0.00     0.045 C 
BRANCH  25  28
HETATM   28  O3  UNL     1       7.675   8.403  14.950  1.00  0.00    -0.391 OA
ATOM     29  H3  UNL     1       7.540   7.731  14.293  1.00  0.00     0.210 HD
ENDBRANCH  25  28
ENDBRANCH  24  25
ENDBRANCH   7  24
TORSDOF 7
ENDMDL
MODEL 4
REMARK VINA RESULT: -6.583797670      1.621      2.493
REMARK  7 active torsions:
REMARK  status: ('A' for Active; 'I' for Inactive)
REMARK    1  A    between atoms: C2_2  and  C3_3 
REMARK    2  A    between atoms: C5_6  and  N1_7 
REMARK       I    between atoms: N1_7  and  C6_9 
REMARK    3  A    between atoms: C6_9  and  C7_11 
REMARK    4  A    between atoms: C7_11  and  C8_12 
REMARK    5  A    between atoms: C15_23  and  C16_24 
REMARK    6  A    between atoms: C16_24  and  C17_25 
REMARK    7  A    between atoms: C17_25  and  O3_28 
ROOT
HETATM    1  C3  UNL     1      11.095   8.257  18.630  1.00  0.00     0.087 C 
HETATM    2  C4  UNL     1      11.532   6.812  18.766  1.00  0.00     0.049 C 
HETATM    3  O1  UNL     1      10.475   8.630  19.819  1.00  0.00    -0.309 OA
HETATM    4  C5  UNL     1       9.148   8.151  19.730  1.00  0.00     0.223 C 
HETATM    5  N3  UNL     1       8.838   7.969  18.491  1.00  0.00    -0.348 N 
ATOM      6  H3  UNL     1       7.937   7.628  18.155  1.00  0.00     0.163 HD
HETATM    7  C15 UNL     1       9.964   8.321  17.645  1.00  0.00     0.122 C 
ENDROOT
BRANCH   4   8
HETATM    8  N1  UNL     1       8.269   7.902  20.823  1.00  0.00    -0.293 N 
HETATM    9  C6  UNL     1       7.777   6.597  21.114  1.00  0.00     0.226 C 
HETATM   10  O2  UNL     1       8.152   5.662  20.357  1.00  0.00    -0.273 OA
ATOM     11  H1  UNL     1       7.984   8.681  21.417  1.00  0.00     0.172 HD
BRANCH   9  12
HETATM   12  C7  UNL     1       6.867   6.409  22.265  1.00  0.00     0.128 C 
BRANCH  12  13
HETATM   13  C8  UNL     1       6.145   5.096  22.251  1.00  0.00     0.093 C 
HETATM   14  N2  UNL     1       6.903   4.018  22.787  1.00  0.00    -0.416 N 
HETATM   15  C9  UNL     1       7.436   4.235  24.083  1.00  0.00     0.114 C 
ATOM     16  H2  UNL     1       7.052   3.149  22.274  1.00  0.00     0.153 HD
HETATM   17  C10 UNL     1       6.491   4.793  25.082  1.00  0.00     0.020 C 
HETATM   18  C11 UNL     1       5.301   5.510  24.570  1.00  0.00     0.012 C 
HETATM   19  C12 UNL     1       4.902   5.189  23.153  1.00  0.00    -0.027 C 
HETATM   20  C13 UNL     1       4.228   3.835  23.157  1.00  0.00     0.017 C 
HETATM   21  C14 UNL     1       3.938   6.200  22.611  1.00  0.00     0.017 C 
ENDBRANCH  12  13
ENDBRANCH   9  12
ENDBRANCH   4   8
BRANCH   1  22
HETATM   22  C2  UNL     1      12.282   9.072  18.254  1.00  0.00     0.036 C 
HETATM   23  C1  UNL     1      11.974  10.407  17.671  1.00  0.00     0.008 C 
ENDBRANCH   1  22
BRANCH   7  24
HETATM   24  C16 UNL     1      10.186   7.332  16.533  1.00  0.00     0.065 C 
BRANCH  24  25
HETATM   25  C17 UNL     1      10.153   7.967  15.175  1.00  0.00     0.052 C 
HETATM   26  C18 UNL     1      11.520   8.135  14.563  1.00  0.00     0.045 C 
HETATM   27  C19 UNL     1       9.435   9.275  15.138  1.00  0.00     0.045 C 
BRANCH  25  28
HETATM   28  O3  UNL     1       9.448   7.084  14.331  1.00  0.00    -0.391 OA
ATOM     29  H3  UNL     1      10.090   6.490  13.959  1.00  0.00     0.210 HD
ENDBRANCH  25  28
ENDBRANCH  24  25
ENDBRANCH   7  24
TORSDOF 7
ENDMDL
MODEL 5
REMARK VINA RESULT: -6.553991409      1.926      8.205
REMARK  7 active torsions:
REMARK  status: ('A' for Active; 'I' for Inactive)
REMARK    1  A    between atoms: C2_2  and  C3_3 
REMARK    2  A    between atoms: C5_6  and  N1_7 
REMARK       I    between atoms: N1_7  and  C6_9 
REMARK    3  A    between atoms: C6_9  and  C7_11 
REMARK    4  A    between atoms: C7_11  and  C8_12 
REMARK    5  A    between atoms: C15_23  and  C16_24 
REMARK    6  A    between atoms: C16_24  and  C17_25 
REMARK    7  A    between atoms: C17_25  and  O3_28 
ROOT
HETATM    1  C3  UNL     1       8.158   5.518  22.684  1.00  0.00     0.087 C 
HETATM    2  C4  UNL     1       7.869   6.879  23.286  1.00  0.00     0.049 C 
HETATM    3  O1  UNL     1       9.044   5.698  21.626  1.00  0.00    -0.309 OA
HETATM    4  C5  UNL     1       8.253   6.092  20.522  1.00  0.00     0.223 C 
HETATM    5  N3  UNL     1       7.033   5.719  20.712  1.00  0.00    -0.348 N 
ATOM      6  H3  UNL     1       6.262   5.882  20.064  1.00  0.00     0.163 HD
HETATM    7  C15 UNL     1       6.920   5.035  21.987  1.00  0.00     0.122 C 
ENDROOT
BRANCH   4   8
HETATM    8  N1  UNL     1       8.711   6.791  19.368  1.00  0.00    -0.293 N 
HETATM    9  C6  UNL     1       8.634   8.209  19.266  1.00  0.00     0.226 C 
HETATM   10  O2  UNL     1       8.141   8.829  20.246  1.00  0.00    -0.273 OA
ATOM     11  H1  UNL     1       9.104   6.260  18.591  1.00  0.00     0.172 HD
BRANCH   9  12
HETATM   12  C7  UNL     1       9.127   8.872  18.038  1.00  0.00     0.128 C 
BRANCH  12  13
HETATM   13  C8  UNL     1       8.921   8.061  16.795  1.00  0.00     0.093 C 
HETATM   14  N2  UNL     1       7.738   8.397  16.080  1.00  0.00    -0.416 N 
HETATM   15  C9  UNL     1       7.590   9.771  15.762  1.00  0.00     0.114 C 
ATOM     16  H2  UNL     1       7.045   7.698  15.814  1.00  0.00     0.153 HD
HETATM   17  C10 UNL     1       8.788  10.431  15.184  1.00  0.00     0.020 C 
HETATM   18  C11 UNL     1      10.103   9.800  15.438  1.00  0.00     0.012 C 
HETATM   19  C12 UNL     1      10.069   8.340  15.809  1.00  0.00    -0.027 C 
HETATM   20  C13 UNL     1       9.802   7.548  14.548  1.00  0.00     0.017 C 
HETATM   21  C14 UNL     1      11.376   7.889  16.388  1.00  0.00     0.017 C 
ENDBRANCH  12  13
ENDBRANCH   9  12
ENDBRANCH   4   8
BRANCH   1  22
HETATM   22  C2  UNL     1       8.641   4.619  23.767  1.00  0.00     0.036 C 
HETATM   23  C1  UNL     1       9.945   5.004  24.374  1.00  0.00     0.008 C 
ENDBRANCH   1  22
BRANCH   7  24
HETATM   24  C16 UNL     1       5.694   5.444  22.759  1.00  0.00     0.065 C 
BRANCH  24  25
HETATM   25  C17 UNL     1       5.006   4.285  23.415  1.00  0.00     0.052 C 
HETATM   26  C18 UNL     1       3.539   4.196  23.081  1.00  0.00     0.045 C 
HETATM   27  C19 UNL     1       5.174   4.244  24.898  1.00  0.00     0.045 C 
BRANCH  25  28
HETATM   28  O3  UNL     1       5.600   3.115  22.898  1.00  0.00    -0.391 OA
ATOM     29  H3  UNL     1       4.898   2.491  22.757  1.00  0.00     0.210 HD
ENDBRANCH  25  28
ENDBRANCH  24  25
ENDBRANCH   7  24
TORSDOF 7
ENDMDL
