MODEL 1
REMARK VINA RESULT: -8.420569329      0.000      0.000
REMARK  3 active torsions:
REMARK  status: ('A' for Active; 'I' for Inactive)
REMARK    1  A    between atoms: C1_2  and  C2_4 
REMARK    2  A    between atoms: C2_4  and  N1_5 
REMARK    3  A    between atoms: C2_4  and  C8_14 
REMARK       I    between atoms: N1_5  and  C3_7 
REMARK       I    between atoms: C3_7  and  N2_9 
REMARK       I    between atoms: C8_14  and  N3_16 
ROOT
HETATM    1  C2  UNL     1      17.666   0.752  11.881  1.00  0.00     0.280 C 
ENDROOT
BRANCH   1   2
HETATM    2  C1  UNL     1      16.533   1.071  10.945  1.00  0.00     0.206 C 
HETATM    3  O1  UNL     1      15.643   1.903  11.171  1.00  0.00    -0.646 OA
HETATM    4  O2  UNL     1      16.462   0.384   9.724  1.00  0.00    -0.646 OA
ENDBRANCH   1   2
BRANCH   1   5
HETATM    5  N1  UNL     1      18.598   1.843  11.946  1.00  0.00    -0.320 N 
HETATM    6  C3  UNL     1      19.574   2.168  10.991  1.00  0.00     0.319 C 
HETATM    7  O3  UNL     1      19.706   1.499   9.952  1.00  0.00    -0.247 OA
HETATM    8  N2  UNL     1      20.440   3.303  11.220  1.00  0.00    -0.334 N 
HETATM    9  C4  UNL     1      21.474   3.702  10.296  1.00  0.00     0.127 C 
HETATM   10  C7  UNL     1      20.399   4.188  12.377  1.00  0.00     0.127 C 
HETATM   11  C5  UNL     1      22.239   4.786  11.026  1.00  0.00     0.022 C 
HETATM   12  C6  UNL     1      21.118   5.414  11.844  1.00  0.00     0.022 C 
ATOM     13  H1  UNL     1      18.546   2.441  12.770  1.00  0.00     0.165 HD
ENDBRANCH   1   5
BRANCH   1  14
HETATM   14  C8  UNL     1      17.201   0.336  13.202  1.00  0.00     0.255 C 
HETATM   15  O4  UNL     1      16.946  -0.903  13.340  1.00  0.00    -0.270 OA
HETATM   16  N3  UNL     1      16.999   1.142  14.337  1.00  0.00    -0.319 N 
HETATM   17  C9  UNL     1      17.202   2.558  14.298  1.00  0.00     0.155 C 
HETATM   18  C14 UNL     1      16.574   0.500  15.581  1.00  0.00     0.254 C 
HETATM   19  C10 UNL     1      17.839   3.086  15.565  1.00  0.00     0.188 C 
HETATM   20  O5  UNL     1      18.165   2.079  16.461  1.00  0.00    -0.380 OA
HETATM   21  C11 UNL     1      17.140   1.220  16.778  1.00  0.00     0.172 C 
HETATM   22  C12 UNL     1      15.942   1.846  17.402  1.00  0.00     0.062 C 
HETATM   23  C13 UNL     1      14.799   1.039  16.838  1.00  0.00     0.173 C 
HETATM   24  O6  UNL     1      15.214   0.501  15.646  1.00  0.00    -0.364 OA
ENDBRANCH   1  14
TORSDOF 3
ENDMDL
MODEL 2
REMARK VINA RESULT: -8.189200153      1.951      6.666
REMARK  3 active torsions:
REMARK  status: ('A' for Active; 'I' for Inactive)
REMARK    1  A    between atoms: C1_2  and  C2_4 
REMARK    2  A    between atoms: C2_4  and  N1_5 
REMARK    3  A    between atoms: C2_4  and  C8_14 
REMARK       I    between atoms: N1_5  and  C3_7 
REMARK       I    between atoms: C3_7  and  N2_9 
REMARK       I    between atoms: C8_14  and  N3_16 
ROOT
HETATM    1  C2  UNL     1      17.310   2.601  12.029  1.00  0.00     0.280 C 
ENDROOT
BRANCH   1   2
HETATM    2  C1  UNL     1      16.444   1.888  11.028  1.00  0.00     0.206 C 
HETATM    3  O1  UNL     1      15.206   1.941  11.001  1.00  0.00    -0.646 OA
HETATM    4  O2  UNL     1      17.064   1.099  10.048  1.00  0.00    -0.646 OA
ENDBRANCH   1   2
BRANCH   1   5
HETATM    5  N1  UNL     1      17.036   2.143  13.362  1.00  0.00    -0.320 N 
HETATM    6  C3  UNL     1      16.077   2.664  14.245  1.00  0.00     0.319 C 
HETATM    7  O3  UNL     1      15.346   3.613  13.915  1.00  0.00    -0.247 OA
HETATM    8  N2  UNL     1      15.938   2.084  15.562  1.00  0.00    -0.334 N 
HETATM    9  C4  UNL     1      14.985   2.563  16.535  1.00  0.00     0.127 C 
HETATM   10  C7  UNL     1      16.707   0.964  16.088  1.00  0.00     0.127 C 
HETATM   11  C5  UNL     1      15.326   1.810  17.804  1.00  0.00     0.022 C 
HETATM   12  C6  UNL     1      15.816   0.490  17.222  1.00  0.00     0.022 C 
ATOM     13  H1  UNL     1      17.595   1.360  13.701  1.00  0.00     0.165 HD
ENDBRANCH   1   5
BRANCH   1  14
HETATM   14  C8  UNL     1      18.731   2.526  11.695  1.00  0.00     0.255 C 
HETATM   15  O4  UNL     1      19.376   1.557  12.211  1.00  0.00    -0.270 OA
HETATM   16  N3  UNL     1      19.470   3.397  10.875  1.00  0.00    -0.319 N 
HETATM   17  C9  UNL     1      18.873   4.551  10.275  1.00  0.00     0.155 C 
HETATM   18  C14 UNL     1      20.882   3.099  10.635  1.00  0.00     0.254 C 
HETATM   19  C10 UNL     1      19.371   4.795   8.867  1.00  0.00     0.188 C 
HETATM   20  O5  UNL     1      20.236   3.805   8.425  1.00  0.00    -0.380 OA
HETATM   21  C11 UNL     1      21.298   3.541   9.256  1.00  0.00     0.172 C 
HETATM   22  C12 UNL     1      22.211   4.686   9.522  1.00  0.00     0.062 C 
HETATM   23  C13 UNL     1      22.623   4.473  10.957  1.00  0.00     0.173 C 
HETATM   24  O6  UNL     1      21.641   3.735  11.570  1.00  0.00    -0.364 OA
ENDBRANCH   1  14
TORSDOF 3
ENDMDL
MODEL 3
REMARK VINA RESULT: -8.049913753      1.798      6.349
REMARK  3 active torsions:
REMARK  status: ('A' for Active; 'I' for Inactive)
REMARK    1  A    between atoms: C1_2  and  C2_4 
REMARK    2  A    between atoms: C2_4  and  N1_5 
REMARK    3  A    between atoms: C2_4  and  C8_14 
REMARK       I    between atoms: N1_5  and  C3_7 
REMARK       I    between atoms: C3_7  and  N2_9 
REMARK       I    between atoms: C8_14  and  N3_16 
ROOT
HETATM    1  C2  UNL     1      17.370   1.327  11.725  1.00  0.00     0.280 C 
ENDROOT
BRANCH   1   2
HETATM    2  C1  UNL     1      17.176   0.020  11.007  1.00  0.00     0.206 C 
HETATM    3  O1  UNL     1      16.910  -1.057  11.560  1.00  0.00    -0.646 OA
HETATM    4  O2  UNL     1      17.303  -0.000   9.610  1.00  0.00    -0.646 OA
ENDBRANCH   1   2
BRANCH   1   5
HETATM    5  N1  UNL     1      17.053   1.196  13.120  1.00  0.00    -0.320 N 
HETATM    6  C3  UNL     1      16.279   2.079  13.888  1.00  0.00     0.319 C 
HETATM    7  O3  UNL     1      15.774   3.097  13.386  1.00  0.00    -0.247 OA
HETATM    8  N2  UNL     1      16.064   1.797  15.290  1.00  0.00    -0.334 N 
HETATM    9  C4  UNL     1      15.290   2.655  16.155  1.00  0.00     0.127 C 
HETATM   10  C7  UNL     1      16.576   0.643  16.018  1.00  0.00     0.127 C 
HETATM   11  C5  UNL     1      15.501   2.087  17.543  1.00  0.00     0.022 C 
HETATM   12  C6  UNL     1      15.648   0.606  17.218  1.00  0.00     0.022 C 
ATOM     13  H1  UNL     1      17.430   0.379  13.600  1.00  0.00     0.165 HD
ENDBRANCH   1   5
BRANCH   1  14
HETATM   14  C8  UNL     1      18.698   1.895  11.506  1.00  0.00     0.255 C 
HETATM   15  O4  UNL     1      19.682   1.166  11.854  1.00  0.00    -0.270 OA
HETATM   16  N3  UNL     1      19.018   3.151  10.960  1.00  0.00    -0.319 N 
HETATM   17  C9  UNL     1      18.003   4.083  10.574  1.00  0.00     0.155 C 
HETATM   18  C14 UNL     1      20.429   3.495  10.783  1.00  0.00     0.254 C 
HETATM   19  C10 UNL     1      18.349   4.821   9.300  1.00  0.00     0.188 C 
HETATM   20  O5  UNL     1      19.535   4.383   8.731  1.00  0.00    -0.380 OA
HETATM   21  C11 UNL     1      20.621   4.373   9.573  1.00  0.00     0.172 C 
HETATM   22  C12 UNL     1      20.999   5.688  10.157  1.00  0.00     0.062 C 
HETATM   23  C13 UNL     1      21.474   5.327  11.543  1.00  0.00     0.173 C 
HETATM   24  O6  UNL     1      20.876   4.143  11.895  1.00  0.00    -0.364 OA
ENDBRANCH   1  14
TORSDOF 3
ENDMDL
MODEL 4
REMARK VINA RESULT: -7.921002727      2.055      6.332
REMARK  3 active torsions:
REMARK  status: ('A' for Active; 'I' for Inactive)
REMARK    1  A    between atoms: C1_2  and  C2_4 
REMARK    2  A    between atoms: C2_4  and  N1_5 
REMARK    3  A    between atoms: C2_4  and  C8_14 
REMARK       I    between atoms: N1_5  and  C3_7 
REMARK       I    between atoms: C3_7  and  N2_9 
REMARK       I    between atoms: C8_14  and  N3_16 
ROOT
HETATM    1  C2  UNL     1      17.134   1.693  12.048  1.00  0.00     0.280 C 
ENDROOT
BRANCH   1   2
HETATM    2  C1  UNL     1      17.042   0.425  11.246  1.00  0.00     0.206 C 
HETATM    3  O1  UNL     1      17.155   0.359  10.013  1.00  0.00    -0.646 OA
HETATM    4  O2  UNL     1      16.809  -0.780  11.925  1.00  0.00    -0.646 OA
ENDBRANCH   1   2
BRANCH   1   5
HETATM    5  N1  UNL     1      16.808   1.452  13.426  1.00  0.00    -0.320 N 
HETATM    6  C3  UNL     1      16.012   2.260  14.252  1.00  0.00     0.319 C 
HETATM    7  O3  UNL     1      15.493   3.305  13.824  1.00  0.00    -0.247 OA
HETATM    8  N2  UNL     1      15.791   1.869  15.627  1.00  0.00    -0.334 N 
HETATM    9  C4  UNL     1      14.995   2.646  16.546  1.00  0.00     0.127 C 
HETATM   10  C7  UNL     1      16.317   0.672  16.269  1.00  0.00     0.127 C 
HETATM   11  C5  UNL     1      15.204   1.978  17.889  1.00  0.00     0.022 C 
HETATM   12  C6  UNL     1      15.380   0.528  17.454  1.00  0.00     0.022 C 
ATOM     13  H1  UNL     1      17.195   0.607  13.847  1.00  0.00     0.165 HD
ENDBRANCH   1   5
BRANCH   1  14
HETATM   14  C8  UNL     1      18.421   2.365  11.889  1.00  0.00     0.255 C 
HETATM   15  O4  UNL     1      19.452   1.667  12.152  1.00  0.00    -0.270 OA
HETATM   16  N3  UNL     1      18.656   3.691  11.484  1.00  0.00    -0.319 N 
HETATM   17  C9  UNL     1      17.581   4.593  11.206  1.00  0.00     0.155 C 
HETATM   18  C14 UNL     1      20.040   4.142  11.343  1.00  0.00     0.254 C 
HETATM   19  C10 UNL     1      17.867   5.488  10.020  1.00  0.00     0.188 C 
HETATM   20  O5  UNL     1      19.073   5.191   9.403  1.00  0.00    -0.380 OA
HETATM   21  C11 UNL     1      20.166   5.157  10.235  1.00  0.00     0.172 C 
HETATM   22  C12 UNL     1      20.466   6.422  10.960  1.00  0.00     0.062 C 
HETATM   23  C13 UNL     1      20.976   5.942  12.296  1.00  0.00     0.173 C 
HETATM   24  O6  UNL     1      20.457   4.691  12.517  1.00  0.00    -0.364 OA
ENDBRANCH   1  14
TORSDOF 3
ENDMDL
MODEL 5
REMARK VINA RESULT: -7.848892404      2.539      6.639
REMARK  3 active torsions:
REMARK  status: ('A' for Active; 'I' for Inactive)
REMARK    1  A    between atoms: C1_2  and  C2_4 
REMARK    2  A    between atoms: C2_4  and  N1_5 
REMARK    3  A    between atoms: C2_4  and  C8_14 
REMARK       I    between atoms: N1_5  and  C3_7 
REMARK       I    between atoms: C3_7  and  N2_9 
REMARK       I    between atoms: C8_14  and  N3_16 
ROOT
HETATM    1  C2  UNL     1      16.854   2.882  12.452  1.00  0.00     0.280 C 
ENDROOT
BRANCH   1   2
HETATM    2  C1  UNL     1      16.623   1.826  11.407  1.00  0.00     0.206 C 
HETATM    3  O1  UNL     1      16.216   0.679  11.640  1.00  0.00    -0.646 OA
HETATM    4  O2  UNL     1      16.884   2.144  10.066  1.00  0.00    -0.646 OA
ENDBRANCH   1   2
BRANCH   1   5
HETATM    5  N1  UNL     1      16.597   2.365  13.767  1.00  0.00    -0.320 N 
HETATM    6  C3  UNL     1      15.651   2.846  14.685  1.00  0.00     0.319 C 
HETATM    7  O3  UNL     1      14.915   3.808  14.408  1.00  0.00    -0.247 OA
HETATM    8  N2  UNL     1      15.529   2.208  15.977  1.00  0.00    -0.334 N 
HETATM    9  C4  UNL     1      14.589   2.643  16.983  1.00  0.00     0.127 C 
HETATM   10  C7  UNL     1      16.306   1.067  16.443  1.00  0.00     0.127 C 
HETATM   11  C5  UNL     1      14.947   1.835  18.213  1.00  0.00     0.022 C 
HETATM   12  C6  UNL     1      15.430   0.543  17.566  1.00  0.00     0.022 C 
ATOM     13  H1  UNL     1      17.161   1.569  14.064  1.00  0.00     0.165 HD
ENDBRANCH   1   5
BRANCH   1  14
HETATM   14  C8  UNL     1      18.173   3.500  12.343  1.00  0.00     0.255 C 
HETATM   15  O4  UNL     1      19.155   2.795  12.743  1.00  0.00    -0.270 OA
HETATM   16  N3  UNL     1      18.487   4.780  11.853  1.00  0.00    -0.319 N 
HETATM   17  C9  UNL     1      17.470   5.688  11.419  1.00  0.00     0.155 C 
HETATM   18  C14 UNL     1      19.894   5.176  11.787  1.00  0.00     0.254 C 
HETATM   19  C10 UNL     1      17.880   6.472  10.192  1.00  0.00     0.188 C 
HETATM   20  O5  UNL     1      19.118   6.089   9.699  1.00  0.00    -0.380 OA
HETATM   21  C11 UNL     1      20.141   6.092  10.616  1.00  0.00     0.172 C 
HETATM   22  C12 UNL     1      20.430   7.403  11.258  1.00  0.00     0.062 C 
HETATM   23  C13 UNL     1      20.817   7.019  12.665  1.00  0.00     0.173 C 
HETATM   24  O6  UNL     1      20.238   5.807  12.944  1.00  0.00    -0.364 OA
ENDBRANCH   1  14
TORSDOF 3
ENDMDL
