MODEL 1
REMARK VINA RESULT: -7.395272309      0.000      0.000
REMARK  10 active torsions:
REMARK  status: ('A' for Active; 'I' for Inactive)
REMARK       I    between atoms: C1_2  and  N1_3 
REMARK    1  A    between atoms: C1_2  and  C2_7 
REMARK    2  A    between atoms: N1_3  and  O2_5 
REMARK    3  A    between atoms: C7_12  and  O3_13 
REMARK    4  A    between atoms: O3_13  and  C8_14 
REMARK    5  A    between atoms: C8_14  and  N2_15 
REMARK    6  A    between atoms: C11_18  and  C12_19 
REMARK    7  A    between atoms: C12_19  and  N3_20 
REMARK    8  A    between atoms: C15_23  and  C16_24 
REMARK    9  A    between atoms: C16_24  and  N4_25 
REMARK   10  A    between atoms: N4_25  and  O4_27 
ROOT
HETATM    1  N2  UNL     1       1.630   6.027  84.053  1.00  0.00    -0.344 N 
HETATM    2  C9  UNL     1       0.701   5.078  84.257  1.00  0.00     0.093 A 
HETATM    3  C10 UNL     1       0.273   4.215  83.269  1.00  0.00     0.026 A 
HETATM    4  C11 UNL     1       0.809   4.312  82.002  1.00  0.00    -0.037 A 
HETATM    5  C18 UNL     1       1.761   5.281  81.783  1.00  0.00     0.026 A 
HETATM    6  C19 UNL     1       2.162   6.134  82.821  1.00  0.00     0.093 A 
ENDROOT
BRANCH   1   7
HETATM    7  C8  UNL     1       2.057   6.920  85.123  1.00  0.00     0.305 C 
BRANCH   7   8
HETATM    8  O3  UNL     1       1.016   7.744  85.545  1.00  0.00    -0.331 OA
BRANCH   8   9
HETATM    9  C7  UNL     1       0.779   8.962  84.977  1.00  0.00     0.086 A 
HETATM   10  C2  UNL     1      -0.224   9.175  84.084  1.00  0.00     0.067 A 
HETATM   11  C3  UNL     1      -0.409  10.464  83.538  1.00  0.00     0.020 A 
HETATM   12  C4  UNL     1       0.426  11.478  83.917  1.00  0.00     0.001 A 
HETATM   13  C5  UNL     1       1.436  11.294  84.806  1.00  0.00     0.003 A 
HETATM   14  C6  UNL     1       1.605  10.035  85.331  1.00  0.00     0.038 A 
BRANCH  10  15
HETATM   15  C1  UNL     1      -1.130   8.138  83.653  1.00  0.00     0.277 C 
HETATM   16  O1  UNL     1      -1.073   7.811  82.404  1.00  0.00    -0.265 OA
HETATM   17  N1  UNL     1      -2.045   7.478  84.478  1.00  0.00    -0.233 N 
ATOM     18  H1  UNL     1      -2.142   7.686  85.472  1.00  0.00     0.197 HD
BRANCH  17  19
HETATM   19  O2  UNL     1      -2.818   6.505  83.829  1.00  0.00    -0.287 OA
ATOM     20  H2  UNL     1      -3.688   6.386  84.192  1.00  0.00     0.244 HD
ENDBRANCH  17  19
ENDBRANCH  10  15
ENDBRANCH   8   9
ENDBRANCH   7   8
ENDBRANCH   1   7
BRANCH   4  21
HETATM   21  C12 UNL     1       0.361   3.396  80.946  1.00  0.00     0.171 C 
BRANCH  21  22
HETATM   22  N3  UNL     1       0.336   2.014  81.292  1.00  0.00    -0.305 N 
HETATM   23  C13 UNL     1       1.491   1.381  81.489  1.00  0.00     0.098 A 
HETATM   24  C14 UNL     1       1.505   0.054  81.827  1.00  0.00     0.048 A 
HETATM   25  C15 UNL     1       0.303  -0.607  81.956  1.00  0.00     0.054 A 
HETATM   26  N5  UNL     1      -0.854   0.047  81.753  1.00  0.00    -0.307 N 
HETATM   27  C17 UNL     1      -0.814   1.349  81.424  1.00  0.00     0.327 A 
ATOM     28  H5  UNL     1      -1.747  -0.437  81.848  1.00  0.00     0.170 HD
HETATM   29  O5  UNL     1      -1.950   1.891  81.250  1.00  0.00    -0.246 OA
BRANCH  25  30
HETATM   30  C16 UNL     1       0.284  -2.031  82.316  1.00  0.00     0.143 C 
BRANCH  30  31
HETATM   31  N4  UNL     1       1.254  -2.813  82.070  1.00  0.00    -0.278 N 
ATOM     32  H4  UNL     1       2.155  -2.388  81.852  1.00  0.00     0.193 HD
BRANCH  31  33
HETATM   33  O4  UNL     1       1.188  -4.174  82.072  1.00  0.00    -0.290 OA
ATOM     34  H4  UNL     1       1.883  -4.756  82.357  1.00  0.00     0.244 HD
ENDBRANCH  31  33
ENDBRANCH  30  31
ENDBRANCH  25  30
ENDBRANCH  21  22
ENDBRANCH   4  21
TORSDOF 10
ENDMDL
MODEL 2
REMARK VINA RESULT: -7.358473666      4.627      6.873
REMARK  10 active torsions:
REMARK  status: ('A' for Active; 'I' for Inactive)
REMARK       I    between atoms: C1_2  and  N1_3 
REMARK    1  A    between atoms: C1_2  and  C2_7 
REMARK    2  A    between atoms: N1_3  and  O2_5 
REMARK    3  A    between atoms: C7_12  and  O3_13 
REMARK    4  A    between atoms: O3_13  and  C8_14 
REMARK    5  A    between atoms: C8_14  and  N2_15 
REMARK    6  A    between atoms: C11_18  and  C12_19 
REMARK    7  A    between atoms: C12_19  and  N3_20 
REMARK    8  A    between atoms: C15_23  and  C16_24 
REMARK    9  A    between atoms: C16_24  and  N4_25 
REMARK   10  A    between atoms: N4_25  and  O4_27 
ROOT
HETATM    1  N2  UNL     1       0.358   1.795  82.833  1.00  0.00    -0.344 N 
HETATM    2  C9  UNL     1      -0.007   3.048  82.514  1.00  0.00     0.093 A 
HETATM    3  C10 UNL     1       0.542   3.748  81.459  1.00  0.00     0.026 A 
HETATM    4  C11 UNL     1       1.514   3.156  80.681  1.00  0.00    -0.037 A 
HETATM    5  C18 UNL     1       1.894   1.872  81.001  1.00  0.00     0.026 A 
HETATM    6  C19 UNL     1       1.306   1.204  82.083  1.00  0.00     0.093 A 
ENDROOT
BRANCH   1   7
HETATM    7  C8  UNL     1      -0.246   1.088  83.955  1.00  0.00     0.305 C 
BRANCH   7   8
HETATM    8  O3  UNL     1      -0.039   1.765  85.156  1.00  0.00    -0.331 OA
BRANCH   8   9
HETATM    9  C7  UNL     1      -0.985   1.806  86.138  1.00  0.00     0.086 A 
HETATM   10  C2  UNL     1      -1.782   2.888  86.348  1.00  0.00     0.067 A 
HETATM   11  C3  UNL     1      -2.739   2.857  87.385  1.00  0.00     0.020 A 
HETATM   12  C4  UNL     1      -2.849   1.739  88.163  1.00  0.00     0.001 A 
HETATM   13  C5  UNL     1      -2.066   0.644  87.976  1.00  0.00     0.003 A 
HETATM   14  C6  UNL     1      -1.139   0.686  86.963  1.00  0.00     0.038 A 
BRANCH  10  15
HETATM   15  C1  UNL     1      -1.703   4.090  85.555  1.00  0.00     0.277 C 
HETATM   16  O1  UNL     1      -2.731   4.356  84.816  1.00  0.00    -0.265 OA
HETATM   17  N1  UNL     1      -0.616   4.967  85.531  1.00  0.00    -0.233 N 
ATOM     18  H1  UNL     1       0.225   4.818  86.089  1.00  0.00     0.197 HD
BRANCH  17  19
HETATM   19  O2  UNL     1      -0.774   6.070  84.681  1.00  0.00    -0.287 OA
ATOM     20  H2  UNL     1       0.039   6.478  84.407  1.00  0.00     0.244 HD
ENDBRANCH  17  19
ENDBRANCH  10  15
ENDBRANCH   8   9
ENDBRANCH   7   8
ENDBRANCH   1   7
BRANCH   4  21
HETATM   21  C12 UNL     1       2.100   3.892  79.555  1.00  0.00     0.171 C 
BRANCH  21  22
HETATM   22  N3  UNL     1       3.505   4.126  79.628  1.00  0.00    -0.305 N 
HETATM   23  C13 UNL     1       4.015   4.617  80.756  1.00  0.00     0.098 A 
HETATM   24  C14 UNL     1       5.360   4.850  80.863  1.00  0.00     0.048 A 
HETATM   25  C15 UNL     1       6.168   4.568  79.783  1.00  0.00     0.054 A 
HETATM   26  N5  UNL     1       5.636   4.072  78.652  1.00  0.00    -0.307 N 
HETATM   27  C17 UNL     1       4.310   3.861  78.597  1.00  0.00     0.327 A 
ATOM     28  H5  UNL     1       6.228   3.860  77.849  1.00  0.00     0.170 HD
HETATM   29  O5  UNL     1       3.889   3.392  77.493  1.00  0.00    -0.246 OA
BRANCH  25  30
HETATM   30  C16 UNL     1       7.615   4.807  79.866  1.00  0.00     0.143 C 
BRANCH  30  31
HETATM   31  N4  UNL     1       8.465   4.082  79.261  1.00  0.00    -0.278 N 
ATOM     32  H4  UNL     1       9.282   4.548  78.867  1.00  0.00     0.193 HD
BRANCH  31  33
HETATM   33  O4  UNL     1       8.372   2.733  79.094  1.00  0.00    -0.290 OA
ATOM     34  H4  UNL     1       8.469   2.275  78.268  1.00  0.00     0.244 HD
ENDBRANCH  31  33
ENDBRANCH  30  31
ENDBRANCH  25  30
ENDBRANCH  21  22
ENDBRANCH   4  21
TORSDOF 10
ENDMDL
MODEL 3
REMARK VINA RESULT: -7.193038067      4.446      7.331
REMARK  10 active torsions:
REMARK  status: ('A' for Active; 'I' for Inactive)
REMARK       I    between atoms: C1_2  and  N1_3 
REMARK    1  A    between atoms: C1_2  and  C2_7 
REMARK    2  A    between atoms: N1_3  and  O2_5 
REMARK    3  A    between atoms: C7_12  and  O3_13 
REMARK    4  A    between atoms: O3_13  and  C8_14 
REMARK    5  A    between atoms: C8_14  and  N2_15 
REMARK    6  A    between atoms: C11_18  and  C12_19 
REMARK    7  A    between atoms: C12_19  and  N3_20 
REMARK    8  A    between atoms: C15_23  and  C16_24 
REMARK    9  A    between atoms: C16_24  and  N4_25 
REMARK   10  A    between atoms: N4_25  and  O4_27 
ROOT
HETATM    1  N2  UNL     1       0.871   2.012  82.056  1.00  0.00    -0.344 N 
HETATM    2  C9  UNL     1       2.161   1.649  82.147  1.00  0.00     0.093 A 
HETATM    3  C10 UNL     1       3.155   2.189  81.356  1.00  0.00     0.026 A 
HETATM    4  C11 UNL     1       2.833   3.148  80.419  1.00  0.00    -0.037 A 
HETATM    5  C18 UNL     1       1.514   3.526  80.319  1.00  0.00     0.026 A 
HETATM    6  C19 UNL     1       0.542   2.947  81.146  1.00  0.00     0.093 A 
ENDROOT
BRANCH   1   7
HETATM    7  C8  UNL     1      -0.151   1.418  82.910  1.00  0.00     0.305 C 
BRANCH   7   8
HETATM    8  O3  UNL     1       0.041   1.761  84.247  1.00  0.00    -0.331 OA
BRANCH   8   9
HETATM    9  C7  UNL     1      -0.670   2.758  84.850  1.00  0.00     0.086 A 
HETATM   10  C2  UNL     1      -1.223   2.625  86.085  1.00  0.00     0.067 A 
HETATM   11  C3  UNL     1      -1.946   3.702  86.644  1.00  0.00     0.020 A 
HETATM   12  C4  UNL     1      -2.079   4.861  85.933  1.00  0.00     0.001 A 
HETATM   13  C5  UNL     1      -1.537   5.021  84.697  1.00  0.00     0.003 A 
HETATM   14  C6  UNL     1      -0.836   3.967  84.164  1.00  0.00     0.038 A 
BRANCH  10  15
HETATM   15  C1  UNL     1      -1.111   1.422  86.874  1.00  0.00     0.277 C 
HETATM   16  O1  UNL     1       0.088   0.988  87.088  1.00  0.00    -0.265 OA
HETATM   17  N1  UNL     1      -2.188   0.711  87.409  1.00  0.00    -0.233 N 
ATOM     18  H1  UNL     1      -3.158   0.997  87.279  1.00  0.00     0.197 HD
BRANCH  17  19
HETATM   19  O2  UNL     1      -1.827  -0.428  88.142  1.00  0.00    -0.287 OA
ATOM     20  H2  UNL     1      -2.114  -0.424  89.048  1.00  0.00     0.244 HD
ENDBRANCH  17  19
ENDBRANCH  10  15
ENDBRANCH   8   9
ENDBRANCH   7   8
ENDBRANCH   1   7
BRANCH   4  21
HETATM   21  C12 UNL     1       3.885   3.730  79.577  1.00  0.00     0.171 C 
BRANCH  21  22
HETATM   22  N3  UNL     1       4.809   4.589  80.240  1.00  0.00    -0.305 N 
HETATM   23  C13 UNL     1       4.355   5.708  80.800  1.00  0.00     0.098 A 
HETATM   24  C14 UNL     1       5.214   6.555  81.449  1.00  0.00     0.048 A 
HETATM   25  C15 UNL     1       6.549   6.224  81.508  1.00  0.00     0.054 A 
HETATM   26  N5  UNL     1       6.990   5.089  80.937  1.00  0.00    -0.307 N 
HETATM   27  C17 UNL     1       6.108   4.292  80.312  1.00  0.00     0.327 A 
ATOM     28  H5  UNL     1       7.978   4.838  80.977  1.00  0.00     0.170 HD
HETATM   29  O5  UNL     1       6.607   3.242  79.800  1.00  0.00    -0.246 OA
BRANCH  25  30
HETATM   30  C16 UNL     1       7.496   7.111  82.196  1.00  0.00     0.143 C 
BRANCH  30  31
HETATM   31  N4  UNL     1       7.959   6.855  83.351  1.00  0.00    -0.278 N 
ATOM     32  H4  UNL     1       8.301   7.640  83.905  1.00  0.00     0.193 HD
BRANCH  31  33
HETATM   33  O4  UNL     1       8.037   5.615  83.910  1.00  0.00    -0.290 OA
ATOM     34  H4  UNL     1       8.838   5.188  84.187  1.00  0.00     0.244 HD
ENDBRANCH  31  33
ENDBRANCH  30  31
ENDBRANCH  25  30
ENDBRANCH  21  22
ENDBRANCH   4  21
TORSDOF 10
ENDMDL
MODEL 4
REMARK VINA RESULT: -7.170396370      4.133      6.962
REMARK  10 active torsions:
REMARK  status: ('A' for Active; 'I' for Inactive)
REMARK       I    between atoms: C1_2  and  N1_3 
REMARK    1  A    between atoms: C1_2  and  C2_7 
REMARK    2  A    between atoms: N1_3  and  O2_5 
REMARK    3  A    between atoms: C7_12  and  O3_13 
REMARK    4  A    between atoms: O3_13  and  C8_14 
REMARK    5  A    between atoms: C8_14  and  N2_15 
REMARK    6  A    between atoms: C11_18  and  C12_19 
REMARK    7  A    between atoms: C12_19  and  N3_20 
REMARK    8  A    between atoms: C15_23  and  C16_24 
REMARK    9  A    between atoms: C16_24  and  N4_25 
REMARK   10  A    between atoms: N4_25  and  O4_27 
ROOT
HETATM    1  N2  UNL     1       0.360   1.866  82.777  1.00  0.00    -0.344 N 
HETATM    2  C9  UNL     1       1.522   1.406  82.284  1.00  0.00     0.093 A 
HETATM    3  C10 UNL     1       2.228   2.051  81.288  1.00  0.00     0.026 A 
HETATM    4  C11 UNL     1       1.737   3.225  80.757  1.00  0.00    -0.037 A 
HETATM    5  C18 UNL     1       0.547   3.704  81.256  1.00  0.00     0.026 A 
HETATM    6  C19 UNL     1      -0.131   3.011  82.268  1.00  0.00     0.093 A 
ENDROOT
BRANCH   1   7
HETATM    7  C8  UNL     1      -0.356   1.157  83.830  1.00  0.00     0.305 C 
BRANCH   7   8
HETATM    8  O3  UNL     1      -0.054   1.673  85.089  1.00  0.00    -0.331 OA
BRANCH   8   9
HETATM    9  C7  UNL     1      -0.989   1.769  86.077  1.00  0.00     0.086 A 
HETATM   10  C2  UNL     1      -1.740   2.886  86.274  1.00  0.00     0.067 A 
HETATM   11  C3  UNL     1      -2.689   2.912  87.319  1.00  0.00     0.020 A 
HETATM   12  C4  UNL     1      -2.838   1.812  88.117  1.00  0.00     0.001 A 
HETATM   13  C5  UNL     1      -2.101   0.684  87.944  1.00  0.00     0.003 A 
HETATM   14  C6  UNL     1      -1.181   0.670  86.923  1.00  0.00     0.038 A 
BRANCH  10  15
HETATM   15  C1  UNL     1      -1.620   4.070  85.459  1.00  0.00     0.277 C 
HETATM   16  O1  UNL     1      -2.662   4.395  84.765  1.00  0.00    -0.265 OA
HETATM   17  N1  UNL     1      -0.479   4.871  85.371  1.00  0.00    -0.233 N 
ATOM     18  H1  UNL     1       0.376   4.673  85.890  1.00  0.00     0.197 HD
BRANCH  17  19
HETATM   19  O2  UNL     1      -0.604   5.971  84.511  1.00  0.00    -0.287 OA
ATOM     20  H2  UNL     1       0.018   6.672  84.671  1.00  0.00     0.244 HD
ENDBRANCH  17  19
ENDBRANCH  10  15
ENDBRANCH   8   9
ENDBRANCH   7   8
ENDBRANCH   1   7
BRANCH   4  21
HETATM   21  C12 UNL     1       2.483   3.918  79.700  1.00  0.00     0.171 C 
BRANCH  21  22
HETATM   22  N3  UNL     1       3.807   4.325  80.039  1.00  0.00    -0.305 N 
HETATM   23  C13 UNL     1       4.834   3.623  79.565  1.00  0.00     0.098 A 
HETATM   24  C14 UNL     1       6.119   3.987  79.867  1.00  0.00     0.048 A 
HETATM   25  C15 UNL     1       6.323   5.089  80.668  1.00  0.00     0.054 A 
HETATM   26  N5  UNL     1       5.274   5.786  81.138  1.00  0.00    -0.307 N 
HETATM   27  C17 UNL     1       4.032   5.389  80.814  1.00  0.00     0.327 A 
ATOM     28  H5  UNL     1       5.418   6.603  81.732  1.00  0.00     0.170 HD
HETATM   29  O5  UNL     1       3.099   6.101  81.299  1.00  0.00    -0.246 OA
BRANCH  25  30
HETATM   30  C16 UNL     1       7.689   5.505  81.010  1.00  0.00     0.143 C 
BRANCH  30  31
HETATM   31  N4  UNL     1       8.138   5.470  82.199  1.00  0.00    -0.278 N 
ATOM     32  H4  UNL     1       9.035   5.924  82.374  1.00  0.00     0.193 HD
BRANCH  31  33
HETATM   33  O4  UNL     1       7.519   4.876  83.256  1.00  0.00    -0.290 OA
ATOM     34  H4  UNL     1       6.864   5.286  83.809  1.00  0.00     0.244 HD
ENDBRANCH  31  33
ENDBRANCH  30  31
ENDBRANCH  25  30
ENDBRANCH  21  22
ENDBRANCH   4  21
TORSDOF 10
ENDMDL
MODEL 5
REMARK VINA RESULT: -7.107270428      4.437      7.120
REMARK  10 active torsions:
REMARK  status: ('A' for Active; 'I' for Inactive)
REMARK       I    between atoms: C1_2  and  N1_3 
REMARK    1  A    between atoms: C1_2  and  C2_7 
REMARK    2  A    between atoms: N1_3  and  O2_5 
REMARK    3  A    between atoms: C7_12  and  O3_13 
REMARK    4  A    between atoms: O3_13  and  C8_14 
REMARK    5  A    between atoms: C8_14  and  N2_15 
REMARK    6  A    between atoms: C11_18  and  C12_19 
REMARK    7  A    between atoms: C12_19  and  N3_20 
REMARK    8  A    between atoms: C15_23  and  C16_24 
REMARK    9  A    between atoms: C16_24  and  N4_25 
REMARK   10  A    between atoms: N4_25  and  O4_27 
ROOT
HETATM    1  N2  UNL     1       0.659   1.734  82.672  1.00  0.00    -0.344 N 
HETATM    2  C9  UNL     1       1.649   1.032  82.096  1.00  0.00     0.093 A 
HETATM    3  C10 UNL     1       2.434   1.532  81.077  1.00  0.00     0.026 A 
HETATM    4  C11 UNL     1       2.211   2.809  80.609  1.00  0.00    -0.037 A 
HETATM    5  C18 UNL     1       1.199   3.536  81.193  1.00  0.00     0.026 A 
HETATM    6  C19 UNL     1       0.429   2.983  82.226  1.00  0.00     0.093 A 
ENDROOT
BRANCH   1   7
HETATM    7  C8  UNL     1      -0.150   1.172  83.747  1.00  0.00     0.305 C 
BRANCH   7   8
HETATM    8  O3  UNL     1       0.045   1.860  84.944  1.00  0.00    -0.331 OA
BRANCH   8   9
HETATM    9  C7  UNL     1      -0.897   1.880  85.930  1.00  0.00     0.086 A 
HETATM   10  C2  UNL     1      -1.723   2.940  86.138  1.00  0.00     0.067 A 
HETATM   11  C3  UNL     1      -2.675   2.888  87.180  1.00  0.00     0.020 A 
HETATM   12  C4  UNL     1      -2.750   1.771  87.964  1.00  0.00     0.001 A 
HETATM   13  C5  UNL     1      -1.937   0.698  87.780  1.00  0.00     0.003 A 
HETATM   14  C6  UNL     1      -1.016   0.760  86.762  1.00  0.00     0.038 A 
BRANCH  10  15
HETATM   15  C1  UNL     1      -1.682   4.140  85.338  1.00  0.00     0.277 C 
HETATM   16  O1  UNL     1      -2.778   4.460  84.731  1.00  0.00    -0.265 OA
HETATM   17  N1  UNL     1      -0.563   4.961  85.179  1.00  0.00    -0.233 N 
ATOM     18  H1  UNL     1       0.331   4.767  85.629  1.00  0.00     0.197 HD
BRANCH  17  19
HETATM   19  O2  UNL     1      -0.769   6.073  84.352  1.00  0.00    -0.287 OA
ATOM     20  H2  UNL     1      -1.393   5.933  83.648  1.00  0.00     0.244 HD
ENDBRANCH  17  19
ENDBRANCH  10  15
ENDBRANCH   8   9
ENDBRANCH   7   8
ENDBRANCH   1   7
BRANCH   4  21
HETATM   21  C12 UNL     1       3.044   3.349  79.528  1.00  0.00     0.171 C 
BRANCH  21  22
HETATM   22  N3  UNL     1       4.269   3.957  79.932  1.00  0.00    -0.305 N 
HETATM   23  C13 UNL     1       4.316   4.586  81.104  1.00  0.00     0.098 A 
HETATM   24  C14 UNL     1       5.477   5.178  81.526  1.00  0.00     0.048 A 
HETATM   25  C15 UNL     1       6.587   5.109  80.713  1.00  0.00     0.054 A 
HETATM   26  N5  UNL     1       6.521   4.470  79.532  1.00  0.00    -0.307 N 
HETATM   27  C17 UNL     1       5.360   3.905  79.163  1.00  0.00     0.327 A 
ATOM     28  H5  UNL     1       7.340   4.415  78.925  1.00  0.00     0.170 HD
HETATM   29  O5  UNL     1       5.383   3.323  78.034  1.00  0.00    -0.246 OA
BRANCH  25  30
HETATM   30  C16 UNL     1       7.847   5.735  81.136  1.00  0.00     0.143 C 
BRANCH  30  31
HETATM   31  N4  UNL     1       8.179   5.848  82.357  1.00  0.00    -0.278 N 
ATOM     32  H4  UNL     1       8.259   6.792  82.735  1.00  0.00     0.193 HD
BRANCH  31  33
HETATM   33  O4  UNL     1       8.436   4.811  83.202  1.00  0.00    -0.290 OA
ATOM     34  H4  UNL     1       9.299   4.539  83.489  1.00  0.00     0.244 HD
ENDBRANCH  31  33
ENDBRANCH  30  31
ENDBRANCH  25  30
ENDBRANCH  21  22
ENDBRANCH   4  21
TORSDOF 10
ENDMDL
