MODEL 1
REMARK VINA RESULT: -7.337225082      0.000      0.000
REMARK  4 active torsions:
REMARK  status: ('A' for Active; 'I' for Inactive)
REMARK    1  A    between atoms: C1_2  and  C2_3 
REMARK       I    between atoms: C1_2  and  N2_9 
REMARK    2  A    between atoms: C2_3  and  N1_4 
REMARK    3  A    between atoms: C11_15  and  O3_16 
REMARK    4  A    between atoms: C14_22  and  C15_23 
ROOT
HETATM    1  O1  UNL     1      16.743   1.643  13.245  1.00  0.00    -0.271 OA
HETATM    2  C1  UNL     1      17.241   2.648  13.803  1.00  0.00     0.249 C 
HETATM    3  N2  UNL     1      18.074   3.500  13.063  1.00  0.00    -0.337 N 
HETATM    4  C7  UNL     1      18.548   4.591  13.851  1.00  0.00     0.181 C 
HETATM    5  C8  UNL     1      19.315   5.664  13.160  1.00  0.00     0.028 C 
HETATM    6  C9  UNL     1      20.571   5.205  12.461  1.00  0.00     0.221 C 
HETATM    7  O2  UNL     1      20.421   4.228  11.531  1.00  0.00    -0.382 OA
HETATM    8  C10 UNL     1      19.631   4.667  10.473  1.00  0.00     0.208 C 
HETATM    9  C11 UNL     1      18.257   4.135  10.698  1.00  0.00     0.104 C 
HETATM   10  C12 UNL     1      17.233   5.121  11.126  1.00  0.00     0.086 C 
HETATM   11  C13 UNL     1      17.700   6.469  11.487  1.00  0.00     0.064 C 
HETATM   12  N3  UNL     1      18.576   6.671  12.514  1.00  0.00    -0.373 N 
ATOM     13  H3  UNL     1      18.706   7.630  12.840  1.00  0.00     0.164 HD
HETATM   14  C14 UNL     1      18.206   2.993  11.687  1.00  0.00     0.128 C 
ENDROOT
BRANCH   2  15
HETATM   15  C2  UNL     1      16.971   2.954  15.226  1.00  0.00     0.374 C 
BRANCH  15  16
HETATM   16  N1  UNL     1      16.073   2.007  15.838  1.00  0.00     0.097 N 
HETATM   17  C3  UNL     1      14.923   2.552  16.452  1.00  0.00     0.273 C 
HETATM   18  C4  UNL     1      14.347   1.379  17.228  1.00  0.00     0.032 C 
HETATM   19  C5  UNL     1      15.528   0.508  17.508  1.00  0.00     0.032 C 
HETATM   20  C6  UNL     1      16.684   1.063  16.700  1.00  0.00     0.273 C 
ENDBRANCH  15  16
ENDBRANCH   2  15
BRANCH  14  21
HETATM   21  C15 UNL     1      19.276   1.984  11.558  1.00  0.00     0.012 A 
HETATM   22  C16 UNL     1      19.709   1.281  10.377  1.00  0.00     0.007 A 
HETATM   23  C17 UNL     1      18.827   0.521  11.346  1.00  0.00     0.007 A 
ENDBRANCH  14  21
BRANCH   9  24
HETATM   24  O3  UNL     1      17.850   3.561   9.467  1.00  0.00    -0.385 OA
ATOM     25  H3  UNL     1      17.942   2.621   9.571  1.00  0.00     0.210 HD
ENDBRANCH   9  24
TORSDOF 4
ENDMDL
MODEL 2
REMARK VINA RESULT: -7.116197615      1.678      3.721
REMARK  4 active torsions:
REMARK  status: ('A' for Active; 'I' for Inactive)
REMARK    1  A    between atoms: C1_2  and  C2_3 
REMARK       I    between atoms: C1_2  and  N2_9 
REMARK    2  A    between atoms: C2_3  and  N1_4 
REMARK    3  A    between atoms: C11_15  and  O3_16 
REMARK    4  A    between atoms: C14_22  and  C15_23 
ROOT
HETATM    1  O1  UNL     1      18.292   3.623  15.371  1.00  0.00    -0.271 OA
HETATM    2  C1  UNL     1      17.865   2.541  14.905  1.00  0.00     0.249 C 
HETATM    3  N2  UNL     1      17.704   2.411  13.518  1.00  0.00    -0.337 N 
HETATM    4  C7  UNL     1      17.215   1.118  13.162  1.00  0.00     0.181 C 
HETATM    5  C8  UNL     1      17.143   0.777  11.715  1.00  0.00     0.028 C 
HETATM    6  C9  UNL     1      16.273   1.689  10.884  1.00  0.00     0.221 C 
HETATM    7  O2  UNL     1      16.578   3.010  10.918  1.00  0.00    -0.382 OA
HETATM    8  C10 UNL     1      17.845   3.240  10.389  1.00  0.00     0.208 C 
HETATM    9  C11 UNL     1      18.782   3.384  11.538  1.00  0.00     0.104 C 
HETATM   10  C12 UNL     1      19.710   2.250  11.775  1.00  0.00     0.086 C 
HETATM   11  C13 UNL     1      19.485   1.018  11.002  1.00  0.00     0.064 C 
HETATM   12  N3  UNL     1      18.321   0.314  11.102  1.00  0.00    -0.373 N 
ATOM     13  H3  UNL     1      18.303  -0.624  10.700  1.00  0.00     0.164 HD
HETATM   14  C14 UNL     1      18.089   3.666  12.852  1.00  0.00     0.128 C 
ENDROOT
BRANCH   2  15
HETATM   15  C2  UNL     1      17.525   1.401  15.785  1.00  0.00     0.374 C 
BRANCH  15  16
HETATM   16  N1  UNL     1      16.375   1.661  16.615  1.00  0.00     0.097 N 
HETATM   17  C3  UNL     1      15.692   0.524  17.099  1.00  0.00     0.273 C 
HETATM   18  C4  UNL     1      14.410   1.101  17.676  1.00  0.00     0.032 C 
HETATM   19  C5  UNL     1      14.194   2.362  16.905  1.00  0.00     0.032 C 
HETATM   20  C6  UNL     1      15.452   2.599  16.092  1.00  0.00     0.273 C 
ENDBRANCH  15  16
ENDBRANCH   2  15
BRANCH  14  21
HETATM   21  C15 UNL     1      16.981   4.639  12.797  1.00  0.00     0.012 A 
HETATM   22  C16 UNL     1      16.993   5.987  12.287  1.00  0.00     0.007 A 
HETATM   23  C17 UNL     1      17.045   5.819  13.792  1.00  0.00     0.007 A 
ENDBRANCH  14  21
BRANCH   9  24
HETATM   24  O3  UNL     1      19.546   4.551  11.279  1.00  0.00    -0.385 OA
ATOM     25  H3  UNL     1      19.383   4.777  10.371  1.00  0.00     0.210 HD
ENDBRANCH   9  24
TORSDOF 4
ENDMDL
MODEL 3
REMARK VINA RESULT: -6.796265418      2.297      3.054
REMARK  4 active torsions:
REMARK  status: ('A' for Active; 'I' for Inactive)
REMARK    1  A    between atoms: C1_2  and  C2_3 
REMARK       I    between atoms: C1_2  and  N2_9 
REMARK    2  A    between atoms: C2_3  and  N1_4 
REMARK    3  A    between atoms: C11_15  and  O3_16 
REMARK    4  A    between atoms: C14_22  and  C15_23 
ROOT
HETATM    1  O1  UNL     1      16.324   2.911  13.117  1.00  0.00    -0.271 OA
HETATM    2  C1  UNL     1      16.815   3.563  14.068  1.00  0.00     0.249 C 
HETATM    3  N2  UNL     1      17.007   4.944  13.922  1.00  0.00    -0.337 N 
HETATM    4  C7  UNL     1      17.569   5.527  15.098  1.00  0.00     0.181 C 
HETATM    5  C8  UNL     1      17.684   7.010  15.151  1.00  0.00     0.028 C 
HETATM    6  C9  UNL     1      18.521   7.627  14.057  1.00  0.00     0.221 C 
HETATM    7  O2  UNL     1      18.147   7.350  12.783  1.00  0.00    -0.382 OA
HETATM    8  C10 UNL     1      16.880   7.860  12.515  1.00  0.00     0.208 C 
HETATM    9  C11 UNL     1      15.916   6.731  12.639  1.00  0.00     0.104 C 
HETATM   10  C12 UNL     1      15.043   6.740  13.840  1.00  0.00     0.086 C 
HETATM   11  C13 UNL     1      15.346   7.728  14.888  1.00  0.00     0.064 C 
HETATM   12  N3  UNL     1      16.543   7.732  15.543  1.00  0.00    -0.373 N 
ATOM     13  H3  UNL     1      16.617   8.305  16.384  1.00  0.00     0.164 HD
HETATM   14  C14 UNL     1      16.569   5.369  12.582  1.00  0.00     0.128 C 
ENDROOT
BRANCH   2  15
HETATM   15  C2  UNL     1      17.197   2.907  15.339  1.00  0.00     0.374 C 
BRANCH  15  16
HETATM   16  N1  UNL     1      16.157   2.054  15.859  1.00  0.00     0.097 N 
HETATM   17  C3  UNL     1      15.046   2.713  16.432  1.00  0.00     0.273 C 
HETATM   18  C4  UNL     1      14.289   1.591  17.124  1.00  0.00     0.032 C 
HETATM   19  C5  UNL     1      15.339   0.573  17.430  1.00  0.00     0.032 C 
HETATM   20  C6  UNL     1      16.599   1.013  16.711  1.00  0.00     0.273 C 
ENDBRANCH  15  16
ENDBRANCH   2  15
BRANCH  14  21
HETATM   21  C15 UNL     1      17.627   5.207  11.566  1.00  0.00     0.012 A 
HETATM   22  C16 UNL     1      17.552   5.444  10.146  1.00  0.00     0.007 A 
HETATM   23  C17 UNL     1      17.488   4.002  10.608  1.00  0.00     0.007 A 
ENDBRANCH  14  21
BRANCH   9  24
HETATM   24  O3  UNL     1      15.097   6.783  11.481  1.00  0.00    -0.385 OA
ATOM     25  H3  UNL     1      15.690   6.779  10.738  1.00  0.00     0.210 HD
ENDBRANCH   9  24
TORSDOF 4
ENDMDL
MODEL 4
REMARK VINA RESULT: -6.742107242      1.507      3.517
REMARK  4 active torsions:
REMARK  status: ('A' for Active; 'I' for Inactive)
REMARK    1  A    between atoms: C1_2  and  C2_3 
REMARK       I    between atoms: C1_2  and  N2_9 
REMARK    2  A    between atoms: C2_3  and  N1_4 
REMARK    3  A    between atoms: C11_15  and  O3_16 
REMARK    4  A    between atoms: C14_22  and  C15_23 
ROOT
HETATM    1  O1  UNL     1      18.510   3.721  15.345  1.00  0.00    -0.271 OA
HETATM    2  C1  UNL     1      17.897   3.211  14.378  1.00  0.00     0.249 C 
HETATM    3  N2  UNL     1      18.277   3.551  13.072  1.00  0.00    -0.337 N 
HETATM    4  C7  UNL     1      17.480   2.877  12.098  1.00  0.00     0.181 C 
HETATM    5  C8  UNL     1      17.868   3.017  10.668  1.00  0.00     0.028 C 
HETATM    6  C9  UNL     1      17.888   4.432  10.143  1.00  0.00     0.221 C 
HETATM    7  O2  UNL     1      18.679   5.310  10.807  1.00  0.00    -0.382 OA
HETATM    8  C10 UNL     1      20.018   4.939  10.718  1.00  0.00     0.208 C 
HETATM    9  C11 UNL     1      20.369   4.247  11.990  1.00  0.00     0.104 C 
HETATM   10  C12 UNL     1      20.544   2.775  11.912  1.00  0.00     0.086 C 
HETATM   11  C13 UNL     1      20.157   2.114  10.655  1.00  0.00     0.064 C 
HETATM   12  N3  UNL     1      18.876   2.162  10.187  1.00  0.00    -0.373 N 
ATOM     13  H3  UNL     1      18.630   1.527   9.427  1.00  0.00     0.164 HD
HETATM   14  C14 UNL     1      19.391   4.512  13.112  1.00  0.00     0.128 C 
ENDROOT
BRANCH   2  15
HETATM   15  C2  UNL     1      16.781   2.261  14.586  1.00  0.00     0.374 C 
BRANCH  15  16
HETATM   16  N1  UNL     1      16.391   2.154  15.969  1.00  0.00     0.097 N 
HETATM   17  C3  UNL     1      16.396   0.851  16.515  1.00  0.00     0.273 C 
HETATM   18  C4  UNL     1      15.688   1.023  17.849  1.00  0.00     0.032 C 
HETATM   19  C5  UNL     1      14.801   2.208  17.643  1.00  0.00     0.032 C 
HETATM   20  C6  UNL     1      15.189   2.820  16.312  1.00  0.00     0.273 C 
ENDBRANCH  15  16
ENDBRANCH   2  15
BRANCH  14  21
HETATM   21  C15 UNL     1      18.927   5.908  13.242  1.00  0.00     0.012 A 
HETATM   22  C16 UNL     1      19.714   7.105  13.400  1.00  0.00     0.007 A 
HETATM   23  C17 UNL     1      19.047   6.550  14.642  1.00  0.00     0.007 A 
ENDBRANCH  14  21
BRANCH   9  24
HETATM   24  O3  UNL     1      21.586   4.828  12.431  1.00  0.00    -0.385 OA
ATOM     25  H3  UNL     1      21.366   5.700  12.738  1.00  0.00     0.210 HD
ENDBRANCH   9  24
TORSDOF 4
ENDMDL
MODEL 5
REMARK VINA RESULT: -6.368437233      2.443      5.019
REMARK  4 active torsions:
REMARK  status: ('A' for Active; 'I' for Inactive)
REMARK    1  A    between atoms: C1_2  and  C2_3 
REMARK       I    between atoms: C1_2  and  N2_9 
REMARK    2  A    between atoms: C2_3  and  N1_4 
REMARK    3  A    between atoms: C11_15  and  O3_16 
REMARK    4  A    between atoms: C14_22  and  C15_23 
ROOT
HETATM    1  O1  UNL     1      18.196   3.063  14.396  1.00  0.00    -0.271 OA
HETATM    2  C1  UNL     1      18.096   3.569  13.254  1.00  0.00     0.249 C 
HETATM    3  N2  UNL     1      17.424   4.791  13.103  1.00  0.00    -0.337 N 
HETATM    4  C7  UNL     1      17.409   5.220  11.742  1.00  0.00     0.181 C 
HETATM    5  C8  UNL     1      16.869   6.576  11.449  1.00  0.00     0.028 C 
HETATM    6  C9  UNL     1      15.438   6.802  11.872  1.00  0.00     0.221 C 
HETATM    7  O2  UNL     1      15.156   6.589  13.181  1.00  0.00    -0.382 OA
HETATM    8  C10 UNL     1      15.853   7.481  13.991  1.00  0.00     0.208 C 
HETATM    9  C11 UNL     1      17.041   6.756  14.523  1.00  0.00     0.104 C 
HETATM   10  C12 UNL     1      18.355   7.137  13.947  1.00  0.00     0.086 C 
HETATM   11  C13 UNL     1      18.348   8.028  12.775  1.00  0.00     0.064 C 
HETATM   12  N3  UNL     1      17.743   7.667  11.606  1.00  0.00    -0.373 N 
ATOM     13  H3  UNL     1      17.941   8.232  10.781  1.00  0.00     0.164 HD
HETATM   14  C14 UNL     1      16.933   5.253  14.411  1.00  0.00     0.128 C 
ENDROOT
BRANCH   2  15
HETATM   15  C2  UNL     1      18.670   2.904  12.062  1.00  0.00     0.374 C 
BRANCH  15  16
HETATM   16  N1  UNL     1      18.371   1.494  12.013  1.00  0.00     0.097 N 
HETATM   17  C3  UNL     1      19.275   0.695  11.278  1.00  0.00     0.273 C 
HETATM   18  C4  UNL     1      18.560  -0.642  11.173  1.00  0.00     0.032 C 
HETATM   19  C5  UNL     1      17.110  -0.292  11.270  1.00  0.00     0.032 C 
HETATM   20  C6  UNL     1      17.038   1.171  11.662  1.00  0.00     0.273 C 
ENDBRANCH  15  16
ENDBRANCH   2  15
BRANCH  14  21
HETATM   21  C15 UNL     1      15.618   4.677  14.756  1.00  0.00     0.012 A 
HETATM   22  C16 UNL     1      14.930   4.703  16.022  1.00  0.00     0.007 A 
HETATM   23  C17 UNL     1      15.627   3.412  15.644  1.00  0.00     0.007 A 
ENDBRANCH  14  21
BRANCH   9  24
HETATM   24  O3  UNL     1      17.065   7.010  15.919  1.00  0.00    -0.385 OA
ATOM     25  H3  UNL     1      17.911   6.707  16.228  1.00  0.00     0.210 HD
ENDBRANCH   9  24
TORSDOF 4
ENDMDL
