MODEL 1
REMARK VINA RESULT: -3.949008456      0.000      0.000
REMARK  3 active torsions:
REMARK  status: ('A' for Active; 'I' for Inactive)
REMARK    1  A    between atoms: N1_1  and  C1_5 
REMARK    2  A    between atoms: C1_5  and  C2_6 
REMARK    3  A    between atoms: C2_6  and  C3_7 
ROOT
HETATM    1  C3  UNL     1     -21.889  22.573 -24.512  1.00  0.00     0.384 C 
HETATM    2  N2  UNL     1     -21.602  21.133 -24.517  1.00  0.00    -0.044 N 
ATOM      3  H21 UNL     1     -20.710  20.881 -24.091  1.00  0.00     0.279 HD
ATOM      4  H22 UNL     1     -21.394  20.748 -25.438  1.00  0.00     0.279 HD
HETATM    5  C4  UNL     1     -22.753  20.553 -23.876  1.00  0.00     0.262 C 
HETATM    6  C5  UNL     1     -23.799  21.633 -23.792  1.00  0.00     0.262 C 
HETATM    7  N3  UNL     1     -23.292  22.728 -24.626  1.00  0.00    -0.044 N 
ATOM      8  H31 UNL     1     -23.646  22.738 -25.583  1.00  0.00     0.279 HD
ATOM      9  H32 UNL     1     -23.643  23.653 -24.381  1.00  0.00     0.279 HD
ENDROOT
BRANCH   1  10
HETATM   10  C2  UNL     1     -21.085  23.176 -25.622  1.00  0.00     0.089 C 
BRANCH  10  11
HETATM   11  C1  UNL     1     -21.783  23.216 -26.940  1.00  0.00     0.233 C 
BRANCH  11  12
HETATM   12  N1  UNL     1     -20.876  22.727 -27.991  1.00  0.00    -0.079 N 
ATOM     13  H13 UNL     1     -20.068  23.337 -28.118  1.00  0.00     0.274 HD
ATOM     14  H12 UNL     1     -20.379  21.883 -27.709  1.00  0.00     0.274 HD
ATOM     15  H11 UNL     1     -21.399  22.595 -28.858  1.00  0.00     0.274 HD
ENDBRANCH  11  12
ENDBRANCH  10  11
ENDBRANCH   1  10
TORSDOF 3
ENDMDL
MODEL 2
REMARK VINA RESULT: -3.915080497      1.084      1.171
REMARK  3 active torsions:
REMARK  status: ('A' for Active; 'I' for Inactive)
REMARK    1  A    between atoms: N1_1  and  C1_5 
REMARK    2  A    between atoms: C1_5  and  C2_6 
REMARK    3  A    between atoms: C2_6  and  C3_7 
ROOT
HETATM    1  C3  UNL     1     -22.756  22.772 -25.677  1.00  0.00     0.384 C 
HETATM    2  N2  UNL     1     -22.035  21.623 -25.115  1.00  0.00    -0.044 N 
ATOM      3  H21 UNL     1     -21.035  21.776 -24.987  1.00  0.00     0.279 HD
ATOM      4  H22 UNL     1     -21.944  20.831 -25.751  1.00  0.00     0.279 HD
HETATM    5  C4  UNL     1     -22.751  21.331 -23.901  1.00  0.00     0.262 C 
HETATM    6  C5  UNL     1     -24.035  22.118 -23.948  1.00  0.00     0.262 C 
HETATM    7  N3  UNL     1     -24.119  22.637 -25.317  1.00  0.00    -0.044 N 
ATOM      8  H31 UNL     1     -24.677  22.071 -25.957  1.00  0.00     0.279 HD
ATOM      9  H32 UNL     1     -24.677  23.484 -25.422  1.00  0.00     0.279 HD
ENDROOT
BRANCH   1  10
HETATM   10  C2  UNL     1     -22.477  22.777 -27.148  1.00  0.00     0.089 C 
BRANCH  10  11
HETATM   11  C1  UNL     1     -21.076  23.136 -27.510  1.00  0.00     0.233 C 
BRANCH  11  12
HETATM   12  N1  UNL     1     -20.696  22.444 -28.752  1.00  0.00    -0.079 N 
ATOM     13  H13 UNL     1     -21.284  21.631 -28.935  1.00  0.00     0.274 HD
ATOM     14  H12 UNL     1     -20.935  22.986 -29.583  1.00  0.00     0.274 HD
ATOM     15  H11 UNL     1     -19.705  22.204 -28.720  1.00  0.00     0.274 HD
ENDBRANCH  11  12
ENDBRANCH  10  11
ENDBRANCH   1  10
TORSDOF 3
ENDMDL
MODEL 3
REMARK VINA RESULT: -3.857322472      1.615      3.704
REMARK  3 active torsions:
REMARK  status: ('A' for Active; 'I' for Inactive)
REMARK    1  A    between atoms: N1_1  and  C1_5 
REMARK    2  A    between atoms: C1_5  and  C2_6 
REMARK    3  A    between atoms: C2_6  and  C3_7 
ROOT
HETATM    1  C3  UNL     1     -23.621  22.760 -25.461  1.00  0.00     0.384 C 
HETATM    2  N2  UNL     1     -22.270  22.283 -25.780  1.00  0.00    -0.044 N 
ATOM      3  H21 UNL     1     -22.245  21.407 -26.302  1.00  0.00     0.279 HD
ATOM      4  H22 UNL     1     -21.742  21.944 -24.975  1.00  0.00     0.279 HD
HETATM    5  C4  UNL     1     -21.664  23.398 -26.460  1.00  0.00     0.262 C 
HETATM    6  C5  UNL     1     -22.569  24.583 -26.250  1.00  0.00     0.262 C 
HETATM    7  N3  UNL     1     -23.536  24.156 -25.234  1.00  0.00    -0.044 N 
ATOM      8  H31 UNL     1     -23.300  24.421 -24.278  1.00  0.00     0.279 HD
ATOM      9  H32 UNL     1     -24.429  24.649 -25.255  1.00  0.00     0.279 HD
ENDROOT
BRANCH   1  10
HETATM   10  C2  UNL     1     -24.101  21.948 -24.299  1.00  0.00     0.089 C 
BRANCH  10  11
HETATM   11  C1  UNL     1     -23.085  21.011 -23.737  1.00  0.00     0.233 C 
BRANCH  11  12
HETATM   12  N1  UNL     1     -23.740  19.753 -23.346  1.00  0.00    -0.079 N 
ATOM     13  H13 UNL     1     -24.714  19.716 -23.646  1.00  0.00     0.274 HD
ATOM     14  H12 UNL     1     -23.393  18.957 -23.880  1.00  0.00     0.274 HD
ATOM     15  H11 UNL     1     -23.641  19.616 -22.340  1.00  0.00     0.274 HD
ENDBRANCH  11  12
ENDBRANCH  10  11
ENDBRANCH   1  10
TORSDOF 3
ENDMDL
MODEL 4
REMARK VINA RESULT: -3.824736953      0.500      1.445
REMARK  3 active torsions:
REMARK  status: ('A' for Active; 'I' for Inactive)
REMARK    1  A    between atoms: N1_1  and  C1_5 
REMARK    2  A    between atoms: C1_5  and  C2_6 
REMARK    3  A    between atoms: C2_6  and  C3_7 
ROOT
HETATM    1  C3  UNL     1     -22.322  22.099 -25.027  1.00  0.00     0.384 C 
HETATM    2  N2  UNL     1     -23.159  22.684 -23.972  1.00  0.00    -0.044 N 
ATOM      3  H21 UNL     1     -23.912  23.282 -24.315  1.00  0.00     0.279 HD
ATOM      4  H22 UNL     1     -22.695  23.401 -23.416  1.00  0.00     0.279 HD
HETATM    5  C4  UNL     1     -23.605  21.542 -23.217  1.00  0.00     0.262 C 
HETATM    6  C5  UNL     1     -22.778  20.367 -23.669  1.00  0.00     0.262 C 
HETATM    7  N3  UNL     1     -21.707  20.942 -24.490  1.00  0.00    -0.044 N 
ATOM      8  H31 UNL     1     -20.831  21.113 -23.996  1.00  0.00     0.279 HD
ATOM      9  H32 UNL     1     -21.308  20.308 -25.182  1.00  0.00     0.279 HD
ENDROOT
BRANCH   1  10
HETATM   10  C2  UNL     1     -21.384  23.175 -25.477  1.00  0.00     0.089 C 
BRANCH  10  11
HETATM   11  C1  UNL     1     -21.618  23.657 -26.870  1.00  0.00     0.233 C 
BRANCH  11  12
HETATM   12  N1  UNL     1     -20.981  22.734 -27.823  1.00  0.00    -0.079 N 
ATOM     13  H13 UNL     1     -19.967  22.711 -27.718  1.00  0.00     0.274 HD
ATOM     14  H12 UNL     1     -21.173  21.758 -27.600  1.00  0.00     0.274 HD
ATOM     15  H11 UNL     1     -21.265  22.975 -28.773  1.00  0.00     0.274 HD
ENDBRANCH  11  12
ENDBRANCH  10  11
ENDBRANCH   1  10
TORSDOF 3
ENDMDL
MODEL 5
REMARK VINA RESULT: -3.821670246      2.146      2.619
REMARK  3 active torsions:
REMARK  status: ('A' for Active; 'I' for Inactive)
REMARK    1  A    between atoms: N1_1  and  C1_5 
REMARK    2  A    between atoms: C1_5  and  C2_6 
REMARK    3  A    between atoms: C2_6  and  C3_7 
ROOT
HETATM    1  C3  UNL     1     -23.312  23.511 -25.225  1.00  0.00     0.384 C 
HETATM    2  N2  UNL     1     -24.644  22.934 -25.000  1.00  0.00    -0.044 N 
ATOM      3  H21 UNL     1     -24.634  21.963 -24.685  1.00  0.00     0.279 HD
ATOM      4  H22 UNL     1     -25.179  22.765 -25.852  1.00  0.00     0.279 HD
HETATM    5  C4  UNL     1     -25.264  23.851 -24.081  1.00  0.00     0.262 C 
HETATM    6  C5  UNL     1     -24.395  25.081 -24.035  1.00  0.00     0.262 C 
HETATM    7  N3  UNL     1     -23.439  24.919 -25.135  1.00  0.00    -0.044 N 
ATOM      8  H31 UNL     1     -23.702  25.382 -26.005  1.00  0.00     0.279 HD
ATOM      9  H32 UNL     1     -22.559  25.422 -25.018  1.00  0.00     0.279 HD
ENDROOT
BRANCH   1  10
HETATM   10  C2  UNL     1     -22.836  22.992 -26.545  1.00  0.00     0.089 C 
BRANCH  10  11
HETATM   11  C1  UNL     1     -21.443  23.392 -26.901  1.00  0.00     0.233 C 
BRANCH  11  12
HETATM   12  N1  UNL     1     -20.986  22.606 -28.058  1.00  0.00    -0.079 N 
ATOM     13  H13 UNL     1     -20.011  22.319 -27.967  1.00  0.00     0.274 HD
ATOM     14  H12 UNL     1     -21.409  21.679 -28.085  1.00  0.00     0.274 HD
ATOM     15  H11 UNL     1     -21.155  23.132 -28.916  1.00  0.00     0.274 HD
ENDBRANCH  11  12
ENDBRANCH  10  11
ENDBRANCH   1  10
TORSDOF 3
ENDMDL
