MODEL 1
REMARK VINA RESULT: -3.648298859      0.000      0.000
REMARK  3 active torsions:
REMARK  status: ('A' for Active; 'I' for Inactive)
REMARK    1  A    between atoms: N1_1  and  C1_5 
REMARK    2  A    between atoms: C1_5  and  C2_6 
REMARK    3  A    between atoms: C2_6  and  N2_7 
ROOT
HETATM    1  N2  UNL     1     -23.831  23.618 -25.232  1.00  0.00     0.117 N 
HETATM    2  C3  UNL     1     -24.769  22.925 -24.363  1.00  0.00     0.302 C 
HETATM    3  C4  UNL     1     -25.551  24.070 -23.766  1.00  0.00     0.264 C 
HETATM    4  N3  UNL     1     -24.737  25.250 -23.934  1.00  0.00    -0.047 N 
ATOM      5  H31 UNL     1     -24.638  25.806 -23.084  1.00  0.00     0.279 HD
ATOM      6  H32 UNL     1     -25.176  25.976 -24.500  1.00  0.00     0.279 HD
HETATM    7  C5  UNL     1     -23.457  24.765 -24.477  1.00  0.00     0.502 C 
ENDROOT
BRANCH   1   8
HETATM    8  C2  UNL     1     -22.795  22.704 -25.571  1.00  0.00     0.301 C 
BRANCH   8   9
HETATM    9  C1  UNL     1     -21.934  22.256 -24.420  1.00  0.00     0.259 C 
BRANCH   9  10
HETATM   10  N1  UNL     1     -21.709  20.845 -24.381  1.00  0.00    -0.078 N 
ATOM     11  H13 UNL     1     -20.838  20.633 -23.894  1.00  0.00     0.274 HD
ATOM     12  H12 UNL     1     -22.372  20.393 -23.751  1.00  0.00     0.274 HD
ATOM     13  H11 UNL     1     -21.726  20.400 -25.298  1.00  0.00     0.274 HD
ENDBRANCH   9  10
ENDBRANCH   8   9
ENDBRANCH   1   8
TORSDOF 3
ENDMDL
MODEL 2
REMARK VINA RESULT: -3.646224215      1.558      1.723
REMARK  3 active torsions:
REMARK  status: ('A' for Active; 'I' for Inactive)
REMARK    1  A    between atoms: N1_1  and  C1_5 
REMARK    2  A    between atoms: C1_5  and  C2_6 
REMARK    3  A    between atoms: C2_6  and  N2_7 
ROOT
HETATM    1  N2  UNL     1     -23.804  23.586 -25.525  1.00  0.00     0.117 N 
HETATM    2  C3  UNL     1     -24.493  22.793 -24.519  1.00  0.00     0.302 C 
HETATM    3  C4  UNL     1     -25.200  23.854 -23.710  1.00  0.00     0.264 C 
HETATM    4  N3  UNL     1     -24.513  25.095 -23.979  1.00  0.00    -0.047 N 
ATOM      5  H31 UNL     1     -24.271  25.622 -23.140  1.00  0.00     0.279 HD
ATOM      6  H32 UNL     1     -25.106  25.810 -24.401  1.00  0.00     0.279 HD
HETATM    7  C5  UNL     1     -23.350  24.725 -24.803  1.00  0.00     0.502 C 
ENDROOT
BRANCH   1   8
HETATM    8  C2  UNL     1     -22.809  22.763 -26.122  1.00  0.00     0.301 C 
BRANCH   8   9
HETATM    9  C1  UNL     1     -21.645  23.500 -26.729  1.00  0.00     0.259 C 
BRANCH   9  10
HETATM   10  N1  UNL     1     -21.001  22.790 -27.789  1.00  0.00    -0.078 N 
ATOM     11  H13 UNL     1     -21.428  21.873 -27.918  1.00  0.00     0.274 HD
ATOM     12  H12 UNL     1     -21.223  23.212 -28.690  1.00  0.00     0.274 HD
ATOM     13  H11 UNL     1     -19.992  22.704 -27.672  1.00  0.00     0.274 HD
ENDBRANCH   9  10
ENDBRANCH   8   9
ENDBRANCH   1   8
TORSDOF 3
ENDMDL
MODEL 3
REMARK VINA RESULT: -3.632607763      2.115      2.989
REMARK  3 active torsions:
REMARK  status: ('A' for Active; 'I' for Inactive)
REMARK    1  A    between atoms: N1_1  and  C1_5 
REMARK    2  A    between atoms: C1_5  and  C2_6 
REMARK    3  A    between atoms: C2_6  and  N2_7 
ROOT
HETATM    1  N2  UNL     1     -22.090  22.791 -24.786  1.00  0.00     0.117 N 
HETATM    2  C3  UNL     1     -23.368  22.969 -25.458  1.00  0.00     0.302 C 
HETATM    3  C4  UNL     1     -24.324  22.292 -24.505  1.00  0.00     0.264 C 
HETATM    4  N3  UNL     1     -23.525  21.411 -23.686  1.00  0.00    -0.047 N 
ATOM      5  H31 UNL     1     -23.899  20.465 -23.614  1.00  0.00     0.279 HD
ATOM      6  H32 UNL     1     -23.562  21.629 -22.690  1.00  0.00     0.279 HD
HETATM    7  C5  UNL     1     -22.169  21.472 -24.258  1.00  0.00     0.502 C 
ENDROOT
BRANCH   1   8
HETATM    8  C2  UNL     1     -21.061  23.045 -25.734  1.00  0.00     0.301 C 
BRANCH   8   9
HETATM    9  C1  UNL     1     -21.535  23.308 -27.139  1.00  0.00     0.259 C 
BRANCH   9  10
HETATM   10  N1  UNL     1     -20.730  22.689 -28.145  1.00  0.00    -0.078 N 
ATOM     11  H13 UNL     1     -19.751  22.665 -27.858  1.00  0.00     0.274 HD
ATOM     12  H12 UNL     1     -20.919  21.688 -28.190  1.00  0.00     0.274 HD
ATOM     13  H11 UNL     1     -20.824  23.114 -29.067  1.00  0.00     0.274 HD
ENDBRANCH   9  10
ENDBRANCH   8   9
ENDBRANCH   1   8
TORSDOF 3
ENDMDL
MODEL 4
REMARK VINA RESULT: -3.609877473      2.237      3.260
REMARK  3 active torsions:
REMARK  status: ('A' for Active; 'I' for Inactive)
REMARK    1  A    between atoms: N1_1  and  C1_5 
REMARK    2  A    between atoms: C1_5  and  C2_6 
REMARK    3  A    between atoms: C2_6  and  N2_7 
ROOT
HETATM    1  N2  UNL     1     -22.793  22.074 -25.351  1.00  0.00     0.117 N 
HETATM    2  C3  UNL     1     -23.106  23.030 -26.402  1.00  0.00     0.302 C 
HETATM    3  C4  UNL     1     -21.748  23.283 -27.013  1.00  0.00     0.264 C 
HETATM    4  N3  UNL     1     -20.776  22.879 -26.024  1.00  0.00    -0.047 N 
ATOM      5  H31 UNL     1     -20.045  23.572 -25.859  1.00  0.00     0.279 HD
ATOM      6  H32 UNL     1     -20.160  22.128 -26.335  1.00  0.00     0.279 HD
HETATM    7  C5  UNL     1     -21.559  22.546 -24.823  1.00  0.00     0.502 C 
ENDROOT
BRANCH   1   8
HETATM    8  C2  UNL     1     -23.902  22.030 -24.461  1.00  0.00     0.301 C 
BRANCH   8   9
HETATM    9  C1  UNL     1     -23.677  21.246 -23.195  1.00  0.00     0.259 C 
BRANCH   9  10
HETATM   10  N1  UNL     1     -23.742  19.829 -23.374  1.00  0.00    -0.078 N 
ATOM     11  H13 UNL     1     -23.762  19.354 -22.472  1.00  0.00     0.274 HD
ATOM     12  H12 UNL     1     -24.656  19.555 -23.733  1.00  0.00     0.274 HD
ATOM     13  H11 UNL     1     -22.998  19.454 -23.962  1.00  0.00     0.274 HD
ENDBRANCH   9  10
ENDBRANCH   8   9
ENDBRANCH   1   8
TORSDOF 3
ENDMDL
MODEL 5
REMARK VINA RESULT: -3.589611316      2.376      2.960
REMARK  3 active torsions:
REMARK  status: ('A' for Active; 'I' for Inactive)
REMARK    1  A    between atoms: N1_1  and  C1_5 
REMARK    2  A    between atoms: C1_5  and  C2_6 
REMARK    3  A    between atoms: C2_6  and  N2_7 
ROOT
HETATM    1  N2  UNL     1     -22.738  23.263 -25.881  1.00  0.00     0.117 N 
HETATM    2  C3  UNL     1     -21.678  22.877 -24.962  1.00  0.00     0.302 C 
HETATM    3  C4  UNL     1     -21.899  23.826 -23.809  1.00  0.00     0.264 C 
HETATM    4  N3  UNL     1     -22.678  24.925 -24.329  1.00  0.00    -0.047 N 
ATOM      5  H31 UNL     1     -22.305  25.844 -24.090  1.00  0.00     0.279 HD
ATOM      6  H32 UNL     1     -23.582  25.041 -23.873  1.00  0.00     0.279 HD
HETATM    7  C5  UNL     1     -22.771  24.682 -25.779  1.00  0.00     0.502 C 
ENDROOT
BRANCH   1   8
HETATM    8  C2  UNL     1     -22.428  22.716 -27.157  1.00  0.00     0.301 C 
BRANCH   8   9
HETATM    9  C1  UNL     1     -21.070  23.080 -27.698  1.00  0.00     0.259 C 
BRANCH   9  10
HETATM   10  N1  UNL     1     -20.708  22.360 -28.879  1.00  0.00    -0.078 N 
ATOM     11  H13 UNL     1     -20.331  21.443 -28.638  1.00  0.00     0.274 HD
ATOM     12  H12 UNL     1     -21.540  22.074 -29.394  1.00  0.00     0.274 HD
ATOM     13  H11 UNL     1     -20.064  22.865 -29.487  1.00  0.00     0.274 HD
ENDBRANCH   9  10
ENDBRANCH   8   9
ENDBRANCH   1   8
TORSDOF 3
ENDMDL
