MODEL 1
REMARK VINA RESULT: -9.288580844      0.000      0.000
REMARK  9 active torsions:
REMARK  status: ('A' for Active; 'I' for Inactive)
REMARK    1  A    between atoms: O1_2  and  C2_3 
REMARK    2  A    between atoms: C5_7  and  C6_8 
REMARK    3  A    between atoms: C7_9  and  C8_10 
REMARK       I    between atoms: C8_10  and  N1_12 
REMARK    4  A    between atoms: C18_27  and  C19_28 
REMARK    5  A    between atoms: C19_28  and  N4_29 
REMARK    6  A    between atoms: N4_29  and  O4_30 
REMARK    7  A    between atoms: O4_30  and  C20_31 
REMARK    8  A    between atoms: C20_31  and  C21_32 
REMARK    9  A    between atoms: C21_32  and  N5_33 
ROOT
HETATM    1  C2  UNL     1      18.582  15.995   5.300  1.00  0.00     0.082 A 
HETATM    2  C3  UNL     1      18.144  16.473   4.079  1.00  0.00     0.057 A 
HETATM    3  C4  UNL     1      17.639  17.723   3.940  1.00  0.00     0.024 A 
HETATM    4 BR1  UNL     1      16.990  18.365   2.262  1.00  0.00    -0.050 Br
HETATM    5  C5  UNL     1      17.579  18.525   5.108  1.00  0.00    -0.018 A 
HETATM    6  C17 UNL     1      18.004  18.052   6.298  1.00  0.00     0.029 A 
HETATM    7  C18 UNL     1      18.524  16.766   6.475  1.00  0.00     0.029 A 
ENDROOT
BRANCH   5   8
HETATM    8  C6  UNL     1      17.088  19.875   4.827  1.00  0.00     0.018 C 
HETATM    9  C7  UNL     1      15.955  20.400   4.714  1.00  0.00     0.076 C 
BRANCH   9  10
HETATM   10  C8  UNL     1      14.560  20.122   4.785  1.00  0.00     0.255 C 
HETATM   11  O2  UNL     1      14.076  18.977   4.599  1.00  0.00    -0.268 OA
HETATM   12  N1  UNL     1      13.602  21.158   5.100  1.00  0.00    -0.244 N 
HETATM   13  C9  UNL     1      12.283  20.960   5.547  1.00  0.00     0.082 C 
HETATM   14  C16 UNL     1      14.136  22.427   4.594  1.00  0.00     0.334 C 
HETATM   15  C10 UNL     1      11.987  21.720   6.824  1.00  0.00     0.083 C 
HETATM   16  C11 UNL     1      12.038  23.183   6.737  1.00  0.00    -0.025 A 
HETATM   17  C12 UNL     1      12.635  24.077   5.830  1.00  0.00     0.108 A 
HETATM   18  C14 UNL     1      11.410  24.031   7.667  1.00  0.00     0.043 A 
HETATM   19  N2  UNL     1      12.412  25.338   6.146  1.00  0.00    -0.371 N 
HETATM   20  N3  UNL     1      13.431  23.686   4.708  1.00  0.00    -0.294 N 
HETATM   21  C13 UNL     1      11.661  25.373   7.280  1.00  0.00     0.092 A 
ATOM     22  H2  UNL     1      12.746  26.151   5.627  1.00  0.00     0.161 HD
HETATM   23  C15 UNL     1      10.858  25.117   8.452  1.00  0.00     0.037 A 
ATOM     24  H3  UNL     1      13.508  24.342   3.932  1.00  0.00     0.172 HD
HETATM   25  O3  UNL     1      15.195  22.527   4.015  1.00  0.00    -0.246 OA
ENDBRANCH   9  10
ENDBRANCH   5   8
BRANCH   7  26
HETATM   26  C19 UNL     1      18.692  16.209   7.797  1.00  0.00     0.232 C 
BRANCH  26  27
HETATM   27  N4  UNL     1      18.316  16.377   8.914  1.00  0.00    -0.293 NA
BRANCH  27  28
HETATM   28  O4  UNL     1      17.880  16.608  10.102  1.00  0.00    -0.208 OA
BRANCH  28  29
HETATM   29  C20 UNL     1      17.999  18.118  10.326  1.00  0.00     0.247 C 
BRANCH  29  30
HETATM   30  C21 UNL     1      16.634  18.566  10.054  1.00  0.00     0.302 C 
BRANCH  30  31
HETATM   31  N5  UNL     1      16.229  19.768   9.577  1.00  0.00     0.090 N 
HETATM   32  C22 UNL     1      17.440  20.417   8.995  1.00  0.00     0.272 C 
HETATM   33  C23 UNL     1      17.141  21.813   8.540  1.00  0.00     0.030 C 
HETATM   34  C24 UNL     1      15.648  21.906   8.184  1.00  0.00     0.003 C 
HETATM   35  C25 UNL     1      14.761  21.647   9.363  1.00  0.00     0.030 C 
HETATM   36  C26 UNL     1      15.484  20.673  10.321  1.00  0.00     0.272 C 
ENDBRANCH  30  31
ENDBRANCH  29  30
ENDBRANCH  28  29
ENDBRANCH  27  28
ENDBRANCH  26  27
ENDBRANCH   7  26
BRANCH   1  37
HETATM   37  O1  UNL     1      19.125  14.700   5.425  1.00  0.00    -0.355 OA
HETATM   38  C1  UNL     1      20.403  14.559   4.844  1.00  0.00     0.210 C 
ENDBRANCH   1  37
TORSDOF 9
ENDMDL
MODEL 2
REMARK VINA RESULT: -9.183572188      4.115      9.698
REMARK  9 active torsions:
REMARK  status: ('A' for Active; 'I' for Inactive)
REMARK    1  A    between atoms: O1_2  and  C2_3 
REMARK    2  A    between atoms: C5_7  and  C6_8 
REMARK    3  A    between atoms: C7_9  and  C8_10 
REMARK       I    between atoms: C8_10  and  N1_12 
REMARK    4  A    between atoms: C18_27  and  C19_28 
REMARK    5  A    between atoms: C19_28  and  N4_29 
REMARK    6  A    between atoms: N4_29  and  O4_30 
REMARK    7  A    between atoms: O4_30  and  C20_31 
REMARK    8  A    between atoms: C20_31  and  C21_32 
REMARK    9  A    between atoms: C21_32  and  N5_33 
ROOT
HETATM    1  C2  UNL     1       7.415  24.862   3.424  1.00  0.00     0.082 A 
HETATM    2  C3  UNL     1       7.614  23.685   2.728  1.00  0.00     0.057 A 
HETATM    3  C4  UNL     1       8.824  23.076   2.684  1.00  0.00     0.024 A 
HETATM    4 BR1  UNL     1       9.110  21.476   1.682  1.00  0.00    -0.050 Br
HETATM    5  C5  UNL     1       9.884  23.703   3.388  1.00  0.00    -0.018 A 
HETATM    6  C17 UNL     1       9.684  24.854   4.062  1.00  0.00     0.029 A 
HETATM    7  C18 UNL     1       8.450  25.509   4.122  1.00  0.00     0.029 A 
ENDROOT
BRANCH   5   8
HETATM    8  C6  UNL     1      11.121  22.923   3.333  1.00  0.00     0.018 C 
HETATM    9  C7  UNL     1      12.254  23.019   3.861  1.00  0.00     0.076 C 
BRANCH   9  10
HETATM   10  C8  UNL     1      13.026  23.808   4.762  1.00  0.00     0.255 C 
HETATM   11  O2  UNL     1      12.892  25.052   4.876  1.00  0.00    -0.268 OA
HETATM   12  N1  UNL     1      14.016  23.207   5.628  1.00  0.00    -0.244 N 
HETATM   13  C9  UNL     1      14.571  23.789   6.782  1.00  0.00     0.082 C 
HETATM   14  C16 UNL     1      14.553  22.029   4.940  1.00  0.00     0.334 C 
HETATM   15  C10 UNL     1      14.452  22.890   7.996  1.00  0.00     0.083 C 
HETATM   16  C11 UNL     1      15.185  21.621   7.940  1.00  0.00    -0.025 A 
HETATM   17  C12 UNL     1      15.713  20.856   6.885  1.00  0.00     0.108 A 
HETATM   18  C14 UNL     1      15.523  20.878   9.084  1.00  0.00     0.043 A 
HETATM   19  N2  UNL     1      16.314  19.761   7.308  1.00  0.00    -0.371 N 
HETATM   20  N3  UNL     1      15.590  21.188   5.499  1.00  0.00    -0.294 N 
HETATM   21  C13 UNL     1      16.224  19.717   8.666  1.00  0.00     0.092 A 
ATOM     22  H2  UNL     1      16.770  19.064   6.719  1.00  0.00     0.161 HD
HETATM   23  C15 UNL     1      16.006  19.937  10.075  1.00  0.00     0.037 A 
ATOM     24  H3  UNL     1      16.284  20.804   4.857  1.00  0.00     0.172 HD
HETATM   25  O3  UNL     1      14.198  21.674   3.837  1.00  0.00    -0.246 OA
ENDBRANCH   9  10
ENDBRANCH   5   8
BRANCH   7  26
HETATM   26  C19 UNL     1       8.354  26.867   4.603  1.00  0.00     0.232 C 
BRANCH  26  27
HETATM   27  N4  UNL     1       8.231  27.470   5.622  1.00  0.00    -0.293 NA
BRANCH  27  28
HETATM   28  O4  UNL     1       8.105  28.068   6.754  1.00  0.00    -0.208 OA
BRANCH  28  29
HETATM   29  C20 UNL     1       6.932  27.397   7.475  1.00  0.00     0.247 C 
BRANCH  29  30
HETATM   30  C21 UNL     1       7.564  26.193   8.011  1.00  0.00     0.302 C 
BRANCH  30  31
HETATM   31  N5  UNL     1       8.886  25.941   8.165  1.00  0.00     0.090 N 
HETATM   32  C22 UNL     1       9.120  24.574   7.613  1.00  0.00     0.272 C 
HETATM   33  C23 UNL     1      10.533  24.133   7.838  1.00  0.00     0.030 C 
HETATM   34  C24 UNL     1      11.431  25.379   7.923  1.00  0.00     0.003 C 
HETATM   35  C25 UNL     1      11.076  26.262   9.080  1.00  0.00     0.030 C 
HETATM   36  C26 UNL     1       9.563  26.120   9.364  1.00  0.00     0.272 C 
ENDBRANCH  30  31
ENDBRANCH  29  30
ENDBRANCH  28  29
ENDBRANCH  27  28
ENDBRANCH  26  27
ENDBRANCH   7  26
BRANCH   1  37
HETATM   37  O1  UNL     1       6.145  25.472   3.479  1.00  0.00    -0.355 OA
HETATM   38  C1  UNL     1       5.073  24.578   3.276  1.00  0.00     0.210 C 
ENDBRANCH   1  37
TORSDOF 9
ENDMDL
MODEL 3
REMARK VINA RESULT: -9.171494282      4.739     10.768
REMARK  9 active torsions:
REMARK  status: ('A' for Active; 'I' for Inactive)
REMARK    1  A    between atoms: O1_2  and  C2_3 
REMARK    2  A    between atoms: C5_7  and  C6_8 
REMARK    3  A    between atoms: C7_9  and  C8_10 
REMARK       I    between atoms: C8_10  and  N1_12 
REMARK    4  A    between atoms: C18_27  and  C19_28 
REMARK    5  A    between atoms: C19_28  and  N4_29 
REMARK    6  A    between atoms: N4_29  and  O4_30 
REMARK    7  A    between atoms: O4_30  and  C20_31 
REMARK    8  A    between atoms: C20_31  and  C21_32 
REMARK    9  A    between atoms: C21_32  and  N5_33 
ROOT
HETATM    1  C2  UNL     1       8.033  27.286   6.730  1.00  0.00     0.082 A 
HETATM    2  C3  UNL     1       8.749  27.183   7.908  1.00  0.00     0.057 A 
HETATM    3  C4  UNL     1       9.911  26.489   7.980  1.00  0.00     0.024 A 
HETATM    4 BR1  UNL     1      10.874  26.306   9.619  1.00  0.00    -0.050 Br
HETATM    5  C5  UNL     1      10.365  25.870   6.787  1.00  0.00    -0.018 A 
HETATM    6  C17 UNL     1       9.659  25.971   5.641  1.00  0.00     0.029 A 
HETATM    7  C18 UNL     1       8.455  26.674   5.536  1.00  0.00     0.029 A 
ENDROOT
BRANCH   5   8
HETATM    8  C6  UNL     1      11.660  25.213   6.963  1.00  0.00     0.018 C 
HETATM    9  C7  UNL     1      12.077  24.034   6.869  1.00  0.00     0.076 C 
BRANCH   9  10
HETATM   10  C8  UNL     1      11.670  22.706   6.556  1.00  0.00     0.255 C 
HETATM   11  O2  UNL     1      10.466  22.353   6.486  1.00  0.00    -0.268 OA
HETATM   12  N1  UNL     1      12.639  21.669   6.277  1.00  0.00    -0.244 N 
HETATM   13  C9  UNL     1      12.385  20.452   5.621  1.00  0.00     0.082 C 
HETATM   14  C16 UNL     1      13.848  21.970   7.050  1.00  0.00     0.334 C 
HETATM   15  C10 UNL     1      13.322  20.220   4.452  1.00  0.00     0.083 C 
HETATM   16  C11 UNL     1      14.743  20.072   4.778  1.00  0.00    -0.025 A 
HETATM   17  C12 UNL     1      15.522  20.434   5.892  1.00  0.00     0.108 A 
HETATM   18  C14 UNL     1      15.670  19.461   3.915  1.00  0.00     0.043 A 
HETATM   19  N2  UNL     1      16.789  20.093   5.753  1.00  0.00    -0.371 N 
HETATM   20  N3  UNL     1      15.027  21.130   7.039  1.00  0.00    -0.294 N 
HETATM   21  C13 UNL     1      16.942  19.488   4.543  1.00  0.00     0.092 A 
ATOM     22  H2  UNL     1      17.528  20.254   6.437  1.00  0.00     0.161 HD
HETATM   23  C15 UNL     1      16.813  18.875   3.243  1.00  0.00     0.037 A 
ATOM     24  H3  UNL     1      15.541  21.026   7.913  1.00  0.00     0.172 HD
HETATM   25  O3  UNL     1      13.956  22.929   7.783  1.00  0.00    -0.246 OA
ENDBRANCH   9  10
ENDBRANCH   5   8
BRANCH   7  26
HETATM   26  C19 UNL     1       7.600  26.513   4.383  1.00  0.00     0.232 C 
BRANCH  26  27
HETATM   27  N4  UNL     1       6.671  25.866   4.017  1.00  0.00    -0.293 NA
BRANCH  27  28
HETATM   28  O4  UNL     1       5.705  25.135   3.585  1.00  0.00    -0.208 OA
BRANCH  28  29
HETATM   29  C20 UNL     1       6.191  24.492   2.283  1.00  0.00     0.247 C 
BRANCH  29  30
HETATM   30  C21 UNL     1       6.917  23.325   2.782  1.00  0.00     0.302 C 
BRANCH  30  31
HETATM   31  N5  UNL     1       8.253  23.105   2.772  1.00  0.00     0.090 N 
HETATM   32  C22 UNL     1       8.843  24.152   1.887  1.00  0.00     0.272 C 
HETATM   33  C23 UNL     1      10.314  23.938   1.700  1.00  0.00     0.030 C 
HETATM   34  C24 UNL     1      10.864  23.194   2.928  1.00  0.00     0.003 C 
HETATM   35  C25 UNL     1      10.257  21.834   3.093  1.00  0.00     0.030 C 
HETATM   36  C26 UNL     1       8.820  21.862   2.524  1.00  0.00     0.272 C 
ENDBRANCH  30  31
ENDBRANCH  29  30
ENDBRANCH  28  29
ENDBRANCH  27  28
ENDBRANCH  26  27
ENDBRANCH   7  26
BRANCH   1  37
HETATM   37  O1  UNL     1       6.837  28.029   6.665  1.00  0.00    -0.355 OA
HETATM   38  C1  UNL     1       5.770  27.457   7.390  1.00  0.00     0.210 C 
ENDBRANCH   1  37
TORSDOF 9
ENDMDL
MODEL 4
REMARK VINA RESULT: -9.007877239      3.304      5.506
REMARK  9 active torsions:
REMARK  status: ('A' for Active; 'I' for Inactive)
REMARK    1  A    between atoms: O1_2  and  C2_3 
REMARK    2  A    between atoms: C5_7  and  C6_8 
REMARK    3  A    between atoms: C7_9  and  C8_10 
REMARK       I    between atoms: C8_10  and  N1_12 
REMARK    4  A    between atoms: C18_27  and  C19_28 
REMARK    5  A    between atoms: C19_28  and  N4_29 
REMARK    6  A    between atoms: N4_29  and  O4_30 
REMARK    7  A    between atoms: O4_30  and  C20_31 
REMARK    8  A    between atoms: C20_31  and  C21_32 
REMARK    9  A    between atoms: C21_32  and  N5_33 
ROOT
HETATM    1  C2  UNL     1      17.121  19.595   8.248  1.00  0.00     0.082 A 
HETATM    2  C3  UNL     1      16.370  19.991   9.339  1.00  0.00     0.057 A 
HETATM    3  C4  UNL     1      15.399  20.930   9.236  1.00  0.00     0.024 A 
HETATM    4 BR1  UNL     1      14.394  21.510  10.753  1.00  0.00    -0.050 Br
HETATM    5  C5  UNL     1      15.184  21.494   7.952  1.00  0.00    -0.018 A 
HETATM    6  C17 UNL     1      15.924  21.107   6.892  1.00  0.00     0.029 A 
HETATM    7  C18 UNL     1      16.936  20.146   6.967  1.00  0.00     0.029 A 
ENDROOT
BRANCH   5   8
HETATM    8  C6  UNL     1      14.067  22.440   7.943  1.00  0.00     0.018 C 
HETATM    9  C7  UNL     1      13.555  23.199   7.087  1.00  0.00     0.076 C 
BRANCH   9  10
HETATM   10  C8  UNL     1      13.654  23.610   5.727  1.00  0.00     0.255 C 
HETATM   11  O2  UNL     1      14.744  23.665   5.102  1.00  0.00    -0.268 OA
HETATM   12  N1  UNL     1      12.481  23.978   4.966  1.00  0.00    -0.244 N 
HETATM   13  C9  UNL     1      12.391  24.048   3.564  1.00  0.00     0.082 C 
HETATM   14  C16 UNL     1      11.504  24.546   5.900  1.00  0.00     0.334 C 
HETATM   15  C10 UNL     1      11.233  23.236   3.019  1.00  0.00     0.083 C 
HETATM   16  C11 UNL     1       9.890  23.674   3.410  1.00  0.00    -0.025 A 
HETATM   17  C12 UNL     1       9.402  24.474   4.459  1.00  0.00     0.108 A 
HETATM   18  C14 UNL     1       8.729  23.321   2.700  1.00  0.00     0.043 A 
HETATM   19  N2  UNL     1       8.090  24.612   4.418  1.00  0.00    -0.371 N 
HETATM   20  N3  UNL     1      10.212  25.050   5.487  1.00  0.00    -0.294 N 
HETATM   21  C13 UNL     1       7.616  23.914   3.350  1.00  0.00     0.092 A 
ATOM     22  H2  UNL     1       7.527  25.150   5.076  1.00  0.00     0.161 HD
HETATM   23  C15 UNL     1       7.398  23.128   2.160  1.00  0.00     0.037 A 
ATOM     24  H3  UNL     1       9.852  25.876   5.965  1.00  0.00     0.172 HD
HETATM   25  O3  UNL     1      11.703  24.668   7.089  1.00  0.00    -0.246 OA
ENDBRANCH   9  10
ENDBRANCH   5   8
BRANCH   7  26
HETATM   26  C19 UNL     1      17.881  19.978   5.889  1.00  0.00     0.232 C 
BRANCH  26  27
HETATM   27  N4  UNL     1      18.031  19.340   4.895  1.00  0.00    -0.293 NA
BRANCH  27  28
HETATM   28  O4  UNL     1      18.169  18.697   3.790  1.00  0.00    -0.208 OA
BRANCH  28  29
HETATM   29  C20 UNL     1      17.544  17.316   4.005  1.00  0.00     0.247 C 
BRANCH  29  30
HETATM   30  C21 UNL     1      16.262  17.461   3.318  1.00  0.00     0.302 C 
BRANCH  30  31
HETATM   31  N5  UNL     1      15.473  18.560   3.245  1.00  0.00     0.090 N 
HETATM   32  C22 UNL     1      14.535  18.479   4.403  1.00  0.00     0.272 C 
HETATM   33  C23 UNL     1      13.526  19.586   4.360  1.00  0.00     0.030 C 
HETATM   34  C24 UNL     1      14.135  20.780   3.606  1.00  0.00     0.003 C 
HETATM   35  C25 UNL     1      14.461  20.451   2.181  1.00  0.00     0.030 C 
HETATM   36  C26 UNL     1      14.810  18.948   2.089  1.00  0.00     0.272 C 
ENDBRANCH  30  31
ENDBRANCH  29  30
ENDBRANCH  28  29
ENDBRANCH  27  28
ENDBRANCH  26  27
ENDBRANCH   7  26
BRANCH   1  37
HETATM   37  O1  UNL     1      18.113  18.601   8.367  1.00  0.00    -0.355 OA
HETATM   38  C1  UNL     1      17.801  17.592   9.301  1.00  0.00     0.210 C 
ENDBRANCH   1  37
TORSDOF 9
ENDMDL
MODEL 5
REMARK VINA RESULT: -8.964591950      5.992     11.937
REMARK  9 active torsions:
REMARK  status: ('A' for Active; 'I' for Inactive)
REMARK    1  A    between atoms: O1_2  and  C2_3 
REMARK    2  A    between atoms: C5_7  and  C6_8 
REMARK    3  A    between atoms: C7_9  and  C8_10 
REMARK       I    between atoms: C8_10  and  N1_12 
REMARK    4  A    between atoms: C18_27  and  C19_28 
REMARK    5  A    between atoms: C19_28  and  N4_29 
REMARK    6  A    between atoms: N4_29  and  O4_30 
REMARK    7  A    between atoms: O4_30  and  C20_31 
REMARK    8  A    between atoms: C20_31  and  C21_32 
REMARK    9  A    between atoms: C21_32  and  N5_33 
ROOT
HETATM    1  C2  UNL     1       5.019  27.297   6.733  1.00  0.00     0.082 A 
HETATM    2  C3  UNL     1       6.071  27.626   7.567  1.00  0.00     0.057 A 
HETATM    3  C4  UNL     1       7.358  27.364   7.232  1.00  0.00     0.024 A 
HETATM    4 BR1  UNL     1       8.807  27.776   8.405  1.00  0.00    -0.050 Br
HETATM    5  C5  UNL     1       7.581  26.734   5.981  1.00  0.00    -0.018 A 
HETATM    6  C17 UNL     1       6.549  26.410   5.173  1.00  0.00     0.029 A 
HETATM    7  C18 UNL     1       5.211  26.662   5.493  1.00  0.00     0.029 A 
ENDROOT
BRANCH   5   8
HETATM    8  C6  UNL     1       9.005  26.566   5.691  1.00  0.00     0.018 C 
HETATM    9  C7  UNL     1       9.872  25.705   5.971  1.00  0.00     0.076 C 
BRANCH   9  10
HETATM   10  C8  UNL     1      10.065  24.463   6.641  1.00  0.00     0.255 C 
HETATM   11  O2  UNL     1       9.308  24.047   7.553  1.00  0.00    -0.268 OA
HETATM   12  N1  UNL     1      11.157  23.582   6.290  1.00  0.00    -0.244 N 
HETATM   13  C9  UNL     1      11.253  22.214   6.602  1.00  0.00     0.082 C 
HETATM   14  C16 UNL     1      12.269  24.416   5.821  1.00  0.00     0.334 C 
HETATM   15  C10 UNL     1      11.521  21.360   5.378  1.00  0.00     0.083 C 
HETATM   16  C11 UNL     1      12.800  21.583   4.698  1.00  0.00    -0.025 A 
HETATM   17  C12 UNL     1      13.719  22.648   4.693  1.00  0.00     0.108 A 
HETATM   18  C14 UNL     1      13.386  20.641   3.834  1.00  0.00     0.043 A 
HETATM   19  N2  UNL     1      14.762  22.409   3.921  1.00  0.00    -0.371 N 
HETATM   20  N3  UNL     1      13.546  23.875   5.405  1.00  0.00    -0.294 N 
HETATM   21  C13 UNL     1      14.609  21.180   3.357  1.00  0.00     0.092 A 
ATOM     22  H2  UNL     1      15.551  23.039   3.772  1.00  0.00     0.161 HD
HETATM   23  C15 UNL     1      14.207  19.861   2.931  1.00  0.00     0.037 A 
ATOM     24  H3  UNL     1      14.383  24.410   5.638  1.00  0.00     0.172 HD
HETATM   25  O3  UNL     1      12.225  25.625   5.767  1.00  0.00    -0.246 OA
ENDBRANCH   9  10
ENDBRANCH   5   8
BRANCH   7  26
HETATM   26  C19 UNL     1       4.141  26.046   4.744  1.00  0.00     0.232 C 
BRANCH  26  27
HETATM   27  N4  UNL     1       3.974  25.268   3.858  1.00  0.00    -0.293 NA
BRANCH  27  28
HETATM   28  O4  UNL     1       3.856  24.425   2.895  1.00  0.00    -0.208 OA
BRANCH  28  29
HETATM   29  C20 UNL     1       4.955  23.377   3.093  1.00  0.00     0.247 C 
BRANCH  29  30
HETATM   30  C21 UNL     1       6.040  23.930   2.286  1.00  0.00     0.302 C 
BRANCH  30  31
HETATM   31  N5  UNL     1       7.365  23.660   2.370  1.00  0.00     0.090 N 
HETATM   32  C22 UNL     1       8.072  24.955   2.146  1.00  0.00     0.272 C 
HETATM   33  C23 UNL     1       9.556  24.760   2.096  1.00  0.00     0.030 C 
HETATM   34  C24 UNL     1       9.919  23.516   2.924  1.00  0.00     0.003 C 
HETATM   35  C25 UNL     1       9.310  22.264   2.370  1.00  0.00     0.030 C 
HETATM   36  C26 UNL     1       7.979  22.628   1.674  1.00  0.00     0.272 C 
ENDBRANCH  30  31
ENDBRANCH  29  30
ENDBRANCH  28  29
ENDBRANCH  27  28
ENDBRANCH  26  27
ENDBRANCH   7  26
BRANCH   1  37
HETATM   37  O1  UNL     1       3.687  27.595   7.086  1.00  0.00    -0.355 OA
HETATM   38  C1  UNL     1       3.395  28.975   7.097  1.00  0.00     0.210 C 
ENDBRANCH   1  37
TORSDOF 9
ENDMDL
