MODEL 1
REMARK VINA RESULT: -9.975516183      0.000      0.000
REMARK  7 active torsions:
REMARK  status: ('A' for Active; 'I' for Inactive)
REMARK    1  A    between atoms: O1_2  and  C2_3 
REMARK    2  A    between atoms: C5_7  and  C6_8 
REMARK    3  A    between atoms: C6_8  and  C7_10 
REMARK    4  A    between atoms: C9_12  and  S1_13 
REMARK    5  A    between atoms: S1_13  and  N1_16 
REMARK    6  A    between atoms: C17_26  and  C18_27 
REMARK    7  A    between atoms: C18_27  and  C19_28 
ROOT
HETATM    1  C2  UNL     1       9.737  25.046   7.137  1.00  0.00     0.076 A 
HETATM    2  C3  UNL     1      10.515  24.193   7.874  1.00  0.00     0.062 A 
HETATM    3  C4  UNL     1      11.723  23.695   7.460  1.00  0.00     0.051 A 
HETATM    4 CL1  UNL     1      12.634  22.608   8.481  1.00  0.00    -0.083 Cl
HETATM    5  C5  UNL     1      12.165  24.105   6.201  1.00  0.00     0.039 A 
HETATM    6  C16 UNL     1      11.396  24.962   5.447  1.00  0.00     0.027 A 
HETATM    7  C17 UNL     1      10.196  25.443   5.877  1.00  0.00    -0.018 A 
ENDROOT
BRANCH   5   8
HETATM    8  C6  UNL     1      13.443  23.537   5.776  1.00  0.00     0.210 C 
HETATM    9  O2  UNL     1      14.554  24.043   6.061  1.00  0.00    -0.285 OA
BRANCH   8  10
HETATM   10  C7  UNL     1      13.417  22.311   4.975  1.00  0.00     0.085 A 
HETATM   11  C8  UNL     1      14.483  21.547   4.558  1.00  0.00     0.059 A 
HETATM   12  C9  UNL     1      14.012  20.478   3.829  1.00  0.00     0.092 A 
HETATM   13  C15 UNL     1      12.631  20.636   3.825  1.00  0.00     0.113 A 
HETATM   14  N2  UNL     1      12.271  21.724   4.504  1.00  0.00    -0.361 N 
ATOM     15  H2  UNL     1      11.318  22.058   4.647  1.00  0.00     0.165 HD
BRANCH  12  16
HETATM   16  S1  UNL     1      14.917  19.192   3.077  1.00  0.00     0.245 S 
HETATM   17  O3  UNL     1      14.292  17.868   3.498  1.00  0.00    -0.206 OA
HETATM   18  O4  UNL     1      14.688  19.321   1.575  1.00  0.00    -0.206 OA
BRANCH  16  19
HETATM   19  N1  UNL     1      16.582  19.217   3.448  1.00  0.00    -0.206 NA
HETATM   20  C10 UNL     1      16.933  18.758   4.753  1.00  0.00     0.107 C 
HETATM   21  C11 UNL     1      18.314  18.097   4.760  1.00  0.00     0.015 C 
HETATM   22  C12 UNL     1      18.309  16.836   3.944  1.00  0.00     0.002 C 
HETATM   23  C13 UNL     1      17.446  17.056   2.723  1.00  0.00     0.015 C 
HETATM   24  C14 UNL     1      17.336  18.519   2.452  1.00  0.00     0.107 C 
ENDBRANCH  16  19
ENDBRANCH  12  16
ENDBRANCH   8  10
ENDBRANCH   5   8
BRANCH   7  25
HETATM   25  C18 UNL     1       9.350  26.330   5.072  1.00  0.00     0.100 C 
BRANCH  25  26
HETATM   26  C19 UNL     1       8.350  25.581   4.334  1.00  0.00     0.037 A 
HETATM   27  N3  UNL     1       7.053  25.704   4.698  1.00  0.00    -0.301 N 
HETATM   28  N4  UNL     1       6.052  25.045   4.210  1.00  0.00    -0.266 N 
ATOM     29  H3  UNL     1       6.844  26.383   5.429  1.00  0.00     0.186 HD
HETATM   30  C20 UNL     1       6.312  24.147   3.245  1.00  0.00     0.266 A 
ATOM     31  H4  UNL     1       5.102  25.201   4.545  1.00  0.00     0.190 HD
HETATM   32  O5  UNL     1       5.342  23.482   2.750  1.00  0.00    -0.266 OA
HETATM   33  C21 UNL     1       7.597  23.948   2.803  1.00  0.00     0.019 A 
HETATM   34  C22 UNL     1       8.632  24.671   3.346  1.00  0.00    -0.022 A 
HETATM   35  C26 UNL     1       7.754  22.919   1.731  1.00  0.00     0.045 C 
HETATM   36  C23 UNL     1       9.975  24.545   2.790  1.00  0.00     0.041 C 
HETATM   37  C24 UNL     1      10.128  23.212   2.096  1.00  0.00     0.005 C 
HETATM   38  C25 UNL     1       9.077  23.116   1.010  1.00  0.00     0.005 C 
ENDBRANCH  25  26
ENDBRANCH   7  25
BRANCH   1  39
HETATM   39  O1  UNL     1       8.547  25.522   7.583  1.00  0.00    -0.355 OA
HETATM   40  C1  UNL     1       8.412  26.412   8.680  1.00  0.00     0.210 C 
ENDBRANCH   1  39
TORSDOF 7
ENDMDL
MODEL 2
REMARK VINA RESULT: -9.859775373      2.164      4.177
REMARK  7 active torsions:
REMARK  status: ('A' for Active; 'I' for Inactive)
REMARK    1  A    between atoms: O1_2  and  C2_3 
REMARK    2  A    between atoms: C5_7  and  C6_8 
REMARK    3  A    between atoms: C6_8  and  C7_10 
REMARK    4  A    between atoms: C9_12  and  S1_13 
REMARK    5  A    between atoms: S1_13  and  N1_16 
REMARK    6  A    between atoms: C17_26  and  C18_27 
REMARK    7  A    between atoms: C18_27  and  C19_28 
ROOT
HETATM    1  C2  UNL     1       8.169  24.331   2.593  1.00  0.00     0.076 A 
HETATM    2  C3  UNL     1       8.513  23.040   2.293  1.00  0.00     0.062 A 
HETATM    3  C4  UNL     1       9.388  22.283   3.027  1.00  0.00     0.051 A 
HETATM    4 CL1  UNL     1       9.760  20.642   2.553  1.00  0.00    -0.083 Cl
HETATM    5  C5  UNL     1       9.948  22.894   4.151  1.00  0.00     0.039 A 
HETATM    6  C16 UNL     1       9.613  24.191   4.467  1.00  0.00     0.027 A 
HETATM    7  C17 UNL     1       8.742  24.927   3.722  1.00  0.00    -0.018 A 
ENDROOT
BRANCH   5   8
HETATM    8  C6  UNL     1      10.896  22.071   4.899  1.00  0.00     0.210 C 
HETATM    9  O2  UNL     1      10.704  21.691   6.077  1.00  0.00    -0.285 OA
BRANCH   8  10
HETATM   10  C7  UNL     1      12.136  21.672   4.227  1.00  0.00     0.085 A 
HETATM   11  C8  UNL     1      12.700  20.418   4.164  1.00  0.00     0.059 A 
HETATM   12  C9  UNL     1      13.863  20.485   3.430  1.00  0.00     0.092 A 
HETATM   13  C15 UNL     1      13.971  21.822   3.063  1.00  0.00     0.113 A 
HETATM   14  N2  UNL     1      12.947  22.532   3.534  1.00  0.00    -0.361 N 
ATOM     15  H2  UNL     1      12.795  23.532   3.402  1.00  0.00     0.165 HD
BRANCH  12  16
HETATM   16  S1  UNL     1      14.969  19.200   3.025  1.00  0.00     0.245 S 
HETATM   17  O3  UNL     1      14.388  17.895   3.554  1.00  0.00    -0.206 OA
HETATM   18  O4  UNL     1      14.967  19.090   1.504  1.00  0.00    -0.206 OA
BRANCH  16  19
HETATM   19  N1  UNL     1      16.549  19.441   3.621  1.00  0.00    -0.206 NA
HETATM   20  C10 UNL     1      16.676  19.475   5.042  1.00  0.00     0.107 C 
HETATM   21  C11 UNL     1      18.035  18.932   5.494  1.00  0.00     0.015 C 
HETATM   22  C12 UNL     1      18.162  17.471   5.174  1.00  0.00     0.002 C 
HETATM   23  C13 UNL     1      17.515  17.212   3.833  1.00  0.00     0.015 C 
HETATM   24  C14 UNL     1      17.456  18.487   3.059  1.00  0.00     0.107 C 
ENDBRANCH  16  19
ENDBRANCH  12  16
ENDBRANCH   8  10
ENDBRANCH   5   8
BRANCH   7  25
HETATM   25  C18 UNL     1       8.400  26.321   4.026  1.00  0.00     0.100 C 
BRANCH  25  26
HETATM   26  C19 UNL     1       7.412  26.403   5.086  1.00  0.00     0.037 A 
HETATM   27  N3  UNL     1       6.128  26.097   4.795  1.00  0.00    -0.301 N 
HETATM   28  N4  UNL     1       5.113  26.203   5.591  1.00  0.00    -0.266 N 
ATOM     29  H3  UNL     1       5.940  25.748   3.855  1.00  0.00     0.186 HD
HETATM   30  C20 UNL     1       5.344  26.660   6.833  1.00  0.00     0.266 A 
ATOM     31  H4  UNL     1       4.173  25.948   5.288  1.00  0.00     0.190 HD
HETATM   32  O5  UNL     1       4.360  26.776   7.636  1.00  0.00    -0.266 OA
HETATM   33  C21 UNL     1       6.616  26.997   7.228  1.00  0.00     0.019 A 
HETATM   34  C22 UNL     1       7.667  26.868   6.352  1.00  0.00    -0.022 A 
HETATM   35  C26 UNL     1       6.740  27.497   8.630  1.00  0.00     0.045 C 
HETATM   36  C23 UNL     1       9.030  27.110   6.813  1.00  0.00     0.041 C 
HETATM   37  C24 UNL     1       9.018  28.029   8.012  1.00  0.00     0.005 C 
HETATM   38  C25 UNL     1       8.182  27.385   9.098  1.00  0.00     0.005 C 
ENDBRANCH  25  26
ENDBRANCH   7  25
BRANCH   1  39
HETATM   39  O1  UNL     1       7.294  25.049   1.844  1.00  0.00    -0.355 OA
HETATM   40  C1  UNL     1       5.934  24.689   1.655  1.00  0.00     0.210 C 
ENDBRANCH   1  39
TORSDOF 7
ENDMDL
MODEL 3
REMARK VINA RESULT: -9.795061234      4.309      5.855
REMARK  7 active torsions:
REMARK  status: ('A' for Active; 'I' for Inactive)
REMARK    1  A    between atoms: O1_2  and  C2_3 
REMARK    2  A    between atoms: C5_7  and  C6_8 
REMARK    3  A    between atoms: C6_8  and  C7_10 
REMARK    4  A    between atoms: C9_12  and  S1_13 
REMARK    5  A    between atoms: S1_13  and  N1_16 
REMARK    6  A    between atoms: C17_26  and  C18_27 
REMARK    7  A    between atoms: C18_27  and  C19_28 
ROOT
HETATM    1  C2  UNL     1      11.357  21.806   4.880  1.00  0.00     0.076 A 
HETATM    2  C3  UNL     1      12.640  21.566   4.462  1.00  0.00     0.062 A 
HETATM    3  C4  UNL     1      13.756  21.793   5.223  1.00  0.00     0.051 A 
HETATM    4 CL1  UNL     1      15.349  21.453   4.591  1.00  0.00    -0.083 Cl
HETATM    5  C5  UNL     1      13.541  22.301   6.506  1.00  0.00     0.039 A 
HETATM    6  C16 UNL     1      12.258  22.549   6.942  1.00  0.00     0.027 A 
HETATM    7  C17 UNL     1      11.162  22.318   6.167  1.00  0.00    -0.018 A 
ENDROOT
BRANCH   5   8
HETATM    8  C6  UNL     1      14.751  22.558   7.285  1.00  0.00     0.210 C 
HETATM    9  O2  UNL     1      15.433  23.604   7.178  1.00  0.00    -0.285 OA
BRANCH   8  10
HETATM   10  C7  UNL     1      15.181  21.534   8.240  1.00  0.00     0.085 A 
HETATM   11  C8  UNL     1      16.327  20.772   8.208  1.00  0.00     0.059 A 
HETATM   12  C9  UNL     1      16.341  19.934   9.300  1.00  0.00     0.092 A 
HETATM   13  C15 UNL     1      15.162  20.223   9.979  1.00  0.00     0.113 A 
HETATM   14  N2  UNL     1      14.469  21.172   9.354  1.00  0.00    -0.361 N 
ATOM     15  H2  UNL     1      13.573  21.560   9.650  1.00  0.00     0.165 HD
BRANCH  12  16
HETATM   16  S1  UNL     1      17.553  18.770   9.762  1.00  0.00     0.245 S 
HETATM   17  O3  UNL     1      17.894  17.934   8.535  1.00  0.00    -0.206 OA
HETATM   18  O4  UNL     1      18.807  19.564  10.109  1.00  0.00    -0.206 OA
BRANCH  16  19
HETATM   19  N1  UNL     1      17.082  17.769  11.061  1.00  0.00    -0.206 NA
HETATM   20  C10 UNL     1      16.440  16.547  10.700  1.00  0.00     0.107 C 
HETATM   21  C11 UNL     1      16.738  15.438  11.715  1.00  0.00     0.015 C 
HETATM   22  C12 UNL     1      18.195  15.077  11.701  1.00  0.00     0.002 C 
HETATM   23  C13 UNL     1      19.004  16.340  11.516  1.00  0.00     0.015 C 
HETATM   24  C14 UNL     1      18.186  17.516  11.936  1.00  0.00     0.107 C 
ENDBRANCH  16  19
ENDBRANCH  12  16
ENDBRANCH   8  10
ENDBRANCH   5   8
BRANCH   7  25
HETATM   25  C18 UNL     1       9.792  22.607   6.604  1.00  0.00     0.100 C 
BRANCH  25  26
HETATM   26  C19 UNL     1       9.410  23.969   6.277  1.00  0.00     0.037 A 
HETATM   27  N3  UNL     1       9.078  24.255   4.998  1.00  0.00    -0.301 N 
HETATM   28  N4  UNL     1       8.802  25.426   4.519  1.00  0.00    -0.266 N 
ATOM     29  H3  UNL     1       9.042  23.472   4.346  1.00  0.00     0.186 HD
HETATM   30  C20 UNL     1       8.845  26.468   5.366  1.00  0.00     0.266 A 
ATOM     31  H4  UNL     1       8.561  25.553   3.537  1.00  0.00     0.190 HD
HETATM   32  O5  UNL     1       8.579  27.632   4.918  1.00  0.00    -0.266 OA
HETATM   33  C21 UNL     1       9.170  26.282   6.688  1.00  0.00     0.019 A 
HETATM   34  C22 UNL     1       9.454  25.021   7.157  1.00  0.00    -0.022 A 
HETATM   35  C26 UNL     1       9.188  27.519   7.524  1.00  0.00     0.045 C 
HETATM   36  C23 UNL     1       9.678  24.811   8.582  1.00  0.00     0.041 C 
HETATM   37  C24 UNL     1      10.142  26.095   9.231  1.00  0.00     0.005 C 
HETATM   38  C25 UNL     1       9.087  27.156   8.996  1.00  0.00     0.005 C 
ENDBRANCH  25  26
ENDBRANCH   7  25
BRANCH   1  39
HETATM   39  O1  UNL     1      10.275  21.564   4.098  1.00  0.00    -0.355 OA
HETATM   40  C1  UNL     1      10.185  21.941   2.732  1.00  0.00     0.210 C 
ENDBRANCH   1  39
TORSDOF 7
ENDMDL
MODEL 4
REMARK VINA RESULT: -9.793828179      3.668      9.049
REMARK  7 active torsions:
REMARK  status: ('A' for Active; 'I' for Inactive)
REMARK    1  A    between atoms: O1_2  and  C2_3 
REMARK    2  A    between atoms: C5_7  and  C6_8 
REMARK    3  A    between atoms: C6_8  and  C7_10 
REMARK    4  A    between atoms: C9_12  and  S1_13 
REMARK    5  A    between atoms: S1_13  and  N1_16 
REMARK    6  A    between atoms: C17_26  and  C18_27 
REMARK    7  A    between atoms: C18_27  and  C19_28 
ROOT
HETATM    1  C2  UNL     1      11.526  21.959   3.820  1.00  0.00     0.076 A 
HETATM    2  C3  UNL     1      10.278  21.798   3.277  1.00  0.00     0.062 A 
HETATM    3  C4  UNL     1       9.436  22.831   2.958  1.00  0.00     0.051 A 
HETATM    4 CL1  UNL     1       7.860  22.514   2.270  1.00  0.00    -0.083 Cl
HETATM    5  C5  UNL     1       9.909  24.120   3.211  1.00  0.00     0.039 A 
HETATM    6  C16 UNL     1      11.160  24.299   3.755  1.00  0.00     0.027 A 
HETATM    7  C17 UNL     1      11.981  23.258   4.068  1.00  0.00    -0.018 A 
ENDROOT
BRANCH   5   8
HETATM    8  C6  UNL     1       8.979  25.199   2.884  1.00  0.00     0.210 C 
HETATM    9  O2  UNL     1       8.930  25.754   1.761  1.00  0.00    -0.285 OA
BRANCH   8  10
HETATM   10  C7  UNL     1       8.057  25.650   3.930  1.00  0.00     0.085 A 
HETATM   11  C8  UNL     1       8.338  26.421   5.034  1.00  0.00     0.059 A 
HETATM   12  C9  UNL     1       7.182  26.613   5.756  1.00  0.00     0.092 A 
HETATM   13  C15 UNL     1       6.205  25.927   5.043  1.00  0.00     0.113 A 
HETATM   14  N2  UNL     1       6.719  25.352   3.957  1.00  0.00    -0.361 N 
ATOM     15  H2  UNL     1       6.210  24.794   3.272  1.00  0.00     0.165 HD
BRANCH  12  16
HETATM   16  S1  UNL     1       6.957  27.517   7.229  1.00  0.00     0.245 S 
HETATM   17  O3  UNL     1       7.540  28.909   7.021  1.00  0.00    -0.206 OA
HETATM   18  O4  UNL     1       5.453  27.699   7.401  1.00  0.00    -0.206 OA
BRANCH  16  19
HETATM   19  N1  UNL     1       7.645  26.774   8.602  1.00  0.00    -0.206 NA
HETATM   20  C10 UNL     1       8.135  25.448   8.408  1.00  0.00     0.107 C 
HETATM   21  C11 UNL     1       9.335  25.157   9.314  1.00  0.00     0.015 C 
HETATM   22  C12 UNL     1      10.510  26.014   8.939  1.00  0.00     0.002 C 
HETATM   23  C13 UNL     1      10.004  27.388   8.563  1.00  0.00     0.015 C 
HETATM   24  C14 UNL     1       8.660  27.604   9.175  1.00  0.00     0.107 C 
ENDBRANCH  16  19
ENDBRANCH  12  16
ENDBRANCH   8  10
ENDBRANCH   5   8
BRANCH   7  25
HETATM   25  C18 UNL     1      13.303  23.430   4.680  1.00  0.00     0.100 C 
BRANCH  25  26
HETATM   26  C19 UNL     1      13.332  22.904   6.032  1.00  0.00     0.037 A 
HETATM   27  N3  UNL     1      12.391  23.325   6.908  1.00  0.00    -0.301 N 
HETATM   28  N4  UNL     1      12.325  23.029   8.166  1.00  0.00    -0.266 N 
ATOM     29  H3  UNL     1      11.662  23.937   6.541  1.00  0.00     0.186 HD
HETATM   30  C20 UNL     1      13.277  22.224   8.665  1.00  0.00     0.266 A 
ATOM     31  H4  UNL     1      11.577  23.392   8.757  1.00  0.00     0.190 HD
HETATM   32  O5  UNL     1      13.236  21.919   9.902  1.00  0.00    -0.266 OA
HETATM   33  C21 UNL     1      14.277  21.740   7.856  1.00  0.00     0.019 A 
HETATM   34  C22 UNL     1      14.311  22.077   6.524  1.00  0.00    -0.022 A 
HETATM   35  C26 UNL     1      15.278  20.860   8.531  1.00  0.00     0.045 C 
HETATM   36  C23 UNL     1      15.301  21.465   5.646  1.00  0.00     0.041 C 
HETATM   37  C24 UNL     1      16.498  21.011   6.447  1.00  0.00     0.005 C 
HETATM   38  C25 UNL     1      16.023  20.030   7.499  1.00  0.00     0.005 C 
ENDBRANCH  25  26
ENDBRANCH   7  25
BRANCH   1  39
HETATM   39  O1  UNL     1      12.334  20.910   4.119  1.00  0.00    -0.355 OA
HETATM   40  C1  UNL     1      13.245  20.327   3.201  1.00  0.00     0.210 C 
ENDBRANCH   1  39
TORSDOF 7
ENDMDL
MODEL 5
REMARK VINA RESULT: -9.716458785      3.676      9.921
REMARK  7 active torsions:
REMARK  status: ('A' for Active; 'I' for Inactive)
REMARK    1  A    between atoms: O1_2  and  C2_3 
REMARK    2  A    between atoms: C5_7  and  C6_8 
REMARK    3  A    between atoms: C6_8  and  C7_10 
REMARK    4  A    between atoms: C9_12  and  S1_13 
REMARK    5  A    between atoms: S1_13  and  N1_16 
REMARK    6  A    between atoms: C17_26  and  C18_27 
REMARK    7  A    between atoms: C18_27  and  C19_28 
ROOT
HETATM    1  C2  UNL     1      17.347  18.428   4.538  1.00  0.00     0.076 A 
HETATM    2  C3  UNL     1      16.462  18.134   3.535  1.00  0.00     0.062 A 
HETATM    3  C4  UNL     1      15.453  18.966   3.127  1.00  0.00     0.051 A 
HETATM    4 CL1  UNL     1      14.375  18.491   1.836  1.00  0.00    -0.083 Cl
HETATM    5  C5  UNL     1      15.347  20.188   3.793  1.00  0.00     0.039 A 
HETATM    6  C16 UNL     1      16.229  20.500   4.803  1.00  0.00     0.027 A 
HETATM    7  C17 UNL     1      17.224  19.656   5.196  1.00  0.00    -0.018 A 
ENDROOT
BRANCH   5   8
HETATM    8  C6  UNL     1      14.246  21.043   3.354  1.00  0.00     0.210 C 
HETATM    9  O2  UNL     1      14.033  21.334   2.154  1.00  0.00    -0.285 OA
BRANCH   8  10
HETATM   10  C7  UNL     1      13.348  21.584   4.376  1.00  0.00     0.085 A 
HETATM   11  C8  UNL     1      12.527  22.686   4.288  1.00  0.00     0.059 A 
HETATM   12  C9  UNL     1      11.851  22.839   5.477  1.00  0.00     0.092 A 
HETATM   13  C15 UNL     1      12.300  21.793   6.275  1.00  0.00     0.113 A 
HETATM   14  N2  UNL     1      13.190  21.044   5.626  1.00  0.00    -0.361 N 
ATOM     15  H2  UNL     1      13.666  20.220   5.992  1.00  0.00     0.165 HD
BRANCH  12  16
HETATM   16  S1  UNL     1      10.679  24.054   5.913  1.00  0.00     0.245 S 
HETATM   17  O3  UNL     1      11.073  25.356   5.226  1.00  0.00    -0.206 OA
HETATM   18  O4  UNL     1       9.354  23.621   5.294  1.00  0.00    -0.206 OA
BRANCH  16  19
HETATM   19  N1  UNL     1      10.524  24.285   7.596  1.00  0.00    -0.206 NA
HETATM   20  C10 UNL     1      11.297  25.348   8.150  1.00  0.00     0.107 C 
HETATM   21  C11 UNL     1      10.597  25.979   9.357  1.00  0.00     0.015 C 
HETATM   22  C12 UNL     1       9.324  26.660   8.943  1.00  0.00     0.002 C 
HETATM   23  C13 UNL     1       8.655  25.825   7.876  1.00  0.00     0.015 C 
HETATM   24  C14 UNL     1       9.148  24.419   7.967  1.00  0.00     0.107 C 
ENDBRANCH  16  19
ENDBRANCH  12  16
ENDBRANCH   8  10
ENDBRANCH   5   8
BRANCH   7  25
HETATM   25  C18 UNL     1      18.150  19.959   6.292  1.00  0.00     0.100 C 
BRANCH  25  26
HETATM   26  C19 UNL     1      17.625  19.506   7.567  1.00  0.00     0.037 A 
HETATM   27  N3  UNL     1      17.863  18.229   7.945  1.00  0.00    -0.301 N 
HETATM   28  N4  UNL     1      17.398  17.641   9.000  1.00  0.00    -0.266 N 
ATOM     29  H3  UNL     1      18.469  17.676   7.340  1.00  0.00     0.186 HD
HETATM   30  C20 UNL     1      16.598  18.357   9.808  1.00  0.00     0.266 A 
ATOM     31  H4  UNL     1      17.629  16.670   9.209  1.00  0.00     0.190 HD
HETATM   32  O5  UNL     1      16.124  17.799  10.852  1.00  0.00    -0.266 OA
HETATM   33  C21 UNL     1      16.297  19.664   9.513  1.00  0.00     0.019 A 
HETATM   34  C22 UNL     1      16.815  20.253   8.384  1.00  0.00    -0.022 A 
HETATM   35  C26 UNL     1      15.395  20.350  10.487  1.00  0.00     0.045 C 
HETATM   36  C23 UNL     1      16.592  21.674   8.140  1.00  0.00     0.041 C 
HETATM   37  C24 UNL     1      15.344  22.136   8.856  1.00  0.00     0.005 C 
HETATM   38  C25 UNL     1      15.512  21.857  10.335  1.00  0.00     0.005 C 
ENDBRANCH  25  26
ENDBRANCH   7  25
BRANCH   1  39
HETATM   39  O1  UNL     1      18.338  17.579   4.912  1.00  0.00    -0.355 OA
HETATM   40  C1  UNL     1      18.173  16.174   5.030  1.00  0.00     0.210 C 
ENDBRANCH   1  39
TORSDOF 7
ENDMDL
