MODEL 1
REMARK VINA RESULT: -9.355079392      0.000      0.000
REMARK  9 active torsions:
REMARK  status: ('A' for Active; 'I' for Inactive)
REMARK    1  A    between atoms: O1_2  and  C2_3 
REMARK    2  A    between atoms: C4_5  and  N1_6 
REMARK    3  A    between atoms: N1_6  and  C5_8 
REMARK    4  A    between atoms: C7_12  and  C8_13 
REMARK    5  A    between atoms: C11_18  and  N4_19 
REMARK    6  A    between atoms: N4_19  and  S1_21 
REMARK    7  A    between atoms: S1_21  and  C12_24 
REMARK    8  A    between atoms: C20_33  and  O4_34 
REMARK    9  A    between atoms: C22_36  and  O5_37 
ROOT
HETATM    1  C5  UNL     1      12.995  24.176   6.436  1.00  0.00     0.151 A 
HETATM    2  N2  UNL     1      12.843  25.002   7.480  1.00  0.00    -0.347 N 
ATOM      3  H2  UNL     1      13.657  25.245   8.044  1.00  0.00     0.167 HD
HETATM    4  C6  UNL     1      11.644  25.518   7.802  1.00  0.00     0.115 A 
HETATM    5  C7  UNL     1      10.509  25.229   7.079  1.00  0.00     0.030 A 
HETATM    6  N3  UNL     1      10.672  24.387   6.017  1.00  0.00    -0.341 N 
ATOM      7  H3  UNL     1       9.857  24.144   5.453  1.00  0.00     0.167 HD
HETATM    8  C11 UNL     1      11.864  23.868   5.690  1.00  0.00     0.160 A 
ENDROOT
BRANCH   1   9
HETATM    9  N1  UNL     1      14.154  23.678   6.126  1.00  0.00    -0.339 N 
ATOM     10  H1  UNL     1      14.687  24.120   5.378  1.00  0.00     0.167 HD
BRANCH   9  11
HETATM   11  C4  UNL     1      14.709  22.560   6.773  1.00  0.00     0.039 A 
HETATM   12  C3  UNL     1      14.381  22.321   8.107  1.00  0.00     0.069 A 
HETATM   13  C2  UNL     1      14.894  21.243   8.793  1.00  0.00     0.106 A 
HETATM   14  C22 UNL     1      15.750  20.379   8.147  1.00  0.00     0.135 A 
HETATM   15  C20 UNL     1      16.094  20.597   6.808  1.00  0.00     0.106 A 
HETATM   16  C19 UNL     1      15.573  21.679   6.137  1.00  0.00     0.069 A 
BRANCH  13  17
HETATM   17  O1  UNL     1      14.520  21.076  10.116  1.00  0.00    -0.353 OA
HETATM   18  C1  UNL     1      15.149  21.780  11.162  1.00  0.00     0.210 C 
ENDBRANCH  13  17
BRANCH  14  19
HETATM   19  O5  UNL     1      16.270  19.301   8.809  1.00  0.00    -0.351 OA
HETATM   20  C23 UNL     1      17.479  19.340   9.512  1.00  0.00     0.210 C 
ENDBRANCH  14  19
BRANCH  15  21
HETATM   21  O4  UNL     1      16.949  19.744   6.142  1.00  0.00    -0.353 OA
HETATM   22  C21 UNL     1      18.312  20.077   6.023  1.00  0.00     0.210 C 
ENDBRANCH  15  21
ENDBRANCH   9  11
ENDBRANCH   1   9
BRANCH   8  23
HETATM   23  N4  UNL     1      12.056  23.078   4.705  1.00  0.00    -0.263 N 
ATOM     24  H4  UNL     1      12.420  23.492   3.847  1.00  0.00     0.180 HD
BRANCH  23  25
HETATM   25  S1  UNL     1      11.761  21.402   4.689  1.00  0.00     0.264 S 
HETATM   26  O2  UNL     1      11.411  20.812   6.011  1.00  0.00    -0.200 OA
HETATM   27  O3  UNL     1      10.538  21.146   3.804  1.00  0.00    -0.200 OA
BRANCH  25  28
HETATM   28  C12 UNL     1      13.106  20.606   3.904  1.00  0.00     0.080 A 
HETATM   29  C13 UNL     1      13.807  21.147   2.849  1.00  0.00     0.027 A 
HETATM   30  C14 UNL     1      14.855  20.448   2.289  1.00  0.00     0.021 A 
HETATM   31  C15 UNL     1      15.256  19.207   2.731  1.00  0.00     0.017 A 
HETATM   32 BR1  UNL     1      16.714  18.268   1.928  1.00  0.00    -0.051 Br
HETATM   33  C16 UNL     1      14.554  18.665   3.785  1.00  0.00    -0.043 A 
HETATM   34  C17 UNL     1      14.906  17.337   4.334  1.00  0.00     0.049 C 
HETATM   35  C18 UNL     1      13.506  19.354   4.353  1.00  0.00     0.033 A 
ENDBRANCH  25  28
ENDBRANCH  23  25
ENDBRANCH   8  23
BRANCH   5  36
HETATM   36  C8  UNL     1       9.181  25.795   7.428  1.00  0.00     0.037 A 
HETATM   37  C9  UNL     1       8.511  25.053   8.581  1.00  0.00     0.011 A 
HETATM   38  C10 UNL     1       9.030  26.488   8.717  1.00  0.00     0.011 A 
ENDBRANCH   5  36
TORSDOF 9
ENDMDL
MODEL 2
REMARK VINA RESULT: -9.326852601      0.091      2.096
REMARK  9 active torsions:
REMARK  status: ('A' for Active; 'I' for Inactive)
REMARK    1  A    between atoms: O1_2  and  C2_3 
REMARK    2  A    between atoms: C4_5  and  N1_6 
REMARK    3  A    between atoms: N1_6  and  C5_8 
REMARK    4  A    between atoms: C7_12  and  C8_13 
REMARK    5  A    between atoms: C11_18  and  N4_19 
REMARK    6  A    between atoms: N4_19  and  S1_21 
REMARK    7  A    between atoms: S1_21  and  C12_24 
REMARK    8  A    between atoms: C20_33  and  O4_34 
REMARK    9  A    between atoms: C22_36  and  O5_37 
ROOT
HETATM    1  C5  UNL     1      12.985  24.196   6.442  1.00  0.00     0.151 A 
HETATM    2  N2  UNL     1      12.817  25.026   7.481  1.00  0.00    -0.347 N 
ATOM      3  H2  UNL     1      13.619  25.253   8.069  1.00  0.00     0.167 HD
HETATM    4  C6  UNL     1      11.620  25.565   7.766  1.00  0.00     0.115 A 
HETATM    5  C7  UNL     1      10.502  25.299   7.010  1.00  0.00     0.030 A 
HETATM    6  N3  UNL     1      10.679  24.453   5.953  1.00  0.00    -0.341 N 
ATOM      7  H3  UNL     1       9.878  24.226   5.364  1.00  0.00     0.167 HD
HETATM    8  C11 UNL     1      11.871  23.911   5.662  1.00  0.00     0.160 A 
ENDROOT
BRANCH   1   9
HETATM    9  N1  UNL     1      14.142  23.676   6.167  1.00  0.00    -0.339 N 
ATOM     10  H1  UNL     1      14.694  24.090   5.417  1.00  0.00     0.167 HD
BRANCH   9  11
HETATM   11  C4  UNL     1      14.670  22.569   6.854  1.00  0.00     0.039 A 
HETATM   12  C3  UNL     1      15.517  21.695   6.174  1.00  0.00     0.069 A 
HETATM   13  C2  UNL     1      16.065  20.594   6.793  1.00  0.00     0.106 A 
HETATM   14  C22 UNL     1      15.770  20.350   8.117  1.00  0.00     0.135 A 
HETATM   15  C20 UNL     1      14.923  21.213   8.820  1.00  0.00     0.106 A 
HETATM   16  C19 UNL     1      14.384  22.307   8.187  1.00  0.00     0.069 A 
BRANCH  13  17
HETATM   17  O1  UNL     1      16.897  19.774   6.048  1.00  0.00    -0.353 OA
HETATM   18  C1  UNL     1      18.272  20.045   5.902  1.00  0.00     0.210 C 
ENDBRANCH  13  17
BRANCH  14  19
HETATM   19  O5  UNL     1      16.304  19.262   8.752  1.00  0.00    -0.351 OA
HETATM   20  C23 UNL     1      17.516  19.297   9.450  1.00  0.00     0.210 C 
ENDBRANCH  14  19
BRANCH  15  21
HETATM   21  O4  UNL     1      14.615  20.987  10.146  1.00  0.00    -0.353 OA
HETATM   22  C21 UNL     1      15.211  21.782  11.144  1.00  0.00     0.210 C 
ENDBRANCH  15  21
ENDBRANCH   9  11
ENDBRANCH   1   9
BRANCH   8  23
HETATM   23  N4  UNL     1      12.076  23.117   4.683  1.00  0.00    -0.263 N 
ATOM     24  H4  UNL     1      12.463  23.525   3.832  1.00  0.00     0.180 HD
BRANCH  23  25
HETATM   25  S1  UNL     1      11.764  21.444   4.663  1.00  0.00     0.264 S 
HETATM   26  O2  UNL     1      11.404  20.856   5.983  1.00  0.00    -0.200 OA
HETATM   27  O3  UNL     1      10.542  21.202   3.774  1.00  0.00    -0.200 OA
BRANCH  25  28
HETATM   28  C12 UNL     1      13.104  20.636   3.882  1.00  0.00     0.080 A 
HETATM   29  C13 UNL     1      13.816  21.171   2.832  1.00  0.00     0.027 A 
HETATM   30  C14 UNL     1      14.858  20.463   2.274  1.00  0.00     0.021 A 
HETATM   31  C15 UNL     1      15.243  19.216   2.713  1.00  0.00     0.017 A 
HETATM   32 BR1  UNL     1      16.695  18.264   1.914  1.00  0.00    -0.051 Br
HETATM   33  C16 UNL     1      14.531  18.679   3.763  1.00  0.00    -0.043 A 
HETATM   34  C17 UNL     1      14.866  17.346   4.310  1.00  0.00     0.049 C 
HETATM   35  C18 UNL     1      13.488  19.378   4.329  1.00  0.00     0.033 A 
ENDBRANCH  25  28
ENDBRANCH  23  25
ENDBRANCH   8  23
BRANCH   5  36
HETATM   36  C8  UNL     1       9.176  25.891   7.319  1.00  0.00     0.037 A 
HETATM   37  C9  UNL     1       8.519  25.257   8.542  1.00  0.00     0.011 A 
HETATM   38  C10 UNL     1       9.035  26.700   8.541  1.00  0.00     0.011 A 
ENDBRANCH   5  36
TORSDOF 9
ENDMDL
MODEL 3
REMARK VINA RESULT: -8.890069927      3.572      8.447
REMARK  9 active torsions:
REMARK  status: ('A' for Active; 'I' for Inactive)
REMARK    1  A    between atoms: O1_2  and  C2_3 
REMARK    2  A    between atoms: C4_5  and  N1_6 
REMARK    3  A    between atoms: N1_6  and  C5_8 
REMARK    4  A    between atoms: C7_12  and  C8_13 
REMARK    5  A    between atoms: C11_18  and  N4_19 
REMARK    6  A    between atoms: N4_19  and  S1_21 
REMARK    7  A    between atoms: S1_21  and  C12_24 
REMARK    8  A    between atoms: C20_33  and  O4_34 
REMARK    9  A    between atoms: C22_36  and  O5_37 
ROOT
HETATM    1  C5  UNL     1      13.421  22.764   4.084  1.00  0.00     0.151 A 
HETATM    2  N2  UNL     1      13.679  22.127   2.934  1.00  0.00    -0.347 N 
ATOM      3  H2  UNL     1      13.340  22.526   2.058  1.00  0.00     0.167 HD
HETATM    4  C6  UNL     1      14.373  20.976   2.906  1.00  0.00     0.115 A 
HETATM    5  C7  UNL     1      14.857  20.389   4.052  1.00  0.00     0.030 A 
HETATM    6  N3  UNL     1      14.591  21.043   5.221  1.00  0.00    -0.341 N 
ATOM      7  H3  UNL     1      14.929  20.644   6.096  1.00  0.00     0.167 HD
HETATM    8  C11 UNL     1      13.899  22.191   5.256  1.00  0.00     0.160 A 
ENDROOT
BRANCH   1   9
HETATM    9  N1  UNL     1      12.750  23.876   4.110  1.00  0.00    -0.339 N 
ATOM     10  H1  UNL     1      13.264  24.749   4.225  1.00  0.00     0.167 HD
BRANCH   9  11
HETATM   11  C4  UNL     1      11.351  23.934   3.988  1.00  0.00     0.039 A 
HETATM   12  C3  UNL     1      10.708  23.011   3.164  1.00  0.00     0.069 A 
HETATM   13  C2  UNL     1       9.340  23.019   3.004  1.00  0.00     0.106 A 
HETATM   14  C22 UNL     1       8.589  23.959   3.674  1.00  0.00     0.135 A 
HETATM   15  C20 UNL     1       9.212  24.895   4.507  1.00  0.00     0.106 A 
HETATM   16  C19 UNL     1      10.578  24.874   4.656  1.00  0.00     0.069 A 
BRANCH  13  17
HETATM   17  O1  UNL     1       8.778  22.069   2.167  1.00  0.00    -0.353 OA
HETATM   18  C1  UNL     1       9.305  20.766   2.060  1.00  0.00     0.210 C 
ENDBRANCH  13  17
BRANCH  14  19
HETATM   19  O5  UNL     1       7.229  23.984   3.530  1.00  0.00    -0.351 OA
HETATM   20  C23 UNL     1       6.580  24.607   2.458  1.00  0.00     0.210 C 
ENDBRANCH  14  19
BRANCH  15  21
HETATM   21  O4  UNL     1       8.478  25.845   5.187  1.00  0.00    -0.353 OA
HETATM   22  C21 UNL     1       8.321  27.131   4.635  1.00  0.00     0.210 C 
ENDBRANCH  15  21
ENDBRANCH   9  11
ENDBRANCH   1   9
BRANCH   8  23
HETATM   23  N4  UNL     1      13.630  22.831   6.328  1.00  0.00    -0.263 N 
ATOM     24  H4  UNL     1      14.219  23.637   6.544  1.00  0.00     0.180 HD
BRANCH  23  25
HETATM   25  S1  UNL     1      12.384  22.470   7.430  1.00  0.00     0.264 S 
HETATM   26  O2  UNL     1      11.480  21.362   7.015  1.00  0.00    -0.200 OA
HETATM   27  O3  UNL     1      13.030  21.990   8.732  1.00  0.00    -0.200 OA
BRANCH  25  28
HETATM   28  C12 UNL     1      11.538  23.950   7.821  1.00  0.00     0.080 A 
HETATM   29  C13 UNL     1      12.148  25.181   7.910  1.00  0.00     0.027 A 
HETATM   30  C14 UNL     1      11.404  26.297   8.227  1.00  0.00     0.021 A 
HETATM   31  C15 UNL     1      10.049  26.257   8.467  1.00  0.00     0.017 A 
HETATM   32 BR1  UNL     1       9.049  27.826   8.903  1.00  0.00    -0.051 Br
HETATM   33  C16 UNL     1       9.438  25.025   8.379  1.00  0.00    -0.043 A 
HETATM   34  C17 UNL     1       7.986  24.875   8.619  1.00  0.00     0.049 C 
HETATM   35  C18 UNL     1      10.171  23.903   8.064  1.00  0.00     0.033 A 
ENDBRANCH  25  28
ENDBRANCH  23  25
ENDBRANCH   8  23
BRANCH   5  36
HETATM   36  C8  UNL     1      15.624  19.118   4.029  1.00  0.00     0.037 A 
HETATM   37  C9  UNL     1      14.724  17.889   3.945  1.00  0.00     0.011 A 
HETATM   38  C10 UNL     1      15.631  18.324   2.789  1.00  0.00     0.011 A 
ENDBRANCH   5  36
TORSDOF 9
ENDMDL
MODEL 4
REMARK VINA RESULT: -8.867721807      3.552      8.254
REMARK  9 active torsions:
REMARK  status: ('A' for Active; 'I' for Inactive)
REMARK    1  A    between atoms: O1_2  and  C2_3 
REMARK    2  A    between atoms: C4_5  and  N1_6 
REMARK    3  A    between atoms: N1_6  and  C5_8 
REMARK    4  A    between atoms: C7_12  and  C8_13 
REMARK    5  A    between atoms: C11_18  and  N4_19 
REMARK    6  A    between atoms: N4_19  and  S1_21 
REMARK    7  A    between atoms: S1_21  and  C12_24 
REMARK    8  A    between atoms: C20_33  and  O4_34 
REMARK    9  A    between atoms: C22_36  and  O5_37 
ROOT
HETATM    1  C5  UNL     1      13.457  22.685   4.075  1.00  0.00     0.151 A 
HETATM    2  N2  UNL     1      13.709  22.053   2.921  1.00  0.00    -0.347 N 
ATOM      3  H2  UNL     1      13.350  22.446   2.051  1.00  0.00     0.167 HD
HETATM    4  C6  UNL     1      14.422  20.914   2.882  1.00  0.00     0.115 A 
HETATM    5  C7  UNL     1      14.933  20.335   4.021  1.00  0.00     0.030 A 
HETATM    6  N3  UNL     1      14.674  20.984   5.193  1.00  0.00    -0.341 N 
ATOM      7  H3  UNL     1      15.032  20.591   6.063  1.00  0.00     0.167 HD
HETATM    8  C11 UNL     1      13.963  22.120   5.240  1.00  0.00     0.160 A 
ENDROOT
BRANCH   1   9
HETATM    9  N1  UNL     1      12.768  23.785   4.112  1.00  0.00    -0.339 N 
ATOM     10  H1  UNL     1      13.264  24.663   4.262  1.00  0.00     0.167 HD
BRANCH   9  11
HETATM   11  C4  UNL     1      11.372  23.824   3.955  1.00  0.00     0.039 A 
HETATM   12  C3  UNL     1      10.646  24.810   4.620  1.00  0.00     0.069 A 
HETATM   13  C2  UNL     1       9.276  24.898   4.505  1.00  0.00     0.106 A 
HETATM   14  C22 UNL     1       8.607  23.991   3.713  1.00  0.00     0.135 A 
HETATM   15  C20 UNL     1       9.314  22.992   3.034  1.00  0.00     0.106 A 
HETATM   16  C19 UNL     1      10.682  22.918   3.160  1.00  0.00     0.069 A 
BRANCH  13  17
HETATM   17  O1  UNL     1       8.628  25.907   5.199  1.00  0.00    -0.353 OA
HETATM   18  C1  UNL     1       8.367  27.163   4.615  1.00  0.00     0.210 C 
ENDBRANCH  13  17
BRANCH  14  19
HETATM   19  O5  UNL     1       7.247  24.061   3.583  1.00  0.00    -0.351 OA
HETATM   20  C23 UNL     1       6.608  24.673   2.500  1.00  0.00     0.210 C 
ENDBRANCH  14  19
BRANCH  15  21
HETATM   21  O4  UNL     1       8.665  22.075   2.236  1.00  0.00    -0.353 OA
HETATM   22  C21 UNL     1       9.231  20.801   2.035  1.00  0.00     0.210 C 
ENDBRANCH  15  21
ENDBRANCH   9  11
ENDBRANCH   1   9
BRANCH   8  23
HETATM   23  N4  UNL     1      13.699  22.755   6.316  1.00  0.00    -0.263 N 
ATOM     24  H4  UNL     1      14.298  23.550   6.541  1.00  0.00     0.180 HD
BRANCH  23  25
HETATM   25  S1  UNL     1      12.445  22.403   7.410  1.00  0.00     0.264 S 
HETATM   26  O2  UNL     1      11.539  21.296   6.993  1.00  0.00    -0.200 OA
HETATM   27  O3  UNL     1      13.079  21.924   8.718  1.00  0.00    -0.200 OA
BRANCH  25  28
HETATM   28  C12 UNL     1      11.602  23.887   7.792  1.00  0.00     0.080 A 
HETATM   29  C13 UNL     1      12.211  25.121   7.851  1.00  0.00     0.027 A 
HETATM   30  C14 UNL     1      11.469  26.240   8.161  1.00  0.00     0.021 A 
HETATM   31  C15 UNL     1      10.118  26.201   8.424  1.00  0.00     0.017 A 
HETATM   32 BR1  UNL     1       9.123  27.776   8.851  1.00  0.00    -0.051 Br
HETATM   33  C16 UNL     1       9.509  24.967   8.366  1.00  0.00    -0.043 A 
HETATM   34  C17 UNL     1       8.061  24.818   8.631  1.00  0.00     0.049 C 
HETATM   35  C18 UNL     1      10.239  23.841   8.057  1.00  0.00     0.033 A 
ENDBRANCH  25  28
ENDBRANCH  23  25
ENDBRANCH   8  23
BRANCH   5  36
HETATM   36  C8  UNL     1      15.722  19.077   3.985  1.00  0.00     0.037 A 
HETATM   37  C9  UNL     1      14.841  17.831   3.952  1.00  0.00     0.011 A 
HETATM   38  C10 UNL     1      15.697  18.266   2.757  1.00  0.00     0.011 A 
ENDBRANCH   5  36
TORSDOF 9
ENDMDL
MODEL 5
REMARK VINA RESULT: -8.622821961      2.474      6.487
REMARK  9 active torsions:
REMARK  status: ('A' for Active; 'I' for Inactive)
REMARK    1  A    between atoms: O1_2  and  C2_3 
REMARK    2  A    between atoms: C4_5  and  N1_6 
REMARK    3  A    between atoms: N1_6  and  C5_8 
REMARK    4  A    between atoms: C7_12  and  C8_13 
REMARK    5  A    between atoms: C11_18  and  N4_19 
REMARK    6  A    between atoms: N4_19  and  S1_21 
REMARK    7  A    between atoms: S1_21  and  C12_24 
REMARK    8  A    between atoms: C20_33  and  O4_34 
REMARK    9  A    between atoms: C22_36  and  O5_37 
ROOT
HETATM    1  C5  UNL     1      12.310  22.238   7.479  1.00  0.00     0.151 A 
HETATM    2  N2  UNL     1      13.027  22.867   8.420  1.00  0.00    -0.347 N 
ATOM      3  H2  UNL     1      12.558  23.514   9.053  1.00  0.00     0.167 HD
HETATM    4  C6  UNL     1      14.350  22.665   8.550  1.00  0.00     0.115 A 
HETATM    5  C7  UNL     1      15.040  21.804   7.728  1.00  0.00     0.030 A 
HETATM    6  N3  UNL     1      14.303  21.167   6.772  1.00  0.00    -0.341 N 
ATOM      7  H3  UNL     1      14.772  20.519   6.139  1.00  0.00     0.167 HD
HETATM    8  C11 UNL     1      12.983  21.363   6.636  1.00  0.00     0.160 A 
ENDROOT
BRANCH   1   9
HETATM    9  N1  UNL     1      11.032  22.434   7.354  1.00  0.00    -0.339 N 
ATOM     10  H1  UNL     1      10.400  21.665   7.574  1.00  0.00     0.167 HD
BRANCH   9  11
HETATM   11  C4  UNL     1      10.478  23.655   6.932  1.00  0.00     0.039 A 
HETATM   12  C3  UNL     1      10.028  23.772   5.618  1.00  0.00     0.069 A 
HETATM   13  C2  UNL     1       9.476  24.942   5.146  1.00  0.00     0.106 A 
HETATM   14  C22 UNL     1       9.366  26.023   5.992  1.00  0.00     0.135 A 
HETATM   15  C20 UNL     1       9.811  25.930   7.316  1.00  0.00     0.106 A 
HETATM   16  C19 UNL     1      10.359  24.755   7.771  1.00  0.00     0.069 A 
BRANCH  13  17
HETATM   17  O1  UNL     1       9.053  24.977   3.828  1.00  0.00    -0.353 OA
HETATM   18  C1  UNL     1       9.806  24.394   2.789  1.00  0.00     0.210 C 
ENDBRANCH  13  17
BRANCH  14  19
HETATM   19  O5  UNL     1       8.821  27.196   5.545  1.00  0.00    -0.351 OA
HETATM   20  C23 UNL     1       7.459  27.499   5.647  1.00  0.00     0.210 C 
ENDBRANCH  14  19
BRANCH  15  21
HETATM   21  O4  UNL     1       9.710  27.001   8.180  1.00  0.00    -0.353 OA
HETATM   22  C21 UNL     1       8.676  27.028   9.136  1.00  0.00     0.210 C 
ENDBRANCH  15  21
ENDBRANCH   9  11
ENDBRANCH   1   9
BRANCH   8  23
HETATM   23  N4  UNL     1      12.261  20.786   5.755  1.00  0.00    -0.263 N 
ATOM     24  H4  UNL     1      11.598  20.086   6.088  1.00  0.00     0.180 HD
BRANCH  23  25
HETATM   25  S1  UNL     1      12.299  21.074   4.078  1.00  0.00     0.264 S 
HETATM   26  O2  UNL     1      10.991  20.917   3.383  1.00  0.00    -0.200 OA
HETATM   27  O3  UNL     1      12.691  22.537   3.858  1.00  0.00    -0.200 OA
BRANCH  25  28
HETATM   28  C12 UNL     1      13.580  20.114   3.375  1.00  0.00     0.080 A 
HETATM   29  C13 UNL     1      14.167  20.391   2.160  1.00  0.00     0.027 A 
HETATM   30  C14 UNL     1      15.172  19.579   1.680  1.00  0.00     0.021 A 
HETATM   31  C15 UNL     1      15.639  18.476   2.358  1.00  0.00     0.017 A 
HETATM   32 BR1  UNL     1      17.035  17.373   1.660  1.00  0.00    -0.051 Br
HETATM   33  C16 UNL     1      15.053  18.198   3.573  1.00  0.00    -0.043 A 
HETATM   34  C17 UNL     1      15.483  17.035   4.380  1.00  0.00     0.049 C 
HETATM   35  C18 UNL     1      14.048  19.002   4.064  1.00  0.00     0.033 A 
ENDBRANCH  25  28
ENDBRANCH  23  25
ENDBRANCH   8  23
BRANCH   5  36
HETATM   36  C8  UNL     1      16.500  21.576   7.866  1.00  0.00     0.037 A 
HETATM   37  C9  UNL     1      17.066  22.151   9.162  1.00  0.00     0.011 A 
HETATM   38  C10 UNL     1      16.971  20.643   8.903  1.00  0.00     0.011 A 
ENDBRANCH   5  36
TORSDOF 9
ENDMDL
