MODEL 1
REMARK VINA RESULT: -8.480247873      0.000      0.000
REMARK  8 active torsions:
REMARK  status: ('A' for Active; 'I' for Inactive)
REMARK    1  A    between atoms: C2_2  and  N1_3 
REMARK       I    between atoms: N1_3  and  C3_5 
REMARK       I    between atoms: C3_5  and  N2_7 
REMARK    2  A    between atoms: N2_7  and  C4_9 
REMARK    3  A    between atoms: N5_18  and  C9_19 
REMARK    4  A    between atoms: C9_19  and  C10_20 
REMARK    5  A    between atoms: C10_20  and  N6_21 
REMARK       I    between atoms: N7_25  and  C14_26 
REMARK    6  A    between atoms: C14_26  and  C15_28 
REMARK    7  A    between atoms: C23_36  and  C24_37 
REMARK    8  A    between atoms: C23_36  and  C26_39 
ROOT
HETATM    1  C4  UNL     1      12.019  23.723   7.169  1.00  0.00     0.132 A 
HETATM    2  N3  UNL     1      13.114  24.483   7.042  1.00  0.00    -0.285 N 
ATOM      3  H3  UNL     1      13.156  25.489   7.203  1.00  0.00     0.188 HD
HETATM    4  N4  UNL     1      14.148  23.711   6.667  1.00  0.00    -0.300 N 
ATOM      5  H4  UNL     1      15.100  24.036   6.499  1.00  0.00     0.186 HD
HETATM    6  C5  UNL     1      13.727  22.456   6.552  1.00  0.00     0.064 A 
HETATM    7  C6  UNL     1      12.409  22.438   6.859  1.00  0.00     0.015 A 
HETATM    8  C7  UNL     1      11.615  21.208   6.836  1.00  0.00     0.064 C 
HETATM    9  C8  UNL     1      12.234  20.083   6.064  1.00  0.00     0.123 C 
HETATM   10  N5  UNL     1      13.445  20.409   5.394  1.00  0.00    -0.393 N 
HETATM   11  C23 UNL     1      14.372  21.128   6.180  1.00  0.00     0.072 C 
ENDROOT
BRANCH  10  12
HETATM   12  C9  UNL     1      13.329  20.895   4.074  1.00  0.00     0.163 C 
BRANCH  12  13
HETATM   13  C10 UNL     1      11.960  20.732   3.460  1.00  0.00     0.087 C 
BRANCH  13  14
HETATM   14  N6  UNL     1      11.216  21.921   3.484  1.00  0.00    -0.351 N 
HETATM   15  C11 UNL     1      11.819  23.152   3.222  1.00  0.00     0.069 C 
HETATM   16  C12 UNL     1      11.082  23.904   2.124  1.00  0.00     0.065 C 
HETATM   17  C13 UNL     1       9.809  24.521   2.682  1.00  0.00     0.131 C 
HETATM   18  N7  UNL     1       8.780  23.529   2.563  1.00  0.00    -0.347 N 
HETATM   19  C14 UNL     1       7.532  24.008   2.107  1.00  0.00     0.224 C 
HETATM   20  C21 UNL     1       8.854  22.131   2.854  1.00  0.00     0.170 C 
HETATM   21  O2  UNL     1       7.384  25.262   1.851  1.00  0.00    -0.273 OA
HETATM   22  C22 UNL     1       9.891  21.844   3.931  1.00  0.00     0.087 C 
BRANCH  19  23
HETATM   23  C15 UNL     1       6.335  23.159   1.889  1.00  0.00     0.078 C 
HETATM   24  C16 UNL     1       5.550  23.121   3.188  1.00  0.00     0.014 C 
HETATM   25  C17 UNL     1       4.658  24.338   3.315  1.00  0.00     0.001 C 
HETATM   26  C18 UNL     1       3.544  24.209   2.327  1.00  0.00     0.000 C 
HETATM   27  C19 UNL     1       4.030  23.653   1.040  1.00  0.00     0.001 C 
HETATM   28  C20 UNL     1       5.513  23.800   0.790  1.00  0.00     0.014 C 
ENDBRANCH  19  23
ENDBRANCH  13  14
ENDBRANCH  12  13
ENDBRANCH  10  12
BRANCH  11  29
HETATM   29  C24 UNL     1      14.665  20.477   7.518  1.00  0.00     0.033 C 
HETATM   30  C25 UNL     1      15.505  21.280   8.444  1.00  0.00     0.008 C 
ENDBRANCH  11  29
BRANCH  11  31
HETATM   31  C26 UNL     1      15.657  21.515   5.543  1.00  0.00     0.033 C 
HETATM   32  C27 UNL     1      16.589  20.429   5.161  1.00  0.00     0.008 C 
ENDBRANCH  11  31
BRANCH   1  33
HETATM   33  N2  UNL     1      10.859  24.145   7.520  1.00  0.00    -0.293 N 
HETATM   34  C3  UNL     1      10.608  25.413   8.100  1.00  0.00     0.321 C 
HETATM   35  N1  UNL     1       9.515  26.226   7.708  1.00  0.00    -0.343 N 
HETATM   36  O1  UNL     1      11.375  25.846   8.996  1.00  0.00    -0.247 OA
ATOM     37  H1  UNL     1       8.876  25.902   6.983  1.00  0.00     0.164 HD
ATOM     38  H2  UNL     1      10.063  23.524   7.372  1.00  0.00     0.172 HD
BRANCH  35  39
HETATM   39  C2  UNL     1       9.304  27.502   8.326  1.00  0.00     0.120 C 
HETATM   40  C1  UNL     1       8.188  27.440   9.374  1.00  0.00     0.026 C 
ENDBRANCH  35  39
ENDBRANCH   1  33
TORSDOF 8
ENDMDL
MODEL 2
REMARK VINA RESULT: -8.351648986      1.694      2.373
REMARK  8 active torsions:
REMARK  status: ('A' for Active; 'I' for Inactive)
REMARK    1  A    between atoms: C2_2  and  N1_3 
REMARK       I    between atoms: N1_3  and  C3_5 
REMARK       I    between atoms: C3_5  and  N2_7 
REMARK    2  A    between atoms: N2_7  and  C4_9 
REMARK    3  A    between atoms: N5_18  and  C9_19 
REMARK    4  A    between atoms: C9_19  and  C10_20 
REMARK    5  A    between atoms: C10_20  and  N6_21 
REMARK       I    between atoms: N7_25  and  C14_26 
REMARK    6  A    between atoms: C14_26  and  C15_28 
REMARK    7  A    between atoms: C23_36  and  C24_37 
REMARK    8  A    between atoms: C23_36  and  C26_39 
ROOT
HETATM    1  C4  UNL     1      14.201  23.244   6.924  1.00  0.00     0.132 A 
HETATM    2  N3  UNL     1      15.366  23.320   6.269  1.00  0.00    -0.285 N 
ATOM      3  H3  UNL     1      16.140  23.939   6.512  1.00  0.00     0.188 HD
HETATM    4  N4  UNL     1      15.356  22.454   5.242  1.00  0.00    -0.300 N 
ATOM      5  H4  UNL     1      16.119  22.308   4.581  1.00  0.00     0.186 HD
HETATM    6  C5  UNL     1      14.189  21.818   5.230  1.00  0.00     0.064 A 
HETATM    7  C6  UNL     1      13.456  22.290   6.264  1.00  0.00     0.015 A 
HETATM    8  C7  UNL     1      12.104  21.808   6.553  1.00  0.00     0.064 C 
HETATM    9  C8  UNL     1      11.445  21.089   5.415  1.00  0.00     0.123 C 
HETATM   10  N5  UNL     1      12.190  21.071   4.204  1.00  0.00    -0.393 N 
HETATM   11  C23 UNL     1      13.553  20.740   4.362  1.00  0.00     0.072 C 
ENDROOT
BRANCH  10  12
HETATM   12  C9  UNL     1      11.968  22.137   3.307  1.00  0.00     0.163 C 
BRANCH  12  13
HETATM   13  C10 UNL     1      10.655  22.074   2.564  1.00  0.00     0.087 C 
BRANCH  13  14
HETATM   14  N6  UNL     1       9.671  22.889   3.143  1.00  0.00    -0.351 N 
HETATM   15  C11 UNL     1       9.904  24.246   3.373  1.00  0.00     0.069 C 
HETATM   16  C12 UNL     1       8.813  25.106   2.753  1.00  0.00     0.065 C 
HETATM   17  C13 UNL     1       7.564  25.061   3.618  1.00  0.00     0.131 C 
HETATM   18  N7  UNL     1       6.794  23.933   3.178  1.00  0.00    -0.347 N 
HETATM   19  C14 UNL     1       5.404  24.159   3.067  1.00  0.00     0.224 C 
HETATM   20  C21 UNL     1       7.250  22.618   2.852  1.00  0.00     0.170 C 
HETATM   21  O2  UNL     1       4.918  25.312   3.371  1.00  0.00    -0.273 OA
HETATM   22  C22 UNL     1       8.514  22.263   3.622  1.00  0.00     0.087 C 
BRANCH  19  23
HETATM   23  C15 UNL     1       4.422  23.144   2.611  1.00  0.00     0.078 C 
HETATM   24  C16 UNL     1       3.912  22.409   3.837  1.00  0.00     0.014 C 
HETATM   25  C17 UNL     1       2.796  23.183   4.505  1.00  0.00     0.001 C 
HETATM   26  C18 UNL     1       1.586  23.112   3.630  1.00  0.00     0.000 C 
HETATM   27  C19 UNL     1       1.952  23.233   2.197  1.00  0.00     0.001 C 
HETATM   28  C20 UNL     1       3.291  23.880   1.924  1.00  0.00     0.014 C 
ENDBRANCH  19  23
ENDBRANCH  13  14
ENDBRANCH  12  13
ENDBRANCH  10  12
BRANCH  11  29
HETATM   29  C24 UNL     1      13.780  19.461   5.143  1.00  0.00     0.033 C 
HETATM   30  C25 UNL     1      15.191  19.191   5.523  1.00  0.00     0.008 C 
ENDBRANCH  11  29
BRANCH  11  31
HETATM   31  C26 UNL     1      14.398  20.713   3.141  1.00  0.00     0.033 C 
HETATM   32  C27 UNL     1      14.379  19.481   2.319  1.00  0.00     0.008 C 
ENDBRANCH  11  31
BRANCH   1  33
HETATM   33  N2  UNL     1      13.884  23.933   7.959  1.00  0.00    -0.293 N 
HETATM   34  C3  UNL     1      12.762  24.794   8.037  1.00  0.00     0.321 C 
HETATM   35  N1  UNL     1      11.913  24.838   9.171  1.00  0.00    -0.343 N 
HETATM   36  O1  UNL     1      12.497  25.553   7.071  1.00  0.00    -0.247 OA
ATOM     37  H1  UNL     1      12.103  24.233   9.970  1.00  0.00     0.164 HD
ATOM     38  H2  UNL     1      14.482  23.856   8.782  1.00  0.00     0.172 HD
BRANCH  35  39
HETATM   39  C2  UNL     1      10.790  25.727   9.201  1.00  0.00     0.120 C 
HETATM   40  C1  UNL     1       9.506  24.997   9.610  1.00  0.00     0.026 C 
ENDBRANCH  35  39
ENDBRANCH   1  33
TORSDOF 8
ENDMDL
MODEL 3
REMARK VINA RESULT: -8.318178727      2.154      3.540
REMARK  8 active torsions:
REMARK  status: ('A' for Active; 'I' for Inactive)
REMARK    1  A    between atoms: C2_2  and  N1_3 
REMARK       I    between atoms: N1_3  and  C3_5 
REMARK       I    between atoms: C3_5  and  N2_7 
REMARK    2  A    between atoms: N2_7  and  C4_9 
REMARK    3  A    between atoms: N5_18  and  C9_19 
REMARK    4  A    between atoms: C9_19  and  C10_20 
REMARK    5  A    between atoms: C10_20  and  N6_21 
REMARK       I    between atoms: N7_25  and  C14_26 
REMARK    6  A    between atoms: C14_26  and  C15_28 
REMARK    7  A    between atoms: C23_36  and  C24_37 
REMARK    8  A    between atoms: C23_36  and  C26_39 
ROOT
HETATM    1  C4  UNL     1      14.498  23.116   6.747  1.00  0.00     0.132 A 
HETATM    2  N3  UNL     1      15.529  23.384   5.936  1.00  0.00    -0.285 N 
ATOM      3  H3  UNL     1      16.143  24.196   6.011  1.00  0.00     0.188 HD
HETATM    4  N4  UNL     1      15.627  22.417   5.009  1.00  0.00    -0.300 N 
ATOM      5  H4  UNL     1      16.326  22.375   4.267  1.00  0.00     0.186 HD
HETATM    6  C5  UNL     1      14.665  21.525   5.216  1.00  0.00     0.064 A 
HETATM    7  C6  UNL     1      13.951  21.936   6.289  1.00  0.00     0.015 A 
HETATM    8  C7  UNL     1      12.804  21.185   6.804  1.00  0.00     0.064 C 
HETATM    9  C8  UNL     1      12.230  20.192   5.841  1.00  0.00     0.123 C 
HETATM   10  N5  UNL     1      12.820  20.198   4.548  1.00  0.00    -0.393 N 
HETATM   11  C23 UNL     1      14.232  20.225   4.550  1.00  0.00     0.072 C 
ENDROOT
BRANCH  10  12
HETATM   12  C9  UNL     1      12.241  21.058   3.590  1.00  0.00     0.163 C 
BRANCH  12  13
HETATM   13  C10 UNL     1      10.751  21.251   3.734  1.00  0.00     0.087 C 
BRANCH  13  14
HETATM   14  N6  UNL     1      10.345  22.555   3.416  1.00  0.00    -0.351 N 
HETATM   15  C11 UNL     1       9.620  22.819   2.252  1.00  0.00     0.069 C 
HETATM   16  C12 UNL     1       8.342  23.583   2.562  1.00  0.00     0.065 C 
HETATM   17  C13 UNL     1       8.662  25.045   2.826  1.00  0.00     0.131 C 
HETATM   18  N7  UNL     1       8.957  25.160   4.226  1.00  0.00    -0.347 N 
HETATM   19  C14 UNL     1       8.390  26.282   4.871  1.00  0.00     0.224 C 
HETATM   20  C21 UNL     1       9.753  24.295   5.040  1.00  0.00     0.170 C 
HETATM   21  O2  UNL     1       7.684  27.118   4.193  1.00  0.00    -0.273 OA
HETATM   22  C22 UNL     1      10.827  23.596   4.220  1.00  0.00     0.087 C 
BRANCH  19  23
HETATM   23  C15 UNL     1       8.545  26.587   6.314  1.00  0.00     0.078 C 
HETATM   24  C16 UNL     1       7.646  27.765   6.639  1.00  0.00     0.014 C 
HETATM   25  C17 UNL     1       6.225  27.307   6.892  1.00  0.00     0.001 C 
HETATM   26  C18 UNL     1       6.192  26.580   8.197  1.00  0.00     0.000 C 
HETATM   27  C19 UNL     1       7.393  25.727   8.367  1.00  0.00     0.001 C 
HETATM   28  C20 UNL     1       8.112  25.359   7.089  1.00  0.00     0.014 C 
ENDBRANCH  19  23
ENDBRANCH  13  14
ENDBRANCH  12  13
ENDBRANCH  10  12
BRANCH  11  29
HETATM   29  C24 UNL     1      14.857  19.147   5.413  1.00  0.00     0.033 C 
HETATM   30  C25 UNL     1      16.339  19.192   5.511  1.00  0.00     0.008 C 
ENDBRANCH  11  29
BRANCH  11  31
HETATM   31  C26 UNL     1      14.920  20.246   3.234  1.00  0.00     0.033 C 
HETATM   32  C27 UNL     1      14.787  19.050   2.370  1.00  0.00     0.008 C 
ENDBRANCH  11  31
BRANCH   1  33
HETATM   33  N2  UNL     1      14.130  23.835   7.745  1.00  0.00    -0.293 N 
HETATM   34  C3  UNL     1      12.903  24.538   7.817  1.00  0.00     0.321 C 
HETATM   35  N1  UNL     1      12.103  24.555   8.987  1.00  0.00    -0.343 N 
HETATM   36  O1  UNL     1      12.495  25.175   6.814  1.00  0.00    -0.247 OA
ATOM     37  H1  UNL     1      12.408  24.047   9.817  1.00  0.00     0.164 HD
ATOM     38  H2  UNL     1      14.766  23.905   8.539  1.00  0.00     0.172 HD
BRANCH  35  39
HETATM   39  C2  UNL     1      10.869  25.283   9.010  1.00  0.00     0.120 C 
HETATM   40  C1  UNL     1      11.056  26.688   9.593  1.00  0.00     0.026 C 
ENDBRANCH  35  39
ENDBRANCH   1  33
TORSDOF 8
ENDMDL
MODEL 4
REMARK VINA RESULT: -8.226689169      2.613      6.146
REMARK  8 active torsions:
REMARK  status: ('A' for Active; 'I' for Inactive)
REMARK    1  A    between atoms: C2_2  and  N1_3 
REMARK       I    between atoms: N1_3  and  C3_5 
REMARK       I    between atoms: C3_5  and  N2_7 
REMARK    2  A    between atoms: N2_7  and  C4_9 
REMARK    3  A    between atoms: N5_18  and  C9_19 
REMARK    4  A    between atoms: C9_19  and  C10_20 
REMARK    5  A    between atoms: C10_20  and  N6_21 
REMARK       I    between atoms: N7_25  and  C14_26 
REMARK    6  A    between atoms: C14_26  and  C15_28 
REMARK    7  A    between atoms: C23_36  and  C24_37 
REMARK    8  A    between atoms: C23_36  and  C26_39 
ROOT
HETATM    1  C4  UNL     1      15.016  21.393   5.919  1.00  0.00     0.132 A 
HETATM    2  N3  UNL     1      14.557  20.785   7.020  1.00  0.00    -0.285 N 
ATOM      3  H3  UNL     1      15.021  20.019   7.508  1.00  0.00     0.188 HD
HETATM    4  N4  UNL     1      13.390  21.343   7.381  1.00  0.00    -0.300 N 
ATOM      5  H4  UNL     1      12.825  21.070   8.185  1.00  0.00     0.186 HD
HETATM    6  C5  UNL     1      13.092  22.309   6.518  1.00  0.00     0.064 A 
HETATM    7  C6  UNL     1      14.086  22.359   5.602  1.00  0.00     0.015 A 
HETATM    8  C7  UNL     1      14.084  23.316   4.493  1.00  0.00     0.064 C 
HETATM    9  C8  UNL     1      12.748  23.927   4.203  1.00  0.00     0.123 C 
HETATM   10  N5  UNL     1      11.672  23.417   4.980  1.00  0.00    -0.393 N 
HETATM   11  C23 UNL     1      11.950  23.304   6.359  1.00  0.00     0.072 C 
ENDROOT
BRANCH  10  12
HETATM   12  C9  UNL     1      10.979  22.308   4.451  1.00  0.00     0.163 C 
BRANCH  12  13
HETATM   13  C10 UNL     1      10.552  22.457   3.011  1.00  0.00     0.087 C 
BRANCH  13  14
HETATM   14  N6  UNL     1       9.335  23.143   2.880  1.00  0.00    -0.351 N 
HETATM   15  C11 UNL     1       8.159  22.465   2.553  1.00  0.00     0.069 C 
HETATM   16  C12 UNL     1       7.055  22.762   3.556  1.00  0.00     0.065 C 
HETATM   17  C13 UNL     1       6.467  24.138   3.289  1.00  0.00     0.131 C 
HETATM   18  N7  UNL     1       7.260  25.079   4.027  1.00  0.00    -0.347 N 
HETATM   19  C14 UNL     1       6.530  26.082   4.702  1.00  0.00     0.224 C 
HETATM   20  C21 UNL     1       8.683  25.134   4.155  1.00  0.00     0.170 C 
HETATM   21  O2  UNL     1       5.246  26.110   4.609  1.00  0.00    -0.273 OA
HETATM   22  C22 UNL     1       9.372  24.541   2.935  1.00  0.00     0.087 C 
BRANCH  19  23
HETATM   23  C15 UNL     1       7.140  27.143   5.541  1.00  0.00     0.078 C 
HETATM   24  C16 UNL     1       6.167  27.469   6.658  1.00  0.00     0.014 C 
HETATM   25  C17 UNL     1       6.310  26.488   7.802  1.00  0.00     0.001 C 
HETATM   26  C18 UNL     1       7.608  26.758   8.492  1.00  0.00     0.000 C 
HETATM   27  C19 UNL     1       8.679  27.074   7.517  1.00  0.00     0.001 C 
HETATM   28  C20 UNL     1       8.433  26.591   6.106  1.00  0.00     0.014 C 
ENDBRANCH  19  23
ENDBRANCH  13  14
ENDBRANCH  12  13
ENDBRANCH  10  12
BRANCH  11  29
HETATM   29  C24 UNL     1      12.489  24.579   6.976  1.00  0.00     0.033 C 
HETATM   30  C25 UNL     1      13.059  24.434   8.340  1.00  0.00     0.008 C 
ENDBRANCH  11  29
BRANCH  11  31
HETATM   31  C26 UNL     1      10.876  22.766   7.234  1.00  0.00     0.033 C 
HETATM   32  C27 UNL     1       9.827  23.705   7.691  1.00  0.00     0.008 C 
ENDBRANCH  11  31
BRANCH   1  33
HETATM   33  N2  UNL     1      16.113  21.107   5.315  1.00  0.00    -0.293 N 
HETATM   34  C3  UNL     1      16.801  19.876   5.443  1.00  0.00     0.321 C 
HETATM   35  N1  UNL     1      17.355  19.195   4.331  1.00  0.00    -0.343 N 
HETATM   36  O1  UNL     1      16.934  19.357   6.580  1.00  0.00    -0.247 OA
ATOM     37  H1  UNL     1      17.263  19.592   3.396  1.00  0.00     0.164 HD
ATOM     38  H2  UNL     1      16.515  21.816   4.702  1.00  0.00     0.172 HD
BRANCH  35  39
HETATM   39  C2  UNL     1      18.044  17.952   4.513  1.00  0.00     0.120 C 
HETATM   40  C1  UNL     1      18.412  17.311   3.170  1.00  0.00     0.026 C 
ENDBRANCH  35  39
ENDBRANCH   1  33
TORSDOF 8
ENDMDL
MODEL 5
REMARK VINA RESULT: -8.177770547      2.911      6.001
REMARK  8 active torsions:
REMARK  status: ('A' for Active; 'I' for Inactive)
REMARK    1  A    between atoms: C2_2  and  N1_3 
REMARK       I    between atoms: N1_3  and  C3_5 
REMARK       I    between atoms: C3_5  and  N2_7 
REMARK    2  A    between atoms: N2_7  and  C4_9 
REMARK    3  A    between atoms: N5_18  and  C9_19 
REMARK    4  A    between atoms: C9_19  and  C10_20 
REMARK    5  A    between atoms: C10_20  and  N6_21 
REMARK       I    between atoms: N7_25  and  C14_26 
REMARK    6  A    between atoms: C14_26  and  C15_28 
REMARK    7  A    between atoms: C23_36  and  C24_37 
REMARK    8  A    between atoms: C23_36  and  C26_39 
ROOT
HETATM    1  C4  UNL     1      14.676  22.931   5.414  1.00  0.00     0.132 A 
HETATM    2  N3  UNL     1      14.708  24.058   4.692  1.00  0.00    -0.285 N 
ATOM      3  H3  UNL     1      15.551  24.502   4.328  1.00  0.00     0.188 HD
HETATM    4  N4  UNL     1      13.455  24.512   4.522  1.00  0.00    -0.300 N 
ATOM      5  H4  UNL     1      13.193  25.354   4.010  1.00  0.00     0.186 HD
HETATM    6  C5  UNL     1      12.613  23.683   5.131  1.00  0.00     0.064 A 
HETATM    7  C6  UNL     1      13.346  22.695   5.692  1.00  0.00     0.015 A 
HETATM    8  C7  UNL     1      12.739  21.599   6.449  1.00  0.00     0.064 C 
HETATM    9  C8  UNL     1      11.338  21.865   6.910  1.00  0.00     0.123 C 
HETATM   10  N5  UNL     1      10.851  23.170   6.628  1.00  0.00    -0.393 N 
HETATM   11  C23 UNL     1      11.102  23.616   5.312  1.00  0.00     0.072 C 
ENDROOT
BRANCH  10  12
HETATM   12  C9  UNL     1      11.075  24.157   7.610  1.00  0.00     0.163 C 
BRANCH  12  13
HETATM   13  C10 UNL     1      10.060  24.179   8.728  1.00  0.00     0.087 C 
BRANCH  13  14
HETATM   14  N6  UNL     1       9.252  25.325   8.697  1.00  0.00    -0.351 N 
HETATM   15  C11 UNL     1       9.810  26.595   8.543  1.00  0.00     0.069 C 
HETATM   16  C12 UNL     1       9.164  27.344   7.388  1.00  0.00     0.065 C 
HETATM   17  C13 UNL     1       7.802  27.872   7.808  1.00  0.00     0.131 C 
HETATM   18  N7  UNL     1       6.852  26.831   7.540  1.00  0.00    -0.347 N 
HETATM   19  C14 UNL     1       5.640  27.259   6.953  1.00  0.00     0.224 C 
HETATM   20  C21 UNL     1       6.972  25.430   7.799  1.00  0.00     0.170 C 
HETATM   21  O2  UNL     1       5.452  28.511   6.717  1.00  0.00    -0.273 OA
HETATM   22  C22 UNL     1       7.890  25.162   8.981  1.00  0.00     0.087 C 
BRANCH  19  23
HETATM   23  C15 UNL     1       4.528  26.354   6.571  1.00  0.00     0.078 C 
HETATM   24  C16 UNL     1       3.344  26.671   7.467  1.00  0.00     0.014 C 
HETATM   25  C17 UNL     1       2.563  27.852   6.932  1.00  0.00     0.001 C 
HETATM   26  C18 UNL     1       1.850  27.419   5.691  1.00  0.00     0.000 C 
HETATM   27  C19 UNL     1       2.702  26.531   4.864  1.00  0.00     0.001 C 
HETATM   28  C20 UNL     1       4.188  26.636   5.122  1.00  0.00     0.014 C 
ENDBRANCH  19  23
ENDBRANCH  13  14
ENDBRANCH  12  13
ENDBRANCH  10  12
BRANCH  11  29
HETATM   29  C24 UNL     1      10.651  22.639   4.244  1.00  0.00     0.033 C 
HETATM   30  C25 UNL     1      10.973  23.031   2.848  1.00  0.00     0.008 C 
ENDBRANCH  11  29
BRANCH  11  31
HETATM   31  C26 UNL     1      10.632  24.977   4.946  1.00  0.00     0.033 C 
HETATM   32  C27 UNL     1       9.175  25.178   4.777  1.00  0.00     0.008 C 
ENDBRANCH  11  31
BRANCH   1  33
HETATM   33  N2  UNL     1      15.701  22.236   5.752  1.00  0.00    -0.293 N 
HETATM   34  C3  UNL     1      16.093  21.985   7.090  1.00  0.00     0.321 C 
HETATM   35  N1  UNL     1      16.519  20.707   7.531  1.00  0.00    -0.343 N 
HETATM   36  O1  UNL     1      16.068  22.921   7.927  1.00  0.00    -0.247 OA
ATOM     37  H1  UNL     1      16.549  19.928   6.874  1.00  0.00     0.164 HD
ATOM     38  H2  UNL     1      16.271  21.838   5.006  1.00  0.00     0.172 HD
BRANCH  35  39
HETATM   39  C2  UNL     1      16.907  20.505   8.895  1.00  0.00     0.120 C 
HETATM   40  C1  UNL     1      15.784  19.851   9.708  1.00  0.00     0.026 C 
ENDBRANCH  35  39
ENDBRANCH   1  33
TORSDOF 8
ENDMDL
