MODEL 1
REMARK VINA RESULT: -6.701042562      0.000      0.000
REMARK  10 active torsions:
REMARK  status: ('A' for Active; 'I' for Inactive)
REMARK    1  A    between atoms: C2_2  and  O1_4 
REMARK    2  A    between atoms: O1_4  and  C4_5 
REMARK    3  A    between atoms: C4_5  and  C5_6 
REMARK    4  A    between atoms: C5_6  and  C6_7 
REMARK    5  A    between atoms: C6_7  and  C7_8 
REMARK    6  A    between atoms: C13_16  and  O4_17 
REMARK    7  A    between atoms: C13_16  and  C14_19 
REMARK    8  A    between atoms: C14_19  and  C15_20 
REMARK    9  A    between atoms: C15_20  and  C16_21 
REMARK   10  A    between atoms: C16_21  and  O5_24 
ROOT
HETATM    1  C7  UNL     1     -19.100  22.557  -4.583  1.00  0.00     0.030 C 
HETATM    2  C8  UNL     1     -20.200  21.533  -4.764  1.00  0.00     0.171 C 
HETATM    3  O2  UNL     1     -20.890  21.525  -3.497  1.00  0.00    -0.312 OA
HETATM    4  C9  UNL     1     -20.931  22.780  -2.861  1.00  0.00     0.260 C 
HETATM    5  O3  UNL     1     -21.049  22.807  -1.624  1.00  0.00    -0.265 OA
HETATM    6  C10 UNL     1     -20.831  24.005  -3.721  1.00  0.00     0.123 C 
HETATM    7  C11 UNL     1     -20.131  23.585  -5.011  1.00  0.00     0.004 C 
HETATM    8  C12 UNL     1     -19.626  24.711  -5.844  1.00  0.00     0.019 C 
HETATM    9  C13 UNL     1     -20.865  22.491  -5.716  1.00  0.00     0.093 C 
ENDROOT
BRANCH   9  10
HETATM   10  O4  UNL     1     -20.413  22.312  -7.005  1.00  0.00    -0.386 OA
ATOM     11  H4  UNL     1     -21.134  22.267  -7.621  1.00  0.00     0.210 HD
ENDBRANCH   9  10
BRANCH   9  12
HETATM   12  C14 UNL     1     -22.364  22.541  -5.667  1.00  0.00     0.044 C 
BRANCH  12  13
HETATM   13  C15 UNL     1     -23.023  21.375  -6.334  1.00  0.00     0.040 C 
BRANCH  13  14
HETATM   14  C16 UNL     1     -24.341  21.116  -5.627  1.00  0.00     0.051 C 
HETATM   15  C17 UNL     1     -24.349  21.725  -4.243  1.00  0.00     0.045 C 
HETATM   16  C18 UNL     1     -24.606  19.638  -5.467  1.00  0.00     0.045 C 
BRANCH  14  17
HETATM   17  O5  UNL     1     -25.399  21.672  -6.341  1.00  0.00    -0.391 OA
ATOM     18  H5  UNL     1     -25.873  22.297  -5.804  1.00  0.00     0.210 HD
ENDBRANCH  14  17
ENDBRANCH  13  14
ENDBRANCH  12  13
ENDBRANCH   9  12
BRANCH   1  19
HETATM   19  C6  UNL     1     -17.887  22.409  -5.428  1.00  0.00     0.010 C 
BRANCH  19  20
HETATM   20  C5  UNL     1     -16.773  21.762  -4.617  1.00  0.00     0.027 C 
BRANCH  20  21
HETATM   21  C4  UNL     1     -16.121  20.637  -5.396  1.00  0.00     0.175 C 
BRANCH  21  22
HETATM   22  O1  UNL     1     -16.819  20.417  -6.601  1.00  0.00    -0.357 OA
BRANCH  22  23
HETATM   23  C2  UNL     1     -17.198  19.149  -7.008  1.00  0.00     0.033 C 
HETATM   24  C1  UNL     1     -18.164  19.008  -7.867  1.00  0.00     0.045 C 
HETATM   25  C3  UNL     1     -16.477  17.984  -6.444  1.00  0.00     0.075 C 
ENDBRANCH  22  23
ENDBRANCH  21  22
ENDBRANCH  20  21
ENDBRANCH  19  20
ENDBRANCH   1  19
TORSDOF 10
ENDMDL
MODEL 2
REMARK VINA RESULT: -6.485188580      1.290      1.725
REMARK  10 active torsions:
REMARK  status: ('A' for Active; 'I' for Inactive)
REMARK    1  A    between atoms: C2_2  and  O1_4 
REMARK    2  A    between atoms: O1_4  and  C4_5 
REMARK    3  A    between atoms: C4_5  and  C5_6 
REMARK    4  A    between atoms: C5_6  and  C6_7 
REMARK    5  A    between atoms: C6_7  and  C7_8 
REMARK    6  A    between atoms: C13_16  and  O4_17 
REMARK    7  A    between atoms: C13_16  and  C14_19 
REMARK    8  A    between atoms: C14_19  and  C15_20 
REMARK    9  A    between atoms: C15_20  and  C16_21 
REMARK   10  A    between atoms: C16_21  and  O5_24 
ROOT
HETATM    1  C7  UNL     1     -19.098  22.537  -4.587  1.00  0.00     0.030 C 
HETATM    2  C8  UNL     1     -20.209  21.541  -4.838  1.00  0.00     0.171 C 
HETATM    3  O2  UNL     1     -20.918  21.475  -3.583  1.00  0.00    -0.312 OA
HETATM    4  C9  UNL     1     -20.950  22.695  -2.881  1.00  0.00     0.260 C 
HETATM    5  O3  UNL     1     -21.085  22.657  -1.646  1.00  0.00    -0.265 OA
HETATM    6  C10 UNL     1     -20.820  23.962  -3.671  1.00  0.00     0.123 C 
HETATM    7  C11 UNL     1     -20.108  23.602  -4.973  1.00  0.00     0.004 C 
HETATM    8  C12 UNL     1     -19.574  24.764  -5.736  1.00  0.00     0.019 C 
HETATM    9  C13 UNL     1     -20.846  22.559  -5.745  1.00  0.00     0.093 C 
ENDROOT
BRANCH   9  10
HETATM   10  O4  UNL     1     -20.378  22.443  -7.036  1.00  0.00    -0.386 OA
ATOM     11  H4  UNL     1     -21.045  22.682  -7.668  1.00  0.00     0.210 HD
ENDBRANCH   9  10
BRANCH   9  12
HETATM   12  C14 UNL     1     -22.345  22.629  -5.715  1.00  0.00     0.044 C 
BRANCH  12  13
HETATM   13  C15 UNL     1     -22.926  23.482  -6.798  1.00  0.00     0.040 C 
BRANCH  13  14
HETATM   14  C16 UNL     1     -23.839  24.506  -6.148  1.00  0.00     0.051 C 
HETATM   15  C17 UNL     1     -23.161  25.853  -6.038  1.00  0.00     0.045 C 
HETATM   16  C18 UNL     1     -24.238  24.090  -4.752  1.00  0.00     0.045 C 
BRANCH  14  17
HETATM   17  O5  UNL     1     -25.000  24.676  -6.898  1.00  0.00    -0.391 OA
ATOM     18  H5  UNL     1     -25.755  24.772  -6.330  1.00  0.00     0.210 HD
ENDBRANCH  14  17
ENDBRANCH  13  14
ENDBRANCH  12  13
ENDBRANCH   9  12
BRANCH   1  19
HETATM   19  C6  UNL     1     -17.875  22.417  -5.421  1.00  0.00     0.010 C 
BRANCH  19  20
HETATM   20  C5  UNL     1     -16.754  21.791  -4.602  1.00  0.00     0.027 C 
BRANCH  20  21
HETATM   21  C4  UNL     1     -16.140  20.615  -5.336  1.00  0.00     0.175 C 
BRANCH  21  22
HETATM   22  O1  UNL     1     -16.802  20.415  -6.565  1.00  0.00    -0.357 OA
BRANCH  22  23
HETATM   23  C2  UNL     1     -17.196  19.158  -6.989  1.00  0.00     0.033 C 
HETATM   24  C1  UNL     1     -18.177  19.040  -7.836  1.00  0.00     0.045 C 
HETATM   25  C3  UNL     1     -16.478  17.977  -6.457  1.00  0.00     0.075 C 
ENDBRANCH  22  23
ENDBRANCH  21  22
ENDBRANCH  20  21
ENDBRANCH  19  20
ENDBRANCH   1  19
TORSDOF 10
ENDMDL
MODEL 3
REMARK VINA RESULT: -6.445924352      2.100      6.118
REMARK  10 active torsions:
REMARK  status: ('A' for Active; 'I' for Inactive)
REMARK    1  A    between atoms: C2_2  and  O1_4 
REMARK    2  A    between atoms: O1_4  and  C4_5 
REMARK    3  A    between atoms: C4_5  and  C5_6 
REMARK    4  A    between atoms: C5_6  and  C6_7 
REMARK    5  A    between atoms: C6_7  and  C7_8 
REMARK    6  A    between atoms: C13_16  and  O4_17 
REMARK    7  A    between atoms: C13_16  and  C14_19 
REMARK    8  A    between atoms: C14_19  and  C15_20 
REMARK    9  A    between atoms: C15_20  and  C16_21 
REMARK   10  A    between atoms: C16_21  and  O5_24 
ROOT
HETATM    1  C7  UNL     1     -20.427  23.890  -5.545  1.00  0.00     0.030 C 
HETATM    2  C8  UNL     1     -19.100  23.421  -6.102  1.00  0.00     0.171 C 
HETATM    3  O2  UNL     1     -18.188  23.534  -4.990  1.00  0.00    -0.312 OA
HETATM    4  C9  UNL     1     -18.778  23.271  -3.739  1.00  0.00     0.260 C 
HETATM    5  O3  UNL     1     -18.265  23.784  -2.730  1.00  0.00    -0.265 OA
HETATM    6  C10 UNL     1     -19.988  22.386  -3.707  1.00  0.00     0.123 C 
HETATM    7  C11 UNL     1     -20.625  22.455  -5.093  1.00  0.00     0.004 C 
HETATM    8  C12 UNL     1     -22.016  21.931  -5.168  1.00  0.00     0.019 C 
HETATM    9  C13 UNL     1     -19.677  22.032  -6.166  1.00  0.00     0.093 C 
ENDROOT
BRANCH   9  10
HETATM   10  O4  UNL     1     -20.319  21.811  -7.365  1.00  0.00    -0.386 OA
ATOM     11  H4  UNL     1     -21.227  21.568  -7.231  1.00  0.00     0.210 HD
ENDBRANCH   9  10
BRANCH   9  12
HETATM   12  C14 UNL     1     -18.739  20.908  -5.836  1.00  0.00     0.044 C 
BRANCH  12  13
HETATM   13  C15 UNL     1     -18.589  19.911  -6.942  1.00  0.00     0.040 C 
BRANCH  13  14
HETATM   14  C16 UNL     1     -17.143  19.447  -6.959  1.00  0.00     0.051 C 
HETATM   15  C17 UNL     1     -17.026  18.001  -6.536  1.00  0.00     0.045 C 
HETATM   16  C18 UNL     1     -16.286  20.260  -6.017  1.00  0.00     0.045 C 
BRANCH  14  17
HETATM   17  O5  UNL     1     -16.606  19.559  -8.239  1.00  0.00    -0.391 OA
ATOM     18  H5  UNL     1     -15.708  19.251  -8.254  1.00  0.00     0.210 HD
ENDBRANCH  14  17
ENDBRANCH  13  14
ENDBRANCH  12  13
ENDBRANCH   9  12
BRANCH   1  19
HETATM   19  C6  UNL     1     -21.411  24.447  -6.509  1.00  0.00     0.010 C 
BRANCH  19  20
HETATM   20  C5  UNL     1     -21.908  25.798  -6.012  1.00  0.00     0.027 C 
BRANCH  20  21
HETATM   21  C4  UNL     1     -22.698  25.644  -4.728  1.00  0.00     0.175 C 
BRANCH  21  22
HETATM   22  O1  UNL     1     -22.224  26.552  -3.759  1.00  0.00    -0.357 OA
BRANCH  22  23
HETATM   23  C2  UNL     1     -21.198  26.225  -2.888  1.00  0.00     0.033 C 
HETATM   24  C1  UNL     1     -21.403  25.350  -1.949  1.00  0.00     0.045 C 
HETATM   25  C3  UNL     1     -19.888  26.894  -3.062  1.00  0.00     0.075 C 
ENDBRANCH  22  23
ENDBRANCH  21  22
ENDBRANCH  20  21
ENDBRANCH  19  20
ENDBRANCH   1  19
TORSDOF 10
ENDMDL
MODEL 4
REMARK VINA RESULT: -6.407366176      2.249      5.417
REMARK  10 active torsions:
REMARK  status: ('A' for Active; 'I' for Inactive)
REMARK    1  A    between atoms: C2_2  and  O1_4 
REMARK    2  A    between atoms: O1_4  and  C4_5 
REMARK    3  A    between atoms: C4_5  and  C5_6 
REMARK    4  A    between atoms: C5_6  and  C6_7 
REMARK    5  A    between atoms: C6_7  and  C7_8 
REMARK    6  A    between atoms: C13_16  and  O4_17 
REMARK    7  A    between atoms: C13_16  and  C14_19 
REMARK    8  A    between atoms: C14_19  and  C15_20 
REMARK    9  A    between atoms: C15_20  and  C16_21 
REMARK   10  A    between atoms: C16_21  and  O5_24 
ROOT
HETATM    1  C7  UNL     1     -20.521  23.569  -4.290  1.00  0.00     0.030 C 
HETATM    2  C8  UNL     1     -20.006  22.220  -3.836  1.00  0.00     0.171 C 
HETATM    3  O2  UNL     1     -21.076  21.306  -4.155  1.00  0.00    -0.312 OA
HETATM    4  C9  UNL     1     -21.790  21.647  -5.319  1.00  0.00     0.260 C 
HETATM    5  O3  UNL     1     -22.965  21.255  -5.421  1.00  0.00    -0.265 OA
HETATM    6  C10 UNL     1     -21.084  22.462  -6.361  1.00  0.00     0.123 C 
HETATM    7  C11 UNL     1     -19.958  23.209  -5.652  1.00  0.00     0.004 C 
HETATM    8  C12 UNL     1     -19.363  24.329  -6.431  1.00  0.00     0.019 C 
HETATM    9  C13 UNL     1     -19.013  22.278  -4.967  1.00  0.00     0.093 C 
ENDROOT
BRANCH   9  10
HETATM   10  O4  UNL     1     -17.851  22.910  -4.581  1.00  0.00    -0.386 OA
ATOM     11  H4  UNL     1     -17.411  22.432  -3.890  1.00  0.00     0.210 HD
ENDBRANCH   9  10
BRANCH   9  12
HETATM   12  C14 UNL     1     -18.721  20.979  -5.660  1.00  0.00     0.044 C 
BRANCH  12  13
HETATM   13  C15 UNL     1     -17.290  20.830  -6.071  1.00  0.00     0.040 C 
BRANCH  13  14
HETATM   14  C16 UNL     1     -17.204  19.671  -7.048  1.00  0.00     0.051 C 
HETATM   15  C17 UNL     1     -18.548  19.001  -7.224  1.00  0.00     0.045 C 
HETATM   16  C18 UNL     1     -16.235  18.613  -6.575  1.00  0.00     0.045 C 
BRANCH  14  17
HETATM   17  O5  UNL     1     -16.785  20.114  -8.300  1.00  0.00    -0.391 OA
ATOM     18  H5  UNL     1     -17.430  20.698  -8.682  1.00  0.00     0.210 HD
ENDBRANCH  14  17
ENDBRANCH  13  14
ENDBRANCH  12  13
ENDBRANCH   9  12
BRANCH   1  19
HETATM   19  C6  UNL     1     -19.967  24.771  -3.615  1.00  0.00     0.010 C 
BRANCH  19  20
HETATM   20  C5  UNL     1     -19.928  24.543  -2.110  1.00  0.00     0.027 C 
BRANCH  20  21
HETATM   21  C4  UNL     1     -18.618  25.029  -1.523  1.00  0.00     0.175 C 
BRANCH  21  22
HETATM   22  O1  UNL     1     -17.543  24.303  -2.077  1.00  0.00    -0.357 OA
BRANCH  22  23
HETATM   23  C2  UNL     1     -16.507  23.819  -1.297  1.00  0.00     0.033 C 
HETATM   24  C1  UNL     1     -16.760  23.323  -0.122  1.00  0.00     0.045 C 
HETATM   25  C3  UNL     1     -15.129  23.884  -1.837  1.00  0.00     0.075 C 
ENDBRANCH  22  23
ENDBRANCH  21  22
ENDBRANCH  20  21
ENDBRANCH  19  20
ENDBRANCH   1  19
TORSDOF 10
ENDMDL
MODEL 5
REMARK VINA RESULT: -6.382619111      2.338      6.315
REMARK  10 active torsions:
REMARK  status: ('A' for Active; 'I' for Inactive)
REMARK    1  A    between atoms: C2_2  and  O1_4 
REMARK    2  A    between atoms: O1_4  and  C4_5 
REMARK    3  A    between atoms: C4_5  and  C5_6 
REMARK    4  A    between atoms: C5_6  and  C6_7 
REMARK    5  A    between atoms: C6_7  and  C7_8 
REMARK    6  A    between atoms: C13_16  and  O4_17 
REMARK    7  A    between atoms: C13_16  and  C14_19 
REMARK    8  A    between atoms: C14_19  and  C15_20 
REMARK    9  A    between atoms: C15_20  and  C16_21 
REMARK   10  A    between atoms: C16_21  and  O5_24 
ROOT
HETATM    1  C7  UNL     1     -20.451  24.016  -5.378  1.00  0.00     0.030 C 
HETATM    2  C8  UNL     1     -19.092  23.555  -5.860  1.00  0.00     0.171 C 
HETATM    3  O2  UNL     1     -18.272  23.566  -4.673  1.00  0.00    -0.312 OA
HETATM    4  C9  UNL     1     -18.966  23.230  -3.495  1.00  0.00     0.260 C 
HETATM    5  O3  UNL     1     -18.528  23.658  -2.414  1.00  0.00    -0.265 OA
HETATM    6  C10 UNL     1     -20.191  22.375  -3.625  1.00  0.00     0.123 C 
HETATM    7  C11 UNL     1     -20.712  22.558  -5.048  1.00  0.00     0.004 C 
HETATM    8  C12 UNL     1     -22.101  22.074  -5.272  1.00  0.00     0.019 C 
HETATM    9  C13 UNL     1     -19.688  22.188  -6.070  1.00  0.00     0.093 C 
ENDROOT
BRANCH   9  10
HETATM   10  O4  UNL     1     -20.234  22.068  -7.330  1.00  0.00    -0.386 OA
ATOM     11  H4  UNL     1     -19.726  21.476  -7.871  1.00  0.00     0.210 HD
ENDBRANCH   9  10
BRANCH   9  12
HETATM   12  C14 UNL     1     -18.800  21.021  -5.749  1.00  0.00     0.044 C 
BRANCH  12  13
HETATM   13  C15 UNL     1     -18.711  20.017  -6.854  1.00  0.00     0.040 C 
BRANCH  13  14
HETATM   14  C16 UNL     1     -17.262  19.575  -6.967  1.00  0.00     0.051 C 
HETATM   15  C17 UNL     1     -17.097  18.129  -6.559  1.00  0.00     0.045 C 
HETATM   16  C18 UNL     1     -16.358  20.397  -6.079  1.00  0.00     0.045 C 
BRANCH  14  17
HETATM   17  O5  UNL     1     -16.812  19.700  -8.279  1.00  0.00    -0.391 OA
ATOM     18  H5  UNL     1     -16.031  19.177  -8.416  1.00  0.00     0.210 HD
ENDBRANCH  14  17
ENDBRANCH  13  14
ENDBRANCH  12  13
ENDBRANCH   9  12
BRANCH   1  19
HETATM   19  C6  UNL     1     -21.342  24.663  -6.375  1.00  0.00     0.010 C 
BRANCH  19  20
HETATM   20  C5  UNL     1     -21.955  25.921  -5.774  1.00  0.00     0.027 C 
BRANCH  20  21
HETATM   21  C4  UNL     1     -23.132  26.398  -6.602  1.00  0.00     0.175 C 
BRANCH  21  22
HETATM   22  O1  UNL     1     -23.978  25.312  -6.908  1.00  0.00    -0.357 OA
BRANCH  22  23
HETATM   23  C2  UNL     1     -25.176  25.108  -6.245  1.00  0.00     0.033 C 
HETATM   24  C1  UNL     1     -26.167  25.928  -6.436  1.00  0.00     0.045 C 
HETATM   25  C3  UNL     1     -25.287  23.947  -5.333  1.00  0.00     0.075 C 
ENDBRANCH  22  23
ENDBRANCH  21  22
ENDBRANCH  20  21
ENDBRANCH  19  20
ENDBRANCH   1  19
TORSDOF 10
ENDMDL
