MODEL 1
REMARK VINA RESULT: -6.587653141      0.000      0.000
REMARK  5 active torsions:
REMARK  status: ('A' for Active; 'I' for Inactive)
REMARK    1  A    between atoms: C4_4  and  C5_5 
REMARK    2  A    between atoms: C5_5  and  C6_6 
REMARK    3  A    between atoms: C9_9  and  C10_10 
REMARK    4  A    between atoms: C12_12  and  C14_14 
REMARK    5  A    between atoms: C14_14  and  O1_15 
ROOT
HETATM    1  C6  UNL     1     -14.902 -14.971  44.500  1.00  0.00    -0.036 C 
HETATM    2  C7  UNL     1     -14.332 -13.722  43.863  1.00  0.00     0.016 C 
HETATM    3  C8  UNL     1     -15.181 -16.009  43.437  1.00  0.00     0.019 C 
HETATM    4  C9  UNL     1     -16.376 -16.804  43.947  1.00  0.00     0.024 C 
HETATM    5  C15 UNL     1     -17.227 -15.692  44.537  1.00  0.00    -0.032 C 
HETATM    6  C16 UNL     1     -18.317 -16.138  45.456  1.00  0.00     0.016 C 
HETATM    7  C17 UNL     1     -17.602 -14.568  43.646  1.00  0.00     0.010 C 
HETATM    8  C18 UNL     1     -17.060 -13.615  44.719  1.00  0.00     0.007 C 
HETATM    9  C19 UNL     1     -16.202 -14.751  45.197  1.00  0.00     0.003 C 
ENDROOT
BRANCH   4  10
HETATM   10  C10 UNL     1     -17.059 -17.552  42.901  1.00  0.00    -0.075 C 
HETATM   11  C11 UNL     1     -17.234 -16.953  41.512  1.00  0.00     0.044 C 
HETATM   12  C12 UNL     1     -17.545 -18.753  43.095  1.00  0.00    -0.058 C 
HETATM   13  C13 UNL     1     -18.243 -19.454  41.934  1.00  0.00     0.046 C 
BRANCH  12  14
HETATM   14  C14 UNL     1     -17.449 -19.458  44.389  1.00  0.00     0.198 C 
BRANCH  14  15
HETATM   15  O1  UNL     1     -18.777 -19.646  44.845  1.00  0.00    -0.397 OA
ATOM     16  H1  UNL     1     -19.287 -19.911  44.090  1.00  0.00     0.209 HD
ENDBRANCH  14  15
ENDBRANCH  12  14
ENDBRANCH   4  10
BRANCH   1  17
HETATM   17  C5  UNL     1     -13.887 -15.444  45.516  1.00  0.00     0.036 C 
BRANCH  17  18
HETATM   18  C4  UNL     1     -12.945 -16.457  44.948  1.00  0.00    -0.024 C 
HETATM   19  C2  UNL     1     -12.897 -17.695  45.398  1.00  0.00    -0.091 C 
HETATM   20  C1  UNL     1     -11.964 -18.672  44.825  1.00  0.00     0.042 C 
HETATM   21  C3  UNL     1     -13.806 -18.088  46.498  1.00  0.00     0.042 C 
ENDBRANCH  17  18
ENDBRANCH   1  17
TORSDOF 5
ENDMDL
MODEL 2
REMARK VINA RESULT: -5.845132215      2.265      4.614
REMARK  5 active torsions:
REMARK  status: ('A' for Active; 'I' for Inactive)
REMARK    1  A    between atoms: C4_4  and  C5_5 
REMARK    2  A    between atoms: C5_5  and  C6_6 
REMARK    3  A    between atoms: C9_9  and  C10_10 
REMARK    4  A    between atoms: C12_12  and  C14_14 
REMARK    5  A    between atoms: C14_14  and  O1_15 
ROOT
HETATM    1  C6  UNL     1     -18.017 -17.582  46.064  1.00  0.00    -0.036 C 
HETATM    2  C7  UNL     1     -18.316 -17.853  47.523  1.00  0.00     0.016 C 
HETATM    3  C8  UNL     1     -18.770 -18.562  45.194  1.00  0.00     0.019 C 
HETATM    4  C9  UNL     1     -17.896 -18.771  43.965  1.00  0.00     0.024 C 
HETATM    5  C15 UNL     1     -16.517 -18.821  44.601  1.00  0.00    -0.032 C 
HETATM    6  C16 UNL     1     -15.370 -18.653  43.658  1.00  0.00     0.016 C 
HETATM    7  C17 UNL     1     -16.288 -19.827  45.666  1.00  0.00     0.010 C 
HETATM    8  C18 UNL     1     -15.760 -18.686  46.545  1.00  0.00     0.007 C 
HETATM    9  C19 UNL     1     -16.579 -17.750  45.704  1.00  0.00     0.003 C 
ENDROOT
BRANCH   4  10
HETATM   10  C10 UNL     1     -18.227 -19.979  43.222  1.00  0.00    -0.075 C 
HETATM   11  C11 UNL     1     -18.495 -21.287  43.955  1.00  0.00     0.044 C 
HETATM   12  C12 UNL     1     -18.311 -20.003  41.914  1.00  0.00    -0.058 C 
HETATM   13  C13 UNL     1     -18.664 -21.320  41.230  1.00  0.00     0.046 C 
BRANCH  12  14
HETATM   14  C14 UNL     1     -18.077 -18.812  41.073  1.00  0.00     0.198 C 
BRANCH  14  15
HETATM   15  O1  UNL     1     -16.824 -19.005  40.441  1.00  0.00    -0.397 OA
ATOM     16  H1  UNL     1     -16.526 -18.147  40.164  1.00  0.00     0.209 HD
ENDBRANCH  14  15
ENDBRANCH  12  14
ENDBRANCH   4  10
BRANCH   1  17
HETATM   17  C5  UNL     1     -18.414 -16.148  45.796  1.00  0.00     0.036 C 
BRANCH  17  18
HETATM   18  C4  UNL     1     -17.228 -15.257  45.604  1.00  0.00    -0.024 C 
HETATM   19  C2  UNL     1     -17.110 -14.469  44.554  1.00  0.00    -0.091 C 
HETATM   20  C1  UNL     1     -15.937 -13.603  44.387  1.00  0.00     0.042 C 
HETATM   21  C3  UNL     1     -18.187 -14.471  43.539  1.00  0.00     0.042 C 
ENDBRANCH  17  18
ENDBRANCH   1  17
TORSDOF 5
ENDMDL
MODEL 3
REMARK VINA RESULT: -5.724390036      2.452      4.857
REMARK  5 active torsions:
REMARK  status: ('A' for Active; 'I' for Inactive)
REMARK    1  A    between atoms: C4_4  and  C5_5 
REMARK    2  A    between atoms: C5_5  and  C6_6 
REMARK    3  A    between atoms: C9_9  and  C10_10 
REMARK    4  A    between atoms: C12_12  and  C14_14 
REMARK    5  A    between atoms: C14_14  and  O1_15 
ROOT
HETATM    1  C6  UNL     1     -18.220 -18.108  45.994  1.00  0.00    -0.036 C 
HETATM    2  C7  UNL     1     -19.715 -18.222  45.787  1.00  0.00     0.016 C 
HETATM    3  C8  UNL     1     -17.793 -16.662  45.878  1.00  0.00     0.019 C 
HETATM    4  C9  UNL     1     -16.376 -16.699  45.321  1.00  0.00     0.024 C 
HETATM    5  C15 UNL     1     -16.502 -17.812  44.294  1.00  0.00    -0.032 C 
HETATM    6  C16 UNL     1     -15.211 -18.377  43.800  1.00  0.00     0.016 C 
HETATM    7  C17 UNL     1     -17.544 -17.667  43.249  1.00  0.00     0.010 C 
HETATM    8  C18 UNL     1     -18.036 -19.069  43.630  1.00  0.00     0.007 C 
HETATM    9  C19 UNL     1     -17.414 -18.846  44.979  1.00  0.00     0.003 C 
ENDROOT
BRANCH   4  10
HETATM   10  C10 UNL     1     -15.952 -15.432  44.742  1.00  0.00    -0.075 C 
HETATM   11  C11 UNL     1     -16.939 -14.570  43.965  1.00  0.00     0.044 C 
HETATM   12  C12 UNL     1     -14.729 -14.977  44.858  1.00  0.00    -0.058 C 
HETATM   13  C13 UNL     1     -14.385 -13.637  44.214  1.00  0.00     0.046 C 
BRANCH  12  14
HETATM   14  C14 UNL     1     -13.668 -15.704  45.582  1.00  0.00     0.198 C 
BRANCH  14  15
HETATM   15  O1  UNL     1     -12.664 -16.006  44.630  1.00  0.00    -0.397 OA
ATOM     16  H1  UNL     1     -12.008 -15.324  44.703  1.00  0.00     0.209 HD
ENDBRANCH  14  15
ENDBRANCH  12  14
ENDBRANCH   4  10
BRANCH   1  17
HETATM   17  C5  UNL     1     -17.923 -18.690  47.357  1.00  0.00     0.036 C 
BRANCH  17  18
HETATM   18  C4  UNL     1     -17.219 -20.007  47.271  1.00  0.00    -0.024 C 
HETATM   19  C2  UNL     1     -15.950 -20.142  47.602  1.00  0.00    -0.091 C 
HETATM   20  C1  UNL     1     -15.280 -21.444  47.509  1.00  0.00     0.042 C 
HETATM   21  C3  UNL     1     -15.206 -18.952  48.072  1.00  0.00     0.042 C 
ENDBRANCH  17  18
ENDBRANCH   1  17
TORSDOF 5
ENDMDL
MODEL 4
REMARK VINA RESULT: -5.698890497      1.026      1.468
REMARK  5 active torsions:
REMARK  status: ('A' for Active; 'I' for Inactive)
REMARK    1  A    between atoms: C4_4  and  C5_5 
REMARK    2  A    between atoms: C5_5  and  C6_6 
REMARK    3  A    between atoms: C9_9  and  C10_10 
REMARK    4  A    between atoms: C12_12  and  C14_14 
REMARK    5  A    between atoms: C14_14  and  O1_15 
ROOT
HETATM    1  C6  UNL     1     -14.949 -15.787  44.568  1.00  0.00    -0.036 C 
HETATM    2  C7  UNL     1     -14.275 -14.478  44.219  1.00  0.00     0.016 C 
HETATM    3  C8  UNL     1     -15.295 -16.541  43.305  1.00  0.00     0.019 C 
HETATM    4  C9  UNL     1     -16.555 -17.331  43.634  1.00  0.00     0.024 C 
HETATM    5  C15 UNL     1     -17.323 -16.312  44.459  1.00  0.00    -0.032 C 
HETATM    6  C16 UNL     1     -18.456 -16.861  45.263  1.00  0.00     0.016 C 
HETATM    7  C17 UNL     1     -17.598 -14.994  43.838  1.00  0.00     0.010 C 
HETATM    8  C18 UNL     1     -16.997 -14.346  45.092  1.00  0.00     0.007 C 
HETATM    9  C19 UNL     1     -16.236 -15.623  45.303  1.00  0.00     0.003 C 
ENDROOT
BRANCH   4  10
HETATM   10  C10 UNL     1     -17.282 -17.775  42.453  1.00  0.00    -0.075 C 
HETATM   11  C11 UNL     1     -17.354 -16.891  41.214  1.00  0.00     0.044 C 
HETATM   12  C12 UNL     1     -17.894 -18.932  42.394  1.00  0.00    -0.058 C 
HETATM   13  C13 UNL     1     -18.628 -19.304  41.110  1.00  0.00     0.046 C 
BRANCH  12  14
HETATM   14  C14 UNL     1     -17.908 -19.890  43.517  1.00  0.00     0.198 C 
BRANCH  14  15
HETATM   15  O1  UNL     1     -19.256 -19.998  43.938  1.00  0.00    -0.397 OA
ATOM     16  H1  UNL     1     -19.725 -19.280  43.530  1.00  0.00     0.209 HD
ENDBRANCH  14  15
ENDBRANCH  12  14
ENDBRANCH   4  10
BRANCH   1  17
HETATM   17  C5  UNL     1     -13.987 -16.551  45.451  1.00  0.00     0.036 C 
BRANCH  17  18
HETATM   18  C4  UNL     1     -14.693 -17.438  46.426  1.00  0.00    -0.024 C 
HETATM   19  C2  UNL     1     -14.638 -18.752  46.340  1.00  0.00    -0.091 C 
HETATM   20  C1  UNL     1     -15.340 -19.602  47.309  1.00  0.00     0.042 C 
HETATM   21  C3  UNL     1     -13.853 -19.361  45.243  1.00  0.00     0.042 C 
ENDBRANCH  17  18
ENDBRANCH   1  17
TORSDOF 5
ENDMDL
MODEL 5
REMARK VINA RESULT: -5.577898800      2.215      4.472
REMARK  5 active torsions:
REMARK  status: ('A' for Active; 'I' for Inactive)
REMARK    1  A    between atoms: C4_4  and  C5_5 
REMARK    2  A    between atoms: C5_5  and  C6_6 
REMARK    3  A    between atoms: C9_9  and  C10_10 
REMARK    4  A    between atoms: C12_12  and  C14_14 
REMARK    5  A    between atoms: C14_14  and  O1_15 
ROOT
HETATM    1  C6  UNL     1     -17.810 -17.374  45.856  1.00  0.00    -0.036 C 
HETATM    2  C7  UNL     1     -18.180 -17.238  47.317  1.00  0.00     0.016 C 
HETATM    3  C8  UNL     1     -18.863 -18.180  45.131  1.00  0.00     0.019 C 
HETATM    4  C9  UNL     1     -18.123 -18.912  44.019  1.00  0.00     0.024 C 
HETATM    5  C15 UNL     1     -16.849 -19.313  44.741  1.00  0.00    -0.032 C 
HETATM    6  C16 UNL     1     -15.719 -19.738  43.860  1.00  0.00     0.016 C 
HETATM    7  C17 UNL     1     -16.986 -20.111  45.983  1.00  0.00     0.010 C 
HETATM    8  C18 UNL     1     -16.086 -19.078  46.674  1.00  0.00     0.007 C 
HETATM    9  C19 UNL     1     -16.525 -18.096  45.626  1.00  0.00     0.003 C 
ENDROOT
BRANCH   4  10
HETATM   10  C10 UNL     1     -18.861 -20.048  43.487  1.00  0.00    -0.075 C 
HETATM   11  C11 UNL     1     -19.555 -21.026  44.427  1.00  0.00     0.044 C 
HETATM   12  C12 UNL     1     -18.967 -20.283  42.202  1.00  0.00    -0.058 C 
HETATM   13  C13 UNL     1     -19.763 -21.502  41.747  1.00  0.00     0.046 C 
BRANCH  12  14
HETATM   14  C14 UNL     1     -18.348 -19.422  41.176  1.00  0.00     0.198 C 
BRANCH  14  15
HETATM   15  O1  UNL     1     -18.298 -20.186  39.984  1.00  0.00    -0.397 OA
ATOM     16  H1  UNL     1     -17.584 -19.834  39.467  1.00  0.00     0.209 HD
ENDBRANCH  14  15
ENDBRANCH  12  14
ENDBRANCH   4  10
BRANCH   1  17
HETATM   17  C5  UNL     1     -17.676 -15.971  45.307  1.00  0.00     0.036 C 
BRANCH  17  18
HETATM   18  C4  UNL     1     -16.264 -15.634  44.949  1.00  0.00    -0.024 C 
HETATM   19  C2  UNL     1     -15.910 -14.421  44.574  1.00  0.00    -0.091 C 
HETATM   20  C1  UNL     1     -14.517 -14.114  44.227  1.00  0.00     0.042 C 
HETATM   21  C3  UNL     1     -16.945 -13.366  44.508  1.00  0.00     0.042 C 
ENDBRANCH  17  18
ENDBRANCH   1  17
TORSDOF 5
ENDMDL
