MODEL 1
REMARK VINA RESULT: -7.810050996      0.000      0.000
REMARK  8 active torsions:
REMARK  status: ('A' for Active; 'I' for Inactive)
REMARK    1  A    between atoms: N1_2  and  C2_3 
REMARK    2  A    between atoms: N1_2  and  C4_7 
REMARK    3  A    between atoms: C2_3  and  C3_4 
REMARK    4  A    between atoms: C4_7  and  N3_8 
REMARK    5  A    between atoms: C4_7  and  C5_12 
REMARK    6  A    between atoms: C4_7  and  C6_15 
REMARK    7  A    between atoms: C5_12  and  O2_13 
REMARK    8  A    between atoms: C9_24  and  N7_25 
ROOT
HETATM    1  C6  UNL     1      19.091  29.370  12.958  1.00  0.00     0.099 A 
HETATM    2  N4  UNL     1      19.904  30.333  13.529  1.00  0.00    -0.351 N 
ATOM      3  H4  UNL     1      19.506  30.880  14.293  1.00  0.00     0.166 HD
HETATM    4  C7  UNL     1      21.139  30.611  13.182  1.00  0.00     0.182 A 
HETATM    5  N5  UNL     1      21.748  29.953  12.196  1.00  0.00    -0.337 N 
ATOM      6  H5  UNL     1      22.708  30.172  11.931  1.00  0.00     0.168 HD
HETATM    7  C8  UNL     1      21.062  28.996  11.565  1.00  0.00     0.139 A 
HETATM    8  N6  UNL     1      21.620  28.296  10.535  1.00  0.00    -0.176 N 
ATOM      9  H6  UNL     1      22.581  28.512  10.268  1.00  0.00     0.186 HD
HETATM   10  C9  UNL     1      20.972  27.340   9.853  1.00  0.00     0.680 A 
HETATM   11  N8  UNL     1      19.699  27.055  10.205  1.00  0.00    -0.155 N 
ATOM     12  H8  UNL     1      19.183  26.333   9.702  1.00  0.00     0.187 HD
HETATM   13  C10 UNL     1      19.102  27.725  11.225  1.00  0.00     0.275 A 
HETATM   14  O3  UNL     1      17.937  27.398  11.467  1.00  0.00    -0.267 OA
HETATM   15  C11 UNL     1      19.737  28.701  11.939  1.00  0.00     0.104 A 
ENDROOT
BRANCH   1  16
HETATM   16  C4  UNL     1      17.755  29.089  13.443  1.00  0.00     0.381 C 
BRANCH  16  17
HETATM   17  N1  UNL     1      17.423  27.857  14.053  1.00  0.00     0.138 N 
HETATM   18  C1  UNL     1      18.236  27.538  15.198  1.00  0.00     0.314 C 
BRANCH  17  19
HETATM   19  C2  UNL     1      16.051  27.731  14.369  1.00  0.00     0.374 C 
BRANCH  19  20
HETATM   20  C3  UNL     1      15.531  26.446  13.764  1.00  0.00     0.259 C 
HETATM   21  N2  UNL     1      14.822  26.467  12.533  1.00  0.00    -0.061 NA
HETATM   22  O1  UNL     1      15.703  25.336  14.318  1.00  0.00    -0.275 OA
ENDBRANCH  19  20
ENDBRANCH  17  19
ENDBRANCH  16  17
BRANCH  16  23
HETATM   23  N3  UNL     1      17.781  29.839  14.750  1.00  0.00    -0.034 N 
ATOM     24  H33 UNL     1      18.324  29.451  15.522  1.00  0.00     0.278 HD
ATOM     25  H32 UNL     1      18.291  30.722  14.793  1.00  0.00     0.278 HD
ATOM     26  H31 UNL     1      16.765  29.860  14.834  1.00  0.00     0.278 HD
ENDBRANCH  16  23
BRANCH  16  27
HETATM   27  C5  UNL     1      16.637  29.835  12.777  1.00  0.00     0.243 C 
BRANCH  27  28
HETATM   28  O2  UNL     1      17.047  31.167  12.619  1.00  0.00    -0.396 OA
ATOM     29  H2  UNL     1      17.996  31.182  12.645  1.00  0.00     0.209 HD
ENDBRANCH  27  28
ENDBRANCH  16  27
ENDBRANCH   1  16
BRANCH  10  30
HETATM   30  N7  UNL     1      21.573  26.722   8.891  1.00  0.00    -0.234 N 
ATOM     31  H72 UNL     1      22.287  26.015   9.064  1.00  0.00     0.174 HD
ATOM     32  H71 UNL     1      21.336  26.941   7.923  1.00  0.00     0.174 HD
ENDBRANCH  10  30
TORSDOF 8
ENDMDL
MODEL 2
REMARK VINA RESULT: -7.734198847      2.371      5.659
REMARK  8 active torsions:
REMARK  status: ('A' for Active; 'I' for Inactive)
REMARK    1  A    between atoms: N1_2  and  C2_3 
REMARK    2  A    between atoms: N1_2  and  C4_7 
REMARK    3  A    between atoms: C2_3  and  C3_4 
REMARK    4  A    between atoms: C4_7  and  N3_8 
REMARK    5  A    between atoms: C4_7  and  C5_12 
REMARK    6  A    between atoms: C4_7  and  C6_15 
REMARK    7  A    between atoms: C5_12  and  O2_13 
REMARK    8  A    between atoms: C9_24  and  N7_25 
ROOT
HETATM    1  C6  UNL     1      17.638  29.552  11.755  1.00  0.00     0.099 A 
HETATM    2  N4  UNL     1      16.339  29.429  11.293  1.00  0.00    -0.351 N 
ATOM      3  H4  UNL     1      16.197  29.512  10.286  1.00  0.00     0.166 HD
HETATM    4  C7  UNL     1      15.272  29.216  12.028  1.00  0.00     0.182 A 
HETATM    5  N5  UNL     1      15.353  29.093  13.353  1.00  0.00    -0.337 N 
ATOM      6  H5  UNL     1      14.521  28.926  13.918  1.00  0.00     0.168 HD
HETATM    7  C8  UNL     1      16.559  29.194  13.917  1.00  0.00     0.139 A 
HETATM    8  N6  UNL     1      16.712  29.096  15.270  1.00  0.00    -0.176 N 
ATOM      9  H6  UNL     1      15.882  28.928  15.838  1.00  0.00     0.186 HD
HETATM   10  C9  UNL     1      17.894  29.211  15.892  1.00  0.00     0.680 A 
HETATM   11  N8  UNL     1      18.994  29.434  15.139  1.00  0.00    -0.155 N 
ATOM     12  H8  UNL     1      19.905  29.526  15.587  1.00  0.00     0.187 HD
HETATM   13  C10 UNL     1      18.892  29.538  13.788  1.00  0.00     0.275 A 
HETATM   14  O3  UNL     1      19.950  29.749  13.190  1.00  0.00    -0.267 OA
HETATM   15  C11 UNL     1      17.703  29.424  13.127  1.00  0.00     0.104 A 
ENDROOT
BRANCH   1  16
HETATM   16  C4  UNL     1      18.768  29.729  10.865  1.00  0.00     0.381 C 
BRANCH  16  17
HETATM   17  N1  UNL     1      19.700  28.693  10.622  1.00  0.00     0.138 N 
HETATM   18  C1  UNL     1      19.152  27.370  10.780  1.00  0.00     0.314 C 
BRANCH  17  19
HETATM   19  C2  UNL     1      20.367  28.809   9.381  1.00  0.00     0.374 C 
BRANCH  19  20
HETATM   20  C3  UNL     1      21.551  27.868   9.379  1.00  0.00     0.259 C 
HETATM   21  N2  UNL     1      22.574  28.000  10.357  1.00  0.00    -0.061 NA
HETATM   22  O1  UNL     1      21.671  26.955   8.531  1.00  0.00    -0.275 OA
ENDBRANCH  19  20
ENDBRANCH  17  19
ENDBRANCH  16  17
BRANCH  16  23
HETATM   23  N3  UNL     1      18.088  29.562   9.531  1.00  0.00    -0.034 N 
ATOM     24  H33 UNL     1      18.148  30.325   8.856  1.00  0.00     0.278 HD
ATOM     25  H32 UNL     1      18.483  28.898   8.864  1.00  0.00     0.278 HD
ATOM     26  H31 UNL     1      17.180  29.351   9.946  1.00  0.00     0.278 HD
ENDBRANCH  16  23
BRANCH  16  27
HETATM   27  C5  UNL     1      19.262  31.135  10.693  1.00  0.00     0.243 C 
BRANCH  27  28
HETATM   28  O2  UNL     1      18.157  31.992  10.802  1.00  0.00    -0.396 OA
ATOM     29  H2  UNL     1      17.727  32.018   9.955  1.00  0.00     0.209 HD
ENDBRANCH  27  28
ENDBRANCH  16  27
ENDBRANCH   1  16
BRANCH  10  30
HETATM   30  N7  UNL     1      17.953  29.103  17.178  1.00  0.00    -0.234 N 
ATOM     31  H72 UNL     1      17.353  29.649  17.796  1.00  0.00     0.174 HD
ATOM     32  H71 UNL     1      18.620  28.456  17.600  1.00  0.00     0.174 HD
ENDBRANCH  10  30
TORSDOF 8
ENDMDL
MODEL 3
REMARK VINA RESULT: -7.444881473      2.233      5.672
REMARK  8 active torsions:
REMARK  status: ('A' for Active; 'I' for Inactive)
REMARK    1  A    between atoms: N1_2  and  C2_3 
REMARK    2  A    between atoms: N1_2  and  C4_7 
REMARK    3  A    between atoms: C2_3  and  C3_4 
REMARK    4  A    between atoms: C4_7  and  N3_8 
REMARK    5  A    between atoms: C4_7  and  C5_12 
REMARK    6  A    between atoms: C4_7  and  C6_15 
REMARK    7  A    between atoms: C5_12  and  O2_13 
REMARK    8  A    between atoms: C9_24  and  N7_25 
ROOT
HETATM    1  C6  UNL     1      16.626  28.951  11.529  1.00  0.00     0.099 A 
HETATM    2  N4  UNL     1      15.894  29.187  10.379  1.00  0.00    -0.351 N 
ATOM      3  H4  UNL     1      16.183  29.977   9.801  1.00  0.00     0.166 HD
HETATM    4  C7  UNL     1      14.862  28.492   9.960  1.00  0.00     0.182 A 
HETATM    5  N5  UNL     1      14.407  27.442  10.644  1.00  0.00    -0.337 N 
ATOM      6  H5  UNL     1      13.606  26.905  10.314  1.00  0.00     0.168 HD
HETATM    7  C8  UNL     1      15.035  27.115  11.777  1.00  0.00     0.139 A 
HETATM    8  N6  UNL     1      14.610  26.062  12.536  1.00  0.00    -0.176 N 
ATOM      9  H6  UNL     1      13.810  25.522  12.207  1.00  0.00     0.186 HD
HETATM   10  C9  UNL     1      15.188  25.701  13.690  1.00  0.00     0.680 A 
HETATM   11  N8  UNL     1      16.247  26.418  14.126  1.00  0.00    -0.155 N 
ATOM     12  H8  UNL     1      16.705  26.165  15.003  1.00  0.00     0.187 HD
HETATM   13  C10 UNL     1      16.707  27.473  13.405  1.00  0.00     0.275 A 
HETATM   14  O3  UNL     1      17.674  28.067  13.888  1.00  0.00    -0.267 OA
HETATM   15  C11 UNL     1      16.141  27.863  12.225  1.00  0.00     0.104 A 
ENDROOT
BRANCH   1  16
HETATM   16  C4  UNL     1      17.791  29.735  11.887  1.00  0.00     0.381 C 
BRANCH  16  17
HETATM   17  N1  UNL     1      19.102  29.328  11.546  1.00  0.00     0.138 N 
HETATM   18  C1  UNL     1      19.152  28.382  10.461  1.00  0.00     0.314 C 
BRANCH  17  19
HETATM   19  C2  UNL     1      19.986  30.405  11.305  1.00  0.00     0.374 C 
BRANCH  19  20
HETATM   20  C3  UNL     1      21.274  30.150  12.055  1.00  0.00     0.259 C 
HETATM   21  N2  UNL     1      21.762  31.106  12.987  1.00  0.00    -0.061 NA
HETATM   22  O1  UNL     1      21.945  29.107  11.886  1.00  0.00    -0.275 OA
ENDBRANCH  19  20
ENDBRANCH  17  19
ENDBRANCH  16  17
BRANCH  16  23
HETATM   23  N3  UNL     1      17.738  30.797  10.819  1.00  0.00    -0.034 N 
ATOM     24  H33 UNL     1      16.827  31.168  10.548  1.00  0.00     0.278 HD
ATOM     25  H32 UNL     1      18.088  31.729  11.042  1.00  0.00     0.278 HD
ATOM     26  H31 UNL     1      18.254  30.234  10.142  1.00  0.00     0.278 HD
ENDBRANCH  16  23
BRANCH  16  27
HETATM   27  C5  UNL     1      17.651  30.618  13.091  1.00  0.00     0.243 C 
BRANCH  27  28
HETATM   28  O2  UNL     1      16.931  31.757  12.704  1.00  0.00    -0.396 OA
ATOM     29  H2  UNL     1      17.385  32.150  11.967  1.00  0.00     0.209 HD
ENDBRANCH  27  28
ENDBRANCH  16  27
ENDBRANCH   1  16
BRANCH  10  30
HETATM   30  N7  UNL     1      14.726  24.690  14.348  1.00  0.00    -0.234 N 
ATOM     31  H72 UNL     1      13.777  24.342  14.210  1.00  0.00     0.174 HD
ATOM     32  H71 UNL     1      15.318  24.218  15.031  1.00  0.00     0.174 HD
ENDBRANCH  10  30
TORSDOF 8
ENDMDL
MODEL 4
REMARK VINA RESULT: -7.301688176      3.111      4.791
REMARK  8 active torsions:
REMARK  status: ('A' for Active; 'I' for Inactive)
REMARK    1  A    between atoms: N1_2  and  C2_3 
REMARK    2  A    between atoms: N1_2  and  C4_7 
REMARK    3  A    between atoms: C2_3  and  C3_4 
REMARK    4  A    between atoms: C4_7  and  N3_8 
REMARK    5  A    between atoms: C4_7  and  C5_12 
REMARK    6  A    between atoms: C4_7  and  C6_15 
REMARK    7  A    between atoms: C5_12  and  O2_13 
REMARK    8  A    between atoms: C9_24  and  N7_25 
ROOT
HETATM    1  C6  UNL     1      16.816  29.357  13.056  1.00  0.00     0.099 A 
HETATM    2  N4  UNL     1      16.594  30.700  12.805  1.00  0.00    -0.351 N 
ATOM      3  H4  UNL     1      16.351  30.957  11.848  1.00  0.00     0.166 HD
HETATM    4  C7  UNL     1      16.667  31.675  13.681  1.00  0.00     0.182 A 
HETATM    5  N5  UNL     1      16.978  31.442  14.956  1.00  0.00    -0.337 N 
ATOM      6  H5  UNL     1      17.032  32.203  15.632  1.00  0.00     0.168 HD
HETATM    7  C8  UNL     1      17.215  30.180  15.321  1.00  0.00     0.139 A 
HETATM    8  N6  UNL     1      17.556  29.873  16.607  1.00  0.00    -0.176 N 
ATOM      9  H6  UNL     1      17.609  30.632  17.286  1.00  0.00     0.186 HD
HETATM   10  C9  UNL     1      17.825  28.627  17.025  1.00  0.00     0.680 A 
HETATM   11  N8  UNL     1      17.755  27.622  16.125  1.00  0.00    -0.155 N 
ATOM     12  H8  UNL     1      17.955  26.665  16.416  1.00  0.00     0.187 HD
HETATM   13  C10 UNL     1      17.418  27.878  14.833  1.00  0.00     0.275 A 
HETATM   14  O3  UNL     1      17.387  26.896  14.087  1.00  0.00    -0.267 OA
HETATM   15  C11 UNL     1      17.137  29.135  14.379  1.00  0.00     0.104 A 
ENDROOT
BRANCH   1  16
HETATM   16  C4  UNL     1      16.656  28.336  12.040  1.00  0.00     0.381 C 
BRANCH  16  17
HETATM   17  N1  UNL     1      15.466  27.583  11.915  1.00  0.00     0.138 N 
HETATM   18  C1  UNL     1      14.435  28.245  11.157  1.00  0.00     0.314 C 
BRANCH  17  19
HETATM   19  C2  UNL     1      15.672  26.271  11.430  1.00  0.00     0.374 C 
BRANCH  19  20
HETATM   20  C3  UNL     1      14.969  25.299  12.350  1.00  0.00     0.259 C 
HETATM   21  N2  UNL     1      14.846  23.930  11.990  1.00  0.00    -0.061 NA
HETATM   22  O1  UNL     1      14.476  25.658  13.444  1.00  0.00    -0.275 OA
ENDBRANCH  19  20
ENDBRANCH  17  19
ENDBRANCH  16  17
BRANCH  16  23
HETATM   23  N3  UNL     1      16.350  29.198  10.841  1.00  0.00    -0.034 N 
ATOM     24  H33 UNL     1      16.314  28.756   9.922  1.00  0.00     0.278 HD
ATOM     25  H32 UNL     1      15.405  29.567  10.736  1.00  0.00     0.278 HD
ATOM     26  H31 UNL     1      17.109  29.852  11.036  1.00  0.00     0.278 HD
ENDBRANCH  16  23
BRANCH  16  27
HETATM   27  C5  UNL     1      17.917  27.694  11.542  1.00  0.00     0.243 C 
BRANCH  27  28
HETATM   28  O2  UNL     1      18.290  28.347  10.358  1.00  0.00    -0.396 OA
ATOM     29  H2  UNL     1      18.879  29.054  10.591  1.00  0.00     0.209 HD
ENDBRANCH  27  28
ENDBRANCH  16  27
ENDBRANCH   1  16
BRANCH  10  30
HETATM   30  N7  UNL     1      18.137  28.421  18.261  1.00  0.00    -0.234 N 
ATOM     31  H72 UNL     1      17.883  29.076  19.001  1.00  0.00     0.174 HD
ATOM     32  H71 UNL     1      18.657  27.581  18.517  1.00  0.00     0.174 HD
ENDBRANCH  10  30
TORSDOF 8
ENDMDL
MODEL 5
REMARK VINA RESULT: -7.271236016      2.285      5.362
REMARK  8 active torsions:
REMARK  status: ('A' for Active; 'I' for Inactive)
REMARK    1  A    between atoms: N1_2  and  C2_3 
REMARK    2  A    between atoms: N1_2  and  C4_7 
REMARK    3  A    between atoms: C2_3  and  C3_4 
REMARK    4  A    between atoms: C4_7  and  N3_8 
REMARK    5  A    between atoms: C4_7  and  C5_12 
REMARK    6  A    between atoms: C4_7  and  C6_15 
REMARK    7  A    between atoms: C5_12  and  O2_13 
REMARK    8  A    between atoms: C9_24  and  N7_25 
ROOT
HETATM    1  C6  UNL     1      16.742  29.080  11.418  1.00  0.00     0.099 A 
HETATM    2  N4  UNL     1      16.155  29.407  10.208  1.00  0.00    -0.351 N 
ATOM      3  H4  UNL     1      16.509  30.238   9.733  1.00  0.00     0.166 HD
HETATM    4  C7  UNL     1      15.187  28.751   9.612  1.00  0.00     0.182 A 
HETATM    5  N5  UNL     1      14.658  27.652  10.153  1.00  0.00    -0.337 N 
ATOM      6  H5  UNL     1      13.907  27.146   9.685  1.00  0.00     0.168 HD
HETATM    7  C8  UNL     1      15.143  27.236  11.325  1.00  0.00     0.139 A 
HETATM    8  N6  UNL     1      14.635  26.129  11.942  1.00  0.00    -0.176 N 
ATOM      9  H6  UNL     1      13.884  25.619  11.476  1.00  0.00     0.186 HD
HETATM   10  C9  UNL     1      15.068  25.678  13.127  1.00  0.00     0.680 A 
HETATM   11  N8  UNL     1      16.062  26.354  13.745  1.00  0.00    -0.155 N 
ATOM     12  H8  UNL     1      16.410  26.032  14.648  1.00  0.00     0.187 HD
HETATM   13  C10 UNL     1      16.601  27.461  13.169  1.00  0.00     0.275 A 
HETATM   14  O3  UNL     1      17.497  28.012  13.812  1.00  0.00    -0.267 OA
HETATM   15  C11 UNL     1      16.181  27.943  11.962  1.00  0.00     0.104 A 
ENDROOT
BRANCH   1  16
HETATM   16  C4  UNL     1      17.850  29.830  11.976  1.00  0.00     0.381 C 
BRANCH  16  17
HETATM   17  N1  UNL     1      19.194  29.527  11.660  1.00  0.00     0.138 N 
HETATM   18  C1  UNL     1      20.081  29.570  12.794  1.00  0.00     0.314 C 
BRANCH  17  19
HETATM   19  C2  UNL     1      19.352  28.314  10.953  1.00  0.00     0.374 C 
BRANCH  19  20
HETATM   20  C3  UNL     1      19.857  28.626   9.562  1.00  0.00     0.259 C 
HETATM   21  N2  UNL     1      19.147  29.531   8.727  1.00  0.00    -0.061 NA
HETATM   22  O1  UNL     1      20.900  28.108   9.103  1.00  0.00    -0.275 OA
ENDBRANCH  19  20
ENDBRANCH  17  19
ENDBRANCH  16  17
BRANCH  16  23
HETATM   23  N3  UNL     1      17.816  31.053  11.096  1.00  0.00    -0.034 N 
ATOM     24  H33 UNL     1      18.400  31.065  10.260  1.00  0.00     0.278 HD
ATOM     25  H32 UNL     1      16.974  31.235  10.549  1.00  0.00     0.278 HD
ATOM     26  H31 UNL     1      18.047  31.689  11.859  1.00  0.00     0.278 HD
ENDBRANCH  16  23
BRANCH  16  27
HETATM   27  C5  UNL     1      17.600  30.495  13.297  1.00  0.00     0.243 C 
BRANCH  27  28
HETATM   28  O2  UNL     1      16.867  31.665  13.054  1.00  0.00    -0.396 OA
ATOM     29  H2  UNL     1      17.480  32.391  13.030  1.00  0.00     0.209 HD
ENDBRANCH  27  28
ENDBRANCH  16  27
ENDBRANCH   1  16
BRANCH  10  30
HETATM   30  N7  UNL     1      14.535  24.620  13.643  1.00  0.00    -0.234 N 
ATOM     31  H72 UNL     1      14.637  23.699  13.216  1.00  0.00     0.174 HD
ATOM     32  H71 UNL     1      13.991  24.696  14.502  1.00  0.00     0.174 HD
ENDBRANCH  10  30
TORSDOF 8
ENDMDL
