MODEL 1
REMARK VINA RESULT: -8.870516963      0.000      0.000
REMARK  6 active torsions:
REMARK  status: ('A' for Active; 'I' for Inactive)
REMARK    1  A    between atoms: N1_1  and  C1_4 
REMARK    2  A    between atoms: C2_7  and  O1_8 
REMARK    3  A    between atoms: O1_8  and  C3_9 
REMARK    4  A    between atoms: C3_9  and  C4_10 
REMARK       I    between atoms: C4_10  and  N3_12 
REMARK    5  A    between atoms: N3_12  and  N4_14 
REMARK    6  A    between atoms: C6_21  and  N8_22 
ROOT
HETATM    1  C1  UNL     1      15.083  28.675  11.159  1.00  0.00     0.693 A 
HETATM    2  N2  UNL     1      15.798  29.029  10.071  1.00  0.00    -0.154 N 
ATOM      3  H2  UNL     1      15.434  28.833   9.138  1.00  0.00     0.188 HD
HETATM    4  C2  UNL     1      16.965  29.626  10.211  1.00  0.00     0.252 A 
HETATM    5  N7  UNL     1      17.405  29.863  11.469  1.00  0.00    -0.154 N 
ATOM      6  H7  UNL     1      18.307  30.325  11.581  1.00  0.00     0.188 HD
HETATM    7  C6  UNL     1      16.732  29.529  12.575  1.00  0.00     0.698 A 
HETATM    8  N10 UNL     1      15.526  28.913  12.393  1.00  0.00    -0.022 N 
ATOM      9  H10 UNL     1      14.966  28.637  13.199  1.00  0.00     0.203 HD
ENDROOT
BRANCH   4  10
HETATM   10  O1  UNL     1      17.733  30.008   9.138  1.00  0.00    -0.312 OA
BRANCH  10  11
HETATM   11  C3  UNL     1      18.842  30.828   9.169  1.00  0.00     0.283 C 
BRANCH  11  12
HETATM   12  C4  UNL     1      18.506  32.189   8.702  1.00  0.00     0.260 C 
HETATM   13  O2  UNL     1      18.867  33.245   9.289  1.00  0.00    -0.269 OA
HETATM   14  N3  UNL     1      17.730  32.358   7.520  1.00  0.00    -0.266 N 
ATOM     15  H3  UNL     1      17.415  31.533   7.009  1.00  0.00     0.190 HD
BRANCH  14  16
HETATM   16  N4  UNL     1      17.392  33.617   7.046  1.00  0.00    -0.273 N 
HETATM   17  C5  UNL     1      16.998  33.750   5.835  1.00  0.00     0.215 C 
HETATM   18  N5  UNL     1      16.911  32.619   4.990  1.00  0.00    -0.065 NA
HETATM   19  N6  UNL     1      16.655  35.032   5.360  1.00  0.00    -0.065 NA
ATOM     20  H4  UNL     1      17.457  34.431   7.658  1.00  0.00     0.189 HD
ENDBRANCH  14  16
ENDBRANCH  11  12
ENDBRANCH  10  11
ENDBRANCH   4  10
BRANCH   1  21
HETATM   21  N1  UNL     1      13.942  28.091  11.010  1.00  0.00    -0.234 N 
ATOM     22  H12 UNL     1      13.579  27.957  10.067  1.00  0.00     0.174 HD
ATOM     23  H11 UNL     1      13.426  27.776  11.832  1.00  0.00     0.174 HD
ENDBRANCH   1  21
BRANCH   7  24
HETATM   24  N8  UNL     1      17.221  29.792  13.886  1.00  0.00    -0.214 N 
HETATM   25  C7  UNL     1      17.060  31.133  14.394  1.00  0.00     0.168 C 
HETATM   26  C8  UNL     1      17.239  31.279  15.862  1.00  0.00     0.252 C 
HETATM   27  N9  UNL     1      17.309  30.018  16.580  1.00  0.00    -0.072 N 
HETATM   28  C9  UNL     1      18.400  29.267  15.943  1.00  0.00     0.252 C 
ATOM     29  H92 UNL     1      17.418  30.125  17.588  1.00  0.00     0.277 HD
ATOM     30  H91 UNL     1      16.425  29.512  16.608  1.00  0.00     0.277 HD
HETATM   31  C10 UNL     1      17.841  28.752  14.641  1.00  0.00     0.168 C 
ENDBRANCH   7  24
TORSDOF 6
ENDMDL
MODEL 2
REMARK VINA RESULT: -8.857215504      4.046      5.866
REMARK  6 active torsions:
REMARK  status: ('A' for Active; 'I' for Inactive)
REMARK    1  A    between atoms: N1_1  and  C1_4 
REMARK    2  A    between atoms: C2_7  and  O1_8 
REMARK    3  A    between atoms: O1_8  and  C3_9 
REMARK    4  A    between atoms: C3_9  and  C4_10 
REMARK       I    between atoms: C4_10  and  N3_12 
REMARK    5  A    between atoms: N3_12  and  N4_14 
REMARK    6  A    between atoms: C6_21  and  N8_22 
ROOT
HETATM    1  C1  UNL     1      17.503  29.828  15.435  1.00  0.00     0.693 A 
HETATM    2  N2  UNL     1      18.399  30.567  14.750  1.00  0.00    -0.154 N 
ATOM      3  H2  UNL     1      19.021  31.204  15.249  1.00  0.00     0.188 HD
HETATM    4  C2  UNL     1      18.473  30.470  13.437  1.00  0.00     0.252 A 
HETATM    5  N7  UNL     1      17.625  29.613  12.820  1.00  0.00    -0.154 N 
ATOM      6  H7  UNL     1      17.680  29.535  11.804  1.00  0.00     0.188 HD
HETATM    7  C6  UNL     1      16.721  28.862  13.458  1.00  0.00     0.698 A 
HETATM    8  N10 UNL     1      16.674  28.987  14.818  1.00  0.00    -0.022 N 
ATOM      9  H10 UNL     1      16.006  28.439  15.359  1.00  0.00     0.203 HD
ENDROOT
BRANCH   4  10
HETATM   10  O1  UNL     1      19.366  31.198  12.691  1.00  0.00    -0.312 OA
BRANCH  10  11
HETATM   11  C3  UNL     1      19.851  30.875  11.440  1.00  0.00     0.283 C 
BRANCH  11  12
HETATM   12  C4  UNL     1      20.767  29.718  11.512  1.00  0.00     0.260 C 
HETATM   13  O2  UNL     1      21.831  29.702  12.190  1.00  0.00    -0.269 OA
HETATM   14  N3  UNL     1      20.464  28.531  10.787  1.00  0.00    -0.266 N 
ATOM     15  H3  UNL     1      19.614  28.496  10.224  1.00  0.00     0.190 HD
BRANCH  14  16
HETATM   16  N4  UNL     1      21.296  27.422  10.826  1.00  0.00    -0.273 N 
HETATM   17  C5  UNL     1      21.886  27.038   9.756  1.00  0.00     0.215 C 
HETATM   18  N5  UNL     1      21.687  27.742   8.545  1.00  0.00    -0.065 NA
HETATM   19  N6  UNL     1      22.732  25.911   9.802  1.00  0.00    -0.065 NA
ATOM     20  H4  UNL     1      21.437  26.916  11.700  1.00  0.00     0.189 HD
ENDBRANCH  14  16
ENDBRANCH  11  12
ENDBRANCH  10  11
ENDBRANCH   4  10
BRANCH   1  21
HETATM   21  N1  UNL     1      17.440  29.931  16.720  1.00  0.00    -0.234 N 
ATOM     22  H12 UNL     1      16.563  29.701  17.187  1.00  0.00     0.174 HD
ATOM     23  H11 UNL     1      18.261  30.237  17.242  1.00  0.00     0.174 HD
ENDBRANCH   1  21
BRANCH   7  24
HETATM   24  N8  UNL     1      15.843  27.968  12.780  1.00  0.00    -0.214 N 
HETATM   25  C7  UNL     1      15.027  28.518  11.725  1.00  0.00     0.168 C 
HETATM   26  C8  UNL     1      14.412  27.517  10.815  1.00  0.00     0.252 C 
HETATM   27  N9  UNL     1      14.921  26.168  10.986  1.00  0.00    -0.072 N 
HETATM   28  C9  UNL     1      14.716  25.850  12.405  1.00  0.00     0.252 C 
ATOM     29  H92 UNL     1      14.505  25.489  10.349  1.00  0.00     0.277 HD
ATOM     30  H91 UNL     1      15.884  26.050  10.674  1.00  0.00     0.277 HD
HETATM   31  C10 UNL     1      15.795  26.592  13.154  1.00  0.00     0.168 C 
ENDBRANCH   7  24
TORSDOF 6
ENDMDL
MODEL 3
REMARK VINA RESULT: -8.756186722      1.572      3.659
REMARK  6 active torsions:
REMARK  status: ('A' for Active; 'I' for Inactive)
REMARK    1  A    between atoms: N1_1  and  C1_4 
REMARK    2  A    between atoms: C2_7  and  O1_8 
REMARK    3  A    between atoms: O1_8  and  C3_9 
REMARK    4  A    between atoms: C3_9  and  C4_10 
REMARK       I    between atoms: C4_10  and  N3_12 
REMARK    5  A    between atoms: N3_12  and  N4_14 
REMARK    6  A    between atoms: C6_21  and  N8_22 
ROOT
HETATM    1  C1  UNL     1      18.555  29.948  14.446  1.00  0.00     0.693 A 
HETATM    2  N2  UNL     1      19.054  30.780  13.510  1.00  0.00    -0.154 N 
ATOM      3  H2  UNL     1      19.776  31.456  13.763  1.00  0.00     0.188 HD
HETATM    4  C2  UNL     1      18.612  30.722  12.269  1.00  0.00     0.252 A 
HETATM    5  N7  UNL     1      17.655  29.809  11.984  1.00  0.00    -0.154 N 
ATOM      6  H7  UNL     1      17.311  29.761  11.024  1.00  0.00     0.188 HD
HETATM    7  C6  UNL     1      17.130  28.965  12.879  1.00  0.00     0.698 A 
HETATM    8  N10 UNL     1      17.613  29.052  14.154  1.00  0.00    -0.022 N 
ATOM      9  H10 UNL     1      17.252  28.434  14.881  1.00  0.00     0.203 HD
ENDROOT
BRANCH   4  10
HETATM   10  O1  UNL     1      19.086  31.545  11.277  1.00  0.00    -0.312 OA
BRANCH  10  11
HETATM   11  C3  UNL     1      18.986  31.337   9.917  1.00  0.00     0.283 C 
BRANCH  11  12
HETATM   12  C4  UNL     1      18.518  32.558   9.229  1.00  0.00     0.260 C 
HETATM   13  O2  UNL     1      18.674  33.725   9.680  1.00  0.00    -0.269 OA
HETATM   14  N3  UNL     1      17.845  32.450   7.979  1.00  0.00    -0.266 N 
ATOM     15  H3  UNL     1      17.696  31.526   7.572  1.00  0.00     0.190 HD
BRANCH  14  16
HETATM   16  N4  UNL     1      17.389  33.570   7.299  1.00  0.00    -0.273 N 
HETATM   17  C5  UNL     1      17.010  33.458   6.082  1.00  0.00     0.215 C 
HETATM   18  N5  UNL     1      17.058  32.199   5.437  1.00  0.00    -0.065 NA
HETATM   19  N6  UNL     1      16.546  34.600   5.397  1.00  0.00    -0.065 NA
ATOM     20  H4  UNL     1      17.356  34.476   7.767  1.00  0.00     0.189 HD
ENDBRANCH  14  16
ENDBRANCH  11  12
ENDBRANCH  10  11
ENDBRANCH   4  10
BRANCH   1  21
HETATM   21  N1  UNL     1      18.996  30.012  15.658  1.00  0.00    -0.234 N 
ATOM     22  H12 UNL     1      19.995  29.898  15.823  1.00  0.00     0.174 HD
ATOM     23  H11 UNL     1      18.342  30.175  16.424  1.00  0.00     0.174 HD
ENDBRANCH   1  21
BRANCH   7  24
HETATM   24  N8  UNL     1      16.123  28.015  12.547  1.00  0.00    -0.214 N 
HETATM   25  C7  UNL     1      15.097  28.436  11.624  1.00  0.00     0.168 C 
HETATM   26  C8  UNL     1      14.294  27.336  11.027  1.00  0.00     0.252 C 
HETATM   27  N9  UNL     1      14.825  26.009  11.281  1.00  0.00    -0.072 N 
HETATM   28  C9  UNL     1      14.935  25.906  12.743  1.00  0.00     0.252 C 
ATOM     29  H92 UNL     1      14.278  25.260  10.858  1.00  0.00     0.277 HD
ATOM     30  H91 UNL     1      15.696  25.813  10.790  1.00  0.00     0.277 HD
HETATM   31  C10 UNL     1      16.154  26.710  13.122  1.00  0.00     0.168 C 
ENDBRANCH   7  24
TORSDOF 6
ENDMDL
MODEL 4
REMARK VINA RESULT: -8.736899156      2.164      4.124
REMARK  6 active torsions:
REMARK  status: ('A' for Active; 'I' for Inactive)
REMARK    1  A    between atoms: N1_1  and  C1_4 
REMARK    2  A    between atoms: C2_7  and  O1_8 
REMARK    3  A    between atoms: O1_8  and  C3_9 
REMARK    4  A    between atoms: C3_9  and  C4_10 
REMARK       I    between atoms: C4_10  and  N3_12 
REMARK    5  A    between atoms: N3_12  and  N4_14 
REMARK    6  A    between atoms: C6_21  and  N8_22 
ROOT
HETATM    1  C1  UNL     1      17.336  30.070  15.196  1.00  0.00     0.693 A 
HETATM    2  N2  UNL     1      18.069  30.801  14.333  1.00  0.00    -0.154 N 
ATOM      3  H2  UNL     1      18.616  31.593  14.673  1.00  0.00     0.188 HD
HETATM    4  C2  UNL     1      18.082  30.496  13.050  1.00  0.00     0.252 A 
HETATM    5  N7  UNL     1      17.341  29.437  12.647  1.00  0.00    -0.154 N 
ATOM      6  H7  UNL     1      17.349  29.198  11.655  1.00  0.00     0.188 HD
HETATM    7  C6  UNL     1      16.598  28.685  13.466  1.00  0.00     0.698 A 
HETATM    8  N10 UNL     1      16.609  29.030  14.789  1.00  0.00    -0.022 N 
ATOM      9  H10 UNL     1      16.064  28.492  15.462  1.00  0.00     0.203 HD
ENDROOT
BRANCH   4  10
HETATM   10  O1  UNL     1      18.811  31.206  12.128  1.00  0.00    -0.312 OA
BRANCH  10  11
HETATM   11  C3  UNL     1      19.460  30.697  11.022  1.00  0.00     0.283 C 
BRANCH  11  12
HETATM   12  C4  UNL     1      18.977  31.343   9.783  1.00  0.00     0.260 C 
HETATM   13  O2  UNL     1      19.100  30.840   8.633  1.00  0.00    -0.269 OA
HETATM   14  N3  UNL     1      18.330  32.609   9.853  1.00  0.00    -0.266 N 
ATOM     15  H3  UNL     1      18.207  33.055  10.762  1.00  0.00     0.190 HD
BRANCH  14  16
HETATM   16  N4  UNL     1      17.862  33.250   8.715  1.00  0.00    -0.273 N 
HETATM   17  C5  UNL     1      17.528  34.484   8.780  1.00  0.00     0.215 C 
HETATM   18  N5  UNL     1      17.634  35.185  10.005  1.00  0.00    -0.065 NA
HETATM   19  N6  UNL     1      17.054  35.131   7.620  1.00  0.00    -0.065 NA
ATOM     20  H4  UNL     1      17.786  32.743   7.834  1.00  0.00     0.189 HD
ENDBRANCH  14  16
ENDBRANCH  11  12
ENDBRANCH  10  11
ENDBRANCH   4  10
BRANCH   1  21
HETATM   21  N1  UNL     1      17.331  30.377  16.450  1.00  0.00    -0.234 N 
ATOM     22  H12 UNL     1      17.244  29.629  17.137  1.00  0.00     0.174 HD
ATOM     23  H11 UNL     1      17.413  31.355  16.729  1.00  0.00     0.174 HD
ENDBRANCH   1  21
BRANCH   7  24
HETATM   24  N8  UNL     1      15.828  27.577  13.012  1.00  0.00    -0.214 N 
HETATM   25  C7  UNL     1      15.065  27.755  11.801  1.00  0.00     0.168 C 
HETATM   26  C8  UNL     1      14.580  26.501  11.167  1.00  0.00     0.252 C 
HETATM   27  N9  UNL     1      15.152  25.292  11.733  1.00  0.00    -0.072 N 
HETATM   28  C9  UNL     1      14.858  25.356  13.171  1.00  0.00     0.252 C 
ATOM     29  H92 UNL     1      14.827  24.435  11.286  1.00  0.00     0.277 HD
ATOM     30  H91 UNL     1      16.142  25.168  11.522  1.00  0.00     0.277 HD
HETATM   31  C10 UNL     1      15.831  26.354  13.747  1.00  0.00     0.168 C 
ENDBRANCH   7  24
TORSDOF 6
ENDMDL
MODEL 5
REMARK VINA RESULT: -8.585676125      3.907      8.068
REMARK  6 active torsions:
REMARK  status: ('A' for Active; 'I' for Inactive)
REMARK    1  A    between atoms: N1_1  and  C1_4 
REMARK    2  A    between atoms: C2_7  and  O1_8 
REMARK    3  A    between atoms: O1_8  and  C3_9 
REMARK    4  A    between atoms: C3_9  and  C4_10 
REMARK       I    between atoms: C4_10  and  N3_12 
REMARK    5  A    between atoms: N3_12  and  N4_14 
REMARK    6  A    between atoms: C6_21  and  N8_22 
ROOT
HETATM    1  C1  UNL     1      15.167  28.786  11.599  1.00  0.00     0.693 A 
HETATM    2  N2  UNL     1      15.108  29.357  12.819  1.00  0.00    -0.154 N 
ATOM      3  H2  UNL     1      14.205  29.496  13.273  1.00  0.00     0.188 HD
HETATM    4  C2  UNL     1      16.216  29.735  13.427  1.00  0.00     0.252 A 
HETATM    5  N7  UNL     1      17.389  29.530  12.785  1.00  0.00    -0.154 N 
ATOM      6  H7  UNL     1      18.248  29.821  13.253  1.00  0.00     0.188 HD
HETATM    7  C6  UNL     1      17.495  28.969  11.575  1.00  0.00     0.698 A 
HETATM    8  N10 UNL     1      16.328  28.588  10.975  1.00  0.00    -0.022 N 
ATOM      9  H10 UNL     1      16.345  28.153  10.053  1.00  0.00     0.203 HD
ENDROOT
BRANCH   4  10
HETATM   10  O1  UNL     1      16.213  30.321  14.669  1.00  0.00    -0.312 OA
BRANCH  10  11
HETATM   11  C3  UNL     1      17.317  30.721  15.393  1.00  0.00     0.283 C 
BRANCH  11  12
HETATM   12  C4  UNL     1      18.030  29.556  15.958  1.00  0.00     0.260 C 
HETATM   13  O2  UNL     1      18.931  28.918  15.348  1.00  0.00    -0.269 OA
HETATM   14  N3  UNL     1      17.708  29.098  17.266  1.00  0.00    -0.266 N 
ATOM     15  H3  UNL     1      16.986  29.583  17.800  1.00  0.00     0.190 HD
BRANCH  14  16
HETATM   16  N4  UNL     1      18.352  28.008  17.834  1.00  0.00    -0.273 N 
HETATM   17  C5  UNL     1      18.300  27.836  19.102  1.00  0.00     0.215 C 
HETATM   18  N5  UNL     1      17.592  28.752  19.914  1.00  0.00    -0.065 NA
HETATM   19  N6  UNL     1      18.956  26.726  19.673  1.00  0.00    -0.065 NA
ATOM     20  H4  UNL     1      18.863  27.349  17.246  1.00  0.00     0.189 HD
ENDBRANCH  14  16
ENDBRANCH  11  12
ENDBRANCH  10  11
ENDBRANCH   4  10
BRANCH   1  21
HETATM   21  N1  UNL     1      14.077  28.418  11.013  1.00  0.00    -0.234 N 
ATOM     22  H12 UNL     1      13.765  27.453  11.119  1.00  0.00     0.174 HD
ATOM     23  H11 UNL     1      13.551  29.093  10.458  1.00  0.00     0.174 HD
ENDBRANCH   1  21
BRANCH   7  24
HETATM   24  N8  UNL     1      18.745  28.766  10.924  1.00  0.00    -0.214 N 
HETATM   25  C7  UNL     1      19.808  28.179  11.705  1.00  0.00     0.168 C 
HETATM   26  C8  UNL     1      20.953  27.652  10.918  1.00  0.00     0.252 C 
HETATM   27  N9  UNL     1      20.713  27.594   9.487  1.00  0.00    -0.072 N 
HETATM   28  C9  UNL     1      20.335  28.959   9.099  1.00  0.00     0.252 C 
ATOM     29  H92 UNL     1      21.497  27.218   8.954  1.00  0.00     0.277 HD
ATOM     30  H91 UNL     1      20.033  26.886   9.213  1.00  0.00     0.277 HD
HETATM   31  C10 UNL     1      18.909  29.139   9.557  1.00  0.00     0.168 C 
ENDBRANCH   7  24
TORSDOF 6
ENDMDL
