MODEL 1
REMARK VINA RESULT: -5.638653683      0.000      0.000
REMARK  7 active torsions:
REMARK  status: ('A' for Active; 'I' for Inactive)
REMARK    1  A    between atoms: O1_2  and  C2_3 
REMARK    2  A    between atoms: C2_3  and  C3_4 
REMARK    3  A    between atoms: C3_4  and  O2_6 
REMARK    4  A    between atoms: O2_6  and  C5_7 
REMARK    5  A    between atoms: C7_10  and  C8_11 
REMARK       I    between atoms: C8_11  and  N1_13 
REMARK    6  A    between atoms: N1_13  and  N2_15 
REMARK    7  A    between atoms: C9_20  and  O5_21 
ROOT
HETATM    1  C5  UNL     1      -5.627   3.693  15.106  1.00  0.00     0.177 C 
HETATM    2  C6  UNL     1      -5.744   2.590  14.044  1.00  0.00     0.203 C 
HETATM    3  O3  UNL     1      -5.490   3.369  12.914  1.00  0.00    -0.371 OA
HETATM    4  C7  UNL     1      -4.303   4.027  13.206  1.00  0.00     0.246 C 
HETATM    5  C9  UNL     1      -4.274   4.242  14.711  1.00  0.00     0.187 C 
ENDROOT
BRANCH   4   6
HETATM    6  C8  UNL     1      -3.181   3.192  12.733  1.00  0.00     0.268 C 
HETATM    7  O4  UNL     1      -2.033   3.693  12.706  1.00  0.00    -0.269 OA
HETATM    8  N1  UNL     1      -3.321   1.846  12.303  1.00  0.00    -0.254 N 
ATOM      9  H1  UNL     1      -2.887   1.067  12.800  1.00  0.00     0.191 HD
BRANCH   8  10
HETATM   10  N2  UNL     1      -4.012   1.678  11.277  1.00  0.00    -0.247 N 
HETATM   11  N3  UNL     1      -4.974   1.375  10.567  1.00  0.00    -0.331 N 
ATOM     12  H32 UNL     1      -5.589   1.062  11.319  1.00  0.00     0.178 HD
ATOM     13  H31 UNL     1      -5.539   1.238   9.729  1.00  0.00     0.178 HD
ATOM     14  H2  UNL     1      -3.358   2.003  10.565  1.00  0.00     0.207 HD
ENDBRANCH   8  10
ENDBRANCH   4   6
BRANCH   5  15
HETATM   15  O5  UNL     1      -3.242   3.520  15.315  1.00  0.00    -0.390 OA
ATOM     16  H5  UNL     1      -2.783   2.983  14.680  1.00  0.00     0.210 HD
ENDBRANCH   5  15
BRANCH   1  17
HETATM   17  O2  UNL     1      -5.693   3.219  16.376  1.00  0.00    -0.374 OA
BRANCH  17  18
HETATM   18  C3  UNL     1      -5.895   1.840  16.329  1.00  0.00     0.141 C 
HETATM   19  C4  UNL     1      -7.306   1.590  16.823  1.00  0.00     0.042 C 
BRANCH  18  20
HETATM   20  C2  UNL     1      -4.875   1.081  17.114  1.00  0.00     0.198 C 
BRANCH  20  21
HETATM   21  O1  UNL     1      -3.810   0.744  16.298  1.00  0.00    -0.393 OA
HETATM   22  C1  UNL     1      -4.133  -0.086  15.240  1.00  0.00     0.201 C 
ENDBRANCH  20  21
ENDBRANCH  18  20
ENDBRANCH  17  18
ENDBRANCH   1  17
TORSDOF 7
ENDMDL
MODEL 2
REMARK VINA RESULT: -5.601730923      3.213      5.299
REMARK  7 active torsions:
REMARK  status: ('A' for Active; 'I' for Inactive)
REMARK    1  A    between atoms: O1_2  and  C2_3 
REMARK    2  A    between atoms: C2_3  and  C3_4 
REMARK    3  A    between atoms: C3_4  and  O2_6 
REMARK    4  A    between atoms: O2_6  and  C5_7 
REMARK    5  A    between atoms: C7_10  and  C8_11 
REMARK       I    between atoms: C8_11  and  N1_13 
REMARK    6  A    between atoms: N1_13  and  N2_15 
REMARK    7  A    between atoms: C9_20  and  O5_21 
ROOT
HETATM    1  C5  UNL     1      -4.949   4.390  14.005  1.00  0.00     0.177 C 
HETATM    2  C6  UNL     1      -5.920   4.135  15.167  1.00  0.00     0.203 C 
HETATM    3  O3  UNL     1      -6.167   2.782  14.933  1.00  0.00    -0.371 OA
HETATM    4  C7  UNL     1      -4.904   2.209  14.851  1.00  0.00     0.246 C 
HETATM    5  C9  UNL     1      -3.975   3.266  14.278  1.00  0.00     0.187 C 
ENDROOT
BRANCH   4   6
HETATM    6  C8  UNL     1      -4.503   1.778  16.204  1.00  0.00     0.268 C 
HETATM    7  O4  UNL     1      -3.383   1.232  16.350  1.00  0.00    -0.269 OA
HETATM    8  N1  UNL     1      -5.309   1.941  17.362  1.00  0.00    -0.254 N 
ATOM      9  H1  UNL     1      -5.033   2.543  18.138  1.00  0.00     0.191 HD
BRANCH   8  10
HETATM   10  N2  UNL     1      -6.381   1.301  17.365  1.00  0.00    -0.247 N 
HETATM   11  N3  UNL     1      -7.526   0.960  17.057  1.00  0.00    -0.331 N 
ATOM     12  H32 UNL     1      -7.677   1.668  16.338  1.00  0.00     0.178 HD
ATOM     13  H31 UNL     1      -8.401   0.437  17.060  1.00  0.00     0.178 HD
ATOM     14  H2  UNL     1      -6.178   0.615  18.092  1.00  0.00     0.207 HD
ENDBRANCH   8  10
ENDBRANCH   4   6
BRANCH   5  15
HETATM   15  O5  UNL     1      -3.003   3.655  15.203  1.00  0.00    -0.390 OA
ATOM     16  H5  UNL     1      -3.084   3.163  16.012  1.00  0.00     0.210 HD
ENDBRANCH   5  15
BRANCH   1  17
HETATM   17  O2  UNL     1      -4.400   5.630  14.032  1.00  0.00    -0.374 OA
BRANCH  17  18
HETATM   18  C3  UNL     1      -4.048   5.992  12.732  1.00  0.00     0.141 C 
HETATM   19  C4  UNL     1      -2.955   7.036  12.852  1.00  0.00     0.042 C 
BRANCH  18  20
HETATM   20  C2  UNL     1      -5.214   6.479  11.934  1.00  0.00     0.198 C 
BRANCH  20  21
HETATM   21  O1  UNL     1      -5.331   5.735  10.773  1.00  0.00    -0.393 OA
HETATM   22  C1  UNL     1      -5.286   6.474   9.606  1.00  0.00     0.201 C 
ENDBRANCH  20  21
ENDBRANCH  18  20
ENDBRANCH  17  18
ENDBRANCH   1  17
TORSDOF 7
ENDMDL
MODEL 3
REMARK VINA RESULT: -5.467796680      2.228      2.789
REMARK  7 active torsions:
REMARK  status: ('A' for Active; 'I' for Inactive)
REMARK    1  A    between atoms: O1_2  and  C2_3 
REMARK    2  A    between atoms: C2_3  and  C3_4 
REMARK    3  A    between atoms: C3_4  and  O2_6 
REMARK    4  A    between atoms: O2_6  and  C5_7 
REMARK    5  A    between atoms: C7_10  and  C8_11 
REMARK       I    between atoms: C8_11  and  N1_13 
REMARK    6  A    between atoms: N1_13  and  N2_15 
REMARK    7  A    between atoms: C9_20  and  O5_21 
ROOT
HETATM    1  C5  UNL     1      -4.526   3.173  14.077  1.00  0.00     0.177 C 
HETATM    2  C6  UNL     1      -4.361   4.577  13.478  1.00  0.00     0.203 C 
HETATM    3  O3  UNL     1      -3.173   4.361  12.777  1.00  0.00    -0.371 OA
HETATM    4  C7  UNL     1      -3.424   3.227  12.014  1.00  0.00     0.246 C 
HETATM    5  C9  UNL     1      -4.400   2.370  12.802  1.00  0.00     0.187 C 
ENDROOT
BRANCH   4   6
HETATM    6  C8  UNL     1      -3.972   3.657  10.712  1.00  0.00     0.268 C 
HETATM    7  O4  UNL     1      -4.280   2.778   9.874  1.00  0.00    -0.269 OA
HETATM    8  N1  UNL     1      -4.176   5.014  10.346  1.00  0.00    -0.254 N 
ATOM      9  H1  UNL     1      -5.105   5.397  10.171  1.00  0.00     0.191 HD
BRANCH   8  10
HETATM   10  N2  UNL     1      -3.141   5.707  10.254  1.00  0.00    -0.247 N 
HETATM   11  N3  UNL     1      -2.050   6.201  10.548  1.00  0.00    -0.331 N 
ATOM     12  H32 UNL     1      -1.938   5.729  11.445  1.00  0.00     0.178 HD
ATOM     13  H31 UNL     1      -1.205   6.767  10.472  1.00  0.00     0.178 HD
ATOM     14  H2  UNL     1      -3.303   6.152   9.350  1.00  0.00     0.207 HD
ENDBRANCH   8  10
ENDBRANCH   4   6
BRANCH   5  15
HETATM   15  O5  UNL     1      -5.632   2.261  12.152  1.00  0.00    -0.390 OA
ATOM     16  H5  UNL     1      -6.035   3.113  12.038  1.00  0.00     0.210 HD
ENDBRANCH   5  15
BRANCH   1  17
HETATM   17  O2  UNL     1      -5.702   3.008  14.732  1.00  0.00    -0.374 OA
BRANCH  17  18
HETATM   18  C3  UNL     1      -5.529   2.049  15.729  1.00  0.00     0.141 C 
HETATM   19  C4  UNL     1      -6.606   2.300  16.766  1.00  0.00     0.042 C 
BRANCH  18  20
HETATM   20  C2  UNL     1      -4.156   2.072  16.319  1.00  0.00     0.198 C 
BRANCH  20  21
HETATM   21  O1  UNL     1      -3.637   0.790  16.349  1.00  0.00    -0.393 OA
HETATM   22  C1  UNL     1      -4.289  -0.116  15.534  1.00  0.00     0.201 C 
ENDBRANCH  20  21
ENDBRANCH  18  20
ENDBRANCH  17  18
ENDBRANCH   1  17
TORSDOF 7
ENDMDL
MODEL 4
REMARK VINA RESULT: -5.392076046      2.974      4.807
REMARK  7 active torsions:
REMARK  status: ('A' for Active; 'I' for Inactive)
REMARK    1  A    between atoms: O1_2  and  C2_3 
REMARK    2  A    between atoms: C2_3  and  C3_4 
REMARK    3  A    between atoms: C3_4  and  O2_6 
REMARK    4  A    between atoms: O2_6  and  C5_7 
REMARK    5  A    between atoms: C7_10  and  C8_11 
REMARK       I    between atoms: C8_11  and  N1_13 
REMARK    6  A    between atoms: N1_13  and  N2_15 
REMARK    7  A    between atoms: C9_20  and  O5_21 
ROOT
HETATM    1  C5  UNL     1      -4.842   4.406  14.248  1.00  0.00     0.177 C 
HETATM    2  C6  UNL     1      -5.827   4.122  15.392  1.00  0.00     0.203 C 
HETATM    3  O3  UNL     1      -6.163   2.811  15.050  1.00  0.00    -0.371 OA
HETATM    4  C7  UNL     1      -4.940   2.165  14.915  1.00  0.00     0.246 C 
HETATM    5  C9  UNL     1      -3.943   3.202  14.424  1.00  0.00     0.187 C 
ENDROOT
BRANCH   4   6
HETATM    6  C8  UNL     1      -4.568   1.600  16.227  1.00  0.00     0.268 C 
HETATM    7  O4  UNL     1      -3.511   0.931  16.312  1.00  0.00    -0.269 OA
HETATM    8  N1  UNL     1      -5.337   1.767  17.410  1.00  0.00    -0.254 N 
ATOM      9  H1  UNL     1      -4.986   2.279  18.220  1.00  0.00     0.191 HD
BRANCH   8  10
HETATM   10  N2  UNL     1      -6.470   1.244  17.393  1.00  0.00    -0.247 N 
HETATM   11  N3  UNL     1      -7.627   1.003  17.041  1.00  0.00    -0.331 N 
ATOM     12  H32 UNL     1      -7.663   1.667  16.267  1.00  0.00     0.178 HD
ATOM     13  H31 UNL     1      -8.554   0.576  17.027  1.00  0.00     0.178 HD
ATOM     14  H2  UNL     1      -6.381   0.596  18.176  1.00  0.00     0.207 HD
ENDBRANCH   8  10
ENDBRANCH   4   6
BRANCH   5  15
HETATM   15  O5  UNL     1      -2.948   3.450  15.373  1.00  0.00    -0.390 OA
ATOM     16  H5  UNL     1      -3.327   3.673  16.215  1.00  0.00     0.210 HD
ENDBRANCH   5  15
BRANCH   1  17
HETATM   17  O2  UNL     1      -4.212   5.601  14.372  1.00  0.00    -0.374 OA
BRANCH  17  18
HETATM   18  C3  UNL     1      -4.142   6.203  13.116  1.00  0.00     0.141 C 
HETATM   19  C4  UNL     1      -5.457   5.913  12.421  1.00  0.00     0.042 C 
BRANCH  18  20
HETATM   20  C2  UNL     1      -2.965   5.741  12.321  1.00  0.00     0.198 C 
BRANCH  20  21
HETATM   21  O1  UNL     1      -1.867   5.594  13.150  1.00  0.00    -0.393 OA
HETATM   22  C1  UNL     1      -0.922   4.690  12.703  1.00  0.00     0.201 C 
ENDBRANCH  20  21
ENDBRANCH  18  20
ENDBRANCH  17  18
ENDBRANCH   1  17
TORSDOF 7
ENDMDL
MODEL 5
REMARK VINA RESULT: -5.389742658      2.710      4.670
REMARK  7 active torsions:
REMARK  status: ('A' for Active; 'I' for Inactive)
REMARK    1  A    between atoms: O1_2  and  C2_3 
REMARK    2  A    between atoms: C2_3  and  C3_4 
REMARK    3  A    between atoms: C3_4  and  O2_6 
REMARK    4  A    between atoms: O2_6  and  C5_7 
REMARK    5  A    between atoms: C7_10  and  C8_11 
REMARK       I    between atoms: C8_11  and  N1_13 
REMARK    6  A    between atoms: N1_13  and  N2_15 
REMARK    7  A    between atoms: C9_20  and  O5_21 
ROOT
HETATM    1  C5  UNL     1      -4.495   4.282  13.826  1.00  0.00     0.177 C 
HETATM    2  C6  UNL     1      -3.939   3.717  15.141  1.00  0.00     0.203 C 
HETATM    3  O3  UNL     1      -5.039   2.940  15.510  1.00  0.00    -0.371 OA
HETATM    4  C7  UNL     1      -5.302   2.159  14.392  1.00  0.00     0.246 C 
HETATM    5  C9  UNL     1      -4.900   2.977  13.176  1.00  0.00     0.187 C 
ENDROOT
BRANCH   4   6
HETATM    6  C8  UNL     1      -4.531   0.906  14.511  1.00  0.00     0.268 C 
HETATM    7  O4  UNL     1      -4.415   0.177  13.497  1.00  0.00    -0.269 OA
HETATM    8  N1  UNL     1      -3.906   0.469  15.709  1.00  0.00    -0.254 N 
ATOM      9  H1  UNL     1      -2.893   0.380  15.794  1.00  0.00     0.191 HD
BRANCH   8  10
HETATM   10  N2  UNL     1      -4.679   0.202  16.652  1.00  0.00    -0.247 N 
HETATM   11  N3  UNL     1      -5.651   0.277  17.407  1.00  0.00    -0.331 N 
ATOM     12  H32 UNL     1      -6.097   1.076  16.956  1.00  0.00     0.178 HD
ATOM     13  H31 UNL     1      -6.283   0.058  18.178  1.00  0.00     0.178 HD
ATOM     14  H2  UNL     1      -4.192  -0.594  17.064  1.00  0.00     0.207 HD
ENDBRANCH   8  10
ENDBRANCH   4   6
BRANCH   5  15
HETATM   15  O5  UNL     1      -3.825   2.397  12.498  1.00  0.00    -0.390 OA
ATOM     16  H5  UNL     1      -4.067   2.166  11.609  1.00  0.00     0.210 HD
ENDBRANCH   5  15
BRANCH   1  17
HETATM   17  O2  UNL     1      -3.582   4.999  13.126  1.00  0.00    -0.374 OA
BRANCH  17  18
HETATM   18  C3  UNL     1      -2.523   5.324  13.973  1.00  0.00     0.141 C 
HETATM   19  C4  UNL     1      -2.679   6.791  14.321  1.00  0.00     0.042 C 
BRANCH  18  20
HETATM   20  C2  UNL     1      -1.190   5.021  13.370  1.00  0.00     0.198 C 
BRANCH  20  21
HETATM   21  O1  UNL     1      -1.187   3.735  12.861  1.00  0.00    -0.393 OA
HETATM   22  C1  UNL     1      -0.490   3.585  11.676  1.00  0.00     0.201 C 
ENDBRANCH  20  21
ENDBRANCH  18  20
ENDBRANCH  17  18
ENDBRANCH   1  17
TORSDOF 7
ENDMDL
