MODEL 1
REMARK VINA RESULT: -7.748310017      0.000      0.000
REMARK  6 active torsions:
REMARK  status: ('A' for Active; 'I' for Inactive)
REMARK    1  A    between atoms: C2_2  and  C3_3 
REMARK    2  A    between atoms: C3_3  and  O2_5 
REMARK    3  A    between atoms: O2_5  and  C4_6 
REMARK    4  A    between atoms: C5_8  and  O4_9 
REMARK    5  A    between atoms: C12_17  and  O5_18 
REMARK    6  A    between atoms: C16_23  and  O6_24 
ROOT
HETATM    1  C4  UNL     1      12.246   2.399 -37.183  1.00  0.00     0.204 A 
HETATM    2  O3  UNL     1      11.815   1.880 -38.275  1.00  0.00    -0.262 OA
HETATM    3  C5  UNL     1      12.497   0.824 -38.575  1.00  0.00     0.213 A 
HETATM    4  C6  UNL     1      13.483   0.598 -37.600  1.00  0.00     0.100 A 
HETATM    5  C7  UNL     1      13.292   1.623 -36.727  1.00  0.00     0.032 A 
HETATM    6  C8  UNL     1      14.044   1.922 -35.450  1.00  0.00     0.046 C 
HETATM    7  C9  UNL     1      15.431   2.143 -35.810  1.00  0.00     0.005 C 
HETATM    8  C10 UNL     1      16.318   3.222 -35.296  1.00  0.00     0.003 C 
HETATM    9  C11 UNL     1      17.715   2.756 -35.754  1.00  0.00     0.032 C 
HETATM   10  C12 UNL     1      17.864   2.225 -37.117  1.00  0.00     0.118 C 
HETATM   11  C13 UNL     1      17.795   0.750 -37.334  1.00  0.00     0.040 C 
HETATM   12  C14 UNL     1      16.734   0.249 -38.313  1.00  0.00     0.033 C 
HETATM   13  C15 UNL     1      17.343  -0.400 -39.542  1.00  0.00     0.014 C 
HETATM   14  C16 UNL     1      15.798  -0.705 -37.684  1.00  0.00     0.221 C 
HETATM   15  N1  UNL     1      14.390  -0.479 -37.639  1.00  0.00    -0.359 N 
ATOM     16  H1  UNL     1      13.888  -1.367 -37.632  1.00  0.00     0.162 HD
ENDROOT
BRANCH   1  17
HETATM   17  O2  UNL     1      11.688   3.556 -36.621  1.00  0.00    -0.254 OA
BRANCH  17  18
HETATM   18  C3  UNL     1      10.997   3.524 -35.422  1.00  0.00     0.265 C 
HETATM   19  O1  UNL     1      10.438   2.461 -35.064  1.00  0.00    -0.265 OA
BRANCH  18  20
HETATM   20  C2  UNL     1      10.946   4.757 -34.606  1.00  0.00     0.107 C 
HETATM   21  C1  UNL     1      10.255   5.887 -35.294  1.00  0.00     0.015 C 
ENDBRANCH  18  20
ENDBRANCH  17  18
ENDBRANCH   1  17
BRANCH   3  22
HETATM   22  O4  UNL     1      12.184   0.086 -39.754  1.00  0.00    -0.339 OA
ATOM     23  H4  UNL     1      11.589  -0.654 -39.708  1.00  0.00     0.220 HD
ENDBRANCH   3  22
BRANCH  14  24
HETATM   24  O6  UNL     1      16.087  -2.016 -38.177  1.00  0.00    -0.377 OA
ATOM     25  H6  UNL     1      16.365  -2.558 -37.447  1.00  0.00     0.212 HD
ENDBRANCH  14  24
BRANCH  10  26
HETATM   26  O5  UNL     1      17.315   2.977 -38.156  1.00  0.00    -0.396 OA
ATOM     27  H5  UNL     1      17.422   3.920 -38.111  1.00  0.00     0.210 HD
ENDBRANCH  10  26
TORSDOF 6
ENDMDL
MODEL 2
REMARK VINA RESULT: -7.625694130      0.921      1.059
REMARK  6 active torsions:
REMARK  status: ('A' for Active; 'I' for Inactive)
REMARK    1  A    between atoms: C2_2  and  C3_3 
REMARK    2  A    between atoms: C3_3  and  O2_5 
REMARK    3  A    between atoms: O2_5  and  C4_6 
REMARK    4  A    between atoms: C5_8  and  O4_9 
REMARK    5  A    between atoms: C12_17  and  O5_18 
REMARK    6  A    between atoms: C16_23  and  O6_24 
ROOT
HETATM    1  C4  UNL     1      12.246   2.866 -37.760  1.00  0.00     0.204 A 
HETATM    2  O3  UNL     1      11.865   2.139 -38.746  1.00  0.00    -0.262 OA
HETATM    3  C5  UNL     1      12.485   1.005 -38.741  1.00  0.00     0.213 A 
HETATM    4  C6  UNL     1      13.372   0.950 -37.652  1.00  0.00     0.100 A 
HETATM    5  C7  UNL     1      13.191   2.155 -37.048  1.00  0.00     0.032 A 
HETATM    6  C8  UNL     1      13.862   2.692 -35.804  1.00  0.00     0.046 C 
HETATM    7  C9  UNL     1      15.286   2.747 -36.072  1.00  0.00     0.005 C 
HETATM    8  C10 UNL     1      16.210   3.862 -35.728  1.00  0.00     0.003 C 
HETATM    9  C11 UNL     1      17.598   3.226 -35.940  1.00  0.00     0.032 C 
HETATM   10  C12 UNL     1      17.813   2.393 -37.132  1.00  0.00     0.118 C 
HETATM   11  C13 UNL     1      17.649   0.913 -37.024  1.00  0.00     0.040 C 
HETATM   12  C14 UNL     1      16.633   0.265 -37.963  1.00  0.00     0.033 C 
HETATM   13  C15 UNL     1      17.285  -0.679 -38.956  1.00  0.00     0.014 C 
HETATM   14  C16 UNL     1      15.580  -0.467 -37.229  1.00  0.00     0.221 C 
HETATM   15  N1  UNL     1      14.195  -0.158 -37.367  1.00  0.00    -0.359 N 
ATOM     16  H1  UNL     1      13.627  -0.991 -37.211  1.00  0.00     0.162 HD
ENDROOT
BRANCH   1  17
HETATM   17  O2  UNL     1      11.736   4.150 -37.522  1.00  0.00    -0.254 OA
BRANCH  17  18
HETATM   18  C3  UNL     1      10.460   4.345 -37.022  1.00  0.00     0.265 C 
HETATM   19  O1  UNL     1       9.532   4.648 -37.808  1.00  0.00    -0.265 OA
BRANCH  18  20
HETATM   20  C2  UNL     1      10.243   4.189 -35.567  1.00  0.00     0.107 C 
HETATM   21  C1  UNL     1      10.646   5.392 -34.781  1.00  0.00     0.015 C 
ENDBRANCH  18  20
ENDBRANCH  17  18
ENDBRANCH   1  17
BRANCH   3  22
HETATM   22  O4  UNL     1      12.211   0.038 -39.751  1.00  0.00    -0.339 OA
ATOM     23  H4  UNL     1      11.338  -0.330 -39.832  1.00  0.00     0.220 HD
ENDBRANCH   3  22
BRANCH  14  24
HETATM   24  O6  UNL     1      15.806  -1.870 -37.391  1.00  0.00    -0.377 OA
ATOM     25  H6  UNL     1      16.189  -2.017 -38.248  1.00  0.00     0.212 HD
ENDBRANCH  14  24
BRANCH  10  26
HETATM   26  O5  UNL     1      17.406   2.920 -38.358  1.00  0.00    -0.396 OA
ATOM     27  H5  UNL     1      17.403   2.331 -39.103  1.00  0.00     0.210 HD
ENDBRANCH  10  26
TORSDOF 6
ENDMDL
MODEL 3
REMARK VINA RESULT: -7.586096929      1.573      2.006
REMARK  6 active torsions:
REMARK  status: ('A' for Active; 'I' for Inactive)
REMARK    1  A    between atoms: C2_2  and  C3_3 
REMARK    2  A    between atoms: C3_3  and  O2_5 
REMARK    3  A    between atoms: O2_5  and  C4_6 
REMARK    4  A    between atoms: C5_8  and  O4_9 
REMARK    5  A    between atoms: C12_17  and  O5_18 
REMARK    6  A    between atoms: C16_23  and  O6_24 
ROOT
HETATM    1  C4  UNL     1      12.614   0.647 -36.619  1.00  0.00     0.204 A 
HETATM    2  O3  UNL     1      12.659   0.133 -37.794  1.00  0.00    -0.262 OA
HETATM    3  C5  UNL     1      13.862  -0.246 -38.078  1.00  0.00     0.213 A 
HETATM    4  C6  UNL     1      14.719   0.034 -37.000  1.00  0.00     0.100 A 
HETATM    5  C7  UNL     1      13.886   0.603 -36.086  1.00  0.00     0.032 A 
HETATM    6  C8  UNL     1      14.219   1.113 -34.702  1.00  0.00     0.046 C 
HETATM    7  C9  UNL     1      15.197   2.171 -34.857  1.00  0.00     0.005 C 
HETATM    8  C10 UNL     1      15.203   3.482 -34.152  1.00  0.00     0.003 C 
HETATM    9  C11 UNL     1      16.616   4.020 -34.453  1.00  0.00     0.032 C 
HETATM   10  C12 UNL     1      17.142   3.882 -35.819  1.00  0.00     0.118 C 
HETATM   11  C13 UNL     1      18.005   2.711 -36.152  1.00  0.00     0.040 C 
HETATM   12  C14 UNL     1      17.536   1.815 -37.298  1.00  0.00     0.033 C 
HETATM   13  C15 UNL     1      18.487   1.843 -38.479  1.00  0.00     0.014 C 
HETATM   14  C16 UNL     1      17.346   0.414 -36.870  1.00  0.00     0.221 C 
HETATM   15  N1  UNL     1      16.096  -0.262 -36.996  1.00  0.00    -0.359 N 
ATOM     16  H1  UNL     1      16.244  -1.263 -37.122  1.00  0.00     0.162 HD
ENDROOT
BRANCH   1  17
HETATM   17  O2  UNL     1      11.431   1.144 -36.053  1.00  0.00    -0.254 OA
BRANCH  17  18
HETATM   18  C3  UNL     1      11.090   2.482 -36.137  1.00  0.00     0.265 C 
HETATM   19  O1  UNL     1      11.143   3.062 -37.247  1.00  0.00    -0.265 OA
BRANCH  18  20
HETATM   20  C2  UNL     1      10.673   3.181 -34.901  1.00  0.00     0.107 C 
HETATM   21  C1  UNL     1      11.586   4.298 -34.522  1.00  0.00     0.015 C 
ENDBRANCH  18  20
ENDBRANCH  17  18
ENDBRANCH   1  17
BRANCH   3  22
HETATM   22  O4  UNL     1      14.139  -0.850 -39.338  1.00  0.00    -0.339 OA
ATOM     23  H4  UNL     1      15.006  -0.774 -39.722  1.00  0.00     0.220 HD
ENDBRANCH   3  22
BRANCH  14  24
HETATM   24  O6  UNL     1      18.407  -0.375 -37.415  1.00  0.00    -0.377 OA
ATOM     25  H6  UNL     1      19.057  -0.516 -36.736  1.00  0.00     0.212 HD
ENDBRANCH  14  24
BRANCH  10  26
HETATM   26  O5  UNL     1      16.311   4.288 -36.864  1.00  0.00    -0.396 OA
ATOM     27  H5  UNL     1      16.458   5.155 -37.222  1.00  0.00     0.210 HD
ENDBRANCH  10  26
TORSDOF 6
ENDMDL
MODEL 4
REMARK VINA RESULT: -7.341012892      1.286      1.407
REMARK  6 active torsions:
REMARK  status: ('A' for Active; 'I' for Inactive)
REMARK    1  A    between atoms: C2_2  and  C3_3 
REMARK    2  A    between atoms: C3_3  and  O2_5 
REMARK    3  A    between atoms: O2_5  and  C4_6 
REMARK    4  A    between atoms: C5_8  and  O4_9 
REMARK    5  A    between atoms: C12_17  and  O5_18 
REMARK    6  A    between atoms: C16_23  and  O6_24 
ROOT
HETATM    1  C4  UNL     1      11.938   1.736 -36.034  1.00  0.00     0.204 A 
HETATM    2  O3  UNL     1      11.621   1.695 -37.277  1.00  0.00    -0.262 OA
HETATM    3  C5  UNL     1      12.389   0.873 -37.914  1.00  0.00     0.213 A 
HETATM    4  C6  UNL     1      13.315   0.298 -37.027  1.00  0.00     0.100 A 
HETATM    5  C7  UNL     1      12.996   0.872 -35.836  1.00  0.00     0.032 A 
HETATM    6  C8  UNL     1      13.635   0.647 -34.484  1.00  0.00     0.046 C 
HETATM    7  C9  UNL     1      15.027   1.035 -34.596  1.00  0.00     0.005 C 
HETATM    8  C10 UNL     1      15.804   1.837 -33.612  1.00  0.00     0.003 C 
HETATM    9  C11 UNL     1      17.257   1.639 -34.090  1.00  0.00     0.032 C 
HETATM   10  C12 UNL     1      17.537   1.714 -35.531  1.00  0.00     0.118 C 
HETATM   11  C13 UNL     1      17.578   0.453 -36.330  1.00  0.00     0.040 C 
HETATM   12  C14 UNL     1      16.624   0.364 -37.520  1.00  0.00     0.033 C 
HETATM   13  C15 UNL     1      17.360   0.290 -38.845  1.00  0.00     0.014 C 
HETATM   14  C16 UNL     1      15.708  -0.790 -37.417  1.00  0.00     0.221 C 
HETATM   15  N1  UNL     1      14.289  -0.643 -37.414  1.00  0.00    -0.359 N 
ATOM     16  H1  UNL     1      13.845  -1.471 -37.812  1.00  0.00     0.162 HD
ENDROOT
BRANCH   1  17
HETATM   17  O2  UNL     1      11.269   2.548 -35.107  1.00  0.00    -0.254 OA
BRANCH  17  18
HETATM   18  C3  UNL     1      11.714   3.822 -34.801  1.00  0.00     0.265 C 
HETATM   19  O1  UNL     1      12.903   3.987 -34.439  1.00  0.00    -0.265 OA
BRANCH  18  20
HETATM   20  C2  UNL     1      10.759   4.947 -34.912  1.00  0.00     0.107 C 
HETATM   21  C1  UNL     1      10.034   4.973 -36.216  1.00  0.00     0.015 C 
ENDBRANCH  18  20
ENDBRANCH  17  18
ENDBRANCH   1  17
BRANCH   3  22
HETATM   22  O4  UNL     1      12.209   0.670 -39.313  1.00  0.00    -0.339 OA
ATOM     23  H4  UNL     1      12.862   0.192 -39.812  1.00  0.00     0.220 HD
ENDBRANCH   3  22
BRANCH  14  24
HETATM   24  O6  UNL     1      16.115  -1.778 -38.368  1.00  0.00    -0.377 OA
ATOM     25  H6  UNL     1      15.965  -2.638 -37.992  1.00  0.00     0.212 HD
ENDBRANCH  14  24
BRANCH  10  26
HETATM   26  O5  UNL     1      17.018   2.807 -36.224  1.00  0.00    -0.396 OA
ATOM     27  H5  UNL     1      17.639   3.439 -36.565  1.00  0.00     0.210 HD
ENDBRANCH  10  26
TORSDOF 6
ENDMDL
MODEL 5
REMARK VINA RESULT: -6.980205105      1.290      1.430
REMARK  6 active torsions:
REMARK  status: ('A' for Active; 'I' for Inactive)
REMARK    1  A    between atoms: C2_2  and  C3_3 
REMARK    2  A    between atoms: C3_3  and  O2_5 
REMARK    3  A    between atoms: O2_5  and  C4_6 
REMARK    4  A    between atoms: C5_8  and  O4_9 
REMARK    5  A    between atoms: C12_17  and  O5_18 
REMARK    6  A    between atoms: C16_23  and  O6_24 
ROOT
HETATM    1  C4  UNL     1      12.209   2.572 -37.136  1.00  0.00     0.204 A 
HETATM    2  O3  UNL     1      12.032   1.923 -38.228  1.00  0.00    -0.262 OA
HETATM    3  C5  UNL     1      12.638   0.782 -38.182  1.00  0.00     0.213 A 
HETATM    4  C6  UNL     1      13.290   0.636 -36.945  1.00  0.00     0.100 A 
HETATM    5  C7  UNL     1      12.992   1.798 -36.303  1.00  0.00     0.032 A 
HETATM    6  C8  UNL     1      13.401   2.235 -34.915  1.00  0.00     0.046 C 
HETATM    7  C9  UNL     1      14.850   2.287 -34.889  1.00  0.00     0.005 C 
HETATM    8  C10 UNL     1      15.687   3.360 -34.288  1.00  0.00     0.003 C 
HETATM    9  C11 UNL     1      17.090   2.720 -34.264  1.00  0.00     0.032 C 
HETATM   10  C12 UNL     1      17.537   1.970 -35.447  1.00  0.00     0.118 C 
HETATM   11  C13 UNL     1      17.354   0.489 -35.482  1.00  0.00     0.040 C 
HETATM   12  C14 UNL     1      16.546  -0.075 -36.649  1.00  0.00     0.033 C 
HETATM   13  C15 UNL     1      17.382  -0.956 -37.558  1.00  0.00     0.014 C 
HETATM   14  C16 UNL     1      15.367  -0.841 -36.195  1.00  0.00     0.221 C 
HETATM   15  N1  UNL     1      14.037  -0.501 -36.583  1.00  0.00    -0.359 N 
ATOM     16  H1  UNL     1      13.450  -1.335 -36.605  1.00  0.00     0.162 HD
ENDROOT
BRANCH   1  17
HETATM   17  O2  UNL     1      11.663   3.844 -36.912  1.00  0.00    -0.254 OA
BRANCH  17  18
HETATM   18  C3  UNL     1      10.387   4.008 -36.403  1.00  0.00     0.265 C 
HETATM   19  O1  UNL     1      10.099   3.508 -35.290  1.00  0.00    -0.265 OA
BRANCH  18  20
HETATM   20  C2  UNL     1       9.404   4.775 -37.202  1.00  0.00     0.107 C 
HETATM   21  C1  UNL     1       9.702   6.236 -37.253  1.00  0.00     0.015 C 
ENDBRANCH  18  20
ENDBRANCH  17  18
ENDBRANCH   1  17
BRANCH   3  22
HETATM   22  O4  UNL     1      12.570  -0.106 -39.295  1.00  0.00    -0.339 OA
ATOM     23  H4  UNL     1      13.369  -0.411 -39.709  1.00  0.00     0.220 HD
ENDBRANCH   3  22
BRANCH  14  24
HETATM   24  O6  UNL     1      15.620  -2.232 -36.410  1.00  0.00    -0.377 OA
ATOM     25  H6  UNL     1      14.854  -2.724 -36.136  1.00  0.00     0.212 HD
ENDBRANCH  14  24
BRANCH  10  26
HETATM   26  O5  UNL     1      17.384   2.589 -36.687  1.00  0.00    -0.396 OA
ATOM     27  H5  UNL     1      17.507   3.531 -36.720  1.00  0.00     0.210 HD
ENDBRANCH  10  26
TORSDOF 6
ENDMDL
