MODEL 1
REMARK VINA RESULT: -7.658662895      0.000      0.000
REMARK  6 active torsions:
REMARK  status: ('A' for Active; 'I' for Inactive)
REMARK    1  A    between atoms: N1_1  and  C1_5 
REMARK    2  A    between atoms: C1_5  and  N2_6 
REMARK    3  A    between atoms: C1_5  and  C2_10 
REMARK    4  A    between atoms: C5_13  and  N3_14 
REMARK    5  A    between atoms: C6_15  and  O1_16 
REMARK    6  A    between atoms: C9_20  and  O2_21 
ROOT
HETATM    1  N3  UNL     1      12.924   2.001 -36.421  1.00  0.00    -0.302 N 
HETATM    2  C6  UNL     1      13.101   0.674 -36.678  1.00  0.00     0.164 A 
HETATM    3  C7  UNL     1      14.429   0.386 -36.677  1.00  0.00     0.093 A 
HETATM    4  C8  UNL     1      15.099   1.555 -36.415  1.00  0.00     0.052 A 
HETATM    5  C9  UNL     1      14.139   2.547 -36.259  1.00  0.00     0.155 A 
HETATM    6  C10 UNL     1      16.565   1.401 -36.398  1.00  0.00     0.109 C 
HETATM    7  C11 UNL     1      17.172   2.384 -35.418  1.00  0.00     0.045 C 
HETATM    8  C12 UNL     1      17.753   3.514 -36.209  1.00  0.00     0.004 C 
HETATM    9  C13 UNL     1      17.565   3.196 -37.671  1.00  0.00     0.004 C 
HETATM   10  C14 UNL     1      17.174   1.738 -37.745  1.00  0.00     0.045 C 
HETATM   11  O3  UNL     1      16.925   0.144 -35.964  1.00  0.00    -0.298 OA
HETATM   12  S1  UNL     1      15.741  -0.806 -36.841  1.00  0.00     0.035 SA
ENDROOT
BRANCH   1  13
HETATM   13  C5  UNL     1      11.698   2.712 -36.334  1.00  0.00     0.094 C 
HETATM   14  C4  UNL     1      11.637   3.760 -35.259  1.00  0.00     0.026 C 
HETATM   15  C3  UNL     1      10.482   4.655 -35.728  1.00  0.00     0.010 C 
HETATM   16  C2  UNL     1      10.182   4.305 -37.141  1.00  0.00     0.045 C 
HETATM   17  C15 UNL     1      11.425   3.531 -37.575  1.00  0.00     0.034 C 
BRANCH  16  18
HETATM   18  C1  UNL     1      10.113   5.543 -38.023  1.00  0.00     0.382 C 
BRANCH  18  19
HETATM   19  N1  UNL     1       9.032   5.382 -38.959  1.00  0.00    -0.050 N 
ATOM     20  H13 UNL     1       8.775   6.250 -39.429  1.00  0.00     0.276 HD
ATOM     21  H12 UNL     1       9.297   4.858 -39.793  1.00  0.00     0.276 HD
ATOM     22  H11 UNL     1       8.259   4.958 -38.447  1.00  0.00     0.276 HD
ENDBRANCH  18  19
BRANCH  18  23
HETATM   23  N2  UNL     1       9.797   6.717 -37.208  1.00  0.00    -0.050 N 
ATOM     24  H23 UNL     1      10.329   7.546 -37.473  1.00  0.00     0.276 HD
ATOM     25  H22 UNL     1       8.868   7.095 -37.391  1.00  0.00     0.276 HD
ATOM     26  H21 UNL     1       9.935   6.446 -36.234  1.00  0.00     0.276 HD
ENDBRANCH  18  23
ENDBRANCH  16  18
ENDBRANCH   1  13
BRANCH   2  27
HETATM   27  O1  UNL     1      12.131  -0.294 -36.914  1.00  0.00    -0.345 OA
ATOM     28  H1  UNL     1      12.238  -1.147 -37.316  1.00  0.00     0.219 HD
ENDBRANCH   2  27
BRANCH   5  29
HETATM   29  O2  UNL     1      14.435   3.898 -35.978  1.00  0.00    -0.345 OA
ATOM     30  H2  UNL     1      14.616   4.280 -35.127  1.00  0.00     0.219 HD
ENDBRANCH   5  29
TORSDOF 6
ENDMDL
MODEL 2
REMARK VINA RESULT: -7.247393903      2.116      3.217
REMARK  6 active torsions:
REMARK  status: ('A' for Active; 'I' for Inactive)
REMARK    1  A    between atoms: N1_1  and  C1_5 
REMARK    2  A    between atoms: C1_5  and  N2_6 
REMARK    3  A    between atoms: C1_5  and  C2_10 
REMARK    4  A    between atoms: C5_13  and  N3_14 
REMARK    5  A    between atoms: C6_15  and  O1_16 
REMARK    6  A    between atoms: C9_20  and  O2_21 
ROOT
HETATM    1  N3  UNL     1      14.429   1.983 -37.054  1.00  0.00    -0.302 N 
HETATM    2  C6  UNL     1      15.462   2.871 -37.022  1.00  0.00     0.164 A 
HETATM    3  C7  UNL     1      16.607   2.248 -37.408  1.00  0.00     0.093 A 
HETATM    4  C8  UNL     1      16.286   0.944 -37.688  1.00  0.00     0.052 A 
HETATM    5  C9  UNL     1      14.923   0.804 -37.459  1.00  0.00     0.155 A 
HETATM    6  C10 UNL     1      17.442   0.131 -38.109  1.00  0.00     0.109 C 
HETATM    7  C11 UNL     1      16.989  -0.938 -39.082  1.00  0.00     0.045 C 
HETATM    8  C12 UNL     1      16.925  -2.233 -38.336  1.00  0.00     0.004 C 
HETATM    9  C13 UNL     1      17.400  -1.978 -36.928  1.00  0.00     0.004 C 
HETATM   10  C14 UNL     1      18.052  -0.614 -36.938  1.00  0.00     0.045 C 
HETATM   11  O3  UNL     1      18.369   0.900 -38.777  1.00  0.00    -0.298 OA
HETATM   12  S1  UNL     1      18.353   2.318 -37.746  1.00  0.00     0.035 SA
ENDROOT
BRANCH   1  13
HETATM   13  C5  UNL     1      13.069   2.223 -36.725  1.00  0.00     0.094 C 
HETATM   14  C4  UNL     1      12.834   2.852 -35.380  1.00  0.00     0.026 C 
HETATM   15  C3  UNL     1      11.423   3.438 -35.526  1.00  0.00     0.010 C 
HETATM   16  C2  UNL     1      11.073   3.425 -36.971  1.00  0.00     0.045 C 
HETATM   17  C15 UNL     1      12.427   3.231 -37.650  1.00  0.00     0.034 C 
BRANCH  16  18
HETATM   18  C1  UNL     1      10.547   4.776 -37.432  1.00  0.00     0.382 C 
BRANCH  18  19
HETATM   19  N1  UNL     1       9.447   4.557 -38.333  1.00  0.00    -0.050 N 
ATOM     20  H13 UNL     1       9.510   3.672 -38.837  1.00  0.00     0.276 HD
ATOM     21  H12 UNL     1       8.566   4.371 -37.855  1.00  0.00     0.276 HD
ATOM     22  H11 UNL     1       9.405   5.368 -38.951  1.00  0.00     0.276 HD
ENDBRANCH  18  19
BRANCH  18  23
HETATM   23  N2  UNL     1      10.017   5.520 -36.288  1.00  0.00    -0.050 N 
ATOM     24  H23 UNL     1       9.089   5.909 -36.457  1.00  0.00     0.276 HD
ATOM     25  H22 UNL     1       9.764   4.921 -35.502  1.00  0.00     0.276 HD
ATOM     26  H21 UNL     1      10.712   6.226 -36.048  1.00  0.00     0.276 HD
ENDBRANCH  18  23
ENDBRANCH  16  18
ENDBRANCH   1  13
BRANCH   2  27
HETATM   27  O1  UNL     1      15.433   4.214 -36.663  1.00  0.00    -0.345 OA
ATOM     28  H1  UNL     1      14.706   4.712 -36.306  1.00  0.00     0.219 HD
ENDBRANCH   2  27
BRANCH   5  29
HETATM   29  O2  UNL     1      14.210  -0.402 -37.637  1.00  0.00    -0.345 OA
ATOM     30  H2  UNL     1      14.575  -1.266 -37.790  1.00  0.00     0.219 HD
ENDBRANCH   5  29
TORSDOF 6
ENDMDL
MODEL 3
REMARK VINA RESULT: -6.984903238      1.850      2.813
REMARK  6 active torsions:
REMARK  status: ('A' for Active; 'I' for Inactive)
REMARK    1  A    between atoms: N1_1  and  C1_5 
REMARK    2  A    between atoms: C1_5  and  N2_6 
REMARK    3  A    between atoms: C1_5  and  C2_10 
REMARK    4  A    between atoms: C5_13  and  N3_14 
REMARK    5  A    between atoms: C6_15  and  O1_16 
REMARK    6  A    between atoms: C9_20  and  O2_21 
ROOT
HETATM    1  N3  UNL     1      12.397   3.197 -35.700  1.00  0.00    -0.302 N 
HETATM    2  C6  UNL     1      13.187   3.601 -34.665  1.00  0.00     0.164 A 
HETATM    3  C7  UNL     1      14.386   2.965 -34.735  1.00  0.00     0.093 A 
HETATM    4  C8  UNL     1      14.348   2.145 -35.835  1.00  0.00     0.052 A 
HETATM    5  C9  UNL     1      13.098   2.308 -36.419  1.00  0.00     0.155 A 
HETATM    6  C10 UNL     1      15.586   1.370 -36.034  1.00  0.00     0.109 C 
HETATM    7  C11 UNL     1      15.811   1.134 -37.513  1.00  0.00     0.045 C 
HETATM    8  C12 UNL     1      15.416  -0.277 -37.814  1.00  0.00     0.004 C 
HETATM    9  C13 UNL     1      15.014  -0.929 -36.515  1.00  0.00     0.004 C 
HETATM   10  C14 UNL     1      15.484  -0.009 -35.412  1.00  0.00     0.045 C 
HETATM   11  O3  UNL     1      16.684   2.067 -35.579  1.00  0.00    -0.298 OA
HETATM   12  S1  UNL     1      16.019   2.690 -34.080  1.00  0.00     0.035 SA
ENDROOT
BRANCH   1  13
HETATM   13  C5  UNL     1      11.073   3.615 -35.994  1.00  0.00     0.094 C 
HETATM   14  C4  UNL     1      10.628   4.875 -35.306  1.00  0.00     0.026 C 
HETATM   15  C3  UNL     1       9.446   5.331 -36.172  1.00  0.00     0.010 C 
HETATM   16  C2  UNL     1       9.484   4.552 -37.438  1.00  0.00     0.045 C 
HETATM   17  C15 UNL     1      10.902   3.985 -37.450  1.00  0.00     0.034 C 
BRANCH  16  18
HETATM   18  C1  UNL     1       9.370   5.457 -38.656  1.00  0.00     0.382 C 
BRANCH  18  19
HETATM   19  N1  UNL     1       8.244   5.030 -39.443  1.00  0.00    -0.050 N 
ATOM     20  H13 UNL     1       7.641   5.800 -39.733  1.00  0.00     0.276 HD
ATOM     21  H12 UNL     1       8.503   4.711 -40.376  1.00  0.00     0.276 HD
ATOM     22  H11 UNL     1       7.754   4.320 -38.897  1.00  0.00     0.276 HD
ENDBRANCH  18  19
BRANCH  18  23
HETATM   23  N2  UNL     1       9.094   6.831 -38.230  1.00  0.00    -0.050 N 
ATOM     24  H23 UNL     1       8.357   6.893 -37.527  1.00  0.00     0.276 HD
ATOM     25  H22 UNL     1       9.842   7.236 -37.668  1.00  0.00     0.276 HD
ATOM     26  H21 UNL     1       8.891   7.366 -39.074  1.00  0.00     0.276 HD
ENDBRANCH  18  23
ENDBRANCH  16  18
ENDBRANCH   1  13
BRANCH   2  27
HETATM   27  O1  UNL     1      12.888   4.512 -33.658  1.00  0.00    -0.345 OA
ATOM     28  H1  UNL     1      13.375   4.690 -32.862  1.00  0.00     0.219 HD
ENDBRANCH   2  27
BRANCH   5  29
HETATM   29  O2  UNL     1      12.673   1.629 -37.582  1.00  0.00    -0.345 OA
ATOM     30  H2  UNL     1      12.729   1.937 -38.479  1.00  0.00     0.219 HD
ENDBRANCH   5  29
TORSDOF 6
ENDMDL
MODEL 4
REMARK VINA RESULT: -6.923677787      1.032      1.101
REMARK  6 active torsions:
REMARK  status: ('A' for Active; 'I' for Inactive)
REMARK    1  A    between atoms: N1_1  and  C1_5 
REMARK    2  A    between atoms: C1_5  and  N2_6 
REMARK    3  A    between atoms: C1_5  and  C2_10 
REMARK    4  A    between atoms: C5_13  and  N3_14 
REMARK    5  A    between atoms: C6_15  and  O1_16 
REMARK    6  A    between atoms: C9_20  and  O2_21 
ROOT
HETATM    1  N3  UNL     1      13.025   1.678 -37.053  1.00  0.00    -0.302 N 
HETATM    2  C6  UNL     1      13.285   0.602 -37.850  1.00  0.00     0.164 A 
HETATM    3  C7  UNL     1      14.617   0.335 -37.830  1.00  0.00     0.093 A 
HETATM    4  C8  UNL     1      15.206   1.261 -37.005  1.00  0.00     0.052 A 
HETATM    5  C9  UNL     1      14.193   2.086 -36.534  1.00  0.00     0.155 A 
HETATM    6  C10 UNL     1      16.668   1.106 -36.897  1.00  0.00     0.109 C 
HETATM    7  C11 UNL     1      17.129   1.547 -35.522  1.00  0.00     0.045 C 
HETATM    8  C12 UNL     1      17.738   2.906 -35.662  1.00  0.00     0.004 C 
HETATM    9  C13 UNL     1      17.714   3.273 -37.124  1.00  0.00     0.004 C 
HETATM   10  C14 UNL     1      17.396   2.003 -37.879  1.00  0.00     0.045 C 
HETATM   11  O3  UNL     1      17.036  -0.216 -37.026  1.00  0.00    -0.298 OA
HETATM   12  S1  UNL     1      15.989  -0.668 -38.359  1.00  0.00     0.035 SA
ENDROOT
BRANCH   1  13
HETATM   13  C5  UNL     1      11.768   2.284 -36.797  1.00  0.00     0.094 C 
HETATM   14  C4  UNL     1      11.418   2.451 -35.345  1.00  0.00     0.026 C 
HETATM   15  C3  UNL     1      10.335   3.538 -35.384  1.00  0.00     0.010 C 
HETATM   16  C2  UNL     1      10.360   4.155 -36.736  1.00  0.00     0.045 C 
HETATM   17  C15 UNL     1      11.711   3.711 -37.292  1.00  0.00     0.034 C 
BRANCH  16  18
HETATM   18  C1  UNL     1      10.402   5.674 -36.658  1.00  0.00     0.382 C 
BRANCH  18  19
HETATM   19  N1  UNL     1       9.321   6.205 -37.444  1.00  0.00    -0.050 N 
ATOM     20  H13 UNL     1       9.628   6.878 -38.146  1.00  0.00     0.276 HD
ATOM     21  H12 UNL     1       8.918   5.524 -38.087  1.00  0.00     0.276 HD
ATOM     22  H11 UNL     1       8.640   6.590 -36.789  1.00  0.00     0.276 HD
ENDBRANCH  18  19
BRANCH  18  23
HETATM   23  N2  UNL     1      10.176   6.107 -35.278  1.00  0.00    -0.050 N 
ATOM     24  H23 UNL     1      10.834   6.822 -34.968  1.00  0.00     0.276 HD
ATOM     25  H22 UNL     1       9.324   6.657 -35.163  1.00  0.00     0.276 HD
ATOM     26  H21 UNL     1      10.192   5.267 -34.698  1.00  0.00     0.276 HD
ENDBRANCH  18  23
ENDBRANCH  16  18
ENDBRANCH   1  13
BRANCH   2  27
HETATM   27  O1  UNL     1      12.387  -0.153 -38.596  1.00  0.00    -0.345 OA
ATOM     28  H1  UNL     1      11.902   0.105 -39.370  1.00  0.00     0.219 HD
ENDBRANCH   2  27
BRANCH   5  29
HETATM   29  O2  UNL     1      14.400   3.169 -35.653  1.00  0.00    -0.345 OA
ATOM     30  H2  UNL     1      15.212   3.410 -35.221  1.00  0.00     0.219 HD
ENDBRANCH   5  29
TORSDOF 6
ENDMDL
MODEL 5
REMARK VINA RESULT: -6.855287659      2.725      3.910
REMARK  6 active torsions:
REMARK  status: ('A' for Active; 'I' for Inactive)
REMARK    1  A    between atoms: N1_1  and  C1_5 
REMARK    2  A    between atoms: C1_5  and  N2_6 
REMARK    3  A    between atoms: C1_5  and  C2_10 
REMARK    4  A    between atoms: C5_13  and  N3_14 
REMARK    5  A    between atoms: C6_15  and  O1_16 
REMARK    6  A    between atoms: C9_20  and  O2_21 
ROOT
HETATM    1  N3  UNL     1      14.865   0.761 -37.331  1.00  0.00    -0.302 N 
HETATM    2  C6  UNL     1      15.900   1.399 -36.715  1.00  0.00     0.164 A 
HETATM    3  C7  UNL     1      17.077   0.875 -37.148  1.00  0.00     0.093 A 
HETATM    4  C8  UNL     1      16.775  -0.112 -38.052  1.00  0.00     0.052 A 
HETATM    5  C9  UNL     1      15.390  -0.164 -38.149  1.00  0.00     0.155 A 
HETATM    6  C10 UNL     1      17.964  -0.791 -38.600  1.00  0.00     0.109 C 
HETATM    7  C11 UNL     1      17.686  -1.241 -40.020  1.00  0.00     0.045 C 
HETATM    8  C12 UNL     1      17.421  -2.713 -39.985  1.00  0.00     0.004 C 
HETATM    9  C13 UNL     1      17.600  -3.180 -38.563  1.00  0.00     0.004 C 
HETATM   10  C14 UNL     1      18.288  -2.054 -37.827  1.00  0.00     0.045 C 
HETATM   11  O3  UNL     1      19.037   0.070 -38.667  1.00  0.00    -0.298 OA
HETATM   12  S1  UNL     1      18.856   0.864 -37.113  1.00  0.00     0.035 SA
ENDROOT
BRANCH   1  13
HETATM   13  C5  UNL     1      13.475   1.000 -37.164  1.00  0.00     0.094 C 
HETATM   14  C4  UNL     1      12.967   0.877 -35.755  1.00  0.00     0.026 C 
HETATM   15  C3  UNL     1      11.648   1.660 -35.804  1.00  0.00     0.010 C 
HETATM   16  C2  UNL     1      11.633   2.443 -37.068  1.00  0.00     0.045 C 
HETATM   17  C15 UNL     1      13.097   2.424 -37.502  1.00  0.00     0.034 C 
BRANCH  16  18
HETATM   18  C1  UNL     1      11.275   3.901 -36.819  1.00  0.00     0.382 C 
BRANCH  18  19
HETATM   19  N1  UNL     1      10.860   4.491 -38.064  1.00  0.00    -0.050 N 
ATOM     20  H13 UNL     1      10.137   5.202 -37.950  1.00  0.00     0.276 HD
ATOM     21  H12 UNL     1      11.569   5.095 -38.479  1.00  0.00     0.276 HD
ATOM     22  H11 UNL     1      10.577   3.725 -38.675  1.00  0.00     0.276 HD
ENDBRANCH  18  19
BRANCH  18  23
HETATM   23  N2  UNL     1      10.132   3.984 -35.908  1.00  0.00    -0.050 N 
ATOM     24  H23 UNL     1       9.832   4.941 -35.726  1.00  0.00     0.276 HD
ATOM     25  H22 UNL     1       9.261   3.653 -36.325  1.00  0.00     0.276 HD
ATOM     26  H21 UNL     1      10.390   3.475 -35.063  1.00  0.00     0.276 HD
ENDBRANCH  18  23
ENDBRANCH  16  18
ENDBRANCH   1  13
BRANCH   2  27
HETATM   27  O1  UNL     1      15.844   2.430 -35.783  1.00  0.00    -0.345 OA
ATOM     28  H1  UNL     1      16.523   3.051 -35.553  1.00  0.00     0.219 HD
ENDBRANCH   2  27
BRANCH   5  29
HETATM   29  O2  UNL     1      14.688  -1.059 -38.985  1.00  0.00    -0.345 OA
ATOM     30  H2  UNL     1      14.891  -1.281 -39.886  1.00  0.00     0.219 HD
ENDBRANCH   5  29
TORSDOF 6
ENDMDL
