MODEL 1
REMARK VINA RESULT: -7.652878414      0.000      0.000
REMARK  6 active torsions:
REMARK  status: ('A' for Active; 'I' for Inactive)
REMARK    1  A    between atoms: C2_2  and  O1_3 
REMARK    2  A    between atoms: C2_2  and  C3_5 
REMARK    3  A    between atoms: C11_14  and  C12_15 
REMARK    4  A    between atoms: C16_23  and  N3_24 
REMARK    5  A    between atoms: N3_24  and  C17_26 
REMARK    6  A    between atoms: C17_26  and  C18_27 
ROOT
HETATM    1  C3  UNL     1      13.974   9.675   2.932  1.00  0.00     0.117 C 
HETATM    2  C4  UNL     1      14.787   8.364   2.753  1.00  0.00     0.023 C 
HETATM    3  C5  UNL     1      14.644   7.878   1.334  1.00  0.00     0.090 C 
HETATM    4  C6  UNL     1      14.942   8.936   0.271  1.00  0.00     0.151 C 
HETATM    5  O2  UNL     1      14.384   8.881  -0.797  1.00  0.00    -0.293 OA
HETATM    6  C7  UNL     1      15.912  10.046   0.506  1.00  0.00     0.075 C 
HETATM    7  C8  UNL     1      15.911  10.753   1.670  1.00  0.00     0.019 C 
HETATM    8  C9  UNL     1      17.060  11.718   1.481  1.00  0.00     0.080 A 
HETATM    9  C10 UNL     1      17.671  12.614   2.386  1.00  0.00     0.059 A 
HETATM   10  C11 UNL     1      18.054  11.136   2.470  1.00  0.00     0.117 A 
HETATM   11  O3  UNL     1      17.748  10.433   3.496  1.00  0.00    -0.341 OA
HETATM   12  C16 UNL     1      16.789   9.654   3.985  1.00  0.00     0.148 C 
HETATM   13  C21 UNL     1      16.235   8.538   3.118  1.00  0.00     0.069 C 
HETATM   14  C22 UNL     1      15.661  10.775   4.201  1.00  0.00     0.184 C 
HETATM   15  N4  UNL     1      15.140  10.516   2.847  1.00  0.00    -0.371 N 
ENDROOT
BRANCH  10  16
HETATM   16  C12 UNL     1      19.375  10.770   1.856  1.00  0.00     0.063 A 
HETATM   17  C13 UNL     1      19.724  10.771   0.534  1.00  0.00     0.117 A 
HETATM   18  N1  UNL     1      20.989  10.357   0.474  1.00  0.00    -0.360 N 
HETATM   19  C14 UNL     1      21.471  10.090   1.703  1.00  0.00     0.182 A 
ATOM     20  H1  UNL     1      21.522  10.256  -0.390  1.00  0.00     0.166 HD
HETATM   21  N2  UNL     1      20.461  10.350   2.547  1.00  0.00    -0.347 N 
HETATM   22  C15 UNL     1      20.599  10.175   3.974  1.00  0.00     0.157 C 
ENDBRANCH  10  16
BRANCH  12  23
HETATM   23  N3  UNL     1      17.036   9.186   5.304  1.00  0.00    -0.390 N 
ATOM     24  H3  UNL     1      17.866   8.643   5.543  1.00  0.00     0.156 HD
BRANCH  23  25
HETATM   25  C17 UNL     1      16.042   9.526   6.273  1.00  0.00     0.121 C 
BRANCH  25  26
HETATM   26  C18 UNL     1      15.950   8.400   7.272  1.00  0.00     0.003 A 
HETATM   27  C19 UNL     1      15.194   8.622   8.537  1.00  0.00     0.007 A 
HETATM   28  C20 UNL     1      14.654   7.671   7.518  1.00  0.00     0.007 A 
ENDBRANCH  25  26
ENDBRANCH  23  25
ENDBRANCH  12  23
BRANCH   1  29
HETATM   29  C2  UNL     1      12.804   9.915   2.155  1.00  0.00     0.137 C 
HETATM   30  C1  UNL     1      12.446  11.429   2.347  1.00  0.00     0.041 C 
BRANCH  29  31
HETATM   31  O1  UNL     1      11.700   9.316   2.819  1.00  0.00    -0.394 OA
ATOM     32  H1  UNL     1      11.843   8.406   2.587  1.00  0.00     0.210 HD
ENDBRANCH  29  31
ENDBRANCH   1  29
TORSDOF 6
ENDMDL
MODEL 2
REMARK VINA RESULT: -7.537768681      1.890      2.793
REMARK  6 active torsions:
REMARK  status: ('A' for Active; 'I' for Inactive)
REMARK    1  A    between atoms: C2_2  and  O1_3 
REMARK    2  A    between atoms: C2_2  and  C3_5 
REMARK    3  A    between atoms: C11_14  and  C12_15 
REMARK    4  A    between atoms: C16_23  and  N3_24 
REMARK    5  A    between atoms: N3_24  and  C17_26 
REMARK    6  A    between atoms: C17_26  and  C18_27 
ROOT
HETATM    1  C3  UNL     1      13.754   9.722  -0.266  1.00  0.00     0.117 C 
HETATM    2  C4  UNL     1      14.400   8.321  -0.091  1.00  0.00     0.023 C 
HETATM    3  C5  UNL     1      15.364   8.070  -1.222  1.00  0.00     0.090 C 
HETATM    4  C6  UNL     1      16.379   9.191  -1.446  1.00  0.00     0.151 C 
HETATM    5  O2  UNL     1      16.814   9.388  -2.555  1.00  0.00    -0.293 OA
HETATM    6  C7  UNL     1      16.862  10.059  -0.333  1.00  0.00     0.075 C 
HETATM    7  C8  UNL     1      16.000  10.587   0.580  1.00  0.00     0.019 C 
HETATM    8  C9  UNL     1      16.918  11.339   1.518  1.00  0.00     0.080 A 
HETATM    9  C10 UNL     1      16.657  11.973   2.753  1.00  0.00     0.059 A 
HETATM   10  C11 UNL     1      16.818  10.452   2.746  1.00  0.00     0.117 A 
HETATM   11  O3  UNL     1      15.832   9.683   3.022  1.00  0.00    -0.341 OA
HETATM   12  C16 UNL     1      14.818   9.036   2.460  1.00  0.00     0.148 C 
HETATM   13  C21 UNL     1      15.083   8.172   1.240  1.00  0.00     0.069 C 
HETATM   14  C22 UNL     1      13.932  10.305   2.034  1.00  0.00     0.184 C 
HETATM   15  N4  UNL     1      14.603  10.336   0.722  1.00  0.00    -0.371 N 
ENDROOT
BRANCH  10  16
HETATM   16  C12 UNL     1      18.144   9.936   3.228  1.00  0.00     0.063 A 
HETATM   17  C13 UNL     1      19.311   9.814   2.528  1.00  0.00     0.117 A 
HETATM   18  N1  UNL     1      20.207   9.295   3.366  1.00  0.00    -0.360 N 
HETATM   19  C14 UNL     1      19.664   9.078   4.581  1.00  0.00     0.182 A 
ATOM     20  H1  UNL     1      21.175   9.089   3.122  1.00  0.00     0.166 HD
HETATM   21  N2  UNL     1      18.389   9.479   4.479  1.00  0.00    -0.347 N 
HETATM   22  C15 UNL     1      17.475   9.397   5.595  1.00  0.00     0.157 C 
ENDBRANCH  10  16
BRANCH  12  23
HETATM   23  N3  UNL     1      13.980   8.352   3.382  1.00  0.00    -0.390 N 
ATOM     24  H3  UNL     1      13.867   7.338   3.367  1.00  0.00     0.156 HD
BRANCH  23  25
HETATM   25  C17 UNL     1      13.307   9.181   4.332  1.00  0.00     0.121 C 
BRANCH  25  26
HETATM   26  C18 UNL     1      13.854   8.870   5.703  1.00  0.00     0.003 A 
HETATM   27  C19 UNL     1      13.974   9.974   6.697  1.00  0.00     0.007 A 
HETATM   28  C20 UNL     1      12.971   8.890   6.925  1.00  0.00     0.007 A 
ENDBRANCH  25  26
ENDBRANCH  23  25
ENDBRANCH  12  23
BRANCH   1  29
HETATM   29  C2  UNL     1      13.572  10.279  -1.565  1.00  0.00     0.137 C 
HETATM   30  C1  UNL     1      13.183  11.784  -1.353  1.00  0.00     0.041 C 
BRANCH  29  31
HETATM   31  O1  UNL     1      12.350   9.783  -2.093  1.00  0.00    -0.394 OA
ATOM     32  H1  UNL     1      11.965  10.594  -2.404  1.00  0.00     0.210 HD
ENDBRANCH  29  31
ENDBRANCH   1  29
TORSDOF 6
ENDMDL
MODEL 3
REMARK VINA RESULT: -7.318280944      2.454      5.782
REMARK  6 active torsions:
REMARK  status: ('A' for Active; 'I' for Inactive)
REMARK    1  A    between atoms: C2_2  and  O1_3 
REMARK    2  A    between atoms: C2_2  and  C3_5 
REMARK    3  A    between atoms: C11_14  and  C12_15 
REMARK    4  A    between atoms: C16_23  and  N3_24 
REMARK    5  A    between atoms: N3_24  and  C17_26 
REMARK    6  A    between atoms: C17_26  and  C18_27 
ROOT
HETATM    1  C3  UNL     1      17.153  10.361   2.016  1.00  0.00     0.117 C 
HETATM    2  C4  UNL     1      18.054  10.795   3.204  1.00  0.00     0.023 C 
HETATM    3  C5  UNL     1      17.901  12.277   3.432  1.00  0.00     0.090 C 
HETATM    4  C6  UNL     1      16.452  12.751   3.554  1.00  0.00     0.151 C 
HETATM    5  O2  UNL     1      16.160  13.869   3.207  1.00  0.00    -0.293 OA
HETATM    6  C7  UNL     1      15.373  11.874   4.095  1.00  0.00     0.075 C 
HETATM    7  C8  UNL     1      15.252  10.575   3.705  1.00  0.00     0.019 C 
HETATM    8  C9  UNL     1      14.080  10.082   4.523  1.00  0.00     0.080 A 
HETATM    9  C10 UNL     1      13.553   8.782   4.690  1.00  0.00     0.059 A 
HETATM   10  C11 UNL     1      14.805   9.157   5.484  1.00  0.00     0.117 A 
HETATM   11  O3  UNL     1      15.928   8.586   5.254  1.00  0.00    -0.341 OA
HETATM   12  C16 UNL     1      17.025   8.692   4.513  1.00  0.00     0.148 C 
HETATM   13  C21 UNL     1      17.750  10.025   4.460  1.00  0.00     0.069 C 
HETATM   14  C22 UNL     1      16.375   8.379   3.079  1.00  0.00     0.184 C 
HETATM   15  N4  UNL     1      16.131   9.818   2.873  1.00  0.00    -0.371 N 
ENDROOT
BRANCH  10  16
HETATM   16  C12 UNL     1      14.582   9.493   6.932  1.00  0.00     0.063 A 
HETATM   17  C13 UNL     1      13.818  10.496   7.460  1.00  0.00     0.117 A 
HETATM   18  N1  UNL     1      13.940  10.411   8.784  1.00  0.00    -0.360 N 
HETATM   19  C14 UNL     1      14.751   9.393   9.131  1.00  0.00     0.182 A 
ATOM     20  H1  UNL     1      13.480  11.034   9.447  1.00  0.00     0.166 HD
HETATM   21  N2  UNL     1      15.140   8.835   7.975  1.00  0.00    -0.347 N 
HETATM   22  C15 UNL     1      16.031   7.699   7.941  1.00  0.00     0.157 C 
ENDBRANCH  10  16
BRANCH  12  23
HETATM   23  N3  UNL     1      17.951   7.627   4.687  1.00  0.00    -0.390 N 
ATOM     24  H3  UNL     1      17.739   6.670   4.406  1.00  0.00     0.156 HD
BRANCH  23  25
HETATM   25  C17 UNL     1      19.198   7.990   5.283  1.00  0.00     0.121 C 
BRANCH  25  26
HETATM   26  C18 UNL     1      20.310   7.433   4.428  1.00  0.00     0.003 A 
HETATM   27  C19 UNL     1      20.644   8.118   3.147  1.00  0.00     0.007 A 
HETATM   28  C20 UNL     1      21.623   8.159   4.275  1.00  0.00     0.007 A 
ENDBRANCH  25  26
ENDBRANCH  23  25
ENDBRANCH  12  23
BRANCH   1  29
HETATM   29  C2  UNL     1      16.858  11.271   0.960  1.00  0.00     0.137 C 
HETATM   30  C1  UNL     1      15.779  10.573   0.062  1.00  0.00     0.041 C 
BRANCH  29  31
HETATM   31  O1  UNL     1      17.958  11.278   0.061  1.00  0.00    -0.394 OA
ATOM     32  H1  UNL     1      18.298  12.150   0.226  1.00  0.00     0.210 HD
ENDBRANCH  29  31
ENDBRANCH   1  29
TORSDOF 6
ENDMDL
MODEL 4
REMARK VINA RESULT: -7.302913516      4.262      7.008
REMARK  6 active torsions:
REMARK  status: ('A' for Active; 'I' for Inactive)
REMARK    1  A    between atoms: C2_2  and  O1_3 
REMARK    2  A    between atoms: C2_2  and  C3_5 
REMARK    3  A    between atoms: C11_14  and  C12_15 
REMARK    4  A    between atoms: C16_23  and  N3_24 
REMARK    5  A    between atoms: N3_24  and  C17_26 
REMARK    6  A    between atoms: C17_26  and  C18_27 
ROOT
HETATM    1  C3  UNL     1      20.177   9.027   1.892  1.00  0.00     0.117 C 
HETATM    2  C4  UNL     1      21.628   8.960   1.345  1.00  0.00     0.023 C 
HETATM    3  C5  UNL     1      22.153  10.359   1.146  1.00  0.00     0.090 C 
HETATM    4  C6  UNL     1      21.996  11.272   2.363  1.00  0.00     0.151 C 
HETATM    5  O2  UNL     1      21.859  12.460   2.203  1.00  0.00    -0.293 OA
HETATM    6  C7  UNL     1      22.008  10.743   3.758  1.00  0.00     0.075 C 
HETATM    7  C8  UNL     1      21.303   9.629   4.101  1.00  0.00     0.019 C 
HETATM    8  C9  UNL     1      21.641   9.451   5.564  1.00  0.00     0.080 A 
HETATM    9  C10 UNL     1      21.350   8.395   6.456  1.00  0.00     0.059 A 
HETATM   10  C11 UNL     1      22.512   8.210   5.480  1.00  0.00     0.117 A 
HETATM   11  O3  UNL     1      22.458   7.332   4.549  1.00  0.00    -0.341 OA
HETATM   12  C16 UNL     1      22.081   7.165   3.286  1.00  0.00     0.148 C 
HETATM   13  C21 UNL     1      22.539   8.169   2.243  1.00  0.00     0.069 C 
HETATM   14  C22 UNL     1      20.494   7.295   3.493  1.00  0.00     0.184 C 
HETATM   15  N4  UNL     1      20.578   8.746   3.246  1.00  0.00    -0.371 N 
ENDROOT
BRANCH  10  16
HETATM   16  C12 UNL     1      23.886   8.394   6.060  1.00  0.00     0.063 A 
HETATM   17  C13 UNL     1      24.511   9.561   6.403  1.00  0.00     0.117 A 
HETATM   18  N1  UNL     1      25.717   9.227   6.858  1.00  0.00    -0.360 N 
HETATM   19  C14 UNL     1      25.896   7.892   6.824  1.00  0.00     0.182 A 
ATOM     20  H1  UNL     1      26.414   9.894   7.189  1.00  0.00     0.166 HD
HETATM   21  N2  UNL     1      24.755   7.391   6.327  1.00  0.00    -0.347 N 
HETATM   22  C15 UNL     1      24.567   5.972   6.136  1.00  0.00     0.157 C 
ENDBRANCH  10  16
BRANCH  12  23
HETATM   23  N3  UNL     1      22.236   5.838   2.802  1.00  0.00    -0.390 N 
ATOM     24  H3  UNL     1      22.564   5.637   1.857  1.00  0.00     0.156 HD
BRANCH  23  25
HETATM   25  C17 UNL     1      21.901   4.803   3.729  1.00  0.00     0.121 C 
BRANCH  25  26
HETATM   26  C18 UNL     1      20.840   3.933   3.104  1.00  0.00     0.003 A 
HETATM   27  C19 UNL     1      20.680   2.533   3.589  1.00  0.00     0.007 A 
HETATM   28  C20 UNL     1      19.603   3.531   3.866  1.00  0.00     0.007 A 
ENDBRANCH  25  26
ENDBRANCH  23  25
ENDBRANCH  12  23
BRANCH   1  29
HETATM   29  C2  UNL     1      19.328  10.123   1.562  1.00  0.00     0.137 C 
HETATM   30  C1  UNL     1      18.048   9.979   2.456  1.00  0.00     0.041 C 
BRANCH  29  31
HETATM   31  O1  UNL     1      18.762   9.875   0.283  1.00  0.00    -0.394 OA
ATOM     32  H1  UNL     1      18.847  10.739  -0.104  1.00  0.00     0.210 HD
ENDBRANCH  29  31
ENDBRANCH   1  29
TORSDOF 6
ENDMDL
MODEL 5
REMARK VINA RESULT: -7.042084929      2.481      5.406
REMARK  6 active torsions:
REMARK  status: ('A' for Active; 'I' for Inactive)
REMARK    1  A    between atoms: C2_2  and  O1_3 
REMARK    2  A    between atoms: C2_2  and  C3_5 
REMARK    3  A    between atoms: C11_14  and  C12_15 
REMARK    4  A    between atoms: C16_23  and  N3_24 
REMARK    5  A    between atoms: N3_24  and  C17_26 
REMARK    6  A    between atoms: C17_26  and  C18_27 
ROOT
HETATM    1  C3  UNL     1      17.620  10.301   2.931  1.00  0.00     0.117 C 
HETATM    2  C4  UNL     1      16.814  11.617   2.752  1.00  0.00     0.023 C 
HETATM    3  C5  UNL     1      17.623  12.591   1.935  1.00  0.00     0.090 C 
HETATM    4  C6  UNL     1      18.165  12.019   0.625  1.00  0.00     0.151 C 
HETATM    5  O2  UNL     1      19.198  12.445   0.171  1.00  0.00    -0.293 OA
HETATM    6  C7  UNL     1      17.455  10.941  -0.125  1.00  0.00     0.075 C 
HETATM    7  C8  UNL     1      16.945   9.852   0.513  1.00  0.00     0.019 C 
HETATM    8  C9  UNL     1      16.295   9.075  -0.610  1.00  0.00     0.080 A 
HETATM    9  C10 UNL     1      15.466   7.931  -0.582  1.00  0.00     0.059 A 
HETATM   10  C11 UNL     1      14.833   9.286  -0.261  1.00  0.00     0.117 A 
HETATM   11  O3  UNL     1      14.384   9.542   0.911  1.00  0.00    -0.341 OA
HETATM   12  C16 UNL     1      14.747  10.043   2.086  1.00  0.00     0.148 C 
HETATM   13  C21 UNL     1      15.468  11.378   2.126  1.00  0.00     0.069 C 
HETATM   14  C22 UNL     1      15.754   8.878   2.539  1.00  0.00     0.184 C 
HETATM   15  N4  UNL     1      16.877   9.602   1.916  1.00  0.00    -0.371 N 
ENDROOT
BRANCH  10  16
HETATM   16  C12 UNL     1      14.030   9.909  -1.368  1.00  0.00     0.063 A 
HETATM   17  C13 UNL     1      12.737  10.350  -1.332  1.00  0.00     0.117 A 
HETATM   18  N1  UNL     1      12.456  10.806  -2.551  1.00  0.00    -0.360 N 
HETATM   19  C14 UNL     1      13.516  10.677  -3.373  1.00  0.00     0.182 A 
ATOM     20  H1  UNL     1      11.557  11.201  -2.827  1.00  0.00     0.166 HD
HETATM   21  N2  UNL     1      14.481  10.120  -2.627  1.00  0.00    -0.347 N 
HETATM   22  C15 UNL     1      15.785   9.821  -3.171  1.00  0.00     0.157 C 
ENDBRANCH  10  16
BRANCH  12  23
HETATM   23  N3  UNL     1      13.731   9.996   3.079  1.00  0.00    -0.390 N 
ATOM     24  H3  UNL     1      13.006  10.710   3.151  1.00  0.00     0.156 HD
BRANCH  23  25
HETATM   25  C17 UNL     1      13.794   8.880   3.969  1.00  0.00     0.121 C 
BRANCH  25  26
HETATM   26  C18 UNL     1      13.883   9.406   5.380  1.00  0.00     0.003 A 
HETATM   27  C19 UNL     1      13.481   8.516   6.506  1.00  0.00     0.007 A 
HETATM   28  C20 UNL     1      14.919   8.890   6.347  1.00  0.00     0.007 A 
ENDBRANCH  25  26
ENDBRANCH  23  25
ENDBRANCH  12  23
BRANCH   1  29
HETATM   29  C2  UNL     1      19.045  10.322   2.955  1.00  0.00     0.137 C 
HETATM   30  C1  UNL     1      19.510   8.824   2.961  1.00  0.00     0.041 C 
BRANCH  29  31
HETATM   31  O1  UNL     1      19.462  10.713   4.255  1.00  0.00    -0.394 OA
ATOM     32  H1  UNL     1      19.171   9.959   4.754  1.00  0.00     0.210 HD
ENDBRANCH  29  31
ENDBRANCH   1  29
TORSDOF 6
ENDMDL
