MODEL 1
REMARK VINA RESULT: -7.480747439      0.000      0.000
REMARK  4 active torsions:
REMARK  status: ('A' for Active; 'I' for Inactive)
REMARK    1  A    between atoms: C1_4  and  N2_5 
REMARK    2  A    between atoms: C1_4  and  C14_24 
REMARK    3  A    between atoms: N2_5  and  C2_7 
REMARK    4  A    between atoms: N4_16  and  C9_17 
ROOT
HETATM    1  C2  UNL     1      24.448  37.036  20.448  1.00  0.00     0.119 C 
HETATM    2  C3  UNL     1      24.527  36.197  21.670  1.00  0.00     0.030 C 
HETATM    3  C4  UNL     1      23.647  34.995  21.692  1.00  0.00     0.008 C 
HETATM    4  C5  UNL     1      22.412  35.172  20.836  1.00  0.00     0.060 C 
HETATM    5  C6  UNL     1      22.935  35.322  19.440  1.00  0.00     0.046 A 
HETATM    6  C7  UNL     1      23.963  36.261  19.288  1.00  0.00     0.006 A 
HETATM    7  C8  UNL     1      24.277  36.214  17.958  1.00  0.00     0.119 A 
HETATM    8  N3  UNL     1      23.472  35.291  17.350  1.00  0.00    -0.303 N 
ATOM      9  H3  UNL     1      23.489  35.051  16.358  1.00  0.00     0.186 HD
HETATM   10  N4  UNL     1      22.656  34.753  18.271  1.00  0.00    -0.244 N 
ENDROOT
BRANCH   1  11
HETATM   11  N2  UNL     1      25.698  37.698  20.131  1.00  0.00    -0.367 N 
ATOM     12  H2  UNL     1      26.548  37.144  20.027  1.00  0.00     0.161 HD
BRANCH  11  13
HETATM   13  C1  UNL     1      25.758  39.129  19.961  1.00  0.00     0.105 C 
HETATM   14  N1  UNL     1      24.768  39.853  20.340  1.00  0.00    -0.385 N 
ATOM     15  H12 UNL     1      23.923  39.469  20.762  1.00  0.00     0.157 HD
ATOM     16  H11 UNL     1      24.811  40.865  20.220  1.00  0.00     0.157 HD
BRANCH  13  17
HETATM   17  C14 UNL     1      26.957  39.675  19.363  1.00  0.00     0.010 A 
HETATM   18  C15 UNL     1      27.180  41.029  19.329  1.00  0.00     0.032 A 
HETATM   19  C16 UNL     1      28.340  41.516  18.746  1.00  0.00     0.088 A 
HETATM   20  N6  UNL     1      29.231  40.667  18.223  1.00  0.00    -0.375 N 
HETATM   21  C17 UNL     1      29.063  39.337  18.229  1.00  0.00     0.088 A 
ATOM     22  H6  UNL     1      30.077  41.049  17.800  1.00  0.00     0.164 HD
HETATM   23  C18 UNL     1      27.908  38.859  18.810  1.00  0.00     0.032 A 
ENDBRANCH  13  17
ENDBRANCH  11  13
ENDBRANCH   1  11
BRANCH  10  24
HETATM   24  C9  UNL     1      21.658  33.747  18.050  1.00  0.00     0.127 A 
HETATM   25  C10 UNL     1      20.351  34.075  17.756  1.00  0.00     0.050 A 
HETATM   26  C11 UNL     1      19.390  33.094  17.544  1.00  0.00     0.005 A 
HETATM   27  C12 UNL     1      19.721  31.753  17.621  1.00  0.00     0.017 A 
HETATM   28  C13 UNL     1      21.039  31.463  17.915  1.00  0.00     0.090 A 
HETATM   29  N5  UNL     1      21.950  32.434  18.118  1.00  0.00    -0.351 N 
ATOM     30  H5  UNL     1      22.910  32.162  18.333  1.00  0.00     0.166 HD
ENDBRANCH  10  24
TORSDOF 4
ENDMDL
MODEL 2
REMARK VINA RESULT: -7.356349919      4.483      7.477
REMARK  4 active torsions:
REMARK  status: ('A' for Active; 'I' for Inactive)
REMARK    1  A    between atoms: C1_4  and  N2_5 
REMARK    2  A    between atoms: C1_4  and  C14_24 
REMARK    3  A    between atoms: N2_5  and  C2_7 
REMARK    4  A    between atoms: N4_16  and  C9_17 
ROOT
HETATM    1  C2  UNL     1      24.374  40.278  21.431  1.00  0.00     0.119 C 
HETATM    2  C3  UNL     1      24.058  41.501  20.651  1.00  0.00     0.030 C 
HETATM    3  C4  UNL     1      25.035  41.865  19.588  1.00  0.00     0.008 C 
HETATM    4  C5  UNL     1      26.430  41.365  19.895  1.00  0.00     0.060 C 
HETATM    5  C6  UNL     1      26.307  39.873  19.899  1.00  0.00     0.046 A 
HETATM    6  C7  UNL     1      25.256  39.365  20.676  1.00  0.00     0.006 A 
HETATM    7  C8  UNL     1      25.337  38.009  20.517  1.00  0.00     0.119 A 
HETATM    8  N3  UNL     1      26.387  37.726  19.689  1.00  0.00    -0.303 N 
ATOM      9  H3  UNL     1      26.679  36.793  19.399  1.00  0.00     0.186 HD
HETATM   10  N4  UNL     1      26.970  38.878  19.318  1.00  0.00    -0.244 N 
ENDROOT
BRANCH   1  11
HETATM   11  N2  UNL     1      23.192  39.576  21.893  1.00  0.00    -0.367 N 
ATOM     12  H2  UNL     1      22.549  39.171  21.212  1.00  0.00     0.161 HD
BRANCH  11  13
HETATM   13  C1  UNL     1      22.913  39.441  23.302  1.00  0.00     0.105 C 
HETATM   14  N1  UNL     1      21.790  39.855  23.766  1.00  0.00    -0.385 N 
ATOM     15  H12 UNL     1      21.068  40.283  23.186  1.00  0.00     0.157 HD
ATOM     16  H11 UNL     1      21.592  39.760  24.762  1.00  0.00     0.157 HD
BRANCH  13  17
HETATM   17  C14 UNL     1      23.936  38.833  24.125  1.00  0.00     0.010 A 
HETATM   18  C15 UNL     1      24.501  39.515  25.173  1.00  0.00     0.032 A 
HETATM   19  C16 UNL     1      25.479  38.901  25.939  1.00  0.00     0.088 A 
HETATM   20  N6  UNL     1      25.865  37.652  25.654  1.00  0.00    -0.375 N 
HETATM   21  C17 UNL     1      25.345  36.942  24.643  1.00  0.00     0.088 A 
ATOM     22  H6  UNL     1      26.586  37.221  26.233  1.00  0.00     0.164 HD
HETATM   23  C18 UNL     1      24.373  37.557  23.885  1.00  0.00     0.032 A 
ENDBRANCH  13  17
ENDBRANCH  11  13
ENDBRANCH   1  11
BRANCH  10  24
HETATM   24  C9  UNL     1      28.104  39.026  18.453  1.00  0.00     0.127 A 
HETATM   25  C10 UNL     1      28.892  40.158  18.479  1.00  0.00     0.050 A 
HETATM   26  C11 UNL     1      29.990  40.293  17.637  1.00  0.00     0.005 A 
HETATM   27  C12 UNL     1      30.324  39.289  16.746  1.00  0.00     0.017 A 
HETATM   28  C13 UNL     1      29.514  38.171  16.750  1.00  0.00     0.090 A 
HETATM   29  N5  UNL     1      28.455  38.066  17.576  1.00  0.00    -0.351 N 
ATOM     30  H5  UNL     1      27.890  37.217  17.535  1.00  0.00     0.166 HD
ENDBRANCH  10  24
TORSDOF 4
ENDMDL
MODEL 3
REMARK VINA RESULT: -7.228763958      4.388      7.559
REMARK  4 active torsions:
REMARK  status: ('A' for Active; 'I' for Inactive)
REMARK    1  A    between atoms: C1_4  and  N2_5 
REMARK    2  A    between atoms: C1_4  and  C14_24 
REMARK    3  A    between atoms: N2_5  and  C2_7 
REMARK    4  A    between atoms: N4_16  and  C9_17 
ROOT
HETATM    1  C2  UNL     1      24.242  40.214  21.428  1.00  0.00     0.119 C 
HETATM    2  C3  UNL     1      23.974  41.463  20.672  1.00  0.00     0.030 C 
HETATM    3  C4  UNL     1      24.986  41.829  19.642  1.00  0.00     0.008 C 
HETATM    4  C5  UNL     1      26.360  41.288  19.970  1.00  0.00     0.060 C 
HETATM    5  C6  UNL     1      26.202  39.799  19.934  1.00  0.00     0.046 A 
HETATM    6  C7  UNL     1      25.120  39.298  20.672  1.00  0.00     0.006 A 
HETATM    7  C8  UNL     1      25.173  37.945  20.483  1.00  0.00     0.119 A 
HETATM    8  N3  UNL     1      26.235  37.656  19.673  1.00  0.00    -0.303 N 
ATOM      9  H3  UNL     1      26.513  36.723  19.367  1.00  0.00     0.186 HD
HETATM   10  N4  UNL     1      26.855  38.802  19.345  1.00  0.00    -0.244 N 
ENDROOT
BRANCH   1  11
HETATM   11  N2  UNL     1      23.033  39.530  21.845  1.00  0.00    -0.367 N 
ATOM     12  H2  UNL     1      22.171  39.667  21.316  1.00  0.00     0.161 HD
BRANCH  11  13
HETATM   13  C1  UNL     1      23.031  38.660  22.995  1.00  0.00     0.105 C 
HETATM   14  N1  UNL     1      22.451  37.517  22.923  1.00  0.00    -0.385 N 
ATOM     15  H12 UNL     1      21.981  37.180  22.082  1.00  0.00     0.157 HD
ATOM     16  H11 UNL     1      22.450  36.902  23.736  1.00  0.00     0.157 HD
BRANCH  13  17
HETATM   17  C14 UNL     1      23.697  39.137  24.188  1.00  0.00     0.010 A 
HETATM   18  C15 UNL     1      24.789  38.483  24.700  1.00  0.00     0.032 A 
HETATM   19  C16 UNL     1      25.401  38.970  25.845  1.00  0.00     0.088 A 
HETATM   20  N6  UNL     1      24.926  40.068  26.441  1.00  0.00    -0.375 N 
HETATM   21  C17 UNL     1      23.863  40.744  25.982  1.00  0.00     0.088 A 
ATOM     22  H6  UNL     1      25.394  40.407  27.282  1.00  0.00     0.164 HD
HETATM   23  C18 UNL     1      23.259  40.257  24.844  1.00  0.00     0.032 A 
ENDBRANCH  13  17
ENDBRANCH  11  13
ENDBRANCH   1  11
BRANCH  10  24
HETATM   24  C9  UNL     1      28.014  38.943  18.511  1.00  0.00     0.127 A 
HETATM   25  C10 UNL     1      28.818  40.062  18.572  1.00  0.00     0.050 A 
HETATM   26  C11 UNL     1      29.939  40.191  17.761  1.00  0.00     0.005 A 
HETATM   27  C12 UNL     1      30.281  39.193  16.866  1.00  0.00     0.017 A 
HETATM   28  C13 UNL     1      29.454  38.088  16.834  1.00  0.00     0.090 A 
HETATM   29  N5  UNL     1      28.372  37.989  17.631  1.00  0.00    -0.351 N 
ATOM     30  H5  UNL     1      27.796  37.150  17.565  1.00  0.00     0.166 HD
ENDBRANCH  10  24
TORSDOF 4
ENDMDL
MODEL 4
REMARK VINA RESULT: -7.163249095      4.329      8.993
REMARK  4 active torsions:
REMARK  status: ('A' for Active; 'I' for Inactive)
REMARK    1  A    between atoms: C1_4  and  N2_5 
REMARK    2  A    between atoms: C1_4  and  C14_24 
REMARK    3  A    between atoms: N2_5  and  C2_7 
REMARK    4  A    between atoms: N4_16  and  C9_17 
ROOT
HETATM    1  C2  UNL     1      24.327  39.804  20.943  1.00  0.00     0.119 C 
HETATM    2  C3  UNL     1      25.243  40.557  20.050  1.00  0.00     0.030 C 
HETATM    3  C4  UNL     1      25.281  42.032  20.251  1.00  0.00     0.008 C 
HETATM    4  C5  UNL     1      23.985  42.568  20.818  1.00  0.00     0.060 C 
HETATM    5  C6  UNL     1      23.871  41.933  22.170  1.00  0.00     0.046 A 
HETATM    6  C7  UNL     1      24.058  40.544  22.193  1.00  0.00     0.006 A 
HETATM    7  C8  UNL     1      23.919  40.201  23.509  1.00  0.00     0.119 A 
HETATM    8  N3  UNL     1      23.661  41.332  24.233  1.00  0.00    -0.303 N 
ATOM      9  H3  UNL     1      23.513  41.370  25.241  1.00  0.00     0.186 HD
HETATM   10  N4  UNL     1      23.635  42.384  23.398  1.00  0.00    -0.244 N 
ENDROOT
BRANCH   1  11
HETATM   11  N2  UNL     1      24.793  38.463  21.237  1.00  0.00    -0.367 N 
ATOM     12  H2  UNL     1      24.778  38.125  22.199  1.00  0.00     0.161 HD
BRANCH  11  13
HETATM   13  C1  UNL     1      25.277  37.599  20.188  1.00  0.00     0.105 C 
HETATM   14  N1  UNL     1      26.467  37.761  19.734  1.00  0.00    -0.385 N 
ATOM     15  H12 UNL     1      27.103  38.481  20.077  1.00  0.00     0.157 HD
ATOM     16  H11 UNL     1      26.809  37.151  18.992  1.00  0.00     0.157 HD
BRANCH  13  17
HETATM   17  C14 UNL     1      24.375  36.578  19.701  1.00  0.00     0.010 A 
HETATM   18  C15 UNL     1      23.848  35.635  20.547  1.00  0.00     0.032 A 
HETATM   19  C16 UNL     1      22.987  34.672  20.044  1.00  0.00     0.088 A 
HETATM   20  N6  UNL     1      22.676  34.667  18.744  1.00  0.00    -0.375 N 
HETATM   21  C17 UNL     1      23.162  35.565  17.875  1.00  0.00     0.088 A 
ATOM     22  H6  UNL     1      22.040  33.949  18.397  1.00  0.00     0.164 HD
HETATM   23  C18 UNL     1      24.017  36.521  18.380  1.00  0.00     0.032 A 
ENDBRANCH  13  17
ENDBRANCH  11  13
ENDBRANCH   1  11
BRANCH  10  24
HETATM   24  C9  UNL     1      23.397  43.754  23.752  1.00  0.00     0.127 A 
HETATM   25  C10 UNL     1      22.287  44.436  23.298  1.00  0.00     0.050 A 
HETATM   26  C11 UNL     1      22.063  45.763  23.646  1.00  0.00     0.005 A 
HETATM   27  C12 UNL     1      22.953  46.439  24.462  1.00  0.00     0.017 A 
HETATM   28  C13 UNL     1      24.050  45.723  24.898  1.00  0.00     0.090 A 
HETATM   29  N5  UNL     1      24.243  44.437  24.545  1.00  0.00    -0.351 N 
ATOM     30  H5  UNL     1      25.073  43.957  24.896  1.00  0.00     0.166 HD
ENDBRANCH  10  24
TORSDOF 4
ENDMDL
MODEL 5
REMARK VINA RESULT: -7.147417551      4.112      8.914
REMARK  4 active torsions:
REMARK  status: ('A' for Active; 'I' for Inactive)
REMARK    1  A    between atoms: C1_4  and  N2_5 
REMARK    2  A    between atoms: C1_4  and  C14_24 
REMARK    3  A    between atoms: N2_5  and  C2_7 
REMARK    4  A    between atoms: N4_16  and  C9_17 
ROOT
HETATM    1  C2  UNL     1      24.626  39.405  20.698  1.00  0.00     0.119 C 
HETATM    2  C3  UNL     1      25.630  40.179  19.925  1.00  0.00     0.030 C 
HETATM    3  C4  UNL     1      25.647  41.648  20.168  1.00  0.00     0.008 C 
HETATM    4  C5  UNL     1      24.298  42.172  20.612  1.00  0.00     0.060 C 
HETATM    5  C6  UNL     1      24.044  41.502  21.927  1.00  0.00     0.046 A 
HETATM    6  C7  UNL     1      24.228  40.112  21.932  1.00  0.00     0.006 A 
HETATM    7  C8  UNL     1      23.954  39.735  23.217  1.00  0.00     0.119 A 
HETATM    8  N3  UNL     1      23.622  40.846  23.940  1.00  0.00    -0.303 N 
ATOM      9  H3  UNL     1      23.369  40.858  24.928  1.00  0.00     0.186 HD
HETATM   10  N4  UNL     1      23.682  41.921  23.136  1.00  0.00    -0.244 N 
ENDROOT
BRANCH   1  11
HETATM   11  N2  UNL     1      25.059  38.055  21.002  1.00  0.00    -0.367 N 
ATOM     12  H2  UNL     1      25.668  37.892  21.804  1.00  0.00     0.161 HD
BRANCH  11  13
HETATM   13  C1  UNL     1      24.640  36.940  20.189  1.00  0.00     0.105 C 
HETATM   14  N1  UNL     1      25.015  36.876  18.962  1.00  0.00    -0.385 N 
ATOM     15  H12 UNL     1      25.602  37.582  18.519  1.00  0.00     0.157 HD
ATOM     16  H11 UNL     1      24.719  36.088  18.388  1.00  0.00     0.157 HD
BRANCH  13  17
HETATM   17  C14 UNL     1      23.807  35.938  20.817  1.00  0.00     0.010 A 
HETATM   18  C15 UNL     1      22.950  36.266  21.838  1.00  0.00     0.032 A 
HETATM   19  C16 UNL     1      22.167  35.279  22.416  1.00  0.00     0.088 A 
HETATM   20  N6  UNL     1      22.251  34.018  21.978  1.00  0.00    -0.375 N 
HETATM   21  C17 UNL     1      23.070  33.644  20.985  1.00  0.00     0.088 A 
ATOM     22  H6  UNL     1      21.665  33.309  22.419  1.00  0.00     0.164 HD
HETATM   23  C18 UNL     1      23.846  34.629  20.413  1.00  0.00     0.032 A 
ENDBRANCH  13  17
ENDBRANCH  11  13
ENDBRANCH   1  11
BRANCH  10  24
HETATM   24  C9  UNL     1      23.408  43.281  23.499  1.00  0.00     0.127 A 
HETATM   25  C10 UNL     1      22.376  43.991  22.922  1.00  0.00     0.050 A 
HETATM   26  C11 UNL     1      22.117  45.309  23.280  1.00  0.00     0.005 A 
HETATM   27  C12 UNL     1      22.892  45.947  24.231  1.00  0.00     0.017 A 
HETATM   28  C13 UNL     1      23.915  45.205  24.788  1.00  0.00     0.090 A 
HETATM   29  N5  UNL     1      24.144  43.929  24.422  1.00  0.00    -0.351 N 
ATOM     30  H5  UNL     1      24.915  43.428  24.866  1.00  0.00     0.166 HD
ENDBRANCH  10  24
TORSDOF 4
ENDMDL
