MODEL 1
REMARK VINA RESULT: -6.564768354      0.000      0.000
REMARK  3 active torsions:
REMARK  status: ('A' for Active; 'I' for Inactive)
REMARK    1  A    between atoms: C6_7  and  N1_8 
REMARK       I    between atoms: N1_8  and  C7_10 
REMARK       I    between atoms: C7_10  and  N2_12 
REMARK    2  A    between atoms: N2_12  and  C8_14 
REMARK    3  A    between atoms: C13_22  and  C15_24 
ROOT
HETATM    1  C8  UNL     1      22.120  45.259  25.131  1.00  0.00     0.248 C 
HETATM    2  C9  UNL     1      21.898  46.040  23.923  1.00  0.00     0.078 C 
HETATM    3  N3  UNL     1      21.736  46.653  22.952  1.00  0.00    -0.196 NA
ENDROOT
BRANCH   1   4
HETATM    4  N2  UNL     1      23.360  44.531  25.016  1.00  0.00    -0.331 N 
HETATM    5  C7  UNL     1      23.423  43.143  24.745  1.00  0.00     0.321 C 
HETATM    6  N1  UNL     1      24.635  42.462  24.637  1.00  0.00    -0.302 N 
HETATM    7  O1  UNL     1      22.316  42.545  24.603  1.00  0.00    -0.247 OA
ATOM      8  H1  UNL     1      25.514  42.964  24.755  1.00  0.00     0.171 HD
ATOM      9  H2  UNL     1      24.235  45.042  25.135  1.00  0.00     0.165 HD
BRANCH   6  10
HETATM   10  C6  UNL     1      24.644  41.048  24.360  1.00  0.00     0.100 A 
HETATM   11  S1  UNL     1      24.847  39.753  25.447  1.00  0.00    -0.072 SA
HETATM   12  C5  UNL     1      24.735  38.453  24.355  1.00  0.00     0.021 A 
HETATM   13  C4  UNL     1      24.537  39.087  23.143  1.00  0.00     0.012 A 
HETATM   14  C12 UNL     1      24.797  36.954  24.499  1.00  0.00     0.216 C 
HETATM   15  C3  UNL     1      24.418  38.088  22.003  1.00  0.00    -0.015 C 
HETATM   16  C10 UNL     1      24.491  40.426  23.150  1.00  0.00     0.090 A 
HETATM   17  C2  UNL     1      24.961  38.369  20.862  1.00  0.00    -0.020 C 
HETATM   18  C13 UNL     1      23.699  36.887  22.416  1.00  0.00     0.085 C 
HETATM   19  C1  UNL     1      25.018  37.632  19.600  1.00  0.00     0.036 C 
HETATM   20  O2  UNL     1      24.492  36.282  23.391  1.00  0.00    -0.371 OA
HETATM   21  C14 UNL     1      23.473  35.834  21.363  1.00  0.00     0.051 C 
HETATM   22  C11 UNL     1      24.260  41.256  21.950  1.00  0.00     0.103 C 
HETATM   23  N4  UNL     1      24.052  41.924  21.002  1.00  0.00    -0.191 NA
BRANCH  18  24
HETATM   24  C15 UNL     1      22.309  37.163  22.982  1.00  0.00     0.038 C 
HETATM   25  C16 UNL     1      21.555  35.913  23.277  1.00  0.00     0.008 C 
ENDBRANCH  18  24
ENDBRANCH   6  10
ENDBRANCH   1   4
TORSDOF 3
ENDMDL
MODEL 2
REMARK VINA RESULT: -6.548859533      5.087      6.465
REMARK  3 active torsions:
REMARK  status: ('A' for Active; 'I' for Inactive)
REMARK    1  A    between atoms: C6_7  and  N1_8 
REMARK       I    between atoms: N1_8  and  C7_10 
REMARK       I    between atoms: C7_10  and  N2_12 
REMARK    2  A    between atoms: N2_12  and  C8_14 
REMARK    3  A    between atoms: C13_22  and  C15_24 
ROOT
HETATM    1  C8  UNL     1      26.769  40.741  19.539  1.00  0.00     0.248 C 
HETATM    2  C9  UNL     1      27.960  41.192  18.834  1.00  0.00     0.078 C 
HETATM    3  N3  UNL     1      28.913  41.534  18.268  1.00  0.00    -0.196 NA
ENDROOT
BRANCH   1   4
HETATM    4  N2  UNL     1      26.784  39.302  19.644  1.00  0.00    -0.331 N 
HETATM    5  C7  UNL     1      25.614  38.525  19.822  1.00  0.00     0.321 C 
HETATM    6  N1  UNL     1      25.654  37.135  19.919  1.00  0.00    -0.302 N 
HETATM    7  O1  UNL     1      24.520  39.159  19.887  1.00  0.00    -0.247 OA
ATOM      8  H1  UNL     1      26.547  36.645  19.862  1.00  0.00     0.171 HD
ATOM      9  H2  UNL     1      27.682  38.822  19.587  1.00  0.00     0.165 HD
BRANCH   6  10
HETATM   10  C6  UNL     1      24.435  36.389  20.099  1.00  0.00     0.100 A 
HETATM   11  S1  UNL     1      23.418  35.712  18.914  1.00  0.00    -0.072 SA
HETATM   12  C5  UNL     1      22.234  35.022  19.922  1.00  0.00     0.021 A 
HETATM   13  C4  UNL     1      22.682  35.352  21.188  1.00  0.00     0.012 A 
HETATM   14  C12 UNL     1      20.981  34.224  19.675  1.00  0.00     0.216 C 
HETATM   15  C3  UNL     1      21.743  34.830  22.265  1.00  0.00    -0.015 C 
HETATM   16  C10 UNL     1      23.817  36.056  21.275  1.00  0.00     0.090 A 
HETATM   17  C2  UNL     1      21.510  35.565  23.305  1.00  0.00    -0.020 C 
HETATM   18  C13 UNL     1      21.198  33.522  21.913  1.00  0.00     0.085 C 
HETATM   19  C1  UNL     1      20.676  35.347  24.487  1.00  0.00     0.036 C 
HETATM   20  O2  UNL     1      20.419  33.727  20.774  1.00  0.00    -0.371 OA
HETATM   21  C14 UNL     1      20.286  32.873  22.921  1.00  0.00     0.051 C 
HETATM   22  C11 UNL     1      24.447  36.466  22.548  1.00  0.00     0.103 C 
HETATM   23  N4  UNL     1      24.967  36.775  23.558  1.00  0.00    -0.191 NA
BRANCH  18  24
HETATM   24  C15 UNL     1      22.260  32.466  21.625  1.00  0.00     0.038 C 
HETATM   25  C16 UNL     1      21.986  31.177  22.318  1.00  0.00     0.008 C 
ENDBRANCH  18  24
ENDBRANCH   6  10
ENDBRANCH   1   4
TORSDOF 3
ENDMDL
MODEL 3
REMARK VINA RESULT: -6.506995325      3.575      5.771
REMARK  3 active torsions:
REMARK  status: ('A' for Active; 'I' for Inactive)
REMARK    1  A    between atoms: C6_7  and  N1_8 
REMARK       I    between atoms: N1_8  and  C7_10 
REMARK       I    between atoms: C7_10  and  N2_12 
REMARK    2  A    between atoms: N2_12  and  C8_14 
REMARK    3  A    between atoms: C13_22  and  C15_24 
ROOT
HETATM    1  C8  UNL     1      25.424  41.932  19.985  1.00  0.00     0.248 C 
HETATM    2  C9  UNL     1      24.493  42.205  21.070  1.00  0.00     0.078 C 
HETATM    3  N3  UNL     1      23.757  42.406  21.943  1.00  0.00    -0.196 NA
ENDROOT
BRANCH   1   4
HETATM    4  N2  UNL     1      25.904  40.575  20.088  1.00  0.00    -0.331 N 
HETATM    5  C7  UNL     1      25.059  39.444  19.989  1.00  0.00     0.321 C 
HETATM    6  N1  UNL     1      25.547  38.141  20.091  1.00  0.00    -0.302 N 
HETATM    7  O1  UNL     1      23.828  39.673  19.800  1.00  0.00    -0.247 OA
ATOM      8  H1  UNL     1      26.542  37.981  20.243  1.00  0.00     0.171 HD
ATOM      9  H2  UNL     1      26.901  40.425  20.240  1.00  0.00     0.165 HD
BRANCH   6  10
HETATM   10  C6  UNL     1      24.645  37.023  19.983  1.00  0.00     0.100 A 
HETATM   11  S1  UNL     1      24.046  36.273  18.577  1.00  0.00    -0.072 SA
HETATM   12  C5  UNL     1      23.075  35.073  19.293  1.00  0.00     0.021 A 
HETATM   13  C4  UNL     1      23.254  35.302  20.645  1.00  0.00     0.012 A 
HETATM   14  C12 UNL     1      22.203  33.970  18.753  1.00  0.00     0.216 C 
HETATM   15  C3  UNL     1      22.448  34.325  21.487  1.00  0.00    -0.015 C 
HETATM   16  C10 UNL     1      24.064  36.308  20.996  1.00  0.00     0.090 A 
HETATM   17  C2  UNL     1      21.875  34.750  22.566  1.00  0.00    -0.020 C 
HETATM   18  C13 UNL     1      22.422  32.994  20.886  1.00  0.00     0.085 C 
HETATM   19  C1  UNL     1      21.052  34.072  23.567  1.00  0.00     0.036 C 
HETATM   20  O2  UNL     1      21.738  33.133  19.678  1.00  0.00    -0.371 OA
HETATM   21  C14 UNL     1      21.692  31.920  21.648  1.00  0.00     0.051 C 
HETATM   22  C11 UNL     1      24.385  36.668  22.393  1.00  0.00     0.103 C 
HETATM   23  N4  UNL     1      24.664  36.946  23.503  1.00  0.00    -0.191 NA
BRANCH  18  24
HETATM   24  C15 UNL     1      23.805  32.405  20.628  1.00  0.00     0.038 C 
HETATM   25  C16 UNL     1      23.764  30.936  20.392  1.00  0.00     0.008 C 
ENDBRANCH  18  24
ENDBRANCH   6  10
ENDBRANCH   1   4
TORSDOF 3
ENDMDL
MODEL 4
REMARK VINA RESULT: -6.451271820      3.756      6.349
REMARK  3 active torsions:
REMARK  status: ('A' for Active; 'I' for Inactive)
REMARK    1  A    between atoms: C6_7  and  N1_8 
REMARK       I    between atoms: N1_8  and  C7_10 
REMARK       I    between atoms: C7_10  and  N2_12 
REMARK    2  A    between atoms: N2_12  and  C8_14 
REMARK    3  A    between atoms: C13_22  and  C15_24 
ROOT
HETATM    1  C8  UNL     1      30.031  40.366  17.789  1.00  0.00     0.248 C 
HETATM    2  C9  UNL     1      30.084  40.327  16.335  1.00  0.00     0.078 C 
HETATM    3  N3  UNL     1      30.110  40.306  15.176  1.00  0.00    -0.196 NA
ENDROOT
BRANCH   1   4
HETATM    4  N2  UNL     1      28.743  40.859  18.213  1.00  0.00    -0.331 N 
HETATM    5  C7  UNL     1      27.806  40.069  18.923  1.00  0.00     0.321 C 
HETATM    6  N1  UNL     1      26.567  40.568  19.323  1.00  0.00    -0.302 N 
HETATM    7  O1  UNL     1      28.150  38.878  19.179  1.00  0.00    -0.247 OA
ATOM      8  H1  UNL     1      26.312  41.532  19.107  1.00  0.00     0.171 HD
ATOM      9  H2  UNL     1      28.496  41.823  17.992  1.00  0.00     0.165 HD
BRANCH   6  10
HETATM   10  C6  UNL     1      25.648  39.724  20.043  1.00  0.00     0.100 A 
HETATM   11  S1  UNL     1      25.518  38.027  20.014  1.00  0.00    -0.072 SA
HETATM   12  C5  UNL     1      24.230  37.827  21.106  1.00  0.00     0.021 A 
HETATM   13  C4  UNL     1      23.932  39.127  21.470  1.00  0.00     0.012 A 
HETATM   14  C12 UNL     1      23.495  36.631  21.654  1.00  0.00     0.216 C 
HETATM   15  C3  UNL     1      22.775  39.180  22.455  1.00  0.00    -0.015 C 
HETATM   16  C10 UNL     1      24.667  40.103  20.919  1.00  0.00     0.090 A 
HETATM   17  C2  UNL     1      21.902  40.129  22.347  1.00  0.00    -0.020 C 
HETATM   18  C13 UNL     1      22.821  38.066  23.397  1.00  0.00     0.085 C 
HETATM   19  C1  UNL     1      20.704  40.446  23.124  1.00  0.00     0.036 C 
HETATM   20  O2  UNL     1      22.639  36.912  22.634  1.00  0.00    -0.371 OA
HETATM   21  C14 UNL     1      21.753  38.028  24.457  1.00  0.00     0.051 C 
HETATM   22  C11 UNL     1      24.499  41.540  21.220  1.00  0.00     0.103 C 
HETATM   23  N4  UNL     1      24.388  42.685  21.472  1.00  0.00    -0.191 NA
BRANCH  18  24
HETATM   24  C15 UNL     1      24.131  37.966  24.173  1.00  0.00     0.038 C 
HETATM   25  C16 UNL     1      24.387  39.165  25.018  1.00  0.00     0.008 C 
ENDBRANCH  18  24
ENDBRANCH   6  10
ENDBRANCH   1   4
TORSDOF 3
ENDMDL
MODEL 5
REMARK VINA RESULT: -6.412221353      4.851      8.215
REMARK  3 active torsions:
REMARK  status: ('A' for Active; 'I' for Inactive)
REMARK    1  A    between atoms: C6_7  and  N1_8 
REMARK       I    between atoms: N1_8  and  C7_10 
REMARK       I    between atoms: C7_10  and  N2_12 
REMARK    2  A    between atoms: N2_12  and  C8_14 
REMARK    3  A    between atoms: C13_22  and  C15_24 
ROOT
HETATM    1  C8  UNL     1      20.384  32.963  16.712  1.00  0.00     0.248 C 
HETATM    2  C9  UNL     1      20.837  32.969  15.329  1.00  0.00     0.078 C 
HETATM    3  N3  UNL     1      21.216  32.971  14.233  1.00  0.00    -0.196 NA
ENDROOT
BRANCH   1   4
HETATM    4  N2  UNL     1      21.524  32.991  17.595  1.00  0.00    -0.331 N 
HETATM    5  C7  UNL     1      21.613  33.844  18.721  1.00  0.00     0.321 C 
HETATM    6  N1  UNL     1      22.726  33.852  19.561  1.00  0.00    -0.302 N 
HETATM    7  O1  UNL     1      20.623  34.605  18.932  1.00  0.00    -0.247 OA
ATOM      8  H1  UNL     1      23.511  33.229  19.373  1.00  0.00     0.171 HD
ATOM      9  H2  UNL     1      22.305  32.365  17.398  1.00  0.00     0.165 HD
BRANCH   6  10
HETATM   10  C6  UNL     1      22.767  34.739  20.695  1.00  0.00     0.100 A 
HETATM   11  S1  UNL     1      22.057  34.537  22.230  1.00  0.00    -0.072 SA
HETATM   12  C5  UNL     1      22.562  35.986  22.964  1.00  0.00     0.021 A 
HETATM   13  C4  UNL     1      23.288  36.600  21.961  1.00  0.00     0.012 A 
HETATM   14  C12 UNL     1      22.372  36.591  24.331  1.00  0.00     0.216 C 
HETATM   15  C3  UNL     1      23.833  37.947  22.411  1.00  0.00    -0.015 C 
HETATM   16  C10 UNL     1      23.391  35.954  20.793  1.00  0.00     0.090 A 
HETATM   17  C2  UNL     1      23.843  38.933  21.572  1.00  0.00    -0.020 C 
HETATM   18  C13 UNL     1      24.249  37.916  23.810  1.00  0.00     0.085 C 
HETATM   19  C1  UNL     1      24.294  40.318  21.700  1.00  0.00     0.036 C 
HETATM   20  O2  UNL     1      23.087  37.692  24.549  1.00  0.00    -0.371 OA
HETATM   21  C14 UNL     1      24.850  39.179  24.368  1.00  0.00     0.051 C 
HETATM   22  C11 UNL     1      24.152  36.455  19.629  1.00  0.00     0.103 C 
HETATM   23  N4  UNL     1      24.777  36.837  18.706  1.00  0.00    -0.191 NA
BRANCH  18  24
HETATM   24  C15 UNL     1      25.275  36.833  24.126  1.00  0.00     0.038 C 
HETATM   25  C16 UNL     1      26.023  37.106  25.384  1.00  0.00     0.008 C 
ENDBRANCH  18  24
ENDBRANCH   6  10
ENDBRANCH   1   4
TORSDOF 3
ENDMDL
