MODEL 1
REMARK VINA RESULT: -8.009511887      0.000      0.000
REMARK  6 active torsions:
REMARK  status: ('A' for Active; 'I' for Inactive)
REMARK    1  A    between atoms: N2_8  and  S1_9 
REMARK    2  A    between atoms: S1_9  and  C7_12 
REMARK    3  A    between atoms: C12_17  and  N3_18 
REMARK    4  A    between atoms: N3_18  and  N4_20 
REMARK    5  A    between atoms: N4_20  and  C13_22 
REMARK    6  A    between atoms: C13_22  and  C14_23 
ROOT
HETATM    1  N1  UNL     1      -8.004  49.413  39.353  1.00  0.00    -0.197 NA
HETATM    2  C1  UNL     1      -7.815  48.491  38.668  1.00  0.00     0.065 C 
HETATM    3  C2  UNL     1      -7.599  47.356  37.795  1.00  0.00     0.107 C 
HETATM    4  C3  UNL     1      -6.285  47.334  37.087  1.00  0.00     0.020 C 
HETATM    5  C4  UNL     1      -5.097  46.911  37.858  1.00  0.00     0.002 C 
HETATM    6  C5  UNL     1      -5.274  46.795  39.343  1.00  0.00     0.015 C 
HETATM    7  C6  UNL     1      -6.051  45.586  39.701  1.00  0.00     0.107 C 
HETATM    8  N2  UNL     1      -7.504  45.831  39.754  1.00  0.00    -0.205 NA
HETATM    9  C18 UNL     1      -7.966  46.043  38.390  1.00  0.00     0.126 C 
ENDROOT
BRANCH   8  10
HETATM   10  S1  UNL     1      -8.180  44.352  40.307  1.00  0.00     0.246 S 
HETATM   11  O1  UNL     1      -9.481  44.125  39.543  1.00  0.00    -0.206 OA
HETATM   12  O2  UNL     1      -7.305  43.190  39.871  1.00  0.00    -0.206 OA
BRANCH  10  13
HETATM   13  C7  UNL     1      -8.564  44.270  41.984  1.00  0.00     0.102 A 
HETATM   14  C8  UNL     1      -9.289  45.312  42.589  1.00  0.00     0.027 A 
HETATM   15  C9  UNL     1      -9.562  45.374  43.924  1.00  0.00     0.002 A 
HETATM   16  C10 UNL     1      -9.126  44.382  44.764  1.00  0.00     0.002 A 
HETATM   17  C11 UNL     1      -8.416  43.346  44.212  1.00  0.00     0.032 A 
HETATM   18  C12 UNL     1      -8.141  43.289  42.844  1.00  0.00     0.070 A 
BRANCH  18  19
HETATM   19  N3  UNL     1      -7.471  42.117  42.330  1.00  0.00    -0.303 N 
ATOM     20  H3  UNL     1      -7.981  41.332  41.928  1.00  0.00     0.186 HD
BRANCH  19  21
HETATM   21  N4  UNL     1      -6.097  42.132  42.420  1.00  0.00    -0.330 N 
ATOM     22  H4  UNL     1      -5.554  42.968  42.204  1.00  0.00     0.180 HD
BRANCH  21  23
HETATM   23  C13 UNL     1      -5.475  40.923  42.829  1.00  0.00     0.204 C 
BRANCH  23  24
HETATM   24  C14 UNL     1      -4.635  40.397  41.730  1.00  0.00     0.071 A 
HETATM   25  C15 UNL     1      -4.908  40.538  40.381  1.00  0.00     0.036 A 
HETATM   26  C16 UNL     1      -3.891  39.913  39.678  1.00  0.00     0.027 A 
HETATM   27  C17 UNL     1      -3.048  39.421  40.653  1.00  0.00     0.142 A 
HETATM   28  O3  UNL     1      -3.528  39.731  41.854  1.00  0.00    -0.325 OA
ENDBRANCH  23  24
ENDBRANCH  21  23
ENDBRANCH  19  21
ENDBRANCH  18  19
ENDBRANCH  10  13
ENDBRANCH   8  10
TORSDOF 6
ENDMDL
MODEL 2
REMARK VINA RESULT: -7.738913227      1.863      2.662
REMARK  6 active torsions:
REMARK  status: ('A' for Active; 'I' for Inactive)
REMARK    1  A    between atoms: N2_8  and  S1_9 
REMARK    2  A    between atoms: S1_9  and  C7_12 
REMARK    3  A    between atoms: C12_17  and  N3_18 
REMARK    4  A    between atoms: N3_18  and  N4_20 
REMARK    5  A    between atoms: N4_20  and  C13_22 
REMARK    6  A    between atoms: C13_22  and  C14_23 
ROOT
HETATM    1  N1  UNL     1      -5.840  47.096  35.395  1.00  0.00    -0.197 NA
HETATM    2  C1  UNL     1      -5.421  47.229  36.473  1.00  0.00     0.065 C 
HETATM    3  C2  UNL     1      -4.872  47.392  37.804  1.00  0.00     0.107 C 
HETATM    4  C3  UNL     1      -4.889  48.786  38.336  1.00  0.00     0.020 C 
HETATM    5  C4  UNL     1      -6.172  49.311  38.850  1.00  0.00     0.002 C 
HETATM    6  C5  UNL     1      -7.392  48.491  38.549  1.00  0.00     0.015 C 
HETATM    7  C6  UNL     1      -7.447  47.274  39.391  1.00  0.00     0.107 C 
HETATM    8  N2  UNL     1      -6.771  46.117  38.774  1.00  0.00    -0.205 NA
HETATM    9  C18 UNL     1      -5.340  46.382  38.790  1.00  0.00     0.126 C 
ENDROOT
BRANCH   8  10
HETATM   10  S1  UNL     1      -7.070  44.810  39.846  1.00  0.00     0.246 S 
HETATM   11  O1  UNL     1      -6.490  43.550  39.209  1.00  0.00    -0.206 OA
HETATM   12  O2  UNL     1      -6.245  44.980  41.110  1.00  0.00    -0.206 OA
BRANCH  10  13
HETATM   13  C7  UNL     1      -8.722  44.477  40.200  1.00  0.00     0.102 A 
HETATM   14  C8  UNL     1      -9.724  44.849  39.286  1.00  0.00     0.027 A 
HETATM   15  C9  UNL     1     -11.060  44.704  39.520  1.00  0.00     0.002 A 
HETATM   16  C10 UNL     1     -11.498  44.168  40.703  1.00  0.00     0.002 A 
HETATM   17  C11 UNL     1     -10.552  43.791  41.621  1.00  0.00     0.032 A 
HETATM   18  C12 UNL     1      -9.186  43.941  41.375  1.00  0.00     0.070 A 
BRANCH  18  19
HETATM   19  N3  UNL     1      -8.254  43.432  42.353  1.00  0.00    -0.303 N 
ATOM     20  H3  UNL     1      -8.081  43.907  43.239  1.00  0.00     0.186 HD
BRANCH  19  21
HETATM   21  N4  UNL     1      -7.616  42.261  42.012  1.00  0.00    -0.330 N 
ATOM     22  H4  UNL     1      -7.948  41.672  41.248  1.00  0.00     0.180 HD
BRANCH  21  23
HETATM   23  C13 UNL     1      -6.471  41.916  42.778  1.00  0.00     0.204 C 
BRANCH  23  24
HETATM   24  C14 UNL     1      -5.538  41.119  41.950  1.00  0.00     0.071 A 
HETATM   25  C15 UNL     1      -5.723  40.812  40.613  1.00  0.00     0.036 A 
HETATM   26  C16 UNL     1      -4.637  40.055  40.202  1.00  0.00     0.027 A 
HETATM   27  C17 UNL     1      -3.845  39.946  41.327  1.00  0.00     0.142 A 
HETATM   28  O3  UNL     1      -4.418  40.591  42.339  1.00  0.00    -0.325 OA
ENDBRANCH  23  24
ENDBRANCH  21  23
ENDBRANCH  19  21
ENDBRANCH  18  19
ENDBRANCH  10  13
ENDBRANCH   8  10
TORSDOF 6
ENDMDL
MODEL 3
REMARK VINA RESULT: -7.567292821      2.549      5.647
REMARK  6 active torsions:
REMARK  status: ('A' for Active; 'I' for Inactive)
REMARK    1  A    between atoms: N2_8  and  S1_9 
REMARK    2  A    between atoms: S1_9  and  C7_12 
REMARK    3  A    between atoms: C12_17  and  N3_18 
REMARK    4  A    between atoms: N3_18  and  N4_20 
REMARK    5  A    between atoms: N4_20  and  C13_22 
REMARK    6  A    between atoms: C13_22  and  C14_23 
ROOT
HETATM    1  N1  UNL     1      -8.929  47.729  38.825  1.00  0.00    -0.197 NA
HETATM    2  C1  UNL     1      -9.551  47.306  39.713  1.00  0.00     0.065 C 
HETATM    3  C2  UNL     1     -10.327  46.807  40.830  1.00  0.00     0.107 C 
HETATM    4  C3  UNL     1     -11.754  46.495  40.527  1.00  0.00     0.020 C 
HETATM    5  C4  UNL     1     -12.047  45.232  39.818  1.00  0.00     0.002 C 
HETATM    6  C5  UNL     1     -10.868  44.509  39.235  1.00  0.00     0.015 C 
HETATM    7  C6  UNL     1     -10.070  43.840  40.289  1.00  0.00     0.107 C 
HETATM    8  N2  UNL     1      -9.008  44.701  40.841  1.00  0.00    -0.205 NA
HETATM    9  C18 UNL     1      -9.650  45.747  41.624  1.00  0.00     0.126 C 
ENDROOT
BRANCH   8  10
HETATM   10  S1  UNL     1      -8.145  43.693  41.930  1.00  0.00     0.246 S 
HETATM   11  O1  UNL     1      -7.311  44.597  42.833  1.00  0.00    -0.206 OA
HETATM   12  O2  UNL     1      -9.112  43.025  42.891  1.00  0.00    -0.206 OA
BRANCH  10  13
HETATM   13  C7  UNL     1      -7.061  42.558  41.221  1.00  0.00     0.102 A 
HETATM   14  C8  UNL     1      -6.727  41.380  41.914  1.00  0.00     0.027 A 
HETATM   15  C9  UNL     1      -5.814  40.469  41.471  1.00  0.00     0.002 A 
HETATM   16  C10 UNL     1      -5.159  40.671  40.284  1.00  0.00     0.002 A 
HETATM   17  C11 UNL     1      -5.458  41.807  39.576  1.00  0.00     0.032 A 
HETATM   18  C12 UNL     1      -6.395  42.735  40.036  1.00  0.00     0.070 A 
BRANCH  18  19
HETATM   19  N3  UNL     1      -6.721  43.856  39.185  1.00  0.00    -0.303 N 
ATOM     20  H3  UNL     1      -7.633  43.954  38.741  1.00  0.00     0.186 HD
BRANCH  19  21
HETATM   21  N4  UNL     1      -5.716  44.782  39.014  1.00  0.00    -0.330 N 
ATOM     22  H4  UNL     1      -4.911  44.597  38.416  1.00  0.00     0.180 HD
BRANCH  21  23
HETATM   23  C13 UNL     1      -5.860  46.010  39.713  1.00  0.00     0.204 C 
BRANCH  23  24
HETATM   24  C14 UNL     1      -5.367  47.124  38.873  1.00  0.00     0.071 A 
HETATM   25  C15 UNL     1      -5.191  47.070  37.501  1.00  0.00     0.036 A 
HETATM   26  C16 UNL     1      -4.718  48.305  37.089  1.00  0.00     0.027 A 
HETATM   27  C17 UNL     1      -4.634  49.048  38.249  1.00  0.00     0.142 A 
HETATM   28  O3  UNL     1      -5.028  48.308  39.282  1.00  0.00    -0.325 OA
ENDBRANCH  23  24
ENDBRANCH  21  23
ENDBRANCH  19  21
ENDBRANCH  18  19
ENDBRANCH  10  13
ENDBRANCH   8  10
TORSDOF 6
ENDMDL
MODEL 4
REMARK VINA RESULT: -7.438813022      1.711      5.282
REMARK  6 active torsions:
REMARK  status: ('A' for Active; 'I' for Inactive)
REMARK    1  A    between atoms: N2_8  and  S1_9 
REMARK    2  A    between atoms: S1_9  and  C7_12 
REMARK    3  A    between atoms: C12_17  and  N3_18 
REMARK    4  A    between atoms: N3_18  and  N4_20 
REMARK    5  A    between atoms: N4_20  and  C13_22 
REMARK    6  A    between atoms: C13_22  and  C14_23 
ROOT
HETATM    1  N1  UNL     1      -6.049  43.042  43.726  1.00  0.00    -0.197 NA
HETATM    2  C1  UNL     1      -7.190  42.912  43.538  1.00  0.00     0.065 C 
HETATM    3  C2  UNL     1      -8.606  42.719  43.302  1.00  0.00     0.107 C 
HETATM    4  C3  UNL     1      -9.474  42.808  44.512  1.00  0.00     0.020 C 
HETATM    5  C4  UNL     1      -9.790  44.154  45.035  1.00  0.00     0.002 C 
HETATM    6  C5  UNL     1      -8.998  45.292  44.461  1.00  0.00     0.015 C 
HETATM    7  C6  UNL     1      -9.443  45.621  43.087  1.00  0.00     0.107 C 
HETATM    8  N2  UNL     1      -8.716  44.864  42.051  1.00  0.00    -0.205 NA
HETATM    9  C18 UNL     1      -9.143  43.475  42.138  1.00  0.00     0.126 C 
ENDROOT
BRANCH   8  10
HETATM   10  S1  UNL     1      -9.293  45.492  40.561  1.00  0.00     0.246 S 
HETATM   11  O1  UNL     1      -9.882  44.329  39.767  1.00  0.00    -0.206 OA
HETATM   12  O2  UNL     1     -10.490  46.393  40.810  1.00  0.00    -0.206 OA
BRANCH  10  13
HETATM   13  C7  UNL     1      -8.124  46.248  39.549  1.00  0.00     0.102 A 
HETATM   14  C8  UNL     1      -8.466  47.404  38.824  1.00  0.00     0.027 A 
HETATM   15  C9  UNL     1      -7.635  48.018  37.933  1.00  0.00     0.002 A 
HETATM   16  C10 UNL     1      -6.381  47.514  37.700  1.00  0.00     0.002 A 
HETATM   17  C11 UNL     1      -6.008  46.389  38.389  1.00  0.00     0.032 A 
HETATM   18  C12 UNL     1      -6.864  45.766  39.300  1.00  0.00     0.070 A 
BRANCH  18  19
HETATM   19  N3  UNL     1      -6.360  44.642  40.053  1.00  0.00    -0.303 N 
ATOM     20  H3  UNL     1      -6.195  44.690  41.058  1.00  0.00     0.186 HD
BRANCH  19  21
HETATM   21  N4  UNL     1      -6.115  43.500  39.322  1.00  0.00    -0.330 N 
ATOM     22  H4  UNL     1      -5.699  43.537  38.392  1.00  0.00     0.180 HD
BRANCH  21  23
HETATM   23  C13 UNL     1      -6.472  42.268  39.932  1.00  0.00     0.204 C 
BRANCH  23  24
HETATM   24  C14 UNL     1      -5.313  41.350  39.919  1.00  0.00     0.071 A 
HETATM   25  C15 UNL     1      -4.992  40.457  40.928  1.00  0.00     0.036 A 
HETATM   26  C16 UNL     1      -3.844  39.783  40.543  1.00  0.00     0.027 A 
HETATM   27  C17 UNL     1      -3.530  40.311  39.308  1.00  0.00     0.142 A 
HETATM   28  O3  UNL     1      -4.426  41.237  38.978  1.00  0.00    -0.325 OA
ENDBRANCH  23  24
ENDBRANCH  21  23
ENDBRANCH  19  21
ENDBRANCH  18  19
ENDBRANCH  10  13
ENDBRANCH   8  10
TORSDOF 6
ENDMDL
MODEL 5
REMARK VINA RESULT: -7.426303287      1.865      2.451
REMARK  6 active torsions:
REMARK  status: ('A' for Active; 'I' for Inactive)
REMARK    1  A    between atoms: N2_8  and  S1_9 
REMARK    2  A    between atoms: S1_9  and  C7_12 
REMARK    3  A    between atoms: C12_17  and  N3_18 
REMARK    4  A    between atoms: N3_18  and  N4_20 
REMARK    5  A    between atoms: N4_20  and  C13_22 
REMARK    6  A    between atoms: C13_22  and  C14_23 
ROOT
HETATM    1  N1  UNL     1      -5.356  49.406  39.784  1.00  0.00    -0.197 NA
HETATM    2  C1  UNL     1      -6.420  49.356  39.316  1.00  0.00     0.065 C 
HETATM    3  C2  UNL     1      -7.751  49.322  38.744  1.00  0.00     0.107 C 
HETATM    4  C3  UNL     1      -7.816  49.508  37.265  1.00  0.00     0.020 C 
HETATM    5  C4  UNL     1      -7.467  48.353  36.410  1.00  0.00     0.002 C 
HETATM    6  C5  UNL     1      -6.828  47.184  37.102  1.00  0.00     0.015 C 
HETATM    7  C6  UNL     1      -7.819  46.418  37.892  1.00  0.00     0.107 C 
HETATM    8  N2  UNL     1      -7.948  46.903  39.279  1.00  0.00    -0.205 NA
HETATM    9  C18 UNL     1      -8.601  48.203  39.232  1.00  0.00     0.126 C 
ENDROOT
BRANCH   8  10
HETATM   10  S1  UNL     1      -9.031  45.803  40.031  1.00  0.00     0.246 S 
HETATM   11  O1  UNL     1     -10.071  46.626  40.788  1.00  0.00    -0.206 OA
HETATM   12  O2  UNL     1      -9.850  45.083  38.975  1.00  0.00    -0.206 OA
BRANCH  10  13
HETATM   13  C7  UNL     1      -8.340  44.706  41.163  1.00  0.00     0.102 A 
HETATM   14  C8  UNL     1      -8.726  44.756  42.514  1.00  0.00     0.027 A 
HETATM   15  C9  UNL     1      -8.171  43.988  43.495  1.00  0.00     0.002 A 
HETATM   16  C10 UNL     1      -7.173  43.098  43.190  1.00  0.00     0.002 A 
HETATM   17  C11 UNL     1      -6.768  43.018  41.883  1.00  0.00     0.032 A 
HETATM   18  C12 UNL     1      -7.342  43.807  40.884  1.00  0.00     0.070 A 
BRANCH  18  19
HETATM   19  N3  UNL     1      -6.925  43.592  39.519  1.00  0.00    -0.303 N 
ATOM     20  H3  UNL     1      -7.481  43.906  38.724  1.00  0.00     0.186 HD
BRANCH  19  21
HETATM   21  N4  UNL     1      -5.725  42.935  39.362  1.00  0.00    -0.330 N 
ATOM     22  H4  UNL     1      -4.832  43.412  39.484  1.00  0.00     0.180 HD
BRANCH  21  23
HETATM   23  C13 UNL     1      -5.795  41.559  39.020  1.00  0.00     0.204 C 
BRANCH  23  24
HETATM   24  C14 UNL     1      -4.603  40.854  39.539  1.00  0.00     0.071 A 
HETATM   25  C15 UNL     1      -4.541  40.173  40.743  1.00  0.00     0.036 A 
HETATM   26  C16 UNL     1      -3.262  39.654  40.867  1.00  0.00     0.027 A 
HETATM   27  C17 UNL     1      -2.613  40.053  39.716  1.00  0.00     0.142 A 
HETATM   28  O3  UNL     1      -3.445  40.762  38.959  1.00  0.00    -0.325 OA
ENDBRANCH  23  24
ENDBRANCH  21  23
ENDBRANCH  19  21
ENDBRANCH  18  19
ENDBRANCH  10  13
ENDBRANCH   8  10
TORSDOF 6
ENDMDL
