MODEL 1
REMARK VINA RESULT: -7.303418098      0.000      0.000
REMARK  6 active torsions:
REMARK  status: ('A' for Active; 'I' for Inactive)
REMARK       I    between atoms: C1_4  and  N2_5 
REMARK       I    between atoms: C1_4  and  N4_24 
REMARK       I    between atoms: N2_5  and  C2_7 
REMARK    1  A    between atoms: C2_7  and  C3_9 
REMARK    2  A    between atoms: C6_12  and  S1_13 
REMARK    3  A    between atoms: S1_13  and  C7_14 
REMARK    4  A    between atoms: C7_14  and  C8_15 
REMARK    5  A    between atoms: C8_15  and  C9_16 
REMARK    6  A    between atoms: C9_16  and  N3_17 
ROOT
HETATM    1  C3  UNL     1      -7.643  45.251  39.526  1.00  0.00     0.074 A 
HETATM    2  C4  UNL     1      -8.876  44.810  39.916  1.00  0.00     0.026 A 
HETATM    3  C5  UNL     1      -8.928  43.913  40.909  1.00  0.00     0.027 A 
HETATM    4  C6  UNL     1      -7.743  43.510  41.454  1.00  0.00     0.042 A 
HETATM    5  S2  UNL     1      -6.589  44.392  40.567  1.00  0.00    -0.078 SA
ENDROOT
BRANCH   1   6
HETATM    6  C2  UNL     1      -7.292  46.230  38.469  1.00  0.00     0.276 C 
HETATM    7  N2  UNL     1      -5.941  46.419  38.166  1.00  0.00    -0.155 N 
HETATM    8  C1  UNL     1      -5.514  47.321  37.181  1.00  0.00     0.676 C 
ATOM      9  H2  UNL     1      -5.242  45.882  38.680  1.00  0.00     0.187 HD
HETATM   10  N1  UNL     1      -4.214  47.406  36.996  1.00  0.00    -0.234 N 
HETATM   11  N4  UNL     1      -6.356  48.119  36.397  1.00  0.00    -0.218 N 
ATOM     12  H12 UNL     1      -3.601  46.824  37.567  1.00  0.00     0.174 HD
ATOM     13  H11 UNL     1      -3.904  48.062  36.279  1.00  0.00     0.174 HD
HETATM   14  C14 UNL     1      -6.903  47.807  35.111  1.00  0.00     0.141 C 
HETATM   15  C17 UNL     1      -6.793  49.474  36.754  1.00  0.00     0.141 C 
HETATM   16  C15 UNL     1      -7.393  49.095  34.534  1.00  0.00     0.022 C 
HETATM   17  C16 UNL     1      -6.769  50.169  35.379  1.00  0.00     0.022 C 
HETATM   18  O1  UNL     1      -8.220  46.835  37.906  1.00  0.00    -0.266 OA
ENDBRANCH   1   6
BRANCH   4  19
HETATM   19  S1  UNL     1      -7.487  42.332  42.775  1.00  0.00    -0.123 SA
BRANCH  19  20
HETATM   20  C7  UNL     1      -5.714  42.078  43.054  1.00  0.00     0.082 C 
BRANCH  20  21
HETATM   21  C8  UNL     1      -5.301  40.800  42.401  1.00  0.00     0.041 C 
BRANCH  21  22
HETATM   22  C9  UNL     1      -5.736  40.714  40.956  1.00  0.00     0.273 C 
BRANCH  22  23
HETATM   23  N3  UNL     1      -4.698  40.235  40.092  1.00  0.00     0.092 N 
HETATM   24  C10 UNL     1      -4.288  41.328  39.229  1.00  0.00     0.298 C 
HETATM   25  C11 UNL     1      -3.278  40.856  38.200  1.00  0.00     0.198 C 
HETATM   26  O2  UNL     1      -2.470  39.841  38.706  1.00  0.00    -0.388 OA
HETATM   27  C12 UNL     1      -2.308  40.074  40.065  1.00  0.00     0.198 C 
HETATM   28  C13 UNL     1      -3.575  39.681  40.796  1.00  0.00     0.298 C 
ENDBRANCH  22  23
ENDBRANCH  21  22
ENDBRANCH  20  21
ENDBRANCH  19  20
ENDBRANCH   4  19
TORSDOF 6
ENDMDL
MODEL 2
REMARK VINA RESULT: -7.298306875      1.057      1.244
REMARK  6 active torsions:
REMARK  status: ('A' for Active; 'I' for Inactive)
REMARK       I    between atoms: C1_4  and  N2_5 
REMARK       I    between atoms: C1_4  and  N4_24 
REMARK       I    between atoms: N2_5  and  C2_7 
REMARK    1  A    between atoms: C2_7  and  C3_9 
REMARK    2  A    between atoms: C6_12  and  S1_13 
REMARK    3  A    between atoms: S1_13  and  C7_14 
REMARK    4  A    between atoms: C7_14  and  C8_15 
REMARK    5  A    between atoms: C8_15  and  C9_16 
REMARK    6  A    between atoms: C9_16  and  N3_17 
ROOT
HETATM    1  C3  UNL     1      -7.285  45.784  39.328  1.00  0.00     0.074 A 
HETATM    2  C4  UNL     1      -8.571  45.425  39.615  1.00  0.00     0.026 A 
HETATM    3  C5  UNL     1      -8.758  44.470  40.536  1.00  0.00     0.027 A 
HETATM    4  C6  UNL     1      -7.646  43.931  41.116  1.00  0.00     0.042 A 
HETATM    5  S2  UNL     1      -6.371  44.769  40.362  1.00  0.00    -0.078 SA
ENDROOT
BRANCH   1   6
HETATM    6  C2  UNL     1      -6.790  46.798  38.366  1.00  0.00     0.276 C 
HETATM    7  N2  UNL     1      -6.366  46.364  37.108  1.00  0.00    -0.155 N 
HETATM    8  C1  UNL     1      -5.885  47.250  36.134  1.00  0.00     0.676 C 
ATOM      9  H2  UNL     1      -6.408  45.368  36.891  1.00  0.00     0.187 HD
HETATM   10  N1  UNL     1      -5.515  46.712  34.991  1.00  0.00    -0.234 N 
HETATM   11  N4  UNL     1      -5.775  48.638  36.287  1.00  0.00    -0.218 N 
ATOM     12  H12 UNL     1      -5.596  45.702  34.879  1.00  0.00     0.174 HD
ATOM     13  H11 UNL     1      -5.166  47.357  34.282  1.00  0.00     0.174 HD
HETATM   14  C14 UNL     1      -6.745  49.632  35.943  1.00  0.00     0.141 C 
HETATM   15  C17 UNL     1      -4.586  49.329  36.801  1.00  0.00     0.141 C 
HETATM   16  C15 UNL     1      -6.024  50.942  35.927  1.00  0.00     0.022 C 
HETATM   17  C16 UNL     1      -4.564  50.588  35.913  1.00  0.00     0.022 C 
HETATM   18  O1  UNL     1      -6.777  47.986  38.731  1.00  0.00    -0.266 OA
ENDBRANCH   1   6
BRANCH   4  19
HETATM   19  S1  UNL     1      -7.569  42.649  42.360  1.00  0.00    -0.123 SA
BRANCH  19  20
HETATM   20  C7  UNL     1      -5.865  42.443  42.945  1.00  0.00     0.082 C 
BRANCH  20  21
HETATM   21  C8  UNL     1      -5.331  41.149  42.425  1.00  0.00     0.041 C 
BRANCH  21  22
HETATM   22  C9  UNL     1      -5.907  40.774  41.079  1.00  0.00     0.273 C 
BRANCH  22  23
HETATM   23  N3  UNL     1      -4.906  40.355  40.145  1.00  0.00     0.092 N 
HETATM   24  C10 UNL     1      -4.524  41.505  39.345  1.00  0.00     0.298 C 
HETATM   25  C11 UNL     1      -3.557  41.104  38.247  1.00  0.00     0.198 C 
HETATM   26  O2  UNL     1      -2.735  40.054  38.649  1.00  0.00    -0.388 OA
HETATM   27  C12 UNL     1      -2.519  40.191  40.013  1.00  0.00     0.198 C 
HETATM   28  C13 UNL     1      -3.758  39.750  40.764  1.00  0.00     0.298 C 
ENDBRANCH  22  23
ENDBRANCH  21  22
ENDBRANCH  20  21
ENDBRANCH  19  20
ENDBRANCH   4  19
TORSDOF 6
ENDMDL
MODEL 3
REMARK VINA RESULT: -7.116654658      1.739      2.238
REMARK  6 active torsions:
REMARK  status: ('A' for Active; 'I' for Inactive)
REMARK       I    between atoms: C1_4  and  N2_5 
REMARK       I    between atoms: C1_4  and  N4_24 
REMARK       I    between atoms: N2_5  and  C2_7 
REMARK    1  A    between atoms: C2_7  and  C3_9 
REMARK    2  A    between atoms: C6_12  and  S1_13 
REMARK    3  A    between atoms: S1_13  and  C7_14 
REMARK    4  A    between atoms: C7_14  and  C8_15 
REMARK    5  A    between atoms: C8_15  and  C9_16 
REMARK    6  A    between atoms: C9_16  and  N3_17 
ROOT
HETATM    1  C3  UNL     1      -8.192  46.698  38.879  1.00  0.00     0.074 A 
HETATM    2  C4  UNL     1      -9.274  47.105  39.608  1.00  0.00     0.026 A 
HETATM    3  C5  UNL     1      -9.706  46.293  40.581  1.00  0.00     0.027 A 
HETATM    4  C6  UNL     1      -9.030  45.122  40.769  1.00  0.00     0.042 A 
HETATM    5  S2  UNL     1      -7.811  45.184  39.584  1.00  0.00    -0.078 SA
ENDROOT
BRANCH   1   6
HETATM    6  C2  UNL     1      -7.508  47.387  37.758  1.00  0.00     0.276 C 
HETATM    7  N2  UNL     1      -6.633  46.643  36.962  1.00  0.00    -0.155 N 
HETATM    8  C1  UNL     1      -5.943  47.208  35.880  1.00  0.00     0.676 C 
ATOM      9  H2  UNL     1      -6.492  45.656  37.175  1.00  0.00     0.187 HD
HETATM   10  N1  UNL     1      -5.149  46.400  35.211  1.00  0.00    -0.234 N 
HETATM   11  N4  UNL     1      -6.041  48.543  35.467  1.00  0.00    -0.218 N 
ATOM     12  H12 UNL     1      -5.078  45.427  35.512  1.00  0.00     0.174 HD
ATOM     13  H11 UNL     1      -4.647  46.811  34.424  1.00  0.00     0.174 HD
HETATM   14  C14 UNL     1      -6.933  49.091  34.491  1.00  0.00     0.141 C 
HETATM   15  C17 UNL     1      -5.181  49.631  35.951  1.00  0.00     0.141 C 
HETATM   16  C15 UNL     1      -6.394  50.438  34.131  1.00  0.00     0.022 C 
HETATM   17  C16 UNL     1      -4.990  50.456  34.663  1.00  0.00     0.022 C 
HETATM   18  O1  UNL     1      -7.747  48.594  37.586  1.00  0.00    -0.266 OA
ENDBRANCH   1   6
BRANCH   4  19
HETATM   19  S1  UNL     1      -9.366  43.842  41.972  1.00  0.00    -0.123 SA
BRANCH  19  20
HETATM   20  C7  UNL     1      -8.175  43.934  43.336  1.00  0.00     0.082 C 
BRANCH  20  21
HETATM   21  C8  UNL     1      -6.839  43.485  42.841  1.00  0.00     0.041 C 
BRANCH  21  22
HETATM   22  C9  UNL     1      -6.505  42.071  43.257  1.00  0.00     0.273 C 
BRANCH  22  23
HETATM   23  N3  UNL     1      -6.187  41.227  42.144  1.00  0.00     0.092 N 
HETATM   24  C10 UNL     1      -6.048  42.064  40.966  1.00  0.00     0.298 C 
HETATM   25  C11 UNL     1      -5.837  41.219  39.723  1.00  0.00     0.198 C 
HETATM   26  O2  UNL     1      -5.129  40.056  40.011  1.00  0.00    -0.388 OA
HETATM   27  C12 UNL     1      -4.249  40.347  41.044  1.00  0.00     0.198 C 
HETATM   28  C13 UNL     1      -5.014  40.422  42.349  1.00  0.00     0.298 C 
ENDBRANCH  22  23
ENDBRANCH  21  22
ENDBRANCH  20  21
ENDBRANCH  19  20
ENDBRANCH   4  19
TORSDOF 6
ENDMDL
MODEL 4
REMARK VINA RESULT: -6.971424446      1.682      2.348
REMARK  6 active torsions:
REMARK  status: ('A' for Active; 'I' for Inactive)
REMARK       I    between atoms: C1_4  and  N2_5 
REMARK       I    between atoms: C1_4  and  N4_24 
REMARK       I    between atoms: N2_5  and  C2_7 
REMARK    1  A    between atoms: C2_7  and  C3_9 
REMARK    2  A    between atoms: C6_12  and  S1_13 
REMARK    3  A    between atoms: S1_13  and  C7_14 
REMARK    4  A    between atoms: C7_14  and  C8_15 
REMARK    5  A    between atoms: C8_15  and  C9_16 
REMARK    6  A    between atoms: C9_16  and  N3_17 
ROOT
HETATM    1  C3  UNL     1      -8.293  46.687  39.033  1.00  0.00     0.074 A 
HETATM    2  C4  UNL     1      -9.404  47.099  39.713  1.00  0.00     0.026 A 
HETATM    3  C5  UNL     1      -9.874  46.296  40.676  1.00  0.00     0.027 A 
HETATM    4  C6  UNL     1      -9.204  45.128  40.903  1.00  0.00     0.042 A 
HETATM    5  S2  UNL     1      -7.938  45.181  39.767  1.00  0.00    -0.078 SA
ENDROOT
BRANCH   1   6
HETATM    6  C2  UNL     1      -7.565  47.366  37.934  1.00  0.00     0.276 C 
HETATM    7  N2  UNL     1      -6.585  46.646  37.246  1.00  0.00    -0.155 N 
HETATM    8  C1  UNL     1      -5.847  47.204  36.192  1.00  0.00     0.676 C 
ATOM      9  H2  UNL     1      -6.401  45.681  37.521  1.00  0.00     0.187 HD
HETATM   10  N1  UNL     1      -4.953  46.419  35.630  1.00  0.00    -0.234 N 
HETATM   11  N4  UNL     1      -5.994  48.508  35.705  1.00  0.00    -0.218 N 
ATOM     12  H12 UNL     1      -4.846  45.469  35.985  1.00  0.00     0.174 HD
ATOM     13  H11 UNL     1      -4.417  46.825  34.864  1.00  0.00     0.174 HD
HETATM   14  C14 UNL     1      -6.837  48.949  34.636  1.00  0.00     0.141 C 
HETATM   15  C17 UNL     1      -5.245  49.672  36.196  1.00  0.00     0.141 C 
HETATM   16  C15 UNL     1      -6.356  50.311  34.249  1.00  0.00     0.022 C 
HETATM   17  C16 UNL     1      -5.003  50.446  34.886  1.00  0.00     0.022 C 
HETATM   18  O1  UNL     1      -7.864  48.546  37.680  1.00  0.00    -0.266 OA
ENDBRANCH   1   6
BRANCH   4  19
HETATM   19  S1  UNL     1      -9.586  43.859  42.103  1.00  0.00    -0.123 SA
BRANCH  19  20
HETATM   20  C7  UNL     1      -8.220  43.677  43.280  1.00  0.00     0.082 C 
BRANCH  20  21
HETATM   21  C8  UNL     1      -7.624  42.316  43.121  1.00  0.00     0.041 C 
BRANCH  21  22
HETATM   22  C9  UNL     1      -6.123  42.308  43.302  1.00  0.00     0.273 C 
BRANCH  22  23
HETATM   23  N3  UNL     1      -5.426  41.872  42.130  1.00  0.00     0.092 N 
HETATM   24  C10 UNL     1      -4.970  40.512  42.354  1.00  0.00     0.298 C 
HETATM   25  C11 UNL     1      -4.111  40.031  41.200  1.00  0.00     0.198 C 
HETATM   26  O2  UNL     1      -4.523  40.586  39.991  1.00  0.00    -0.388 OA
HETATM   27  C12 UNL     1      -5.899  40.762  40.059  1.00  0.00     0.198 C 
HETATM   28  C13 UNL     1      -6.208  41.964  40.928  1.00  0.00     0.298 C 
ENDBRANCH  22  23
ENDBRANCH  21  22
ENDBRANCH  20  21
ENDBRANCH  19  20
ENDBRANCH   4  19
TORSDOF 6
ENDMDL
MODEL 5
REMARK VINA RESULT: -6.953478410      1.188      1.623
REMARK  6 active torsions:
REMARK  status: ('A' for Active; 'I' for Inactive)
REMARK       I    between atoms: C1_4  and  N2_5 
REMARK       I    between atoms: C1_4  and  N4_24 
REMARK       I    between atoms: N2_5  and  C2_7 
REMARK    1  A    between atoms: C2_7  and  C3_9 
REMARK    2  A    between atoms: C6_12  and  S1_13 
REMARK    3  A    between atoms: S1_13  and  C7_14 
REMARK    4  A    between atoms: C7_14  and  C8_15 
REMARK    5  A    between atoms: C8_15  and  C9_16 
REMARK    6  A    between atoms: C9_16  and  N3_17 
ROOT
HETATM    1  C3  UNL     1      -7.334  46.166  39.385  1.00  0.00     0.074 A 
HETATM    2  C4  UNL     1      -8.547  46.162  40.014  1.00  0.00     0.026 A 
HETATM    3  C5  UNL     1      -8.748  45.242  40.967  1.00  0.00     0.027 A 
HETATM    4  C6  UNL     1      -7.723  44.381  41.234  1.00  0.00     0.042 A 
HETATM    5  S2  UNL     1      -6.508  44.876  40.151  1.00  0.00    -0.078 SA
ENDROOT
BRANCH   1   6
HETATM    6  C2  UNL     1      -6.842  47.061  38.309  1.00  0.00     0.276 C 
HETATM    7  N2  UNL     1      -6.354  46.477  37.137  1.00  0.00    -0.155 N 
HETATM    8  C1  UNL     1      -5.871  47.242  36.066  1.00  0.00     0.676 C 
ATOM      9  H2  UNL     1      -6.350  45.460  37.059  1.00  0.00     0.187 HD
HETATM   10  N1  UNL     1      -5.438  46.569  35.021  1.00  0.00    -0.234 N 
HETATM   11  N4  UNL     1      -5.819  48.641  36.030  1.00  0.00    -0.218 N 
ATOM     12  H12 UNL     1      -5.475  45.550  35.047  1.00  0.00     0.174 HD
ATOM     13  H11 UNL     1      -5.086  47.126  34.242  1.00  0.00     0.174 HD
HETATM   14  C14 UNL     1      -6.813  49.536  35.520  1.00  0.00     0.141 C 
HETATM   15  C17 UNL     1      -4.677  49.446  36.481  1.00  0.00     0.141 C 
HETATM   16  C15 UNL     1      -6.142  50.861  35.348  1.00  0.00     0.022 C 
HETATM   17  C16 UNL     1      -4.671  50.572  35.430  1.00  0.00     0.022 C 
HETATM   18  O1  UNL     1      -6.888  48.286  38.506  1.00  0.00    -0.266 OA
ENDBRANCH   1   6
BRANCH   4  19
HETATM   19  S1  UNL     1      -7.690  43.055  42.433  1.00  0.00    -0.123 SA
BRANCH  19  20
HETATM   20  C7  UNL     1      -6.113  42.164  42.340  1.00  0.00     0.082 C 
BRANCH  20  21
HETATM   21  C8  UNL     1      -6.344  40.842  41.684  1.00  0.00     0.041 C 
BRANCH  21  22
HETATM   22  C9  UNL     1      -5.981  40.845  40.217  1.00  0.00     0.273 C 
BRANCH  22  23
HETATM   23  N3  UNL     1      -4.578  41.030  39.993  1.00  0.00     0.092 N 
HETATM   24  C10 UNL     1      -3.916  39.754  40.190  1.00  0.00     0.298 C 
HETATM   25  C11 UNL     1      -2.410  39.905  40.094  1.00  0.00     0.198 C 
HETATM   26  O2  UNL     1      -2.053  40.901  39.189  1.00  0.00    -0.388 OA
HETATM   27  C12 UNL     1      -3.011  40.916  38.185  1.00  0.00     0.198 C 
HETATM   28  C13 UNL     1      -4.269  41.580  38.702  1.00  0.00     0.298 C 
ENDBRANCH  22  23
ENDBRANCH  21  22
ENDBRANCH  20  21
ENDBRANCH  19  20
ENDBRANCH   4  19
TORSDOF 6
ENDMDL
