MODEL 1
REMARK VINA RESULT: -3.551193537      0.000      0.000
REMARK  1 active torsions:
REMARK  status: ('A' for Active; 'I' for Inactive)
REMARK    1  A    between atoms: O1_1  and  C1_3 
ROOT
HETATM    1  C1  UNL     1       8.706  -4.922  -0.264  1.00  0.00     0.116 C 
HETATM    2  S1  UNL     1       7.912  -6.333   0.506  1.00  0.00    -0.056 SA
HETATM    3  C2  UNL     1       8.718  -5.169  -1.779  1.00  0.00     0.050 C 
HETATM    4  C3  UNL     1       9.661  -4.035  -2.197  1.00  0.00     0.004 C 
HETATM    5  C4  UNL     1      10.834  -4.327  -1.250  1.00  0.00     0.004 C 
HETATM    6  C5  UNL     1      10.159  -4.796   0.035  1.00  0.00     0.050 C 
ENDROOT
BRANCH   1   7
HETATM    7  O1  UNL     1       7.981  -3.767   0.013  1.00  0.00    -0.379 OA
ATOM      8  H1  UNL     1       8.428  -3.012  -0.352  1.00  0.00     0.211 HD
ENDBRANCH   1   7
TORSDOF 1
ENDMDL
MODEL 2
REMARK VINA RESULT: -3.375695094      2.008      2.914
REMARK  1 active torsions:
REMARK  status: ('A' for Active; 'I' for Inactive)
REMARK    1  A    between atoms: O1_1  and  C1_3 
ROOT
HETATM    1  C1  UNL     1       8.921  -4.486  -1.395  1.00  0.00     0.116 C 
HETATM    2  S1  UNL     1      10.172  -3.634  -2.356  1.00  0.00    -0.056 SA
HETATM    3  C2  UNL     1       9.602  -5.037  -0.135  1.00  0.00     0.050 C 
HETATM    4  C3  UNL     1       8.471  -5.939   0.372  1.00  0.00     0.004 C 
HETATM    5  C4  UNL     1       8.206  -6.745  -0.908  1.00  0.00     0.004 C 
HETATM    6  C5  UNL     1       8.401  -5.729  -2.028  1.00  0.00     0.050 C 
ENDROOT
BRANCH   1   7
HETATM    7  O1  UNL     1       7.921  -3.590  -1.028  1.00  0.00    -0.379 OA
ATOM      8  H1  UNL     1       8.259  -2.702  -1.060  1.00  0.00     0.211 HD
ENDBRANCH   1   7
TORSDOF 1
ENDMDL
MODEL 3
REMARK VINA RESULT: -3.276289559      1.829      2.324
REMARK  1 active torsions:
REMARK  status: ('A' for Active; 'I' for Inactive)
REMARK    1  A    between atoms: O1_1  and  C1_3 
ROOT
HETATM    1  C1  UNL     1       9.543  -5.932   0.024  1.00  0.00     0.116 C 
HETATM    2  S1  UNL     1       9.793  -7.700  -0.131  1.00  0.00    -0.056 SA
HETATM    3  C2  UNL     1       8.065  -5.703   0.368  1.00  0.00     0.050 C 
HETATM    4  C3  UNL     1       8.008  -4.184   0.171  1.00  0.00     0.004 C 
HETATM    5  C4  UNL     1       8.605  -4.095  -1.241  1.00  0.00     0.004 C 
HETATM    6  C5  UNL     1       9.678  -5.179  -1.254  1.00  0.00     0.050 C 
ENDROOT
BRANCH   1   7
HETATM    7  O1  UNL     1      10.342  -5.434   1.048  1.00  0.00    -0.379 OA
ATOM      8  H1  UNL     1      10.891  -6.129   1.393  1.00  0.00     0.211 HD
ENDBRANCH   1   7
TORSDOF 1
ENDMDL
MODEL 4
REMARK VINA RESULT: -3.260924838      1.781      2.156
REMARK  1 active torsions:
REMARK  status: ('A' for Active; 'I' for Inactive)
REMARK    1  A    between atoms: O1_1  and  C1_3 
ROOT
HETATM    1  C1  UNL     1       8.630  -6.110   0.275  1.00  0.00     0.116 C 
HETATM    2  S1  UNL     1       7.664  -7.215   1.304  1.00  0.00    -0.056 SA
HETATM    3  C2  UNL     1       7.899  -4.761   0.233  1.00  0.00     0.050 C 
HETATM    4  C3  UNL     1       8.702  -4.090  -0.886  1.00  0.00     0.004 C 
HETATM    5  C4  UNL     1       8.592  -5.183  -1.960  1.00  0.00     0.004 C 
HETATM    6  C5  UNL     1       8.662  -6.484  -1.166  1.00  0.00     0.050 C 
ENDROOT
BRANCH   1   7
HETATM    7  O1  UNL     1       9.894  -5.936   0.831  1.00  0.00    -0.379 OA
ATOM      8  H1  UNL     1      10.416  -6.717   0.689  1.00  0.00     0.211 HD
ENDBRANCH   1   7
TORSDOF 1
ENDMDL
MODEL 5
REMARK VINA RESULT: -3.182248993      2.319      2.842
REMARK  1 active torsions:
REMARK  status: ('A' for Active; 'I' for Inactive)
REMARK    1  A    between atoms: O1_1  and  C1_3 
ROOT
HETATM    1  C1  UNL     1       9.174  -4.715  -1.616  1.00  0.00     0.116 C 
HETATM    2  S1  UNL     1      10.165  -3.465  -2.434  1.00  0.00    -0.056 SA
HETATM    3  C2  UNL     1       8.480  -4.045  -0.422  1.00  0.00     0.050 C 
HETATM    4  C3  UNL     1       7.945  -5.300   0.277  1.00  0.00     0.004 C 
HETATM    5  C4  UNL     1       9.247  -6.111   0.359  1.00  0.00     0.004 C 
HETATM    6  C5  UNL     1       9.965  -5.785  -0.947  1.00  0.00     0.050 C 
ENDROOT
BRANCH   1   7
HETATM    7  O1  UNL     1       8.214  -5.203  -2.498  1.00  0.00    -0.379 OA
ATOM      8  H1  UNL     1       7.420  -5.416  -2.021  1.00  0.00     0.211 HD
ENDBRANCH   1   7
TORSDOF 1
ENDMDL
