MODEL 1
REMARK VINA RESULT: -4.652484308      0.000      0.000
REMARK  1 active torsions:
REMARK  status: ('A' for Active; 'I' for Inactive)
REMARK    1  A    between atoms: O1_1  and  N1_3 
ROOT
HETATM    1  N1  UNL     1       3.922 -27.960 -31.578  1.00  0.00    -0.276 N 
ATOM      2  H1  UNL     1       3.460 -27.143 -31.180  1.00  0.00     0.193 HD
HETATM    3  C1  UNL     1       4.295 -27.892 -32.807  1.00  0.00     0.024 C 
HETATM    4  C2  UNL     1       4.104 -26.718 -33.687  1.00  0.00     0.056 C 
HETATM    5  C3  UNL     1       4.211 -27.241 -35.091  1.00  0.00     0.007 C 
HETATM    6  C4  UNL     1       4.906 -28.577 -35.020  1.00  0.00     0.022 C 
HETATM    7  C5  UNL     1       4.979 -28.965 -33.564  1.00  0.00     0.105 C 
HETATM    8 BR1  UNL     1       6.814 -29.187 -32.981  1.00  0.00    -0.085 Br
ENDROOT
BRANCH   1   9
HETATM    9  O1  UNL     1       4.097 -29.035 -30.773  1.00  0.00    -0.290 OA
ATOM     10  H1  UNL     1       4.209 -29.930 -31.074  1.00  0.00     0.244 HD
ENDBRANCH   1   9
TORSDOF 1
ENDMDL
MODEL 2
REMARK VINA RESULT: -4.649644120      2.041      2.497
REMARK  1 active torsions:
REMARK  status: ('A' for Active; 'I' for Inactive)
REMARK    1  A    between atoms: O1_1  and  N1_3 
ROOT
HETATM    1  N1  UNL     1       5.726 -30.344 -30.438  1.00  0.00    -0.276 N 
ATOM      2  H1  UNL     1       5.510 -30.155 -29.459  1.00  0.00     0.193 HD
HETATM    3  C1  UNL     1       5.339 -29.482 -31.310  1.00  0.00     0.024 C 
HETATM    4  C2  UNL     1       4.604 -28.236 -31.001  1.00  0.00     0.056 C 
HETATM    5  C3  UNL     1       3.941 -27.826 -32.286  1.00  0.00     0.007 C 
HETATM    6  C4  UNL     1       4.650 -28.546 -33.405  1.00  0.00     0.022 C 
HETATM    7  C5  UNL     1       5.556 -29.574 -32.772  1.00  0.00     0.105 C 
HETATM    8 BR1  UNL     1       7.411 -29.266 -33.237  1.00  0.00    -0.085 Br
ENDROOT
BRANCH   1   9
HETATM    9  O1  UNL     1       6.399 -31.485 -30.720  1.00  0.00    -0.290 OA
ATOM     10  H1  UNL     1       6.201 -32.340 -30.354  1.00  0.00     0.244 HD
ENDBRANCH   1   9
TORSDOF 1
ENDMDL
MODEL 3
REMARK VINA RESULT: -4.487406365      3.059      3.752
REMARK  1 active torsions:
REMARK  status: ('A' for Active; 'I' for Inactive)
REMARK    1  A    between atoms: O1_1  and  N1_3 
ROOT
HETATM    1  N1  UNL     1       6.146 -31.069 -30.929  1.00  0.00    -0.276 N 
ATOM      2  H1  UNL     1       6.187 -32.061 -30.691  1.00  0.00     0.193 HD
HETATM    3  C1  UNL     1       6.611 -30.713 -32.073  1.00  0.00     0.024 C 
HETATM    4  C2  UNL     1       7.203 -31.631 -33.071  1.00  0.00     0.056 C 
HETATM    5  C3  UNL     1       8.037 -30.767 -33.974  1.00  0.00     0.007 C 
HETATM    6  C4  UNL     1       7.568 -29.346 -33.793  1.00  0.00     0.022 C 
HETATM    7  C5  UNL     1       6.641 -29.330 -32.602  1.00  0.00     0.105 C 
HETATM    8 BR1  UNL     1       4.870 -28.717 -33.090  1.00  0.00    -0.085 Br
ENDROOT
BRANCH   1   9
HETATM    9  O1  UNL     1       5.604 -30.229 -30.015  1.00  0.00    -0.290 OA
ATOM     10  H1  UNL     1       5.631 -30.357 -29.074  1.00  0.00     0.244 HD
ENDBRANCH   1   9
TORSDOF 1
ENDMDL
MODEL 4
REMARK VINA RESULT: -4.483466488      2.713      3.149
REMARK  1 active torsions:
REMARK  status: ('A' for Active; 'I' for Inactive)
REMARK    1  A    between atoms: O1_1  and  N1_3 
ROOT
HETATM    1  N1  UNL     1       6.430 -31.209 -30.757  1.00  0.00    -0.276 N 
ATOM      2  H1  UNL     1       6.309 -30.912 -29.788  1.00  0.00     0.193 HD
HETATM    3  C1  UNL     1       6.029 -30.408 -31.679  1.00  0.00     0.024 C 
HETATM    4  C2  UNL     1       5.403 -29.089 -31.442  1.00  0.00     0.056 C 
HETATM    5  C3  UNL     1       4.663 -28.756 -32.707  1.00  0.00     0.007 C 
HETATM    6  C4  UNL     1       5.230 -29.629 -33.799  1.00  0.00     0.022 C 
HETATM    7  C5  UNL     1       6.117 -30.654 -33.137  1.00  0.00     0.105 C 
HETATM    8 BR1  UNL     1       7.943 -30.526 -33.770  1.00  0.00    -0.085 Br
ENDROOT
BRANCH   1   9
HETATM    9  O1  UNL     1       7.004 -32.417 -30.973  1.00  0.00    -0.290 OA
ATOM     10  H1  UNL     1       6.808 -32.989 -31.707  1.00  0.00     0.244 HD
ENDBRANCH   1   9
TORSDOF 1
ENDMDL
MODEL 5
REMARK VINA RESULT: -4.459552251      2.306      2.949
REMARK  1 active torsions:
REMARK  status: ('A' for Active; 'I' for Inactive)
REMARK    1  A    between atoms: O1_1  and  N1_3 
ROOT
HETATM    1  N1  UNL     1       3.580 -26.833 -32.940  1.00  0.00    -0.276 N 
ATOM      2  H1  UNL     1       2.748 -26.673 -32.371  1.00  0.00     0.193 HD
HETATM    3  C1  UNL     1       4.310 -27.851 -32.651  1.00  0.00     0.024 C 
HETATM    4  C2  UNL     1       4.037 -28.809 -31.558  1.00  0.00     0.056 C 
HETATM    5  C3  UNL     1       5.347 -29.488 -31.274  1.00  0.00     0.007 C 
HETATM    6  C4  UNL     1       6.233 -29.271 -32.474  1.00  0.00     0.022 C 
HETATM    7  C5  UNL     1       5.551 -28.252 -33.355  1.00  0.00     0.105 C 
HETATM    8 BR1  UNL     1       5.170 -28.975 -35.111  1.00  0.00    -0.085 Br
ENDROOT
BRANCH   1   9
HETATM    9  O1  UNL     1       3.831 -25.956 -33.941  1.00  0.00    -0.290 OA
ATOM     10  H1  UNL     1       4.677 -25.828 -34.354  1.00  0.00     0.244 HD
ENDBRANCH   1   9
TORSDOF 1
ENDMDL
