MODEL 1
REMARK VINA RESULT: -5.729387319      0.000      0.000
REMARK  2 active torsions:
REMARK  status: ('A' for Active; 'I' for Inactive)
REMARK    1  A    between atoms: O1_3  and  N2_4 
REMARK    2  A    between atoms: C5_9  and  O2_10 
ROOT
HETATM    1  N1  UNL     1       8.093 -32.683 -31.471  1.00  0.00    -0.162 NA
HETATM    2  C1  UNL     1       7.405 -31.753 -31.520  1.00  0.00     0.253 C 
HETATM    3  O1  UNL     1       6.603 -30.628 -31.574  1.00  0.00    -0.159 OA
ENDROOT
BRANCH   3   4
HETATM    4  N2  UNL     1       6.576 -29.976 -32.788  1.00  0.00    -0.258 N 
HETATM    5  C2  UNL     1       5.535 -29.345 -33.167  1.00  0.00     0.011 C 
HETATM    6  C3  UNL     1       5.569 -28.662 -34.486  1.00  0.00     0.057 C 
HETATM    7  C7  UNL     1       4.338 -29.295 -32.324  1.00  0.00     0.057 C 
HETATM    8  C4  UNL     1       4.203 -27.986 -34.647  1.00  0.00     0.037 C 
HETATM    9  C5  UNL     1       4.038 -27.072 -33.457  1.00  0.00     0.118 C 
HETATM   10  C6  UNL     1       3.783 -27.881 -32.216  1.00  0.00     0.037 C 
ATOM     11  H2  UNL     1       7.399 -29.999 -33.390  1.00  0.00     0.195 HD
BRANCH   9  12
HETATM   12  O2  UNL     1       3.033 -26.156 -33.710  1.00  0.00    -0.396 OA
ATOM     13  H2  UNL     1       3.002 -25.514 -33.011  1.00  0.00     0.210 HD
ENDBRANCH   9  12
ENDBRANCH   3   4
TORSDOF 2
ENDMDL
MODEL 2
REMARK VINA RESULT: -5.465665621      1.244      2.025
REMARK  2 active torsions:
REMARK  status: ('A' for Active; 'I' for Inactive)
REMARK    1  A    between atoms: O1_3  and  N2_4 
REMARK    2  A    between atoms: C5_9  and  O2_10 
ROOT
HETATM    1  N1  UNL     1       7.141 -31.877 -30.772  1.00  0.00    -0.162 NA
HETATM    2  C1  UNL     1       6.588 -31.392 -31.668  1.00  0.00     0.253 C 
HETATM    3  O1  UNL     1       5.911 -30.828 -32.733  1.00  0.00    -0.159 OA
ENDROOT
BRANCH   3   4
HETATM    4  N2  UNL     1       5.048 -29.803 -32.412  1.00  0.00    -0.258 N 
HETATM    5  C2  UNL     1       4.917 -28.794 -33.179  1.00  0.00     0.011 C 
HETATM    6  C3  UNL     1       3.971 -27.722 -32.777  1.00  0.00     0.057 C 
HETATM    7  C7  UNL     1       5.682 -28.695 -34.425  1.00  0.00     0.057 C 
HETATM    8  C4  UNL     1       4.019 -26.674 -33.894  1.00  0.00     0.037 C 
HETATM    9  C5  UNL     1       3.662 -27.397 -35.170  1.00  0.00     0.118 C 
HETATM   10  C6  UNL     1       4.798 -28.283 -35.597  1.00  0.00     0.037 C 
ATOM     11  H2  UNL     1       4.507 -29.852 -31.548  1.00  0.00     0.195 HD
BRANCH   9  12
HETATM   12  O2  UNL     1       3.312 -26.478 -36.143  1.00  0.00    -0.396 OA
ATOM     13  H2  UNL     1       2.700 -25.848 -35.781  1.00  0.00     0.210 HD
ENDBRANCH   9  12
ENDBRANCH   3   4
TORSDOF 2
ENDMDL
MODEL 3
REMARK VINA RESULT: -5.441606853      1.277      1.352
REMARK  2 active torsions:
REMARK  status: ('A' for Active; 'I' for Inactive)
REMARK    1  A    between atoms: O1_3  and  N2_4 
REMARK    2  A    between atoms: C5_9  and  O2_10 
ROOT
HETATM    1  N1  UNL     1       7.938 -32.034 -33.690  1.00  0.00    -0.162 NA
HETATM    2  C1  UNL     1       7.415 -31.125 -33.198  1.00  0.00     0.253 C 
HETATM    3  O1  UNL     1       6.813 -30.028 -32.609  1.00  0.00    -0.159 OA
ENDROOT
BRANCH   3   4
HETATM    4  N2  UNL     1       6.423 -29.030 -33.475  1.00  0.00    -0.258 N 
HETATM    5  C2  UNL     1       5.250 -28.535 -33.416  1.00  0.00     0.011 C 
HETATM    6  C3  UNL     1       4.891 -27.460 -34.378  1.00  0.00     0.057 C 
HETATM    7  C7  UNL     1       4.282 -29.014 -32.427  1.00  0.00     0.057 C 
HETATM    8  C4  UNL     1       3.449 -27.062 -34.048  1.00  0.00     0.037 C 
HETATM    9  C5  UNL     1       3.443 -26.651 -32.596  1.00  0.00     0.118 C 
HETATM   10  C6  UNL     1       3.586 -27.860 -31.715  1.00  0.00     0.037 C 
ATOM     11  H2  UNL     1       7.082 -28.683 -34.173  1.00  0.00     0.195 HD
BRANCH   9  12
HETATM   12  O2  UNL     1       2.295 -25.928 -32.322  1.00  0.00    -0.396 OA
ATOM     13  H2  UNL     1       1.658 -26.066 -33.013  1.00  0.00     0.210 HD
ENDBRANCH   9  12
ENDBRANCH   3   4
TORSDOF 2
ENDMDL
MODEL 4
REMARK VINA RESULT: -5.423424161      3.043      5.120
REMARK  2 active torsions:
REMARK  status: ('A' for Active; 'I' for Inactive)
REMARK    1  A    between atoms: O1_3  and  N2_4 
REMARK    2  A    between atoms: C5_9  and  O2_10 
ROOT
HETATM    1  N1  UNL     1       3.064 -26.595 -37.051  1.00  0.00    -0.162 NA
HETATM    2  C1  UNL     1       3.757 -26.800 -36.146  1.00  0.00     0.253 C 
HETATM    3  O1  UNL     1       4.590 -27.021 -35.065  1.00  0.00    -0.159 OA
ENDROOT
BRANCH   3   4
HETATM    4  N2  UNL     1       4.015 -26.837 -33.826  1.00  0.00    -0.258 N 
HETATM    5  C2  UNL     1       4.002 -27.777 -32.965  1.00  0.00     0.011 C 
HETATM    6  C3  UNL     1       3.367 -27.515 -31.648  1.00  0.00     0.057 C 
HETATM    7  C7  UNL     1       4.596 -29.081 -33.269  1.00  0.00     0.057 C 
HETATM    8  C4  UNL     1       3.526 -28.806 -30.838  1.00  0.00     0.037 C 
HETATM    9  C5  UNL     1       5.006 -29.099 -30.790  1.00  0.00     0.118 C 
HETATM   10  C6  UNL     1       5.483 -29.575 -32.133  1.00  0.00     0.037 C 
ATOM     11  H2  UNL     1       3.595 -25.936 -33.595  1.00  0.00     0.195 HD
BRANCH   9  12
HETATM   12  O2  UNL     1       5.267 -30.009 -29.781  1.00  0.00    -0.396 OA
ATOM     13  H2  UNL     1       4.785 -29.766 -28.999  1.00  0.00     0.210 HD
ENDBRANCH   9  12
ENDBRANCH   3   4
TORSDOF 2
ENDMDL
MODEL 5
REMARK VINA RESULT: -5.076432914      1.311      2.044
REMARK  2 active torsions:
REMARK  status: ('A' for Active; 'I' for Inactive)
REMARK    1  A    between atoms: O1_3  and  N2_4 
REMARK    2  A    between atoms: C5_9  and  O2_10 
ROOT
HETATM    1  N1  UNL     1       7.048 -33.209 -32.556  1.00  0.00    -0.162 NA
HETATM    2  C1  UNL     1       7.003 -32.263 -31.889  1.00  0.00     0.253 C 
HETATM    3  O1  UNL     1       6.954 -31.120 -31.111  1.00  0.00    -0.159 OA
ENDROOT
BRANCH   3   4
HETATM    4  N2  UNL     1       5.753 -30.446 -31.123  1.00  0.00    -0.258 N 
HETATM    5  C2  UNL     1       5.531 -29.521 -31.972  1.00  0.00     0.011 C 
HETATM    6  C3  UNL     1       4.216 -28.831 -31.933  1.00  0.00     0.057 C 
HETATM    7  C7  UNL     1       6.548 -29.148 -32.959  1.00  0.00     0.057 C 
HETATM    8  C4  UNL     1       4.243 -27.804 -33.068  1.00  0.00     0.037 C 
HETATM    9  C5  UNL     1       4.524 -28.577 -34.334  1.00  0.00     0.118 C 
HETATM   10  C6  UNL     1       5.957 -29.028 -34.358  1.00  0.00     0.037 C 
ATOM     11  H2  UNL     1       5.032 -30.689 -30.443  1.00  0.00     0.195 HD
BRANCH   9  12
HETATM   12  O2  UNL     1       4.192 -27.805 -35.434  1.00  0.00    -0.396 OA
ATOM     13  H2  UNL     1       3.969 -28.370 -36.164  1.00  0.00     0.210 HD
ENDBRANCH   9  12
ENDBRANCH   3   4
TORSDOF 2
ENDMDL
