MODEL 1
REMARK VINA RESULT: -7.834744212      0.000      0.000
REMARK  5 active torsions:
REMARK  status: ('A' for Active; 'I' for Inactive)
REMARK    1  A    between atoms: C3_3  and  C4_4 
REMARK    2  A    between atoms: C5_5  and  C6_6 
REMARK    3  A    between atoms: C6_6  and  C7_8 
REMARK       I    between atoms: N1_9  and  C8_11 
REMARK    4  A    between atoms: C8_11  and  O3_13 
REMARK    5  A    between atoms: O3_13  and  C9_14 
ROOT
HETATM    1  C4  UNL     1       4.835  11.016  43.362  1.00  0.00     0.012 C 
HETATM    2  C5  UNL     1       5.489  10.177  44.045  1.00  0.00     0.057 C 
ENDROOT
BRANCH   2   3
HETATM    3  C6  UNL     1       6.563   9.935  44.933  1.00  0.00     0.187 C 
HETATM    4  O1  UNL     1       6.876  10.456  46.014  1.00  0.00    -0.287 OA
BRANCH   3   5
HETATM    5  C7  UNL     1       7.545   8.855  44.551  1.00  0.00     0.148 C 
HETATM    6  N1  UNL     1       8.047   8.146  45.482  1.00  0.00    -0.309 N 
HETATM    7  C8  UNL     1       8.975   7.125  45.136  1.00  0.00     0.364 C 
ATOM      8  H1  UNL     1       7.790   8.307  46.455  1.00  0.00     0.170 HD
HETATM    9  O2  UNL     1       9.316   6.227  45.975  1.00  0.00    -0.238 OA
BRANCH   7  10
HETATM   10  O3  UNL     1       9.561   7.040  43.881  1.00  0.00    -0.299 OA
BRANCH  10  11
HETATM   11  C9  UNL     1       9.551   5.825  43.130  1.00  0.00     0.125 C 
HETATM   12  C10 UNL     1      10.568   5.904  42.004  1.00  0.00     0.040 C 
HETATM   13  C11 UNL     1       8.177   5.746  42.480  1.00  0.00     0.040 C 
ENDBRANCH  10  11
ENDBRANCH   7  10
ENDBRANCH   3   5
ENDBRANCH   2   3
BRANCH   1  14
HETATM   14  C3  UNL     1       4.658  12.353  42.949  1.00  0.00    -0.048 C 
HETATM   15  C2  UNL     1       4.564  12.570  41.586  1.00  0.00    -0.077 C 
HETATM   16  C1  UNL     1       4.639  11.472  40.610  1.00  0.00     0.044 C 
HETATM   17  C17 UNL     1       4.417  13.940  41.056  1.00  0.00     0.034 C 
HETATM   18  C16 UNL     1       3.484  14.825  41.810  1.00  0.00     0.005 C 
HETATM   19  C15 UNL     1       3.320  14.423  43.225  1.00  0.00     0.014 C 
HETATM   20  C12 UNL     1       4.529  13.582  43.713  1.00  0.00    -0.020 C 
HETATM   21  C13 UNL     1       4.411  13.507  45.202  1.00  0.00     0.020 C 
HETATM   22  C14 UNL     1       5.763  14.433  43.434  1.00  0.00     0.020 C 
ENDBRANCH   1  14
TORSDOF 5
ENDMDL
MODEL 2
REMARK VINA RESULT: -7.749408481      1.854      3.240
REMARK  5 active torsions:
REMARK  status: ('A' for Active; 'I' for Inactive)
REMARK    1  A    between atoms: C3_3  and  C4_4 
REMARK    2  A    between atoms: C5_5  and  C6_6 
REMARK    3  A    between atoms: C6_6  and  C7_8 
REMARK       I    between atoms: N1_9  and  C8_11 
REMARK    4  A    between atoms: C8_11  and  O3_13 
REMARK    5  A    between atoms: O3_13  and  C9_14 
ROOT
HETATM    1  C4  UNL     1       6.112  10.375  46.255  1.00  0.00     0.012 C 
HETATM    2  C5  UNL     1       6.916   9.462  46.600  1.00  0.00     0.057 C 
ENDROOT
BRANCH   2   3
HETATM    3  C6  UNL     1       8.012   8.639  46.250  1.00  0.00     0.187 C 
HETATM    4  O1  UNL     1       9.146   8.521  46.737  1.00  0.00    -0.287 OA
BRANCH   3   5
HETATM    5  C7  UNL     1       7.830   7.710  45.075  1.00  0.00     0.148 C 
HETATM    6  N1  UNL     1       8.800   6.945  44.762  1.00  0.00    -0.309 N 
HETATM    7  C8  UNL     1       8.643   6.064  43.656  1.00  0.00     0.364 C 
ATOM      8  H1  UNL     1       9.670   6.963  45.293  1.00  0.00     0.170 HD
HETATM    9  O2  UNL     1       9.461   5.108  43.448  1.00  0.00    -0.238 OA
BRANCH   7  10
HETATM   10  O3  UNL     1       7.604   6.186  42.744  1.00  0.00    -0.299 OA
BRANCH  10  11
HETATM   11  C9  UNL     1       7.841   6.523  41.377  1.00  0.00     0.125 C 
HETATM   12  C10 UNL     1       7.124   7.816  41.030  1.00  0.00     0.040 C 
HETATM   13  C11 UNL     1       7.189   5.420  40.554  1.00  0.00     0.040 C 
ENDBRANCH  10  11
ENDBRANCH   7  10
ENDBRANCH   3   5
ENDBRANCH   2   3
BRANCH   1  14
HETATM   14  C3  UNL     1       5.675  11.283  45.268  1.00  0.00    -0.048 C 
HETATM   15  C2  UNL     1       4.690  12.177  45.645  1.00  0.00    -0.077 C 
HETATM   16  C1  UNL     1       4.123  12.193  47.002  1.00  0.00     0.044 C 
HETATM   17  C17 UNL     1       4.142  13.140  44.669  1.00  0.00     0.034 C 
HETATM   18  C16 UNL     1       5.141  13.784  43.769  1.00  0.00     0.005 C 
HETATM   19  C15 UNL     1       6.366  12.972  43.589  1.00  0.00     0.014 C 
HETATM   20  C12 UNL     1       6.097  11.475  43.890  1.00  0.00    -0.020 C 
HETATM   21  C13 UNL     1       7.287  10.727  43.379  1.00  0.00     0.020 C 
HETATM   22  C14 UNL     1       4.934  11.075  42.990  1.00  0.00     0.020 C 
ENDBRANCH   1  14
TORSDOF 5
ENDMDL
MODEL 3
REMARK VINA RESULT: -7.671351857      4.746      8.190
REMARK  5 active torsions:
REMARK  status: ('A' for Active; 'I' for Inactive)
REMARK    1  A    between atoms: C3_3  and  C4_4 
REMARK    2  A    between atoms: C5_5  and  C6_6 
REMARK    3  A    between atoms: C6_6  and  C7_8 
REMARK       I    between atoms: N1_9  and  C8_11 
REMARK    4  A    between atoms: C8_11  and  O3_13 
REMARK    5  A    between atoms: O3_13  and  C9_14 
ROOT
HETATM    1  C4  UNL     1       4.466  12.939  44.466  1.00  0.00     0.012 C 
HETATM    2  C5  UNL     1       4.178  14.002  43.844  1.00  0.00     0.057 C 
ENDROOT
BRANCH   2   3
HETATM    3  C6  UNL     1       4.522  14.924  42.828  1.00  0.00     0.187 C 
HETATM    4  O1  UNL     1       5.404  15.794  42.765  1.00  0.00    -0.287 OA
BRANCH   3   5
HETATM    5  C7  UNL     1       3.702  14.895  41.562  1.00  0.00     0.148 C 
HETATM    6  N1  UNL     1       3.705  15.932  40.823  1.00  0.00    -0.309 N 
HETATM    7  C8  UNL     1       2.936  15.919  39.627  1.00  0.00     0.364 C 
ATOM      8  H1  UNL     1       4.248  16.755  41.083  1.00  0.00     0.170 HD
HETATM    9  O2  UNL     1       3.093  16.810  38.728  1.00  0.00    -0.238 OA
BRANCH   7  10
HETATM   10  O3  UNL     1       1.979  14.949  39.363  1.00  0.00    -0.299 OA
BRANCH  10  11
HETATM   11  C9  UNL     1       2.033  14.142  38.185  1.00  0.00     0.125 C 
HETATM   12  C10 UNL     1       0.642  14.002  37.590  1.00  0.00     0.040 C 
HETATM   13  C11 UNL     1       2.459  12.756  38.647  1.00  0.00     0.040 C 
ENDBRANCH  10  11
ENDBRANCH   7  10
ENDBRANCH   3   5
ENDBRANCH   2   3
BRANCH   1  14
HETATM   14  C3  UNL     1       5.343  11.847  44.639  1.00  0.00    -0.048 C 
HETATM   15  C2  UNL     1       5.538  11.412  45.937  1.00  0.00    -0.077 C 
HETATM   16  C1  UNL     1       4.869  12.044  47.084  1.00  0.00     0.044 C 
HETATM   17  C17 UNL     1       6.467  10.301  46.221  1.00  0.00     0.034 C 
HETATM   18  C16 UNL     1       6.410   9.155  45.270  1.00  0.00     0.005 C 
HETATM   19  C15 UNL     1       5.900   9.536  43.933  1.00  0.00     0.014 C 
HETATM   20  C12 UNL     1       6.085  11.054  43.673  1.00  0.00    -0.020 C 
HETATM   21  C13 UNL     1       5.837  11.260  42.213  1.00  0.00     0.020 C 
HETATM   22  C14 UNL     1       7.568  11.331  43.889  1.00  0.00     0.020 C 
ENDBRANCH   1  14
TORSDOF 5
ENDMDL
MODEL 4
REMARK VINA RESULT: -7.630576035      6.014      9.661
REMARK  5 active torsions:
REMARK  status: ('A' for Active; 'I' for Inactive)
REMARK    1  A    between atoms: C3_3  and  C4_4 
REMARK    2  A    between atoms: C5_5  and  C6_6 
REMARK    3  A    between atoms: C6_6  and  C7_8 
REMARK       I    between atoms: N1_9  and  C8_11 
REMARK    4  A    between atoms: C8_11  and  O3_13 
REMARK    5  A    between atoms: O3_13  and  C9_14 
ROOT
HETATM    1  C4  UNL     1       4.035  13.220  40.956  1.00  0.00     0.012 C 
HETATM    2  C5  UNL     1       3.433  14.117  40.300  1.00  0.00     0.057 C 
ENDROOT
BRANCH   2   3
HETATM    3  C6  UNL     1       2.865  15.412  40.287  1.00  0.00     0.187 C 
HETATM    4  O1  UNL     1       2.282  16.069  41.163  1.00  0.00    -0.287 OA
BRANCH   3   5
HETATM    5  C7  UNL     1       2.951  16.191  38.997  1.00  0.00     0.148 C 
HETATM    6  N1  UNL     1       2.264  15.783  38.005  1.00  0.00    -0.309 N 
HETATM    7  C8  UNL     1       2.335  16.508  36.783  1.00  0.00     0.364 C 
ATOM      8  H1  UNL     1       1.674  14.956  38.086  1.00  0.00     0.170 HD
HETATM    9  O2  UNL     1       1.495  16.310  35.845  1.00  0.00    -0.238 OA
BRANCH   7  10
HETATM   10  O3  UNL     1       3.311  17.464  36.536  1.00  0.00    -0.299 OA
BRANCH  10  11
HETATM   11  C9  UNL     1       2.973  18.814  36.214  1.00  0.00     0.125 C 
HETATM   12  C10 UNL     1       3.273  19.088  34.750  1.00  0.00     0.040 C 
HETATM   13  C11 UNL     1       3.916  19.687  37.031  1.00  0.00     0.040 C 
ENDBRANCH  10  11
ENDBRANCH   7  10
ENDBRANCH   3   5
ENDBRANCH   2   3
BRANCH   1  14
HETATM   14  C3  UNL     1       4.612  12.805  42.175  1.00  0.00    -0.048 C 
HETATM   15  C2  UNL     1       4.826  11.446  42.326  1.00  0.00    -0.077 C 
HETATM   16  C1  UNL     1       4.478  10.477  41.275  1.00  0.00     0.044 C 
HETATM   17  C17 UNL     1       5.389  10.914  43.582  1.00  0.00     0.034 C 
HETATM   18  C16 UNL     1       6.503  11.704  44.175  1.00  0.00     0.005 C 
HETATM   19  C15 UNL     1       6.480  13.130  43.774  1.00  0.00     0.014 C 
HETATM   20  C12 UNL     1       5.059  13.565  43.331  1.00  0.00    -0.020 C 
HETATM   21  C13 UNL     1       5.084  15.058  43.258  1.00  0.00     0.020 C 
HETATM   22  C14 UNL     1       4.139  13.218  44.497  1.00  0.00     0.020 C 
ENDBRANCH   1  14
TORSDOF 5
ENDMDL
MODEL 5
REMARK VINA RESULT: -7.475317658      2.264      3.462
REMARK  5 active torsions:
REMARK  status: ('A' for Active; 'I' for Inactive)
REMARK    1  A    between atoms: C3_3  and  C4_4 
REMARK    2  A    between atoms: C5_5  and  C6_6 
REMARK    3  A    between atoms: C6_6  and  C7_8 
REMARK       I    between atoms: N1_9  and  C8_11 
REMARK    4  A    between atoms: C8_11  and  O3_13 
REMARK    5  A    between atoms: O3_13  and  C9_14 
ROOT
HETATM    1  C4  UNL     1       5.096  11.040  41.759  1.00  0.00     0.012 C 
HETATM    2  C5  UNL     1       5.727  10.415  40.859  1.00  0.00     0.057 C 
ENDROOT
BRANCH   2   3
HETATM    3  C6  UNL     1       6.970   9.940  40.380  1.00  0.00     0.187 C 
HETATM    4  O1  UNL     1       7.499   9.992  39.259  1.00  0.00    -0.287 OA
BRANCH   3   5
HETATM    5  C7  UNL     1       7.865   9.229  41.365  1.00  0.00     0.148 C 
HETATM    6  N1  UNL     1       8.672   8.352  40.916  1.00  0.00    -0.309 N 
HETATM    7  C8  UNL     1       9.521   7.674  41.834  1.00  0.00     0.364 C 
ATOM      8  H1  UNL     1       8.710   8.142  39.919  1.00  0.00     0.170 HD
HETATM    9  O2  UNL     1      10.513   6.981  41.432  1.00  0.00    -0.238 OA
BRANCH   7  10
HETATM   10  O3  UNL     1       9.327   7.721  43.207  1.00  0.00    -0.299 OA
BRANCH  10  11
HETATM   11  C9  UNL     1       8.847   6.591  43.937  1.00  0.00     0.125 C 
HETATM   12  C10 UNL     1       7.365   6.394  43.670  1.00  0.00     0.040 C 
HETATM   13  C11 UNL     1       8.988   6.952  45.409  1.00  0.00     0.040 C 
ENDBRANCH  10  11
ENDBRANCH   7  10
ENDBRANCH   3   5
ENDBRANCH   2   3
BRANCH   1  14
HETATM   14  C3  UNL     1       5.128  11.747  42.979  1.00  0.00    -0.048 C 
HETATM   15  C2  UNL     1       4.578  13.016  42.972  1.00  0.00    -0.077 C 
HETATM   16  C1  UNL     1       3.984  13.605  41.762  1.00  0.00     0.044 C 
HETATM   17  C17 UNL     1       4.600  13.847  44.192  1.00  0.00     0.034 C 
HETATM   18  C16 UNL     1       4.294  13.133  45.463  1.00  0.00     0.005 C 
HETATM   19  C15 UNL     1       4.588  11.683  45.399  1.00  0.00     0.014 C 
HETATM   20  C12 UNL     1       5.628  11.370  44.291  1.00  0.00    -0.020 C 
HETATM   21  C13 UNL     1       6.076   9.962  44.526  1.00  0.00     0.020 C 
HETATM   22  C14 UNL     1       6.835  12.249  44.598  1.00  0.00     0.020 C 
ENDBRANCH   1  14
TORSDOF 5
ENDMDL
