MODEL 1
REMARK VINA RESULT: -6.130216949      0.000      0.000
REMARK  2 active torsions:
REMARK  status: ('A' for Active; 'I' for Inactive)
REMARK    1  A    between atoms: N5_14  and  S1_16 
REMARK    2  A    between atoms: S1_16  and  N6_17 
ROOT
HETATM    1  N1  UNL     1      65.955 -10.218   3.752  1.00  0.00    -0.382 N 
ATOM      2  H11 UNL     1      65.697 -10.522   2.814  1.00  0.00     0.157 HD
ATOM      3  H12 UNL     1      65.519 -10.706   4.534  1.00  0.00     0.157 HD
HETATM    4  C1  UNL     1      66.784  -9.272   3.801  1.00  0.00     0.149 A 
HETATM    5  N2  UNL     1      67.131  -8.864   5.065  1.00  0.00    -0.291 N 
ATOM      6  H2  UNL     1      66.702  -9.343   5.857  1.00  0.00     0.172 HD
HETATM    7  C2  UNL     1      67.991  -7.883   5.321  1.00  0.00     0.340 A 
HETATM    8  O1  UNL     1      68.268  -7.553   6.503  1.00  0.00    -0.245 OA
HETATM    9  N3  UNL     1      68.546  -7.262   4.268  1.00  0.00    -0.250 N 
ATOM     10  H3  UNL     1      69.209  -6.505   4.435  1.00  0.00     0.192 HD
HETATM   11  N4  UNL     1      68.267  -7.594   3.043  1.00  0.00    -0.278 N 
ATOM     12  H4  UNL     1      68.717  -7.091   2.278  1.00  0.00     0.189 HD
HETATM   13  C3  UNL     1      67.372  -8.616   2.748  1.00  0.00     0.175 A 
HETATM   14  N5  UNL     1      67.148  -8.885   1.561  1.00  0.00    -0.249 N 
ATOM     15  H5  UNL     1      67.710  -8.253   0.990  1.00  0.00     0.182 HD
ENDROOT
BRANCH  14  16
HETATM   16  S1  UNL     1      66.308  -9.853   0.548  1.00  0.00     0.318 S 
HETATM   17  O2  UNL     1      66.130 -11.305   0.967  1.00  0.00    -0.183 OA
HETATM   18  O3  UNL     1      64.959  -9.254   0.141  1.00  0.00    -0.183 OA
BRANCH  16  19
HETATM   19  N6  UNL     1      67.242  -9.962  -0.968  1.00  0.00    -0.311 N 
ATOM     20  H62 UNL     1      67.389  -9.201  -1.633  1.00  0.00     0.170 HD
ATOM     21  H61 UNL     1      67.593 -10.917  -1.036  1.00  0.00     0.170 HD
ENDBRANCH  16  19
ENDBRANCH  14  16
TORSDOF 2
ENDMDL
MODEL 2
REMARK VINA RESULT: -6.023248743      1.240      2.219
REMARK  2 active torsions:
REMARK  status: ('A' for Active; 'I' for Inactive)
REMARK    1  A    between atoms: N5_14  and  S1_16 
REMARK    2  A    between atoms: S1_16  and  N6_17 
ROOT
HETATM    1  N1  UNL     1      68.226  -7.571   2.563  1.00  0.00    -0.382 N 
ATOM      2  H11 UNL     1      67.884  -7.874   1.651  1.00  0.00     0.157 HD
ATOM      3  H12 UNL     1      68.890  -6.796   2.576  1.00  0.00     0.157 HD
HETATM    4  C1  UNL     1      67.768  -8.209   3.547  1.00  0.00     0.149 A 
HETATM    5  N2  UNL     1      68.228  -7.800   4.774  1.00  0.00    -0.291 N 
ATOM      6  H2  UNL     1      68.893  -7.026   4.802  1.00  0.00     0.172 HD
HETATM    7  C2  UNL     1      67.861  -8.348   5.927  1.00  0.00     0.340 A 
HETATM    8  O1  UNL     1      68.319  -7.929   7.022  1.00  0.00    -0.245 OA
HETATM    9  N3  UNL     1      66.986  -9.365   5.873  1.00  0.00    -0.250 N 
ATOM     10  H3  UNL     1      66.687  -9.805   6.744  1.00  0.00     0.192 HD
HETATM   11  N4  UNL     1      66.507  -9.806   4.749  1.00  0.00    -0.278 N 
ATOM     12  H4  UNL     1      65.844 -10.581   4.763  1.00  0.00     0.189 HD
HETATM   13  C3  UNL     1      66.874  -9.250   3.529  1.00  0.00     0.175 A 
HETATM   14  N5  UNL     1      66.382  -9.715   2.493  1.00  0.00    -0.249 N 
ATOM     15  H5  UNL     1      65.756 -10.473   2.762  1.00  0.00     0.182 HD
ENDROOT
BRANCH  14  16
HETATM   16  S1  UNL     1      66.341  -9.592   0.864  1.00  0.00     0.318 S 
HETATM   17  O2  UNL     1      65.331  -8.622   0.268  1.00  0.00    -0.183 OA
HETATM   18  O3  UNL     1      67.725  -9.351   0.254  1.00  0.00    -0.183 OA
BRANCH  16  19
HETATM   19  N6  UNL     1      65.827 -11.179   0.232  1.00  0.00    -0.311 N 
ATOM     20  H62 UNL     1      65.141 -11.798   0.664  1.00  0.00     0.170 HD
ATOM     21  H61 UNL     1      66.347 -11.340  -0.631  1.00  0.00     0.170 HD
ENDBRANCH  16  19
ENDBRANCH  14  16
TORSDOF 2
ENDMDL
MODEL 3
REMARK VINA RESULT: -5.965270197      2.237      4.998
REMARK  2 active torsions:
REMARK  status: ('A' for Active; 'I' for Inactive)
REMARK    1  A    between atoms: N5_14  and  S1_16 
REMARK    2  A    between atoms: S1_16  and  N6_17 
ROOT
HETATM    1  N1  UNL     1      65.257  -7.789   3.961  1.00  0.00    -0.382 N 
ATOM      2  H11 UNL     1      65.704  -7.623   4.862  1.00  0.00     0.157 HD
ATOM      3  H12 UNL     1      64.289  -7.485   3.860  1.00  0.00     0.157 HD
HETATM    4  C1  UNL     1      65.980  -8.353   3.099  1.00  0.00     0.149 A 
HETATM    5  N2  UNL     1      65.378  -8.577   1.886  1.00  0.00    -0.291 N 
ATOM      6  H2  UNL     1      64.409  -8.278   1.771  1.00  0.00     0.172 HD
HETATM    7  C2  UNL     1      65.977  -9.158   0.852  1.00  0.00     0.340 A 
HETATM    8  O1  UNL     1      65.371  -9.337  -0.236  1.00  0.00    -0.245 OA
HETATM    9  N3  UNL     1      67.252  -9.546   1.020  1.00  0.00    -0.250 N 
ATOM     10  H3  UNL     1      67.737  -9.996   0.244  1.00  0.00     0.192 HD
HETATM   11  N4  UNL     1      67.888  -9.368   2.139  1.00  0.00    -0.278 N 
ATOM     12  H4  UNL     1      68.856  -9.681   2.215  1.00  0.00     0.189 HD
HETATM   13  C3  UNL     1      67.284  -8.762   3.235  1.00  0.00     0.175 A 
HETATM   14  N5  UNL     1      67.943  -8.620   4.273  1.00  0.00    -0.249 N 
ATOM     15  H5  UNL     1      68.872  -9.007   4.104  1.00  0.00     0.182 HD
ENDROOT
BRANCH  14  16
HETATM   16  S1  UNL     1      67.911  -8.059   5.807  1.00  0.00     0.318 S 
HETATM   17  O2  UNL     1      69.236  -8.016   6.555  1.00  0.00    -0.183 OA
HETATM   18  O3  UNL     1      67.196  -6.710   5.929  1.00  0.00    -0.183 OA
BRANCH  16  19
HETATM   19  N6  UNL     1      66.922  -9.195   6.762  1.00  0.00    -0.311 N 
ATOM     20  H62 UNL     1      67.276  -9.857   7.452  1.00  0.00     0.170 HD
ATOM     21  H61 UNL     1      65.951  -9.053   6.484  1.00  0.00     0.170 HD
ENDBRANCH  16  19
ENDBRANCH  14  16
TORSDOF 2
ENDMDL
MODEL 4
REMARK VINA RESULT: -5.896531252      2.110      2.809
REMARK  2 active torsions:
REMARK  status: ('A' for Active; 'I' for Inactive)
REMARK    1  A    between atoms: N5_14  and  S1_16 
REMARK    2  A    between atoms: S1_16  and  N6_17 
ROOT
HETATM    1  N1  UNL     1      65.266  -6.975   2.942  1.00  0.00    -0.382 N 
ATOM      2  H11 UNL     1      64.919  -7.893   2.667  1.00  0.00     0.157 HD
ATOM      3  H12 UNL     1      64.571  -6.248   3.113  1.00  0.00     0.157 HD
HETATM    4  C1  UNL     1      66.517  -6.878   3.028  1.00  0.00     0.149 A 
HETATM    5  N2  UNL     1      66.984  -5.641   3.398  1.00  0.00    -0.291 N 
ATOM      6  H2  UNL     1      66.300  -4.904   3.572  1.00  0.00     0.172 HD
HETATM    7  C2  UNL     1      68.271  -5.343   3.543  1.00  0.00     0.340 A 
HETATM    8  O1  UNL     1      68.637  -4.188   3.883  1.00  0.00    -0.245 OA
HETATM    9  N3  UNL     1      69.158  -6.323   3.309  1.00  0.00    -0.250 N 
ATOM     10  H3  UNL     1      70.153  -6.122   3.412  1.00  0.00     0.192 HD
HETATM   11  N4  UNL     1      68.792  -7.518   2.956  1.00  0.00    -0.278 N 
ATOM     12  H4  UNL     1      69.506  -8.228   2.791  1.00  0.00     0.189 HD
HETATM   13  C3  UNL     1      67.452  -7.856   2.798  1.00  0.00     0.175 A 
HETATM   14  N5  UNL     1      67.167  -9.012   2.461  1.00  0.00    -0.249 N 
ATOM     15  H5  UNL     1      68.042  -9.528   2.358  1.00  0.00     0.182 HD
ENDROOT
BRANCH  14  16
HETATM   16  S1  UNL     1      65.944 -10.038   2.115  1.00  0.00     0.318 S 
HETATM   17  O2  UNL     1      64.586  -9.418   1.813  1.00  0.00    -0.183 OA
HETATM   18  O3  UNL     1      66.311 -11.053   1.029  1.00  0.00    -0.183 OA
BRANCH  16  19
HETATM   19  N6  UNL     1      65.647 -11.013   3.578  1.00  0.00    -0.311 N 
ATOM     20  H62 UNL     1      66.356 -11.520   4.109  1.00  0.00     0.170 HD
ATOM     21  H61 UNL     1      64.647 -10.963   3.775  1.00  0.00     0.170 HD
ENDBRANCH  16  19
ENDBRANCH  14  16
TORSDOF 2
ENDMDL
MODEL 5
REMARK VINA RESULT: -5.834589313      1.320      2.204
REMARK  2 active torsions:
REMARK  status: ('A' for Active; 'I' for Inactive)
REMARK    1  A    between atoms: N5_14  and  S1_16 
REMARK    2  A    between atoms: S1_16  and  N6_17 
ROOT
HETATM    1  N1  UNL     1      68.136  -7.747   2.543  1.00  0.00    -0.382 N 
ATOM      2  H11 UNL     1      67.780  -8.101   1.656  1.00  0.00     0.157 HD
ATOM      3  H12 UNL     1      68.777  -6.954   2.502  1.00  0.00     0.157 HD
HETATM    4  C1  UNL     1      67.724  -8.351   3.567  1.00  0.00     0.149 A 
HETATM    5  N2  UNL     1      68.203  -7.873   4.761  1.00  0.00    -0.291 N 
ATOM      6  H2  UNL     1      68.845  -7.080   4.735  1.00  0.00     0.172 HD
HETATM    7  C2  UNL     1      67.883  -8.377   5.948  1.00  0.00     0.340 A 
HETATM    8  O1  UNL     1      68.357  -7.895   7.009  1.00  0.00    -0.245 OA
HETATM    9  N3  UNL     1      67.038  -9.420   5.964  1.00  0.00    -0.250 N 
ATOM     10  H3  UNL     1      66.775  -9.829   6.862  1.00  0.00     0.192 HD
HETATM   11  N4  UNL     1      66.543  -9.927   4.875  1.00  0.00    -0.278 N 
ATOM     12  H4  UNL     1      65.904 -10.719   4.942  1.00  0.00     0.189 HD
HETATM   13  C3  UNL     1      66.861  -9.417   3.621  1.00  0.00     0.175 A 
HETATM   14  N5  UNL     1      66.357  -9.944   2.621  1.00  0.00    -0.249 N 
ATOM     15  H5  UNL     1      65.760 -10.707   2.941  1.00  0.00     0.182 HD
ENDROOT
BRANCH  14  16
HETATM   16  S1  UNL     1      66.269  -9.898   0.990  1.00  0.00     0.318 S 
HETATM   17  O2  UNL     1      67.503  -9.409   0.245  1.00  0.00    -0.183 OA
HETATM   18  O3  UNL     1      65.780 -11.218   0.387  1.00  0.00    -0.183 OA
BRANCH  16  19
HETATM   19  N6  UNL     1      65.016  -8.702   0.565  1.00  0.00    -0.311 N 
ATOM     20  H62 UNL     1      65.176  -7.710   0.388  1.00  0.00     0.170 HD
ATOM     21  H61 UNL     1      64.126  -9.199   0.536  1.00  0.00     0.170 HD
ENDBRANCH  16  19
ENDBRANCH  14  16
TORSDOF 2
ENDMDL
