MODEL 1
REMARK VINA RESULT: -8.583274352      0.000      0.000
REMARK  10 active torsions:
REMARK  status: ('A' for Active; 'I' for Inactive)
REMARK    1  A    between atoms: C2_2  and  O2_4 
REMARK    2  A    between atoms: O2_4  and  C3_5 
REMARK    3  A    between atoms: C3_5  and  C4_6 
REMARK    4  A    between atoms: C4_6  and  C5_7 
REMARK    5  A    between atoms: C10_12  and  C22_30 
REMARK    6  A    between atoms: C11_13  and  O3_14 
REMARK    7  A    between atoms: O3_14  and  C12_15 
REMARK    8  A    between atoms: C12_15  and  C13_17 
REMARK    9  A    between atoms: C13_17  and  O5_18 
REMARK   10  A    between atoms: C21_27  and  O6_28 
ROOT
HETATM    1  C5  UNL     1      14.236   9.783   5.382  1.00  0.00    -0.077 C 
HETATM    2  C6  UNL     1      13.442   9.282   4.443  1.00  0.00     0.006 C 
HETATM    3  C7  UNL     1      13.741   9.969   3.186  1.00  0.00    -0.070 C 
HETATM    4  C8  UNL     1      14.984  10.748   3.326  1.00  0.00     0.026 C 
HETATM    5  C9  UNL     1      15.135  10.833   4.805  1.00  0.00     0.043 C 
HETATM    6  C10 UNL     1      16.206  10.214   2.573  1.00  0.00     0.030 C 
HETATM    7  C11 UNL     1      16.462   8.795   2.835  1.00  0.00     0.138 C 
HETATM    8  C14 UNL     1      15.525   7.771   2.347  1.00  0.00     0.042 C 
HETATM    9  C15 UNL     1      14.333   8.086   1.552  1.00  0.00    -0.034 C 
HETATM   10  C16 UNL     1      13.406   6.841   1.685  1.00  0.00     0.016 C 
HETATM   11  C17 UNL     1      14.574   8.041   0.009  1.00  0.00     0.015 C 
HETATM   12  C18 UNL     1      15.578   9.039  -0.229  1.00  0.00    -0.009 C 
HETATM   13  C19 UNL     1      16.180   9.403  -1.531  1.00  0.00     0.007 C 
HETATM   14  C20 UNL     1      17.076  10.594  -1.154  1.00  0.00     0.032 C 
HETATM   15  C21 UNL     1      17.364  10.764   0.328  1.00  0.00     0.123 C 
HETATM   16  C22 UNL     1      16.180  10.798   1.224  1.00  0.00     0.026 C 
HETATM   17  C23 UNL     1      15.067  10.350   0.315  1.00  0.00    -0.003 C 
HETATM   18  C24 UNL     1      13.705  10.315   0.850  1.00  0.00     0.015 C 
HETATM   19  C25 UNL     1      13.511   9.236   1.928  1.00  0.00     0.023 C 
ENDROOT
BRANCH   1  20
HETATM   20  C4  UNL     1      14.285   9.388   6.830  1.00  0.00     0.061 C 
BRANCH  20  21
HETATM   21  C3  UNL     1      13.421  10.246   7.681  1.00  0.00     0.183 C 
BRANCH  21  22
HETATM   22  O2  UNL     1      14.191  11.061   8.518  1.00  0.00    -0.321 OA
BRANCH  22  23
HETATM   23  C2  UNL     1      14.600  10.825   9.793  1.00  0.00     0.254 C 
HETATM   24  C1  UNL     1      13.981  11.515  10.984  1.00  0.00     0.126 C 
HETATM   25  O1  UNL     1      15.528  10.001   9.982  1.00  0.00    -0.266 OA
ENDBRANCH  22  23
ENDBRANCH  21  22
ENDBRANCH  20  21
ENDBRANCH   1  20
BRANCH   7  26
HETATM   26  O3  UNL     1      16.800   8.632   4.206  1.00  0.00    -0.314 OA
BRANCH  26  27
HETATM   27  C12 UNL     1      18.050   8.457   4.721  1.00  0.00     0.282 C 
HETATM   28  O4  UNL     1      18.265   8.834   5.919  1.00  0.00    -0.263 OA
BRANCH  27  29
HETATM   29  C13 UNL     1      19.177   7.853   3.969  1.00  0.00     0.275 C 
BRANCH  29  30
HETATM   30  O5  UNL     1      19.169   6.470   4.086  1.00  0.00    -0.391 OA
ATOM     31  H5  UNL     1      19.139   6.057   3.231  1.00  0.00     0.210 HD
ENDBRANCH  29  30
ENDBRANCH  27  29
ENDBRANCH  26  27
ENDBRANCH   7  26
BRANCH  15  32
HETATM   32  O6  UNL     1      18.458  10.026   0.731  1.00  0.00    -0.395 OA
ATOM     33  H6  UNL     1      19.213  10.575   0.909  1.00  0.00     0.210 HD
ENDBRANCH  15  32
TORSDOF 10
ENDMDL
MODEL 2
REMARK VINA RESULT: -8.494761896      0.869      1.196
REMARK  10 active torsions:
REMARK  status: ('A' for Active; 'I' for Inactive)
REMARK    1  A    between atoms: C2_2  and  O2_4 
REMARK    2  A    between atoms: O2_4  and  C3_5 
REMARK    3  A    between atoms: C3_5  and  C4_6 
REMARK    4  A    between atoms: C4_6  and  C5_7 
REMARK    5  A    between atoms: C10_12  and  C22_30 
REMARK    6  A    between atoms: C11_13  and  O3_14 
REMARK    7  A    between atoms: O3_14  and  C12_15 
REMARK    8  A    between atoms: C12_15  and  C13_17 
REMARK    9  A    between atoms: C13_17  and  O5_18 
REMARK   10  A    between atoms: C21_27  and  O6_28 
ROOT
HETATM    1  C5  UNL     1      14.427  10.565   4.923  1.00  0.00    -0.077 C 
HETATM    2  C6  UNL     1      13.605   9.935   4.090  1.00  0.00     0.006 C 
HETATM    3  C7  UNL     1      13.878  10.419   2.737  1.00  0.00    -0.070 C 
HETATM    4  C8  UNL     1      15.130  11.196   2.728  1.00  0.00     0.026 C 
HETATM    5  C9  UNL     1      15.319  11.504   4.172  1.00  0.00     0.043 C 
HETATM    6  C10 UNL     1      16.329  10.539   2.036  1.00  0.00     0.030 C 
HETATM    7  C11 UNL     1      16.580   9.174   2.505  1.00  0.00     0.138 C 
HETATM    8  C14 UNL     1      15.624   8.098   2.202  1.00  0.00     0.042 C 
HETATM    9  C15 UNL     1      14.414   8.302   1.396  1.00  0.00    -0.034 C 
HETATM   10  C16 UNL     1      13.482   7.103   1.740  1.00  0.00     0.016 C 
HETATM   11  C17 UNL     1      14.616   8.020  -0.127  1.00  0.00     0.015 C 
HETATM   12  C18 UNL     1      15.622   8.959  -0.538  1.00  0.00    -0.009 C 
HETATM   13  C19 UNL     1      16.194   9.113  -1.894  1.00  0.00     0.007 C 
HETATM   14  C20 UNL     1      17.108  10.337  -1.725  1.00  0.00     0.032 C 
HETATM   15  C21 UNL     1      17.435  10.728  -0.293  1.00  0.00     0.123 C 
HETATM   16  C22 UNL     1      16.274  10.912   0.615  1.00  0.00     0.026 C 
HETATM   17  C23 UNL     1      15.135  10.343  -0.189  1.00  0.00    -0.003 C 
HETATM   18  C24 UNL     1      13.786  10.406   0.377  1.00  0.00     0.015 C 
HETATM   19  C25 UNL     1      13.611   9.506   1.611  1.00  0.00     0.023 C 
ENDROOT
BRANCH   1  20
HETATM   20  C4  UNL     1      14.509  10.393   6.414  1.00  0.00     0.061 C 
BRANCH  20  21
HETATM   21  C3  UNL     1      13.553   9.375   6.920  1.00  0.00     0.183 C 
BRANCH  21  22
HETATM   22  O2  UNL     1      13.612   9.280   8.315  1.00  0.00    -0.321 OA
BRANCH  22  23
HETATM   23  C2  UNL     1      14.659   9.541   9.141  1.00  0.00     0.254 C 
HETATM   24  C1  UNL     1      14.723  10.777  10.004  1.00  0.00     0.126 C 
HETATM   25  O1  UNL     1      15.609   8.720   9.185  1.00  0.00    -0.266 OA
ENDBRANCH  22  23
ENDBRANCH  21  22
ENDBRANCH  20  21
ENDBRANCH   1  20
BRANCH   7  26
HETATM   26  O3  UNL     1      16.952   9.218   3.877  1.00  0.00    -0.314 OA
BRANCH  26  27
HETATM   27  C12 UNL     1      18.007   8.579   4.455  1.00  0.00     0.282 C 
HETATM   28  O4  UNL     1      18.780   7.896   3.705  1.00  0.00    -0.263 OA
BRANCH  27  29
HETATM   29  C13 UNL     1      18.311   8.628   5.906  1.00  0.00     0.275 C 
BRANCH  29  30
HETATM   30  O5  UNL     1      17.229   8.189   6.656  1.00  0.00    -0.391 OA
ATOM     31  H5  UNL     1      16.783   7.470   6.223  1.00  0.00     0.210 HD
ENDBRANCH  29  30
ENDBRANCH  27  29
ENDBRANCH  26  27
ENDBRANCH   7  26
BRANCH  15  32
HETATM   32  O6  UNL     1      18.533  10.047   0.192  1.00  0.00    -0.395 OA
ATOM     33  H6  UNL     1      18.594  10.097   1.139  1.00  0.00     0.210 HD
ENDBRANCH  15  32
TORSDOF 10
ENDMDL
MODEL 3
REMARK VINA RESULT: -8.380759322      1.548      1.758
REMARK  10 active torsions:
REMARK  status: ('A' for Active; 'I' for Inactive)
REMARK    1  A    between atoms: C2_2  and  O2_4 
REMARK    2  A    between atoms: O2_4  and  C3_5 
REMARK    3  A    between atoms: C3_5  and  C4_6 
REMARK    4  A    between atoms: C4_6  and  C5_7 
REMARK    5  A    between atoms: C10_12  and  C22_30 
REMARK    6  A    between atoms: C11_13  and  O3_14 
REMARK    7  A    between atoms: O3_14  and  C12_15 
REMARK    8  A    between atoms: C12_15  and  C13_17 
REMARK    9  A    between atoms: C13_17  and  O5_18 
REMARK   10  A    between atoms: C21_27  and  O6_28 
ROOT
HETATM    1  C5  UNL     1      14.511  10.585   4.884  1.00  0.00    -0.077 C 
HETATM    2  C6  UNL     1      13.678   9.938   4.077  1.00  0.00     0.006 C 
HETATM    3  C7  UNL     1      13.907  10.419   2.714  1.00  0.00    -0.070 C 
HETATM    4  C8  UNL     1      15.146  11.215   2.668  1.00  0.00     0.026 C 
HETATM    5  C9  UNL     1      15.368  11.534   4.105  1.00  0.00     0.043 C 
HETATM    6  C10 UNL     1      16.336  10.573   1.948  1.00  0.00     0.030 C 
HETATM    7  C11 UNL     1      16.622   9.215   2.418  1.00  0.00     0.138 C 
HETATM    8  C14 UNL     1      15.674   8.122   2.145  1.00  0.00     0.042 C 
HETATM    9  C15 UNL     1      14.441   8.303   1.371  1.00  0.00    -0.034 C 
HETATM   10  C16 UNL     1      13.537   7.091   1.745  1.00  0.00     0.016 C 
HETATM   11  C17 UNL     1      14.607   8.015  -0.156  1.00  0.00     0.015 C 
HETATM   12  C18 UNL     1      15.587   8.968  -0.598  1.00  0.00    -0.009 C 
HETATM   13  C19 UNL     1      16.120   9.124  -1.970  1.00  0.00     0.007 C 
HETATM   14  C20 UNL     1      17.018  10.362  -1.831  1.00  0.00     0.032 C 
HETATM   15  C21 UNL     1      17.377  10.766  -0.411  1.00  0.00     0.123 C 
HETATM   16  C22 UNL     1      16.238  10.937   0.527  1.00  0.00     0.026 C 
HETATM   17  C23 UNL     1      15.087  10.346  -0.243  1.00  0.00    -0.003 C 
HETATM   18  C24 UNL     1      13.752  10.391   0.358  1.00  0.00     0.015 C 
HETATM   19  C25 UNL     1      13.624   9.495   1.601  1.00  0.00     0.023 C 
ENDROOT
BRANCH   1  20
HETATM   20  C4  UNL     1      14.635  10.423   6.373  1.00  0.00     0.061 C 
BRANCH  20  21
HETATM   21  C3  UNL     1      15.828   9.627   6.759  1.00  0.00     0.183 C 
BRANCH  21  22
HETATM   22  O2  UNL     1      15.523   8.262   6.817  1.00  0.00    -0.321 OA
BRANCH  22  23
HETATM   23  C2  UNL     1      14.706   7.610   7.685  1.00  0.00     0.254 C 
HETATM   24  C1  UNL     1      14.777   7.818   9.179  1.00  0.00     0.126 C 
HETATM   25  O1  UNL     1      13.859   6.806   7.223  1.00  0.00    -0.266 OA
ENDBRANCH  22  23
ENDBRANCH  21  22
ENDBRANCH  20  21
ENDBRANCH   1  20
BRANCH   7  26
HETATM   26  O3  UNL     1      17.028   9.272   3.779  1.00  0.00    -0.314 OA
BRANCH  26  27
HETATM   27  C12 UNL     1      18.308   9.255   4.247  1.00  0.00     0.282 C 
HETATM   28  O4  UNL     1      18.965  10.347   4.240  1.00  0.00    -0.263 OA
BRANCH  27  29
HETATM   29  C13 UNL     1      18.983   8.040   4.763  1.00  0.00     0.275 C 
BRANCH  29  30
HETATM   30  O5  UNL     1      18.543   7.732   6.043  1.00  0.00    -0.391 OA
ATOM     31  H5  UNL     1      17.676   7.344   6.021  1.00  0.00     0.210 HD
ENDBRANCH  29  30
ENDBRANCH  27  29
ENDBRANCH  26  27
ENDBRANCH   7  26
BRANCH  15  32
HETATM   32  O6  UNL     1      18.498  10.105   0.049  1.00  0.00    -0.395 OA
ATOM     33  H6  UNL     1      19.185  10.707   0.308  1.00  0.00     0.210 HD
ENDBRANCH  15  32
TORSDOF 10
ENDMDL
MODEL 4
REMARK VINA RESULT: -8.246142674      2.604      7.380
REMARK  10 active torsions:
REMARK  status: ('A' for Active; 'I' for Inactive)
REMARK    1  A    between atoms: C2_2  and  O2_4 
REMARK    2  A    between atoms: O2_4  and  C3_5 
REMARK    3  A    between atoms: C3_5  and  C4_6 
REMARK    4  A    between atoms: C4_6  and  C5_7 
REMARK    5  A    between atoms: C10_12  and  C22_30 
REMARK    6  A    between atoms: C11_13  and  O3_14 
REMARK    7  A    between atoms: O3_14  and  C12_15 
REMARK    8  A    between atoms: C12_15  and  C13_17 
REMARK    9  A    between atoms: C13_17  and  O5_18 
REMARK   10  A    between atoms: C21_27  and  O6_28 
ROOT
HETATM    1  C5  UNL     1      16.778  10.448  -0.153  1.00  0.00    -0.077 C 
HETATM    2  C6  UNL     1      17.784  10.398   0.713  1.00  0.00     0.006 C 
HETATM    3  C7  UNL     1      17.315  10.960   1.981  1.00  0.00    -0.070 C 
HETATM    4  C8  UNL     1      15.849  11.110   1.948  1.00  0.00     0.026 C 
HETATM    5  C9  UNL     1      15.558  11.034   0.490  1.00  0.00     0.043 C 
HETATM    6  C10 UNL     1      15.050  10.143   2.826  1.00  0.00     0.030 C 
HETATM    7  C11 UNL     1      15.422   8.742   2.616  1.00  0.00     0.138 C 
HETATM    8  C14 UNL     1      16.749   8.257   3.029  1.00  0.00     0.042 C 
HETATM    9  C15 UNL     1      17.741   9.106   3.698  1.00  0.00    -0.034 C 
HETATM   10  C16 UNL     1      19.106   8.383   3.498  1.00  0.00     0.016 C 
HETATM   11  C17 UNL     1      17.668   9.052   5.258  1.00  0.00     0.015 C 
HETATM   12  C18 UNL     1      16.350   9.526   5.574  1.00  0.00    -0.009 C 
HETATM   13  C19 UNL     1      15.756   9.668   6.922  1.00  0.00     0.007 C 
HETATM   14  C20 UNL     1      14.401  10.326   6.613  1.00  0.00     0.032 C 
HETATM   15  C21 UNL     1      13.951  10.266   5.163  1.00  0.00     0.123 C 
HETATM   16  C22 UNL     1      14.924  10.759   4.155  1.00  0.00     0.026 C 
HETATM   17  C23 UNL     1      16.189  10.895   4.959  1.00  0.00    -0.003 C 
HETATM   18  C24 UNL     1      17.381  11.425   4.295  1.00  0.00     0.015 C 
HETATM   19  C25 UNL     1      17.943  10.476   3.223  1.00  0.00     0.023 C 
ENDROOT
BRANCH   1  20
HETATM   20  C4  UNL     1      16.793   9.986  -1.583  1.00  0.00     0.061 C 
BRANCH  20  21
HETATM   21  C3  UNL     1      15.462  10.109  -2.232  1.00  0.00     0.183 C 
BRANCH  21  22
HETATM   22  O2  UNL     1      15.092   8.910  -2.852  1.00  0.00    -0.321 OA
BRANCH  22  23
HETATM   23  C2  UNL     1      14.408   8.729  -4.012  1.00  0.00     0.254 C 
HETATM   24  C1  UNL     1      14.188   9.843  -5.006  1.00  0.00     0.126 C 
HETATM   25  O1  UNL     1      13.943   7.590  -4.263  1.00  0.00    -0.266 OA
ENDBRANCH  22  23
ENDBRANCH  21  22
ENDBRANCH  20  21
ENDBRANCH   1  20
BRANCH   7  26
HETATM   26  O3  UNL     1      15.082   8.367   1.287  1.00  0.00    -0.314 OA
BRANCH  26  27
HETATM   27  C12 UNL     1      14.594   7.161   0.882  1.00  0.00     0.282 C 
HETATM   28  O4  UNL     1      14.957   6.717  -0.257  1.00  0.00    -0.263 OA
BRANCH  27  29
HETATM   29  C13 UNL     1      13.663   6.333   1.686  1.00  0.00     0.275 C 
BRANCH  29  30
HETATM   30  O5  UNL     1      14.042   4.998   1.668  1.00  0.00    -0.391 OA
ATOM     31  H5  UNL     1      13.395   4.466   1.219  1.00  0.00     0.210 HD
ENDBRANCH  29  30
ENDBRANCH  27  29
ENDBRANCH  26  27
ENDBRANCH   7  26
BRANCH  15  32
HETATM   32  O6  UNL     1      13.263   9.102   4.881  1.00  0.00    -0.395 OA
ATOM     33  H6  UNL     1      13.848   8.387   4.660  1.00  0.00     0.210 HD
ENDBRANCH  15  32
TORSDOF 10
ENDMDL
MODEL 5
REMARK VINA RESULT: -7.815812726      3.697      7.401
REMARK  10 active torsions:
REMARK  status: ('A' for Active; 'I' for Inactive)
REMARK    1  A    between atoms: C2_2  and  O2_4 
REMARK    2  A    between atoms: O2_4  and  C3_5 
REMARK    3  A    between atoms: C3_5  and  C4_6 
REMARK    4  A    between atoms: C4_6  and  C5_7 
REMARK    5  A    between atoms: C10_12  and  C22_30 
REMARK    6  A    between atoms: C11_13  and  O3_14 
REMARK    7  A    between atoms: O3_14  and  C12_15 
REMARK    8  A    between atoms: C12_15  and  C13_17 
REMARK    9  A    between atoms: C13_17  and  O5_18 
REMARK   10  A    between atoms: C21_27  and  O6_28 
ROOT
HETATM    1  C5  UNL     1      17.999  10.168   3.900  1.00  0.00    -0.077 C 
HETATM    2  C6  UNL     1      18.653   9.939   5.034  1.00  0.00     0.006 C 
HETATM    3  C7  UNL     1      19.382   8.679   4.886  1.00  0.00    -0.070 C 
HETATM    4  C8  UNL     1      19.375   8.261   3.473  1.00  0.00     0.026 C 
HETATM    5  C9  UNL     1      18.265   9.077   2.910  1.00  0.00     0.043 C 
HETATM    6  C10 UNL     1      20.710   8.371   2.729  1.00  0.00     0.030 C 
HETATM    7  C11 UNL     1      21.333   9.689   2.867  1.00  0.00     0.138 C 
HETATM    8  C14 UNL     1      21.852  10.131   4.171  1.00  0.00     0.042 C 
HETATM    9  C15 UNL     1      21.822   9.291   5.374  1.00  0.00    -0.034 C 
HETATM   10  C16 UNL     1      21.983  10.275   6.570  1.00  0.00     0.016 C 
HETATM   11  C17 UNL     1      23.119   8.444   5.584  1.00  0.00     0.015 C 
HETATM   12  C18 UNL     1      23.194   7.604   4.422  1.00  0.00    -0.009 C 
HETATM   13  C19 UNL     1      24.243   6.607   4.112  1.00  0.00     0.007 C 
HETATM   14  C20 UNL     1      23.708   5.963   2.823  1.00  0.00     0.032 C 
HETATM   15  C21 UNL     1      22.606   6.726   2.108  1.00  0.00     0.123 C 
HETATM   16  C22 UNL     1      21.432   7.106   2.934  1.00  0.00     0.026 C 
HETATM   17  C23 UNL     1      21.908   6.819   4.333  1.00  0.00    -0.003 C 
HETATM   18  C24 UNL     1      20.974   7.024   5.441  1.00  0.00     0.015 C 
HETATM   19  C25 UNL     1      20.622   8.505   5.664  1.00  0.00     0.023 C 
ENDROOT
BRANCH   1  20
HETATM   20  C4  UNL     1      17.114  11.342   3.589  1.00  0.00     0.061 C 
BRANCH  20  21
HETATM   21  C3  UNL     1      15.882  10.945   2.861  1.00  0.00     0.183 C 
BRANCH  21  22
HETATM   22  O2  UNL     1      15.894  11.432   1.549  1.00  0.00    -0.321 OA
BRANCH  22  23
HETATM   23  C2  UNL     1      15.541  10.794   0.402  1.00  0.00     0.254 C 
HETATM   24  C1  UNL     1      15.284   9.308   0.346  1.00  0.00     0.126 C 
HETATM   25  O1  UNL     1      15.423  11.471  -0.649  1.00  0.00    -0.266 OA
ENDBRANCH  22  23
ENDBRANCH  21  22
ENDBRANCH  20  21
ENDBRANCH   1  20
BRANCH   7  26
HETATM   26  O3  UNL     1      20.505  10.660   2.240  1.00  0.00    -0.314 OA
BRANCH  26  27
HETATM   27  C12 UNL     1      20.514  11.008   0.923  1.00  0.00     0.282 C 
HETATM   28  O4  UNL     1      21.636  11.279   0.380  1.00  0.00    -0.263 OA
BRANCH  27  29
HETATM   29  C13 UNL     1      19.297  11.092   0.080  1.00  0.00     0.275 C 
BRANCH  29  30
HETATM   30  O5  UNL     1      18.894   9.832  -0.339  1.00  0.00    -0.391 OA
ATOM     31  H5  UNL     1      19.625   9.341  -0.696  1.00  0.00     0.210 HD
ENDBRANCH  29  30
ENDBRANCH  27  29
ENDBRANCH  26  27
ENDBRANCH   7  26
BRANCH  15  32
HETATM   32  O6  UNL     1      23.111   7.666   1.232  1.00  0.00    -0.395 OA
ATOM     33  H6  UNL     1      22.590   7.732   0.440  1.00  0.00     0.210 HD
ENDBRANCH  15  32
TORSDOF 10
ENDMDL
