MODEL 1
REMARK VINA RESULT: -8.416247222      0.000      0.000
REMARK  9 active torsions:
REMARK  status: ('A' for Active; 'I' for Inactive)
REMARK    1  A    between atoms: O1_2  and  C2_3 
REMARK    2  A    between atoms: C10_11  and  O2_12 
REMARK    3  A    between atoms: C14_18  and  C15_19 
REMARK    4  A    between atoms: C15_19  and  C16_20 
REMARK    5  A    between atoms: C15_19  and  O4_26 
REMARK    6  A    between atoms: C16_20  and  C17_21 
REMARK    7  A    between atoms: C17_21  and  C18_22 
REMARK    8  A    between atoms: O4_26  and  C22_27 
REMARK    9  A    between atoms: C25_31  and  O6_32 
ROOT
HETATM    1  C2  UNL     1      17.531   9.967   3.679  1.00  0.00     0.090 C 
HETATM    2  C3  UNL     1      16.356   9.208   4.327  1.00  0.00     0.042 C 
HETATM    3  C4  UNL     1      15.211  10.156   4.238  1.00  0.00     0.014 C 
HETATM    4  C5  UNL     1      15.410  11.175   3.073  1.00  0.00    -0.025 A 
HETATM    5  C6  UNL     1      14.994  12.460   3.594  1.00  0.00     0.025 A 
HETATM    6  C7  UNL     1      16.446  12.046   3.182  1.00  0.00    -0.011 A 
HETATM    7  C8  UNL     1      17.143  13.192   2.787  1.00  0.00    -0.014 C 
HETATM    8  C9  UNL     1      18.087  13.225   1.636  1.00  0.00     0.029 C 
HETATM    9  C10 UNL     1      18.994  12.147   1.314  1.00  0.00     0.050 C 
HETATM   10  C11 UNL     1      18.412  10.984   0.487  1.00  0.00     0.079 C 
HETATM   11  C12 UNL     1      18.393  11.472  -0.942  1.00  0.00     0.020 C 
HETATM   12  C13 UNL     1      17.202  10.472   1.111  1.00  0.00     0.137 A 
HETATM   13  O3  UNL     1      16.330  11.381   0.598  1.00  0.00    -0.352 OA
HETATM   14  C14 UNL     1      15.893  10.197   0.747  1.00  0.00     0.146 A 
HETATM   15  C24 UNL     1      14.901  10.435   1.921  1.00  0.00     0.059 C 
HETATM   16  C25 UNL     1      17.536   9.683   2.257  1.00  0.00     0.191 C 
HETATM   17  C26 UNL     1      17.340  11.355   4.214  1.00  0.00     0.055 C 
ENDROOT
BRANCH  14  18
HETATM   18  C15 UNL     1      15.283   9.264  -0.297  1.00  0.00     0.091 C 
BRANCH  18  19
HETATM   19  C16 UNL     1      15.161   9.913  -1.611  1.00  0.00     0.013 C 
BRANCH  19  20
HETATM   20  C17 UNL     1      14.042  10.794  -1.965  1.00  0.00     0.057 C 
BRANCH  20  21
HETATM   21  C18 UNL     1      12.901  10.256  -2.693  1.00  0.00    -0.021 C 
HETATM   22  C19 UNL     1      13.016   9.999  -3.989  1.00  0.00    -0.091 C 
HETATM   23  C20 UNL     1      14.257  10.222  -4.782  1.00  0.00     0.042 C 
HETATM   24  C21 UNL     1      11.830   9.451  -4.717  1.00  0.00     0.042 C 
ENDBRANCH  20  21
ENDBRANCH  19  20
ENDBRANCH  18  19
BRANCH  18  25
HETATM   25  O4  UNL     1      14.253   8.464   0.131  1.00  0.00    -0.281 OA
BRANCH  25  26
HETATM   26  C22 UNL     1      14.326   7.205   0.685  1.00  0.00     0.259 C 
HETATM   27  C23 UNL     1      13.664   6.925   1.966  1.00  0.00     0.126 C 
HETATM   28  O5  UNL     1      14.981   6.407  -0.004  1.00  0.00    -0.265 OA
ENDBRANCH  25  26
ENDBRANCH  18  25
ENDBRANCH  14  18
BRANCH  16  29
HETATM   29  O6  UNL     1      18.835   9.102   2.008  1.00  0.00    -0.389 OA
ATOM     30  H6  UNL     1      18.966   9.202   1.072  1.00  0.00     0.210 HD
ENDBRANCH  16  29
BRANCH   9  31
HETATM   31  O2  UNL     1      19.935  11.743   2.227  1.00  0.00    -0.364 OA
ATOM     32  H2  UNL     1      20.859  11.813   2.020  1.00  0.00     0.217 HD
ENDBRANCH   9  31
BRANCH   1  33
HETATM   33  O1  UNL     1      18.652   9.478   4.341  1.00  0.00    -0.382 OA
HETATM   34  C1  UNL     1      18.511   8.729   5.438  1.00  0.00     0.202 C 
ENDBRANCH   1  33
TORSDOF 9
ENDMDL
MODEL 2
REMARK VINA RESULT: -7.898366150      2.724      6.819
REMARK  9 active torsions:
REMARK  status: ('A' for Active; 'I' for Inactive)
REMARK    1  A    between atoms: O1_2  and  C2_3 
REMARK    2  A    between atoms: C10_11  and  O2_12 
REMARK    3  A    between atoms: C14_18  and  C15_19 
REMARK    4  A    between atoms: C15_19  and  C16_20 
REMARK    5  A    between atoms: C15_19  and  O4_26 
REMARK    6  A    between atoms: C16_20  and  C17_21 
REMARK    7  A    between atoms: C17_21  and  C18_22 
REMARK    8  A    between atoms: O4_26  and  C22_27 
REMARK    9  A    between atoms: C25_31  and  O6_32 
ROOT
HETATM    1  C2  UNL     1      15.841   9.786   1.404  1.00  0.00     0.090 C 
HETATM    2  C3  UNL     1      16.554  10.042   0.062  1.00  0.00     0.042 C 
HETATM    3  C4  UNL     1      17.360  11.272   0.303  1.00  0.00     0.014 C 
HETATM    4  C5  UNL     1      17.679  11.450   1.820  1.00  0.00    -0.025 A 
HETATM    5  C6  UNL     1      17.493  12.858   2.102  1.00  0.00     0.025 A 
HETATM    6  C7  UNL     1      16.629  11.674   2.651  1.00  0.00    -0.011 A 
HETATM    7  C8  UNL     1      16.091  12.050   3.886  1.00  0.00    -0.014 C 
HETATM    8  C9  UNL     1      15.976  11.127   5.049  1.00  0.00     0.029 C 
HETATM    9  C10 UNL     1      15.618   9.732   4.931  1.00  0.00     0.050 C 
HETATM   10  C11 UNL     1      16.759   8.756   4.582  1.00  0.00     0.079 C 
HETATM   11  C12 UNL     1      17.498   8.517   5.878  1.00  0.00     0.020 C 
HETATM   12  C13 UNL     1      17.470   9.210   3.398  1.00  0.00     0.137 A 
HETATM   13  O3  UNL     1      18.302  10.095   4.008  1.00  0.00    -0.352 OA
HETATM   14  C14 UNL     1      18.779   9.460   3.015  1.00  0.00     0.146 A 
HETATM   15  C24 UNL     1      18.871  10.623   1.987  1.00  0.00     0.059 C 
HETATM   16  C25 UNL     1      16.692   8.946   2.226  1.00  0.00     0.191 C 
HETATM   17  C26 UNL     1      15.447  11.171   1.821  1.00  0.00     0.055 C 
ENDROOT
BRANCH  14  18
HETATM   18  C15 UNL     1      20.026   8.579   2.951  1.00  0.00     0.091 C 
BRANCH  18  19
HETATM   19  C16 UNL     1      20.703   8.488   4.253  1.00  0.00     0.013 C 
BRANCH  19  20
HETATM   20  C17 UNL     1      20.891   7.221   4.968  1.00  0.00     0.057 C 
BRANCH  20  21
HETATM   21  C18 UNL     1      20.117   6.051   4.578  1.00  0.00    -0.021 C 
HETATM   22  C19 UNL     1      20.746   4.929   4.255  1.00  0.00    -0.091 C 
HETATM   23  C20 UNL     1      22.227   4.767   4.261  1.00  0.00     0.042 C 
HETATM   24  C21 UNL     1      19.930   3.741   3.854  1.00  0.00     0.042 C 
ENDBRANCH  20  21
ENDBRANCH  19  20
ENDBRANCH  18  19
BRANCH  18  25
HETATM   25  O4  UNL     1      20.798   8.702   1.823  1.00  0.00    -0.281 OA
BRANCH  25  26
HETATM   26  C22 UNL     1      22.156   8.507   1.696  1.00  0.00     0.259 C 
HETATM   27  C23 UNL     1      22.685   7.164   1.420  1.00  0.00     0.126 C 
HETATM   28  O5  UNL     1      22.814   9.550   1.838  1.00  0.00    -0.265 OA
ENDBRANCH  25  26
ENDBRANCH  18  25
ENDBRANCH  14  18
BRANCH  16  29
HETATM   29  O6  UNL     1      15.888   7.778   2.505  1.00  0.00    -0.389 OA
ATOM     30  H6  UNL     1      15.560   7.919   3.386  1.00  0.00     0.210 HD
ENDBRANCH  16  29
BRANCH   9  31
HETATM   31  O2  UNL     1      14.414   9.375   4.378  1.00  0.00    -0.364 OA
ATOM     32  H2  UNL     1      14.311   9.357   3.433  1.00  0.00     0.217 HD
ENDBRANCH   9  31
BRANCH   1  33
HETATM   33  O1  UNL     1      14.650   9.168   1.039  1.00  0.00    -0.382 OA
HETATM   34  C1  UNL     1      13.621   9.899   0.600  1.00  0.00     0.202 C 
ENDBRANCH   1  33
TORSDOF 9
ENDMDL
MODEL 3
REMARK VINA RESULT: -7.856154501      3.115      6.376
REMARK  9 active torsions:
REMARK  status: ('A' for Active; 'I' for Inactive)
REMARK    1  A    between atoms: O1_2  and  C2_3 
REMARK    2  A    between atoms: C10_11  and  O2_12 
REMARK    3  A    between atoms: C14_18  and  C15_19 
REMARK    4  A    between atoms: C15_19  and  C16_20 
REMARK    5  A    between atoms: C15_19  and  O4_26 
REMARK    6  A    between atoms: C16_20  and  C17_21 
REMARK    7  A    between atoms: C17_21  and  C18_22 
REMARK    8  A    between atoms: O4_26  and  C22_27 
REMARK    9  A    between atoms: C25_31  and  O6_32 
ROOT
HETATM    1  C2  UNL     1      21.716   7.572   3.480  1.00  0.00     0.090 C 
HETATM    2  C3  UNL     1      21.050   6.704   4.566  1.00  0.00     0.042 C 
HETATM    3  C4  UNL     1      20.944   7.608   5.746  1.00  0.00     0.014 C 
HETATM    4  C5  UNL     1      20.928   9.106   5.310  1.00  0.00    -0.025 A 
HETATM    5  C6  UNL     1      21.780   9.802   6.252  1.00  0.00     0.025 A 
HETATM    6  C7  UNL     1      22.052   9.592   4.724  1.00  0.00    -0.011 A 
HETATM    7  C8  UNL     1      22.848  10.647   4.264  1.00  0.00    -0.014 C 
HETATM    8  C9  UNL     1      22.658  11.303   2.940  1.00  0.00     0.029 C 
HETATM    9  C10 UNL     1      22.308  10.587   1.735  1.00  0.00     0.050 C 
HETATM   10  C11 UNL     1      20.812  10.284   1.525  1.00  0.00     0.079 C 
HETATM   11  C12 UNL     1      20.207  11.569   1.007  1.00  0.00     0.020 C 
HETATM   12  C13 UNL     1      20.257   9.626   2.697  1.00  0.00     0.137 A 
HETATM   13  O3  UNL     1      20.012  10.739   3.437  1.00  0.00    -0.352 OA
HETATM   14  C14 UNL     1      19.180   9.785   3.555  1.00  0.00     0.146 A 
HETATM   15  C24 UNL     1      19.518   9.326   5.002  1.00  0.00     0.059 C 
HETATM   16  C25 UNL     1      20.677   8.258   2.736  1.00  0.00     0.191 C 
HETATM   17  C26 UNL     1      22.756   8.314   4.265  1.00  0.00     0.055 C 
ENDROOT
BRANCH  14  18
HETATM   18  C15 UNL     1      17.669   9.799   3.329  1.00  0.00     0.091 C 
BRANCH  18  19
HETATM   19  C16 UNL     1      16.978   8.812   4.171  1.00  0.00     0.013 C 
BRANCH  19  20
HETATM   20  C17 UNL     1      15.967   9.182   5.168  1.00  0.00     0.057 C 
BRANCH  20  21
HETATM   21  C18 UNL     1      16.103   8.719   6.542  1.00  0.00    -0.021 C 
HETATM   22  C19 UNL     1      15.020   8.394   7.233  1.00  0.00    -0.091 C 
HETATM   23  C20 UNL     1      13.631   8.466   6.697  1.00  0.00     0.042 C 
HETATM   24  C21 UNL     1      15.183   7.924   8.644  1.00  0.00     0.042 C 
ENDBRANCH  20  21
ENDBRANCH  19  20
ENDBRANCH  18  19
BRANCH  18  25
HETATM   25  O4  UNL     1      17.251   9.953   2.031  1.00  0.00    -0.281 OA
BRANCH  25  26
HETATM   26  C22 UNL     1      16.261  10.779   1.547  1.00  0.00     0.259 C 
HETATM   27  C23 UNL     1      14.876  10.295   1.458  1.00  0.00     0.126 C 
HETATM   28  O5  UNL     1      16.678  11.902   1.224  1.00  0.00    -0.265 OA
ENDBRANCH  25  26
ENDBRANCH  18  25
ENDBRANCH  14  18
BRANCH  16  29
HETATM   29  O6  UNL     1      20.871   7.835   1.368  1.00  0.00    -0.389 OA
ATOM     30  H6  UNL     1      20.519   6.952   1.339  1.00  0.00     0.210 HD
ENDBRANCH  16  29
BRANCH   9  31
HETATM   31  O2  UNL     1      23.131   9.598   1.259  1.00  0.00    -0.364 OA
ATOM     32  H2  UNL     1      24.018   9.807   0.987  1.00  0.00     0.217 HD
ENDBRANCH   9  31
BRANCH   1  33
HETATM   33  O1  UNL     1      22.429   6.659   2.712  1.00  0.00    -0.382 OA
HETATM   34  C1  UNL     1      23.600   6.184   3.147  1.00  0.00     0.202 C 
ENDBRANCH   1  33
TORSDOF 9
ENDMDL
MODEL 4
REMARK VINA RESULT: -7.853988175      1.679      3.412
REMARK  9 active torsions:
REMARK  status: ('A' for Active; 'I' for Inactive)
REMARK    1  A    between atoms: O1_2  and  C2_3 
REMARK    2  A    between atoms: C10_11  and  O2_12 
REMARK    3  A    between atoms: C14_18  and  C15_19 
REMARK    4  A    between atoms: C15_19  and  C16_20 
REMARK    5  A    between atoms: C15_19  and  O4_26 
REMARK    6  A    between atoms: C16_20  and  C17_21 
REMARK    7  A    between atoms: C17_21  and  C18_22 
REMARK    8  A    between atoms: O4_26  and  C22_27 
REMARK    9  A    between atoms: C25_31  and  O6_32 
ROOT
HETATM    1  C2  UNL     1      15.973   8.798   3.377  1.00  0.00     0.090 C 
HETATM    2  C3  UNL     1      15.645   7.494   2.624  1.00  0.00     0.042 C 
HETATM    3  C4  UNL     1      14.495   7.856   1.747  1.00  0.00     0.014 C 
HETATM    4  C5  UNL     1      14.473   9.387   1.447  1.00  0.00    -0.025 A 
HETATM    5  C6  UNL     1      13.086   9.791   1.550  1.00  0.00     0.025 A 
HETATM    6  C7  UNL     1      14.257  10.220   2.496  1.00  0.00    -0.011 A 
HETATM    7  C8  UNL     1      13.958  11.476   3.035  1.00  0.00    -0.014 C 
HETATM    8  C9  UNL     1      14.972  12.550   3.229  1.00  0.00     0.029 C 
HETATM    9  C10 UNL     1      16.325  12.303   3.671  1.00  0.00     0.050 C 
HETATM   10  C11 UNL     1      17.336  11.883   2.586  1.00  0.00     0.079 C 
HETATM   11  C12 UNL     1      17.736  13.163   1.889  1.00  0.00     0.020 C 
HETATM   12  C13 UNL     1      16.826  10.754   1.825  1.00  0.00     0.137 A 
HETATM   13  O3  UNL     1      16.053  11.453   0.951  1.00  0.00    -0.352 OA
HETATM   14  C14 UNL     1      16.627  10.413   0.496  1.00  0.00     0.146 A 
HETATM   15  C24 UNL     1      15.386   9.495   0.312  1.00  0.00     0.059 C 
HETATM   16  C25 UNL     1      16.935   9.553   2.596  1.00  0.00     0.191 C 
HETATM   17  C26 UNL     1      14.608   9.332   3.691  1.00  0.00     0.055 C 
ENDROOT
BRANCH  14  18
HETATM   18  C15 UNL     1      17.576  10.287  -0.694  1.00  0.00     0.091 C 
BRANCH  18  19
HETATM   19  C16 UNL     1      16.922   9.669  -1.857  1.00  0.00     0.013 C 
BRANCH  19  20
HETATM   20  C17 UNL     1      16.202  10.446  -2.873  1.00  0.00     0.057 C 
BRANCH  20  21
HETATM   21  C18 UNL     1      15.285   9.771  -3.782  1.00  0.00    -0.021 C 
HETATM   22  C19 UNL     1      13.978   9.883  -3.594  1.00  0.00    -0.091 C 
HETATM   23  C20 UNL     1      13.353  10.671  -2.494  1.00  0.00     0.042 C 
HETATM   24  C21 UNL     1      13.055   9.179  -4.538  1.00  0.00     0.042 C 
ENDBRANCH  20  21
ENDBRANCH  19  20
ENDBRANCH  18  19
BRANCH  18  25
HETATM   25  O4  UNL     1      18.867   9.922  -0.405  1.00  0.00    -0.281 OA
BRANCH  25  26
HETATM   26  C22 UNL     1      19.851  10.676   0.196  1.00  0.00     0.259 C 
HETATM   27  C23 UNL     1      20.673  10.096   1.267  1.00  0.00     0.126 C 
HETATM   28  O5  UNL     1      19.933  11.826  -0.264  1.00  0.00    -0.265 OA
ENDBRANCH  25  26
ENDBRANCH  18  25
ENDBRANCH  14  18
BRANCH  16  29
HETATM   29  O6  UNL     1      18.069   9.715   3.475  1.00  0.00    -0.389 OA
ATOM     30  H6  UNL     1      18.772   9.238   3.049  1.00  0.00     0.210 HD
ENDBRANCH  16  29
BRANCH   9  31
HETATM   31  O2  UNL     1      16.554  11.703   4.884  1.00  0.00    -0.364 OA
ATOM     32  H2  UNL     1      16.619  12.231   5.671  1.00  0.00     0.217 HD
ENDBRANCH   9  31
BRANCH   1  33
HETATM   33  O1  UNL     1      16.478   8.363   4.597  1.00  0.00    -0.382 OA
HETATM   34  C1  UNL     1      15.860   8.688   5.735  1.00  0.00     0.202 C 
ENDBRANCH   1  33
TORSDOF 9
ENDMDL
MODEL 5
REMARK VINA RESULT: -7.843951452      2.900      5.353
REMARK  9 active torsions:
REMARK  status: ('A' for Active; 'I' for Inactive)
REMARK    1  A    between atoms: O1_2  and  C2_3 
REMARK    2  A    between atoms: C10_11  and  O2_12 
REMARK    3  A    between atoms: C14_18  and  C15_19 
REMARK    4  A    between atoms: C15_19  and  C16_20 
REMARK    5  A    between atoms: C15_19  and  O4_26 
REMARK    6  A    between atoms: C16_20  and  C17_21 
REMARK    7  A    between atoms: C17_21  and  C18_22 
REMARK    8  A    between atoms: O4_26  and  C22_27 
REMARK    9  A    between atoms: C25_31  and  O6_32 
ROOT
HETATM    1  C2  UNL     1      21.601   7.604   3.483  1.00  0.00     0.090 C 
HETATM    2  C3  UNL     1      20.860   6.786   4.559  1.00  0.00     0.042 C 
HETATM    3  C4  UNL     1      20.715   7.729   5.703  1.00  0.00     0.014 C 
HETATM    4  C5  UNL     1      20.756   9.212   5.222  1.00  0.00    -0.025 A 
HETATM    5  C6  UNL     1      21.575   9.919   6.184  1.00  0.00     0.025 A 
HETATM    6  C7  UNL     1      21.920   9.655   4.680  1.00  0.00    -0.011 A 
HETATM    7  C8  UNL     1      22.762  10.677   4.230  1.00  0.00    -0.014 C 
HETATM    8  C9  UNL     1      22.655  11.295   2.879  1.00  0.00     0.029 C 
HETATM    9  C10 UNL     1      22.351  10.549   1.679  1.00  0.00     0.050 C 
HETATM   10  C11 UNL     1      20.861  10.272   1.401  1.00  0.00     0.079 C 
HETATM   11  C12 UNL     1      20.314  11.551   0.813  1.00  0.00     0.020 C 
HETATM   12  C13 UNL     1      20.232   9.662   2.562  1.00  0.00     0.137 A 
HETATM   13  O3  UNL     1      19.976  10.804   3.255  1.00  0.00    -0.352 OA
HETATM   14  C14 UNL     1      19.117   9.872   3.358  1.00  0.00     0.146 A 
HETATM   15  C24 UNL     1      19.369   9.453   4.834  1.00  0.00     0.059 C 
HETATM   16  C25 UNL     1      20.618   8.288   2.665  1.00  0.00     0.191 C 
HETATM   17  C26 UNL     1      22.616   8.348   4.298  1.00  0.00     0.055 C 
ENDROOT
BRANCH  14  18
HETATM   18  C15 UNL     1      17.620   9.912   3.053  1.00  0.00     0.091 C 
BRANCH  18  19
HETATM   19  C16 UNL     1      16.855   9.018   3.936  1.00  0.00     0.013 C 
BRANCH  19  20
HETATM   20  C17 UNL     1      15.484   9.307   4.370  1.00  0.00     0.057 C 
BRANCH  20  21
HETATM   21  C18 UNL     1      14.360   8.859   3.560  1.00  0.00    -0.021 C 
HETATM   22  C19 UNL     1      13.562   9.755   2.997  1.00  0.00    -0.091 C 
HETATM   23  C20 UNL     1      13.730  11.230   3.130  1.00  0.00     0.042 C 
HETATM   24  C21 UNL     1      12.411   9.271   2.172  1.00  0.00     0.042 C 
ENDBRANCH  20  21
ENDBRANCH  19  20
ENDBRANCH  18  19
BRANCH  18  25
HETATM   25  O4  UNL     1      17.272   9.970   1.727  1.00  0.00    -0.281 OA
BRANCH  25  26
HETATM   26  C22 UNL     1      16.597  10.973   1.067  1.00  0.00     0.259 C 
HETATM   27  C23 UNL     1      15.672  10.643  -0.025  1.00  0.00     0.126 C 
HETATM   28  O5  UNL     1      16.866  12.106   1.497  1.00  0.00    -0.265 OA
ENDBRANCH  25  26
ENDBRANCH  18  25
ENDBRANCH  14  18
BRANCH  16  29
HETATM   29  O6  UNL     1      20.872   7.817   1.323  1.00  0.00    -0.389 OA
ATOM     30  H6  UNL     1      20.019   7.556   0.996  1.00  0.00     0.210 HD
ENDBRANCH  16  29
BRANCH   9  31
HETATM   31  O2  UNL     1      23.175   9.528   1.277  1.00  0.00    -0.364 OA
ATOM     32  H2  UNL     1      23.003   9.071   0.462  1.00  0.00     0.217 HD
ENDBRANCH   9  31
BRANCH   1  33
HETATM   33  O1  UNL     1      22.332   6.652   2.781  1.00  0.00    -0.382 OA
HETATM   34  C1  UNL     1      23.569   6.331   3.172  1.00  0.00     0.202 C 
ENDBRANCH   1  33
TORSDOF 9
ENDMDL
