MODEL 1
REMARK VINA RESULT: -5.020139920      0.000      0.000
REMARK  6 active torsions:
REMARK  status: ('A' for Active; 'I' for Inactive)
REMARK    1  A    between atoms: C4_5  and  O2_6 
REMARK    2  A    between atoms: C6_11  and  O5_13 
REMARK    3  A    between atoms: C11_19  and  O7_20 
REMARK    4  A    between atoms: C11_19  and  C12_22 
REMARK    5  A    between atoms: C12_22  and  O8_23 
REMARK    6  A    between atoms: C14_27  and  O10_28 
ROOT
HETATM    1  C1  UNL     1      20.315  -6.514  87.546  1.00  0.00     0.078 C 
HETATM    2  C2  UNL     1      20.536  -6.921  86.082  1.00  0.00     0.164 C 
HETATM    3  C3  UNL     1      20.594  -5.638  85.296  1.00  0.00     0.078 C 
HETATM    4  O1  UNL     1      19.565  -7.793  85.670  1.00  0.00    -0.321 OA
HETATM    5  C4  UNL     1      20.181  -8.507  84.614  1.00  0.00     0.327 C 
HETATM    6  C5  UNL     1      21.668  -8.437  84.872  1.00  0.00     0.263 C 
HETATM    7  O3  UNL     1      21.680  -7.660  86.040  1.00  0.00    -0.312 OA
HETATM    8  O4  UNL     1      22.334  -7.641  83.964  1.00  0.00    -0.311 OA
HETATM    9  C6  UNL     1      23.066  -8.174  82.984  1.00  0.00     0.170 C 
HETATM   10  C7  UNL     1      24.160  -7.202  82.562  1.00  0.00     0.079 C 
HETATM   11  C8  UNL     1      23.639  -9.568  83.288  1.00  0.00     0.115 C 
HETATM   12  C9  UNL     1      24.988  -9.536  83.854  1.00  0.00     0.042 C 
HETATM   13  C10 UNL     1      25.260  -8.852  85.127  1.00  0.00     0.172 C 
HETATM   14  O6  UNL     1      24.158  -8.506  85.895  1.00  0.00    -0.351 OA
HETATM   15  C11 UNL     1      23.465  -9.691  86.112  1.00  0.00     0.227 C 
HETATM   16  C13 UNL     1      22.286  -9.720  85.218  1.00  0.00     0.240 A 
HETATM   17  O9  UNL     1      22.056 -10.976  84.831  1.00  0.00    -0.323 OA
HETATM   18  C14 UNL     1      22.545 -10.334  83.825  1.00  0.00     0.215 A 
ENDROOT
BRANCH   5  19
HETATM   19  O2  UNL     1      19.785  -7.886  83.453  1.00  0.00    -0.366 OA
ATOM     20  H2  UNL     1      19.838  -8.546  82.771  1.00  0.00     0.212 HD
ENDBRANCH   5  19
BRANCH   9  21
HETATM   21  O5  UNL     1      22.244  -8.282  81.837  1.00  0.00    -0.365 OA
ATOM     22  H5  UNL     1      22.792  -8.552  81.110  1.00  0.00     0.213 HD
ENDBRANCH   9  21
BRANCH  15  23
HETATM   23  O7  UNL     1      24.334 -10.805  85.950  1.00  0.00    -0.361 OA
ATOM     24  H7  UNL     1      23.882 -11.610  86.177  1.00  0.00     0.213 HD
ENDBRANCH  15  23
BRANCH  15  25
HETATM   25  C12 UNL     1      22.990  -9.839  87.551  1.00  0.00     0.236 C 
BRANCH  25  26
HETATM   26  O8  UNL     1      23.180  -8.637  88.255  1.00  0.00    -0.395 OA
ATOM     27  H8  UNL     1      22.349  -8.196  88.387  1.00  0.00     0.209 HD
ENDBRANCH  25  26
ENDBRANCH  15  25
BRANCH  18  28
HETATM   28  O10 UNL     1      21.421 -10.202  82.933  1.00  0.00    -0.362 OA
ATOM     29  H10 UNL     1      21.751 -10.164  82.043  1.00  0.00     0.213 HD
ENDBRANCH  18  28
TORSDOF 6
ENDMDL
MODEL 2
REMARK VINA RESULT: -4.823366226      1.272      1.482
REMARK  6 active torsions:
REMARK  status: ('A' for Active; 'I' for Inactive)
REMARK    1  A    between atoms: C4_5  and  O2_6 
REMARK    2  A    between atoms: C6_11  and  O5_13 
REMARK    3  A    between atoms: C11_19  and  O7_20 
REMARK    4  A    between atoms: C11_19  and  C12_22 
REMARK    5  A    between atoms: C12_22  and  O8_23 
REMARK    6  A    between atoms: C14_27  and  O10_28 
ROOT
HETATM    1  C1  UNL     1      21.325  -6.607  88.239  1.00  0.00     0.078 C 
HETATM    2  C2  UNL     1      21.004  -7.462  87.006  1.00  0.00     0.164 C 
HETATM    3  C3  UNL     1      20.280  -6.555  86.046  1.00  0.00     0.078 C 
HETATM    4  O1  UNL     1      20.305  -8.582  87.361  1.00  0.00    -0.321 OA
HETATM    5  C4  UNL     1      20.594  -9.503  86.326  1.00  0.00     0.327 C 
HETATM    6  C5  UNL     1      21.925  -9.080  85.749  1.00  0.00     0.263 C 
HETATM    7  O3  UNL     1      22.188  -7.949  86.537  1.00  0.00    -0.312 OA
HETATM    8  O4  UNL     1      21.817  -8.553  84.478  1.00  0.00    -0.311 OA
HETATM    9  C6  UNL     1      22.177  -9.260  83.406  1.00  0.00     0.170 C 
HETATM   10  C7  UNL     1      22.581  -8.323  82.275  1.00  0.00     0.079 C 
HETATM   11  C8  UNL     1      23.254 -10.327  83.663  1.00  0.00     0.115 C 
HETATM   12  C9  UNL     1      24.617  -9.853  83.421  1.00  0.00     0.042 C 
HETATM   13  C10 UNL     1      25.174  -8.723  84.180  1.00  0.00     0.172 C 
HETATM   14  O6  UNL     1      24.475  -8.330  85.311  1.00  0.00    -0.351 OA
HETATM   15  C11 UNL     1      24.387  -9.464  86.111  1.00  0.00     0.227 C 
HETATM   16  C13 UNL     1      23.021 -10.022  85.993  1.00  0.00     0.240 A 
HETATM   17  O9  UNL     1      23.079 -11.352  86.068  1.00  0.00    -0.323 OA
HETATM   18  C14 UNL     1      22.832 -11.034  84.844  1.00  0.00     0.215 A 
ENDROOT
BRANCH   5  19
HETATM   19  O2  UNL     1      19.548  -9.419  85.439  1.00  0.00    -0.366 OA
ATOM     20  H2  UNL     1      18.934 -10.099  85.690  1.00  0.00     0.212 HD
ENDBRANCH   5  19
BRANCH   9  21
HETATM   21  O5  UNL     1      21.024  -9.916  82.910  1.00  0.00    -0.365 OA
ATOM     22  H5  UNL     1      20.933  -9.691  81.992  1.00  0.00     0.213 HD
ENDBRANCH   9  21
BRANCH  15  23
HETATM   23  O7  UNL     1      25.413 -10.386  85.769  1.00  0.00    -0.361 OA
ATOM     24  H7  UNL     1      25.132 -11.275  85.955  1.00  0.00     0.213 HD
ENDBRANCH  15  23
BRANCH  15  25
HETATM   25  C12 UNL     1      24.670  -9.172  87.578  1.00  0.00     0.236 C 
BRANCH  25  26
HETATM   26  O8  UNL     1      23.591  -9.590  88.378  1.00  0.00    -0.395 OA
ATOM     27  H8  UNL     1      23.427  -8.958  89.067  1.00  0.00     0.209 HD
ENDBRANCH  25  26
ENDBRANCH  15  25
BRANCH  18  28
HETATM   28  O10 UNL     1      21.459 -11.433  84.664  1.00  0.00    -0.362 OA
ATOM     29  H10 UNL     1      20.995 -11.276  85.478  1.00  0.00     0.213 HD
ENDBRANCH  18  28
TORSDOF 6
ENDMDL
MODEL 3
REMARK VINA RESULT: -4.790554630      1.476      2.017
REMARK  6 active torsions:
REMARK  status: ('A' for Active; 'I' for Inactive)
REMARK    1  A    between atoms: C4_5  and  O2_6 
REMARK    2  A    between atoms: C6_11  and  O5_13 
REMARK    3  A    between atoms: C11_19  and  O7_20 
REMARK    4  A    between atoms: C11_19  and  C12_22 
REMARK    5  A    between atoms: C12_22  and  O8_23 
REMARK    6  A    between atoms: C14_27  and  O10_28 
ROOT
HETATM    1  C1  UNL     1      20.279  -5.578  85.590  1.00  0.00     0.078 C 
HETATM    2  C2  UNL     1      20.772  -6.844  84.876  1.00  0.00     0.164 C 
HETATM    3  C3  UNL     1      21.379  -6.382  83.578  1.00  0.00     0.078 C 
HETATM    4  O1  UNL     1      19.755  -7.748  84.735  1.00  0.00    -0.321 OA
HETATM    5  C4  UNL     1      20.422  -8.993  84.642  1.00  0.00     0.327 C 
HETATM    6  C5  UNL     1      21.747  -8.813  85.346  1.00  0.00     0.263 C 
HETATM    7  O3  UNL     1      21.647  -7.464  85.718  1.00  0.00    -0.312 OA
HETATM    8  O4  UNL     1      22.820  -8.816  84.479  1.00  0.00    -0.311 OA
HETATM    9  C6  UNL     1      23.622  -9.878  84.378  1.00  0.00     0.170 C 
HETATM   10  C7  UNL     1      25.006  -9.444  83.914  1.00  0.00     0.079 C 
HETATM   11  C8  UNL     1      23.701 -10.754  85.638  1.00  0.00     0.115 C 
HETATM   12  C9  UNL     1      24.804 -10.398  86.532  1.00  0.00     0.042 C 
HETATM   13  C10 UNL     1      24.893  -9.058  87.131  1.00  0.00     0.172 C 
HETATM   14  O6  UNL     1      23.756  -8.267  87.054  1.00  0.00    -0.351 OA
HETATM   15  C11 UNL     1      22.742  -9.007  87.650  1.00  0.00     0.227 C 
HETATM   16  C13 UNL     1      21.885  -9.579  86.588  1.00  0.00     0.240 A 
HETATM   17  O9  UNL     1      21.445 -10.778  86.972  1.00  0.00    -0.323 OA
HETATM   18  C14 UNL     1      22.340 -10.957  86.062  1.00  0.00     0.215 A 
ENDROOT
BRANCH   5  19
HETATM   19  O2  UNL     1      20.534  -9.266  83.300  1.00  0.00    -0.366 OA
ATOM     20  H2  UNL     1      20.469 -10.210  83.217  1.00  0.00     0.212 HD
ENDBRANCH   5  19
BRANCH   9  21
HETATM   21  O5  UNL     1      23.144 -10.683  83.317  1.00  0.00    -0.365 OA
ATOM     22  H5  UNL     1      23.444 -10.299  82.501  1.00  0.00     0.213 HD
ENDBRANCH   9  21
BRANCH  15  23
HETATM   23  O7  UNL     1      23.295  -9.981  88.526  1.00  0.00    -0.361 OA
ATOM     24  H7  UNL     1      23.393  -9.619  89.400  1.00  0.00     0.213 HD
ENDBRANCH  15  23
BRANCH  15  25
HETATM   25  C12 UNL     1      21.873  -8.171  88.580  1.00  0.00     0.236 C 
BRANCH  25  26
HETATM   26  O8  UNL     1      22.228  -6.813  88.492  1.00  0.00    -0.395 OA
ATOM     27  H8  UNL     1      23.117  -6.683  88.799  1.00  0.00     0.209 HD
ENDBRANCH  25  26
ENDBRANCH  15  25
BRANCH  18  28
HETATM   28  O10 UNL     1      21.577 -11.406  84.925  1.00  0.00    -0.362 OA
ATOM     29  H10 UNL     1      20.735 -10.965  84.939  1.00  0.00     0.213 HD
ENDBRANCH  18  28
TORSDOF 6
ENDMDL
MODEL 4
REMARK VINA RESULT: -4.721911062      1.557      3.983
REMARK  6 active torsions:
REMARK  status: ('A' for Active; 'I' for Inactive)
REMARK    1  A    between atoms: C4_5  and  O2_6 
REMARK    2  A    between atoms: C6_11  and  O5_13 
REMARK    3  A    between atoms: C11_19  and  O7_20 
REMARK    4  A    between atoms: C11_19  and  C12_22 
REMARK    5  A    between atoms: C12_22  and  O8_23 
REMARK    6  A    between atoms: C14_27  and  O10_28 
ROOT
HETATM    1  C1  UNL     1      20.187  -6.304  86.354  1.00  0.00     0.078 C 
HETATM    2  C2  UNL     1      20.957  -7.495  86.942  1.00  0.00     0.164 C 
HETATM    3  C3  UNL     1      19.962  -8.269  87.767  1.00  0.00     0.078 C 
HETATM    4  O1  UNL     1      22.055  -7.068  87.636  1.00  0.00    -0.321 OA
HETATM    5  C4  UNL     1      22.933  -8.177  87.593  1.00  0.00     0.327 C 
HETATM    6  C5  UNL     1      22.552  -8.966  86.362  1.00  0.00     0.263 C 
HETATM    7  O3  UNL     1      21.481  -8.190  85.893  1.00  0.00    -0.312 OA
HETATM    8  O4  UNL     1      21.953 -10.172  86.661  1.00  0.00    -0.311 OA
HETATM    9  C6  UNL     1      22.620 -11.322  86.542  1.00  0.00     0.170 C 
HETATM   10  C7  UNL     1      21.646 -12.466  86.287  1.00  0.00     0.079 C 
HETATM   11  C8  UNL     1      23.755 -11.310  85.506  1.00  0.00     0.115 C 
HETATM   12  C9  UNL     1      23.343 -11.773  84.180  1.00  0.00     0.042 C 
HETATM   13  C10 UNL     1      22.287 -11.079  83.428  1.00  0.00     0.172 C 
HETATM   14  O6  UNL     1      21.918  -9.824  83.889  1.00  0.00    -0.351 OA
HETATM   15  C11 UNL     1      23.087  -9.071  83.904  1.00  0.00     0.227 C 
HETATM   16  C13 UNL     1      23.563  -8.964  85.301  1.00  0.00     0.240 A 
HETATM   17  O9  UNL     1      24.897  -8.959  85.314  1.00  0.00    -0.323 OA
HETATM   18  C14 UNL     1      24.501 -10.104  85.754  1.00  0.00     0.215 A 
ENDROOT
BRANCH   5  19
HETATM   19  O2  UNL     1      22.746  -8.857  88.773  1.00  0.00    -0.366 OA
ATOM     20  H2  UNL     1      23.613  -9.094  89.081  1.00  0.00     0.212 HD
ENDBRANCH   5  19
BRANCH   9  21
HETATM   21  O5  UNL     1      23.185 -11.629  87.803  1.00  0.00    -0.365 OA
ATOM     22  H5  UNL     1      23.168 -12.573  87.908  1.00  0.00     0.213 HD
ENDBRANCH   9  21
BRANCH  15  23
HETATM   23  O7  UNL     1      24.044  -9.632  83.014  1.00  0.00    -0.361 OA
ATOM     24  H7  UNL     1      24.716 -10.093  83.503  1.00  0.00     0.213 HD
ENDBRANCH  15  23
BRANCH  15  25
HETATM   25  C12 UNL     1      22.890  -7.668  83.347  1.00  0.00     0.236 C 
BRANCH  25  26
HETATM   26  O8  UNL     1      21.530  -7.436  83.076  1.00  0.00    -0.395 OA
ATOM     27  H8  UNL     1      20.988  -8.061  83.543  1.00  0.00     0.209 HD
ENDBRANCH  25  26
ENDBRANCH  15  25
BRANCH  18  28
HETATM   28  O10 UNL     1      24.815 -10.050  87.160  1.00  0.00    -0.362 OA
ATOM     29  H10 UNL     1      24.048  -9.736  87.624  1.00  0.00     0.213 HD
ENDBRANCH  18  28
TORSDOF 6
ENDMDL
MODEL 5
REMARK VINA RESULT: -4.575741892      1.451      4.955
REMARK  6 active torsions:
REMARK  status: ('A' for Active; 'I' for Inactive)
REMARK    1  A    between atoms: C4_5  and  O2_6 
REMARK    2  A    between atoms: C6_11  and  O5_13 
REMARK    3  A    between atoms: C11_19  and  O7_20 
REMARK    4  A    between atoms: C11_19  and  C12_22 
REMARK    5  A    between atoms: C12_22  and  O8_23 
REMARK    6  A    between atoms: C14_27  and  O10_28 
ROOT
HETATM    1  C1  UNL     1      25.421  -9.578  84.815  1.00  0.00     0.078 C 
HETATM    2  C2  UNL     1      24.501  -9.343  86.021  1.00  0.00     0.164 C 
HETATM    3  C3  UNL     1      25.337  -8.632  87.052  1.00  0.00     0.078 C 
HETATM    4  O1  UNL     1      23.954 -10.520  86.451  1.00  0.00    -0.321 OA
HETATM    5  C4  UNL     1      22.759 -10.121  87.096  1.00  0.00     0.327 C 
HETATM    6  C5  UNL     1      22.369  -8.799  86.476  1.00  0.00     0.263 C 
HETATM    7  O3  UNL     1      23.430  -8.628  85.574  1.00  0.00    -0.312 OA
HETATM    8  O4  UNL     1      22.522  -7.735  87.340  1.00  0.00    -0.311 OA
HETATM    9  C6  UNL     1      21.468  -7.165  87.927  1.00  0.00     0.170 C 
HETATM   10  C7  UNL     1      21.780  -5.714  88.266  1.00  0.00     0.079 C 
HETATM   11  C8  UNL     1      20.147  -7.289  87.151  1.00  0.00     0.115 C 
HETATM   12  C9  UNL     1      19.877  -6.152  86.270  1.00  0.00     0.042 C 
HETATM   13  C10 UNL     1      20.797  -5.802  85.178  1.00  0.00     0.172 C 
HETATM   14  O6  UNL     1      21.751  -6.751  84.841  1.00  0.00    -0.351 OA
HETATM   15  C11 UNL     1      21.040  -7.905  84.534  1.00  0.00     0.227 C 
HETATM   16  C13 UNL     1      21.143  -8.842  85.675  1.00  0.00     0.240 A 
HETATM   17  O9  UNL     1      20.002  -9.525  85.790  1.00  0.00    -0.323 OA
HETATM   18  C14 UNL     1      20.052  -8.670  86.754  1.00  0.00     0.215 A 
ENDROOT
BRANCH   5  19
HETATM   19  O2  UNL     1      23.058 -10.044  88.436  1.00  0.00    -0.366 OA
ATOM     20  H2  UNL     1      23.355  -9.155  88.589  1.00  0.00     0.212 HD
ENDBRANCH   5  19
BRANCH   9  21
HETATM   21  O5  UNL     1      21.290  -7.780  89.190  1.00  0.00    -0.365 OA
ATOM     22  H5  UNL     1      22.138  -8.088  89.486  1.00  0.00     0.213 HD
ENDBRANCH   9  21
BRANCH  15  23
HETATM   23  O7  UNL     1      19.702  -7.578  84.181  1.00  0.00    -0.361 OA
ATOM     24  H7  UNL     1      19.603  -7.580  83.235  1.00  0.00     0.213 HD
ENDBRANCH  15  23
BRANCH  15  25
HETATM   25  C12 UNL     1      21.560  -8.600  83.283  1.00  0.00     0.236 C 
BRANCH  25  26
HETATM   26  O8  UNL     1      21.525  -9.997  83.449  1.00  0.00    -0.395 OA
ATOM     27  H8  UNL     1      22.329 -10.388  83.129  1.00  0.00     0.209 HD
ENDBRANCH  25  26
ENDBRANCH  15  25
BRANCH  18  28
HETATM   28  O10 UNL     1      20.277  -9.489  87.918  1.00  0.00    -0.362 OA
ATOM     29  H10 UNL     1      19.667 -10.218  87.890  1.00  0.00     0.213 HD
ENDBRANCH  18  28
TORSDOF 6
ENDMDL
