MODEL 1
REMARK VINA RESULT: -5.519722561      0.000      0.000
REMARK  7 active torsions:
REMARK  status: ('A' for Active; 'I' for Inactive)
REMARK    1  A    between atoms: N1_2  and  C4_5 
REMARK    2  A    between atoms: C4_5  and  C5_6 
REMARK    3  A    between atoms: C5_6  and  C6_7 
REMARK    4  A    between atoms: C6_7  and  C7_8 
REMARK    5  A    between atoms: C8_11  and  N3_12 
REMARK    6  A    between atoms: C9_17  and  N5_18 
REMARK    7  A    between atoms: N5_18  and  C10_20 
ROOT
HETATM    1  C7  UNL     1      26.621  75.257  10.934  1.00  0.00     0.071 A 
HETATM    2  N2  UNL     1      26.787  74.054  10.349  1.00  0.00    -0.192 N 
ATOM      3  H2  UNL     1      26.112  73.568   9.760  1.00  0.00     0.184 HD
HETATM    4  C8  UNL     1      28.021  73.613  10.694  1.00  0.00     0.677 A 
HETATM    5  N4  UNL     1      28.595  74.554  11.486  1.00  0.00    -0.175 N 
ATOM      6  H4  UNL     1      29.529  74.488  11.893  1.00  0.00     0.186 HD
HETATM    7  C9  UNL     1      27.755  75.583  11.654  1.00  0.00     0.144 A 
ENDROOT
BRANCH   1   8
HETATM    8  C6  UNL     1      25.404  76.113  10.828  1.00  0.00     0.063 C 
BRANCH   8   9
HETATM    9  C5  UNL     1      24.285  75.589  11.704  1.00  0.00     0.034 C 
BRANCH   9  10
HETATM   10  C4  UNL     1      24.358  76.302  13.027  1.00  0.00     0.236 C 
BRANCH  10  11
HETATM   11  N1  UNL     1      24.211  75.407  14.153  1.00  0.00    -0.079 N 
HETATM   12  C1  UNL     1      23.791  76.211  15.286  1.00  0.00     0.271 C 
HETATM   13  C2  UNL     1      23.203  74.397  13.923  1.00  0.00     0.271 C 
HETATM   14  C3  UNL     1      25.456  74.774  14.519  1.00  0.00     0.271 C 
ENDBRANCH  10  11
ENDBRANCH   9  10
ENDBRANCH   8   9
ENDBRANCH   1   8
BRANCH   7  15
HETATM   15  N5  UNL     1      27.906  76.788  12.391  1.00  0.00    -0.341 N 
ATOM     16  H5  UNL     1      27.601  77.654  11.948  1.00  0.00     0.167 HD
BRANCH  15  17
HETATM   17  C10 UNL     1      28.392  76.866  13.556  1.00  0.00     0.171 C 
HETATM   18  S1  UNL     1      28.736  77.263  15.095  1.00  0.00    -0.074 SA
ENDBRANCH  15  17
ENDBRANCH   7  15
BRANCH   4  19
HETATM   19  N3  UNL     1      28.520  72.481  10.305  1.00  0.00    -0.234 N 
ATOM     20  H32 UNL     1      28.644  71.627  10.850  1.00  0.00     0.174 HD
ATOM     21  H31 UNL     1      28.864  72.304   9.361  1.00  0.00     0.174 HD
ENDBRANCH   4  19
TORSDOF 7
ENDMDL
MODEL 2
REMARK VINA RESULT: -5.437521395      2.282      3.258
REMARK  7 active torsions:
REMARK  status: ('A' for Active; 'I' for Inactive)
REMARK    1  A    between atoms: N1_2  and  C4_5 
REMARK    2  A    between atoms: C4_5  and  C5_6 
REMARK    3  A    between atoms: C5_6  and  C6_7 
REMARK    4  A    between atoms: C6_7  and  C7_8 
REMARK    5  A    between atoms: C8_11  and  N3_12 
REMARK    6  A    between atoms: C9_17  and  N5_18 
REMARK    7  A    between atoms: N5_18  and  C10_20 
ROOT
HETATM    1  C7  UNL     1      27.341  75.616  11.513  1.00  0.00     0.071 A 
HETATM    2  N2  UNL     1      28.273  74.838  10.927  1.00  0.00    -0.192 N 
ATOM      3  H2  UNL     1      29.283  74.904  11.048  1.00  0.00     0.184 HD
HETATM    4  C8  UNL     1      27.610  73.950  10.146  1.00  0.00     0.677 A 
HETATM    5  N4  UNL     1      26.281  74.197  10.265  1.00  0.00    -0.175 N 
ATOM      6  H4  UNL     1      25.543  73.679   9.788  1.00  0.00     0.186 HD
HETATM    7  C9  UNL     1      26.082  75.222  11.104  1.00  0.00     0.144 A 
ENDROOT
BRANCH   1   8
HETATM    8  C6  UNL     1      27.618  76.736  12.461  1.00  0.00     0.063 C 
BRANCH   8   9
HETATM    9  C5  UNL     1      28.217  76.225  13.755  1.00  0.00     0.034 C 
BRANCH   9  10
HETATM   10  C4  UNL     1      27.543  76.942  14.893  1.00  0.00     0.236 C 
BRANCH  10  11
HETATM   11  N1  UNL     1      26.899  76.037  15.819  1.00  0.00    -0.079 N 
HETATM   12  C1  UNL     1      25.533  76.498  15.986  1.00  0.00     0.271 C 
HETATM   13  C2  UNL     1      26.854  74.681  15.320  1.00  0.00     0.271 C 
HETATM   14  C3  UNL     1      27.516  76.053  17.124  1.00  0.00     0.271 C 
ENDBRANCH  10  11
ENDBRANCH   9  10
ENDBRANCH   8   9
ENDBRANCH   1   8
BRANCH   7  15
HETATM   15  N5  UNL     1      24.878  75.839  11.538  1.00  0.00    -0.341 N 
ATOM     16  H5  UNL     1      24.551  76.654  11.020  1.00  0.00     0.167 HD
BRANCH  15  17
HETATM   17  C10 UNL     1      24.182  75.452  12.521  1.00  0.00     0.171 C 
HETATM   18  S1  UNL     1      23.380  74.582  13.636  1.00  0.00    -0.074 SA
ENDBRANCH  15  17
ENDBRANCH   7  15
BRANCH   4  19
HETATM   19  N3  UNL     1      28.195  73.040   9.429  1.00  0.00    -0.234 N 
ATOM     20  H32 UNL     1      28.454  72.092   9.704  1.00  0.00     0.174 HD
ATOM     21  H31 UNL     1      28.478  73.176   8.459  1.00  0.00     0.174 HD
ENDBRANCH   4  19
TORSDOF 7
ENDMDL
MODEL 3
REMARK VINA RESULT: -5.379100959      2.064      3.355
REMARK  7 active torsions:
REMARK  status: ('A' for Active; 'I' for Inactive)
REMARK    1  A    between atoms: N1_2  and  C4_5 
REMARK    2  A    between atoms: C4_5  and  C5_6 
REMARK    3  A    between atoms: C5_6  and  C6_7 
REMARK    4  A    between atoms: C6_7  and  C7_8 
REMARK    5  A    between atoms: C8_11  and  N3_12 
REMARK    6  A    between atoms: C9_17  and  N5_18 
REMARK    7  A    between atoms: N5_18  and  C10_20 
ROOT
HETATM    1  C7  UNL     1      26.986  76.362  11.834  1.00  0.00     0.071 A 
HETATM    2  N2  UNL     1      27.542  77.197  12.736  1.00  0.00    -0.192 N 
ATOM      3  H2  UNL     1      27.197  78.118  13.004  1.00  0.00     0.184 HD
HETATM    4  C8  UNL     1      28.647  76.578  13.218  1.00  0.00     0.677 A 
HETATM    5  N4  UNL     1      28.752  75.371  12.604  1.00  0.00    -0.175 N 
ATOM      6  H4  UNL     1      29.493  74.690  12.774  1.00  0.00     0.186 HD
HETATM    7  C9  UNL     1      27.740  75.209  11.743  1.00  0.00     0.144 A 
ENDROOT
BRANCH   1   8
HETATM    8  C6  UNL     1      25.746  76.634  11.050  1.00  0.00     0.063 C 
BRANCH   8   9
HETATM    9  C5  UNL     1      24.534  76.734  11.955  1.00  0.00     0.034 C 
BRANCH   9  10
HETATM   10  C4  UNL     1      24.151  75.340  12.372  1.00  0.00     0.236 C 
BRANCH  10  11
HETATM   11  N1  UNL     1      23.976  75.214  13.802  1.00  0.00    -0.079 N 
HETATM   12  C1  UNL     1      22.987  74.175  14.021  1.00  0.00     0.271 C 
HETATM   13  C2  UNL     1      25.195  74.819  14.472  1.00  0.00     0.271 C 
HETATM   14  C3  UNL     1      23.463  76.423  14.403  1.00  0.00     0.271 C 
ENDBRANCH  10  11
ENDBRANCH   9  10
ENDBRANCH   8   9
ENDBRANCH   1   8
BRANCH   7  15
HETATM   15  N5  UNL     1      27.427  74.123  10.882  1.00  0.00    -0.341 N 
ATOM     16  H5  UNL     1      26.465  73.785  10.879  1.00  0.00     0.167 HD
BRANCH  15  17
HETATM   17  C10 UNL     1      28.253  73.545  10.118  1.00  0.00     0.171 C 
HETATM   18  S1  UNL     1      29.386  72.574   9.471  1.00  0.00    -0.074 SA
ENDBRANCH  15  17
ENDBRANCH   7  15
BRANCH   4  19
HETATM   19  N3  UNL     1      29.433  77.094  14.111  1.00  0.00    -0.234 N 
ATOM     20  H32 UNL     1      29.179  77.642  14.933  1.00  0.00     0.174 HD
ATOM     21  H31 UNL     1      30.450  77.007  14.093  1.00  0.00     0.174 HD
ENDBRANCH   4  19
TORSDOF 7
ENDMDL
MODEL 4
REMARK VINA RESULT: -5.318375901      1.857      2.620
REMARK  7 active torsions:
REMARK  status: ('A' for Active; 'I' for Inactive)
REMARK    1  A    between atoms: N1_2  and  C4_5 
REMARK    2  A    between atoms: C4_5  and  C5_6 
REMARK    3  A    between atoms: C5_6  and  C6_7 
REMARK    4  A    between atoms: C6_7  and  C7_8 
REMARK    5  A    between atoms: C8_11  and  N3_12 
REMARK    6  A    between atoms: C9_17  and  N5_18 
REMARK    7  A    between atoms: N5_18  and  C10_20 
ROOT
HETATM    1  C7  UNL     1      27.720  75.033  13.177  1.00  0.00     0.071 A 
HETATM    2  N2  UNL     1      27.962  73.751  12.837  1.00  0.00    -0.192 N 
ATOM      3  H2  UNL     1      28.045  72.959  13.475  1.00  0.00     0.184 HD
HETATM    4  C8  UNL     1      28.072  73.714  11.487  1.00  0.00     0.677 A 
HETATM    5  N4  UNL     1      27.896  74.975  11.018  1.00  0.00    -0.175 N 
ATOM      6  H4  UNL     1      27.927  75.244  10.034  1.00  0.00     0.186 HD
HETATM    7  C9  UNL     1      27.677  75.814  12.038  1.00  0.00     0.144 A 
ENDROOT
BRANCH   1   8
HETATM    8  C6  UNL     1      27.527  75.541  14.567  1.00  0.00     0.063 C 
BRANCH   8   9
HETATM    9  C5  UNL     1      26.091  75.958  14.805  1.00  0.00     0.034 C 
BRANCH   9  10
HETATM   10  C4  UNL     1      25.212  74.765  14.546  1.00  0.00     0.236 C 
BRANCH  10  11
HETATM   11  N1  UNL     1      23.954  75.122  13.928  1.00  0.00    -0.079 N 
HETATM   12  C1  UNL     1      23.456  76.297  14.619  1.00  0.00     0.271 C 
HETATM   13  C2  UNL     1      24.105  75.457  12.530  1.00  0.00     0.271 C 
HETATM   14  C3  UNL     1      22.956  74.089  14.074  1.00  0.00     0.271 C 
ENDBRANCH  10  11
ENDBRANCH   9  10
ENDBRANCH   8   9
ENDBRANCH   1   8
BRANCH   7  15
HETATM   15  N5  UNL     1      27.440  77.215  12.047  1.00  0.00    -0.341 N 
ATOM     16  H5  UNL     1      27.970  77.779  12.711  1.00  0.00     0.167 HD
BRANCH  15  17
HETATM   17  C10 UNL     1      26.620  77.814  11.293  1.00  0.00     0.171 C 
HETATM   18  S1  UNL     1      25.461  78.200  10.219  1.00  0.00    -0.074 SA
ENDBRANCH  15  17
ENDBRANCH   7  15
BRANCH   4  19
HETATM   19  N3  UNL     1      28.306  72.632  10.810  1.00  0.00    -0.234 N 
ATOM     20  H32 UNL     1      27.885  71.711  10.930  1.00  0.00     0.174 HD
ATOM     21  H31 UNL     1      28.973  72.576  10.040  1.00  0.00     0.174 HD
ENDBRANCH   4  19
TORSDOF 7
ENDMDL
MODEL 5
REMARK VINA RESULT: -5.235597330      2.385      4.014
REMARK  7 active torsions:
REMARK  status: ('A' for Active; 'I' for Inactive)
REMARK    1  A    between atoms: N1_2  and  C4_5 
REMARK    2  A    between atoms: C4_5  and  C5_6 
REMARK    3  A    between atoms: C5_6  and  C6_7 
REMARK    4  A    between atoms: C6_7  and  C7_8 
REMARK    5  A    between atoms: C8_11  and  N3_12 
REMARK    6  A    between atoms: C9_17  and  N5_18 
REMARK    7  A    between atoms: N5_18  and  C10_20 
ROOT
HETATM    1  C7  UNL     1      27.320  75.567  11.529  1.00  0.00     0.071 A 
HETATM    2  N2  UNL     1      28.267  74.787  10.970  1.00  0.00    -0.192 N 
ATOM      3  H2  UNL     1      29.271  74.838  11.137  1.00  0.00     0.184 HD
HETATM    4  C8  UNL     1      27.629  73.922  10.145  1.00  0.00     0.677 A 
HETATM    5  N4  UNL     1      26.299  74.184  10.210  1.00  0.00    -0.175 N 
ATOM      6  H4  UNL     1      25.577  73.684   9.691  1.00  0.00     0.186 HD
HETATM    7  C9  UNL     1      26.076  75.197  11.057  1.00  0.00     0.144 A 
ENDROOT
BRANCH   1   8
HETATM    8  C6  UNL     1      27.567  76.666  12.508  1.00  0.00     0.063 C 
BRANCH   8   9
HETATM    9  C5  UNL     1      28.045  76.120  13.838  1.00  0.00     0.034 C 
BRANCH   9  10
HETATM   10  C4  UNL     1      29.123  77.034  14.354  1.00  0.00     0.236 C 
BRANCH  10  11
HETATM   11  N1  UNL     1      28.794  77.617  15.637  1.00  0.00    -0.079 N 
HETATM   12  C1  UNL     1      28.389  78.988  15.391  1.00  0.00     0.271 C 
HETATM   13  C2  UNL     1      27.695  76.935  16.283  1.00  0.00     0.271 C 
HETATM   14  C3  UNL     1      29.928  77.661  16.529  1.00  0.00     0.271 C 
ENDBRANCH  10  11
ENDBRANCH   9  10
ENDBRANCH   8   9
ENDBRANCH   1   8
BRANCH   7  15
HETATM   15  N5  UNL     1      24.861  75.821  11.449  1.00  0.00    -0.341 N 
ATOM     16  H5  UNL     1      24.535  76.610  10.892  1.00  0.00     0.167 HD
BRANCH  15  17
HETATM   17  C10 UNL     1      24.155  75.470  12.438  1.00  0.00     0.171 C 
HETATM   18  S1  UNL     1      23.483  74.683  13.693  1.00  0.00    -0.074 SA
ENDBRANCH  15  17
ENDBRANCH   7  15
BRANCH   4  19
HETATM   19  N3  UNL     1      28.234  73.018   9.438  1.00  0.00    -0.234 N 
ATOM     20  H32 UNL     1      28.511  73.066   8.458  1.00  0.00     0.174 HD
ATOM     21  H31 UNL     1      28.516  72.106   9.801  1.00  0.00     0.174 HD
ENDBRANCH   4  19
TORSDOF 7
ENDMDL
