MODEL 1
REMARK VINA RESULT: -5.712274850      0.000      0.000
REMARK  1 active torsions:
REMARK  status: ('A' for Active; 'I' for Inactive)
REMARK    1  A    between atoms: C2_2  and  C3_4 
ROOT
HETATM    1  C3  UNL     1       0.897  -2.783  41.198  1.00  0.00    -0.057 C 
HETATM    2  C4  UNL     1      -0.095  -2.188  41.845  1.00  0.00    -0.014 C 
HETATM    3  C5  UNL     1       0.529  -1.329  42.909  1.00  0.00     0.054 A 
HETATM    4  C6  UNL     1       1.529  -2.053  43.700  1.00  0.00     0.055 A 
HETATM    5  C7  UNL     1       2.602  -2.927  43.090  1.00  0.00     0.155 C 
HETATM    6  C8  UNL     1       2.207  -2.386  41.732  1.00  0.00     0.074 C 
HETATM    7  C9  UNL     1       1.860  -1.129  42.472  1.00  0.00     0.102 A 
HETATM    8  O1  UNL     1       2.912  -0.461  42.893  1.00  0.00    -0.262 OA
HETATM    9  S1  UNL     1       4.178  -1.950  43.431  1.00  0.00     0.271 S 
HETATM   10  O2  UNL     1       4.718  -2.682  44.536  1.00  0.00    -0.198 OA
HETATM   11  O3  UNL     1       5.261  -1.185  42.680  1.00  0.00    -0.198 OA
ENDROOT
BRANCH   1  12
HETATM   12  C2  UNL     1       0.713  -3.728  40.062  1.00  0.00     0.107 C 
HETATM   13  C1  UNL     1       1.948  -4.596  39.876  1.00  0.00     0.031 C 
HETATM   14 CL1  UNL     1       0.485  -2.823  38.537  1.00  0.00    -0.121 Cl
ENDBRANCH   1  12
TORSDOF 1
ENDMDL
MODEL 2
REMARK VINA RESULT: -5.699949902      6.067      7.422
REMARK  1 active torsions:
REMARK  status: ('A' for Active; 'I' for Inactive)
REMARK    1  A    between atoms: C2_2  and  C3_4 
ROOT
HETATM    1  C3  UNL     1      -1.004   2.842  41.158  1.00  0.00    -0.057 C 
HETATM    2  C4  UNL     1      -0.003   2.237  41.780  1.00  0.00    -0.014 C 
HETATM    3  C5  UNL     1      -0.611   1.368  42.846  1.00  0.00     0.054 A 
HETATM    4  C6  UNL     1      -1.594   2.086  43.663  1.00  0.00     0.055 A 
HETATM    5  C7  UNL     1      -2.675   2.971  43.082  1.00  0.00     0.155 C 
HETATM    6  C8  UNL     1      -2.306   2.444  41.711  1.00  0.00     0.074 C 
HETATM    7  C9  UNL     1      -1.951   1.178  42.430  1.00  0.00     0.102 A 
HETATM    8  O1  UNL     1      -2.997   0.509  42.862  1.00  0.00    -0.262 OA
HETATM    9  S1  UNL     1      -4.248   1.995  43.440  1.00  0.00     0.271 S 
HETATM   10  O2  UNL     1      -4.765   2.716  44.562  1.00  0.00    -0.198 OA
HETATM   11  O3  UNL     1      -5.347   1.243  42.700  1.00  0.00    -0.198 OA
ENDROOT
BRANCH   1  12
HETATM   12  C2  UNL     1      -0.837   3.800  40.030  1.00  0.00     0.107 C 
HETATM   13  C1  UNL     1      -2.087   4.648  39.852  1.00  0.00     0.031 C 
HETATM   14 CL1  UNL     1      -0.596   2.911  38.497  1.00  0.00    -0.121 Cl
ENDBRANCH   1  12
TORSDOF 1
ENDMDL
MODEL 3
REMARK VINA RESULT: -5.688233896      2.317      3.368
REMARK  1 active torsions:
REMARK  status: ('A' for Active; 'I' for Inactive)
REMARK    1  A    between atoms: C2_2  and  C3_4 
ROOT
HETATM    1  C3  UNL     1       3.040  -3.501  41.196  1.00  0.00    -0.057 C 
HETATM    2  C4  UNL     1       4.224  -3.462  41.791  1.00  0.00    -0.014 C 
HETATM    3  C5  UNL     1       4.055  -2.654  43.048  1.00  0.00     0.054 A 
HETATM    4  C6  UNL     1       3.361  -1.384  42.810  1.00  0.00     0.055 A 
HETATM    5  C7  UNL     1       2.101  -1.263  41.982  1.00  0.00     0.155 C 
HETATM    6  C8  UNL     1       2.021  -2.775  41.967  1.00  0.00     0.074 C 
HETATM    7  C9  UNL     1       2.666  -2.699  43.318  1.00  0.00     0.102 A 
HETATM    8  O1  UNL     1       1.863  -2.252  44.258  1.00  0.00    -0.262 OA
HETATM    9  S1  UNL     1       0.795  -0.839  43.274  1.00  0.00     0.271 S 
HETATM   10  O2  UNL     1       0.642   0.567  43.053  1.00  0.00    -0.198 OA
HETATM   11  O3  UNL     1      -0.444  -1.445  43.922  1.00  0.00    -0.198 OA
ENDROOT
BRANCH   1  12
HETATM   12  C2  UNL     1       2.767  -4.204  39.912  1.00  0.00     0.107 C 
HETATM   13  C1  UNL     1       1.336  -3.964  39.458  1.00  0.00     0.031 C 
HETATM   14 CL1  UNL     1       2.951  -5.970  40.123  1.00  0.00    -0.121 Cl
ENDBRANCH   1  12
TORSDOF 1
ENDMDL
MODEL 4
REMARK VINA RESULT: -5.640325899      3.448      4.452
REMARK  1 active torsions:
REMARK  status: ('A' for Active; 'I' for Inactive)
REMARK    1  A    between atoms: C2_2  and  C3_4 
ROOT
HETATM    1  C3  UNL     1       0.914  -2.731  41.324  1.00  0.00    -0.057 C 
HETATM    2  C4  UNL     1       0.115  -2.456  40.302  1.00  0.00    -0.014 C 
HETATM    3  C5  UNL     1       0.437  -3.446  39.217  1.00  0.00     0.054 A 
HETATM    4  C6  UNL     1       1.876  -3.546  38.957  1.00  0.00     0.055 A 
HETATM    5  C7  UNL     1       2.916  -3.668  40.050  1.00  0.00     0.155 C 
HETATM    6  C8  UNL     1       1.787  -3.878  41.036  1.00  0.00     0.074 C 
HETATM    7  C9  UNL     1       1.068  -4.520  39.888  1.00  0.00     0.102 A 
HETATM    8  O1  UNL     1       1.553  -5.697  39.559  1.00  0.00    -0.262 OA
HETATM    9  S1  UNL     1       3.543  -5.432  39.829  1.00  0.00     0.271 S 
HETATM   10  O2  UNL     1       4.791  -5.196  39.169  1.00  0.00    -0.198 OA
HETATM   11  O3  UNL     1       3.537  -6.771  40.556  1.00  0.00    -0.198 OA
ENDROOT
BRANCH   1  12
HETATM   12  C2  UNL     1       0.922  -1.981  42.610  1.00  0.00     0.107 C 
HETATM   13  C1  UNL     1      -0.069  -0.828  42.570  1.00  0.00     0.031 C 
HETATM   14 CL1  UNL     1       2.535  -1.263  42.896  1.00  0.00    -0.121 Cl
ENDBRANCH   1  12
TORSDOF 1
ENDMDL
MODEL 5
REMARK VINA RESULT: -5.347730546      5.336      6.846
REMARK  1 active torsions:
REMARK  status: ('A' for Active; 'I' for Inactive)
REMARK    1  A    between atoms: C2_2  and  C3_4 
ROOT
HETATM    1  C3  UNL     1       7.760  -2.244  45.492  1.00  0.00    -0.057 C 
HETATM    2  C4  UNL     1       8.112  -3.487  45.193  1.00  0.00    -0.014 C 
HETATM    3  C5  UNL     1       7.179  -3.956  44.111  1.00  0.00     0.054 A 
HETATM    4  C6  UNL     1       5.772  -3.697  44.431  1.00  0.00     0.055 A 
HETATM    5  C7  UNL     1       5.267  -2.376  44.968  1.00  0.00     0.155 C 
HETATM    6  C8  UNL     1       6.630  -1.788  44.671  1.00  0.00     0.074 C 
HETATM    7  C9  UNL     1       6.669  -2.767  43.537  1.00  0.00     0.102 A 
HETATM    8  O1  UNL     1       5.861  -2.456  42.548  1.00  0.00    -0.262 OA
HETATM    9  S1  UNL     1       4.255  -1.702  43.527  1.00  0.00     0.271 S 
HETATM   10  O2  UNL     1       2.925  -1.979  43.977  1.00  0.00    -0.198 OA
HETATM   11  O3  UNL     1       4.281  -0.562  42.516  1.00  0.00    -0.198 OA
ENDROOT
BRANCH   1  12
HETATM   12  C2  UNL     1       8.432  -1.406  46.523  1.00  0.00     0.107 C 
HETATM   13  C1  UNL     1       7.469  -0.377  47.095  1.00  0.00     0.031 C 
HETATM   14 CL1  UNL     1       9.785  -0.493  45.791  1.00  0.00    -0.121 Cl
ENDBRANCH   1  12
TORSDOF 1
ENDMDL
