MODEL 1
REMARK VINA RESULT: -4.161793638      0.000      0.000
REMARK  2 active torsions:
REMARK  status: ('A' for Active; 'I' for Inactive)
REMARK    1  A    between atoms: N2_5  and  C4_6 
REMARK    2  A    between atoms: C10_13  and  O1_14 
ROOT
HETATM    1  C4  UNL     1       6.451  -1.743  46.952  1.00  0.00     0.253 C 
HETATM    2  C5  UNL     1       7.533  -1.646  48.038  1.00  0.00     0.059 C 
HETATM    3  C6  UNL     1       6.616  -1.754  49.265  1.00  0.00     0.094 C 
HETATM    4 CL1  UNL     1       6.095  -3.468  49.302  1.00  0.00    -0.124 Cl
HETATM    5  C7  UNL     1       5.490  -0.834  48.896  1.00  0.00    -0.003 C 
HETATM    6  C8  UNL     1       5.721   0.481  49.605  1.00  0.00     0.019 C 
HETATM    7  C9  UNL     1       4.144  -1.402  49.315  1.00  0.00     0.019 C 
HETATM    8  C10 UNL     1       5.531  -0.633  47.397  1.00  0.00     0.161 C 
ENDROOT
BRANCH   1   9
HETATM    9  N2  UNL     1       7.025  -1.560  45.667  1.00  0.00     0.099 N 
HETATM   10  C3  UNL     1       6.101  -1.882  44.628  1.00  0.00     0.303 C 
HETATM   11  C2  UNL     1       5.998  -3.341  44.310  1.00  0.00     0.302 C 
HETATM   12  N1  UNL     1       7.295  -3.981  44.202  1.00  0.00     0.087 N 
HETATM   13  C1  UNL     1       7.177  -5.390  44.021  1.00  0.00     0.310 C 
HETATM   14  C12 UNL     1       7.970  -3.743  45.480  1.00  0.00     0.302 C 
HETATM   15  C11 UNL     1       8.264  -2.251  45.506  1.00  0.00     0.303 C 
ENDBRANCH   1   9
BRANCH   8  16
HETATM   16  O1  UNL     1       5.950   0.623  47.025  1.00  0.00    -0.393 OA
ATOM     17  H1  UNL     1       5.812   1.288  47.689  1.00  0.00     0.210 HD
ENDBRANCH   8  16
TORSDOF 2
ENDMDL
MODEL 2
REMARK VINA RESULT: -3.969504879      2.527      4.977
REMARK  2 active torsions:
REMARK  status: ('A' for Active; 'I' for Inactive)
REMARK    1  A    between atoms: N2_5  and  C4_6 
REMARK    2  A    between atoms: C10_13  and  O1_14 
ROOT
HETATM    1  C4  UNL     1       6.206  -1.671  47.574  1.00  0.00     0.253 C 
HETATM    2  C5  UNL     1       6.450  -0.337  46.853  1.00  0.00     0.059 C 
HETATM    3  C6  UNL     1       6.847  -0.903  45.482  1.00  0.00     0.094 C 
HETATM    4 CL1  UNL     1       5.320  -1.522  44.778  1.00  0.00    -0.124 Cl
HETATM    5  C7  UNL     1       7.780  -2.016  45.862  1.00  0.00    -0.003 C 
HETATM    6  C8  UNL     1       9.193  -1.509  45.685  1.00  0.00     0.019 C 
HETATM    7  C9  UNL     1       7.572  -3.242  44.988  1.00  0.00     0.019 C 
HETATM    8  C10 UNL     1       7.524  -2.357  47.314  1.00  0.00     0.161 C 
ENDROOT
BRANCH   1   9
HETATM    9  N2  UNL     1       5.915  -1.445  48.945  1.00  0.00     0.099 N 
HETATM   10  C3  UNL     1       5.527  -2.648  49.605  1.00  0.00     0.303 C 
HETATM   11  C2  UNL     1       4.090  -3.029  49.424  1.00  0.00     0.302 C 
HETATM   12  N1  UNL     1       3.189  -1.907  49.605  1.00  0.00     0.087 N 
HETATM   13  C1  UNL     1       1.839  -2.258  49.310  1.00  0.00     0.310 C 
HETATM   14  C12 UNL     1       3.614  -0.887  48.643  1.00  0.00     0.302 C 
HETATM   15  C11 UNL     1       4.964  -0.399  49.148  1.00  0.00     0.303 C 
ENDBRANCH   1   9
BRANCH   8  16
HETATM   16  O1  UNL     1       8.537  -1.958  48.155  1.00  0.00    -0.393 OA
ATOM     17  H1  UNL     1       9.341  -2.454  48.053  1.00  0.00     0.210 HD
ENDBRANCH   8  16
TORSDOF 2
ENDMDL
MODEL 3
REMARK VINA RESULT: -3.081723039      2.747      3.984
REMARK  2 active torsions:
REMARK  status: ('A' for Active; 'I' for Inactive)
REMARK    1  A    between atoms: N2_5  and  C4_6 
REMARK    2  A    between atoms: C10_13  and  O1_14 
ROOT
HETATM    1  C4  UNL     1       5.908  -2.525  44.164  1.00  0.00     0.253 C 
HETATM    2  C5  UNL     1       7.262  -3.198  43.894  1.00  0.00     0.059 C 
HETATM    3  C6  UNL     1       7.498  -3.779  45.295  1.00  0.00     0.094 C 
HETATM    4 CL1  UNL     1       6.339  -5.139  45.431  1.00  0.00    -0.124 Cl
HETATM    5  C7  UNL     1       7.116  -2.628  46.179  1.00  0.00    -0.003 C 
HETATM    6  C8  UNL     1       8.391  -1.944  46.617  1.00  0.00     0.019 C 
HETATM    7  C9  UNL     1       6.349  -3.096  47.405  1.00  0.00     0.019 C 
HETATM    8  C10 UNL     1       6.268  -1.679  45.360  1.00  0.00     0.161 C 
ENDROOT
BRANCH   1   9
HETATM    9  N2  UNL     1       5.485  -1.793  43.025  1.00  0.00     0.099 N 
HETATM   10  C3  UNL     1       4.167  -1.273  43.194  1.00  0.00     0.303 C 
HETATM   11  C2  UNL     1       3.066  -2.246  42.905  1.00  0.00     0.302 C 
HETATM   12  N1  UNL     1       3.284  -2.987  41.677  1.00  0.00     0.087 N 
HETATM   13  C1  UNL     1       2.292  -3.992  41.481  1.00  0.00     0.310 C 
HETATM   14  C12 UNL     1       4.580  -3.652  41.831  1.00  0.00     0.302 C 
HETATM   15  C11 UNL     1       5.610  -2.532  41.809  1.00  0.00     0.303 C 
ENDBRANCH   1   9
BRANCH   8  16
HETATM   16  O1  UNL     1       6.914  -0.507  45.041  1.00  0.00    -0.393 OA
ATOM     17  H1  UNL     1       7.360  -0.101  45.774  1.00  0.00     0.210 HD
ENDBRANCH   8  16
TORSDOF 2
ENDMDL
MODEL 4
REMARK VINA RESULT: -3.007643638      5.691      7.971
REMARK  2 active torsions:
REMARK  status: ('A' for Active; 'I' for Inactive)
REMARK    1  A    between atoms: N2_5  and  C4_6 
REMARK    2  A    between atoms: C10_13  and  O1_14 
ROOT
HETATM    1  C4  UNL     1       2.456  -2.653  41.338  1.00  0.00     0.253 C 
HETATM    2  C5  UNL     1       2.717  -4.119  41.714  1.00  0.00     0.059 C 
HETATM    3  C6  UNL     1       2.757  -4.701  40.294  1.00  0.00     0.094 C 
HETATM    4 CL1  UNL     1       4.310  -4.130  39.604  1.00  0.00    -0.124 Cl
HETATM    5  C7  UNL     1       1.579  -4.034  39.649  1.00  0.00    -0.003 C 
HETATM    6  C8  UNL     1       0.432  -5.019  39.657  1.00  0.00     0.019 C 
HETATM    7  C9  UNL     1       1.882  -3.628  38.216  1.00  0.00     0.019 C 
HETATM    8  C10 UNL     1       1.228  -2.817  40.477  1.00  0.00     0.161 C 
ENDROOT
BRANCH   1   9
HETATM    9  N2  UNL     1       2.261  -1.871  42.506  1.00  0.00     0.099 N 
HETATM   10  C3  UNL     1       3.006  -0.655  42.455  1.00  0.00     0.303 C 
HETATM   11  C2  UNL     1       4.444  -0.782  42.851  1.00  0.00     0.302 C 
HETATM   12  N1  UNL     1       4.623  -1.564  44.058  1.00  0.00     0.087 N 
HETATM   13  C1  UNL     1       6.002  -1.778  44.351  1.00  0.00     0.310 C 
HETATM   14  C12 UNL     1       4.009  -2.867  43.790  1.00  0.00     0.302 C 
HETATM   15  C11 UNL     1       2.514  -2.596  43.711  1.00  0.00     0.303 C 
ENDBRANCH   1   9
BRANCH   8  16
HETATM   16  O1  UNL     1       0.060  -2.960  41.190  1.00  0.00    -0.393 OA
ATOM     17  H1  UNL     1      -0.563  -2.256  41.055  1.00  0.00     0.210 HD
ENDBRANCH   8  16
TORSDOF 2
ENDMDL
MODEL 5
REMARK VINA RESULT: -2.875991769      6.458      7.400
REMARK  2 active torsions:
REMARK  status: ('A' for Active; 'I' for Inactive)
REMARK    1  A    between atoms: N2_5  and  C4_6 
REMARK    2  A    between atoms: C10_13  and  O1_14 
ROOT
HETATM    1  C4  UNL     1       2.035  -3.045  41.229  1.00  0.00     0.253 C 
HETATM    2  C5  UNL     1       2.951  -1.814  41.315  1.00  0.00     0.059 C 
HETATM    3  C6  UNL     1       2.790  -1.530  42.815  1.00  0.00     0.094 C 
HETATM    4 CL1  UNL     1       3.709  -2.833  43.633  1.00  0.00    -0.124 Cl
HETATM    5  C7  UNL     1       1.310  -1.686  43.005  1.00  0.00    -0.003 C 
HETATM    6  C8  UNL     1       0.702  -0.301  43.022  1.00  0.00     0.019 C 
HETATM    7  C9  UNL     1       0.985  -2.393  44.310  1.00  0.00     0.019 C 
HETATM    8  C10 UNL     1       0.774  -2.477  41.832  1.00  0.00     0.161 C 
ENDROOT
BRANCH   1   9
HETATM    9  N2  UNL     1       1.909  -3.473  39.882  1.00  0.00     0.099 N 
HETATM   10  C3  UNL     1       0.937  -4.509  39.749  1.00  0.00     0.303 C 
HETATM   11  C2  UNL     1       1.434  -5.882  40.076  1.00  0.00     0.302 C 
HETATM   12  N1  UNL     1       2.724  -6.166  39.479  1.00  0.00     0.087 N 
HETATM   13  C1  UNL     1       3.237  -7.428  39.900  1.00  0.00     0.310 C 
HETATM   14  C12 UNL     1       3.632  -5.123  39.961  1.00  0.00     0.302 C 
HETATM   15  C11 UNL     1       3.158  -3.840  39.294  1.00  0.00     0.303 C 
ENDBRANCH   1   9
BRANCH   8  16
HETATM   16  O1  UNL     1       0.028  -1.721  40.957  1.00  0.00    -0.393 OA
ATOM     17  H1  UNL     1      -0.829  -1.483  41.288  1.00  0.00     0.210 HD
ENDBRANCH   8  16
TORSDOF 2
ENDMDL
