MODEL 1
REMARK VINA RESULT: -5.763692283      0.000      0.000
REMARK  5 active torsions:
REMARK  status: ('A' for Active; 'I' for Inactive)
REMARK    1  A    between atoms: C2_2  and  O1_3 
REMARK    2  A    between atoms: O1_3  and  C3_4 
REMARK    3  A    between atoms: C3_4  and  C4_6 
REMARK       I    between atoms: C4_6  and  N1_8 
REMARK    4  A    between atoms: N1_8  and  C5_10 
REMARK    5  A    between atoms: N2_12  and  C7_14 
ROOT
HETATM    1  C4  UNL     1       2.730  -2.117  42.910  1.00  0.00     0.322 C 
HETATM    2  O3  UNL     1       3.382  -1.065  42.749  1.00  0.00    -0.261 OA
HETATM    3  N1  UNL     1       3.261  -3.345  42.488  1.00  0.00    -0.308 N 
ATOM      4  H1  UNL     1       2.717  -4.197  42.626  1.00  0.00     0.170 HD
ENDROOT
BRANCH   3   5
HETATM    5  C5  UNL     1       4.527  -3.428  41.879  1.00  0.00     0.080 C 
HETATM    6  C6  UNL     1       5.788  -2.955  42.519  1.00  0.00     0.089 C 
HETATM    7  N2  UNL     1       4.616  -3.941  40.695  1.00  0.00    -0.341 N 
ATOM      8  H2  UNL     1       5.520  -4.014  40.228  1.00  0.00     0.167 HD
BRANCH   7   9
HETATM    9  C7  UNL     1       3.438  -4.398  40.058  1.00  0.00     0.074 C 
HETATM   10  C8  UNL     1       2.615  -3.407  39.304  1.00  0.00     0.081 C 
HETATM   11  S1  UNL     1       3.047  -5.959  40.180  1.00  0.00    -0.066 SA
ENDBRANCH   7   9
ENDBRANCH   3   5
BRANCH   1  12
HETATM   12  C3  UNL     1       1.399  -2.077  43.544  1.00  0.00     0.351 C 
HETATM   13  O2  UNL     1       1.259  -2.172  44.784  1.00  0.00    -0.254 OA
BRANCH  12  14
HETATM   14  O1  UNL     1       0.299  -1.927  42.716  1.00  0.00    -0.314 OA
BRANCH  14  15
HETATM   15  C2  UNL     1      -0.639  -0.884  42.945  1.00  0.00     0.175 C 
HETATM   16  C1  UNL     1       0.081   0.421  42.746  1.00  0.00     0.034 C 
ENDBRANCH  14  15
ENDBRANCH  12  14
ENDBRANCH   1  12
TORSDOF 5
ENDMDL
MODEL 2
REMARK VINA RESULT: -5.505203157      4.018      5.363
REMARK  5 active torsions:
REMARK  status: ('A' for Active; 'I' for Inactive)
REMARK    1  A    between atoms: C2_2  and  O1_3 
REMARK    2  A    between atoms: O1_3  and  C3_4 
REMARK    3  A    between atoms: C3_4  and  C4_6 
REMARK       I    between atoms: C4_6  and  N1_8 
REMARK    4  A    between atoms: N1_8  and  C5_10 
REMARK    5  A    between atoms: N2_12  and  C7_14 
ROOT
HETATM    1  C4  UNL     1       5.514  -2.449  43.699  1.00  0.00     0.322 C 
HETATM    2  O3  UNL     1       6.126  -2.780  42.662  1.00  0.00    -0.261 OA
HETATM    3  N1  UNL     1       5.989  -2.855  44.955  1.00  0.00    -0.308 N 
ATOM      4  H1  UNL     1       5.479  -2.578  45.794  1.00  0.00     0.170 HD
ENDROOT
BRANCH   3   5
HETATM    5  C5  UNL     1       7.153  -3.635  45.083  1.00  0.00     0.080 C 
HETATM    6  C6  UNL     1       7.337  -4.964  44.434  1.00  0.00     0.089 C 
HETATM    7  N2  UNL     1       8.128  -3.186  45.805  1.00  0.00    -0.341 N 
ATOM      8  H2  UNL     1       8.984  -3.729  45.917  1.00  0.00     0.167 HD
BRANCH   7   9
HETATM    9  C7  UNL     1       7.985  -1.928  46.437  1.00  0.00     0.074 C 
HETATM   10  C8  UNL     1       8.671  -0.751  45.826  1.00  0.00     0.081 C 
HETATM   11  S1  UNL     1       7.094  -1.832  47.779  1.00  0.00    -0.066 SA
ENDBRANCH   7   9
ENDBRANCH   3   5
BRANCH   1  12
HETATM   12  C3  UNL     1       4.290  -1.632  43.610  1.00  0.00     0.351 C 
HETATM   13  O2  UNL     1       4.311  -0.465  43.161  1.00  0.00    -0.254 OA
BRANCH  12  14
HETATM   14  O1  UNL     1       3.105  -2.203  44.043  1.00  0.00    -0.314 OA
BRANCH  14  15
HETATM   15  C2  UNL     1       1.954  -2.196  43.209  1.00  0.00     0.175 C 
HETATM   16  C1  UNL     1       2.293  -2.974  41.968  1.00  0.00     0.034 C 
ENDBRANCH  14  15
ENDBRANCH  12  14
ENDBRANCH   1  12
TORSDOF 5
ENDMDL
MODEL 3
REMARK VINA RESULT: -5.216406682      0.862      1.137
REMARK  5 active torsions:
REMARK  status: ('A' for Active; 'I' for Inactive)
REMARK    1  A    between atoms: C2_2  and  O1_3 
REMARK    2  A    between atoms: O1_3  and  C3_4 
REMARK    3  A    between atoms: C3_4  and  C4_6 
REMARK       I    between atoms: C4_6  and  N1_8 
REMARK    4  A    between atoms: N1_8  and  C5_10 
REMARK    5  A    between atoms: N2_12  and  C7_14 
ROOT
HETATM    1  C4  UNL     1       2.365  -1.765  42.625  1.00  0.00     0.322 C 
HETATM    2  O3  UNL     1       3.213  -0.861  42.776  1.00  0.00    -0.261 OA
HETATM    3  N1  UNL     1       2.773  -3.055  42.255  1.00  0.00    -0.308 N 
ATOM      4  H1  UNL     1       2.071  -3.785  42.134  1.00  0.00     0.170 HD
ENDROOT
BRANCH   3   5
HETATM    5  C5  UNL     1       4.130  -3.365  42.045  1.00  0.00     0.080 C 
HETATM    6  C6  UNL     1       5.226  -2.962  42.971  1.00  0.00     0.089 C 
HETATM    7  N2  UNL     1       4.459  -4.038  40.990  1.00  0.00    -0.341 N 
ATOM      8  H2  UNL     1       5.434  -4.277  40.811  1.00  0.00     0.167 HD
BRANCH   7   9
HETATM    9  C7  UNL     1       3.443  -4.435  40.089  1.00  0.00     0.074 C 
HETATM   10  C8  UNL     1       2.885  -3.408  39.160  1.00  0.00     0.081 C 
HETATM   11  S1  UNL     1       2.943  -5.969  40.112  1.00  0.00    -0.066 SA
ENDBRANCH   7   9
ENDBRANCH   3   5
BRANCH   1  12
HETATM   12  C3  UNL     1       0.933  -1.484  42.835  1.00  0.00     0.351 C 
HETATM   13  O2  UNL     1       0.045  -2.091  42.196  1.00  0.00    -0.254 OA
BRANCH  12  14
HETATM   14  O1  UNL     1       0.599  -0.519  43.770  1.00  0.00    -0.314 OA
BRANCH  14  15
HETATM   15  C2  UNL     1      -0.252   0.563  43.417  1.00  0.00     0.175 C 
HETATM   16  C1  UNL     1       0.559   1.524  42.593  1.00  0.00     0.034 C 
ENDBRANCH  14  15
ENDBRANCH  12  14
ENDBRANCH   1  12
TORSDOF 5
ENDMDL
MODEL 4
REMARK VINA RESULT: -5.057006005      2.068      4.231
REMARK  5 active torsions:
REMARK  status: ('A' for Active; 'I' for Inactive)
REMARK    1  A    between atoms: C2_2  and  O1_3 
REMARK    2  A    between atoms: O1_3  and  C3_4 
REMARK    3  A    between atoms: C3_4  and  C4_6 
REMARK       I    between atoms: C4_6  and  N1_8 
REMARK    4  A    between atoms: N1_8  and  C5_10 
REMARK    5  A    between atoms: N2_12  and  C7_14 
ROOT
HETATM    1  C4  UNL     1       3.765  -2.408  42.565  1.00  0.00     0.322 C 
HETATM    2  O3  UNL     1       3.641  -1.169  42.466  1.00  0.00    -0.261 OA
HETATM    3  N1  UNL     1       2.705  -3.251  42.204  1.00  0.00    -0.308 N 
ATOM      4  H1  UNL     1       2.819  -4.261  42.291  1.00  0.00     0.170 HD
ENDROOT
BRANCH   3   5
HETATM    5  C5  UNL     1       1.486  -2.736  41.726  1.00  0.00     0.080 C 
HETATM    6  C6  UNL     1       0.604  -1.826  42.511  1.00  0.00     0.089 C 
HETATM    7  N2  UNL     1       1.095  -3.063  40.537  1.00  0.00    -0.341 N 
ATOM      8  H2  UNL     1       0.216  -2.705  40.163  1.00  0.00     0.167 HD
BRANCH   7   9
HETATM    9  C7  UNL     1       1.908  -3.926  39.764  1.00  0.00     0.074 C 
HETATM   10  C8  UNL     1       3.076  -3.337  39.045  1.00  0.00     0.081 C 
HETATM   11  S1  UNL     1       1.532  -5.494  39.702  1.00  0.00    -0.066 SA
ENDBRANCH   7   9
ENDBRANCH   3   5
BRANCH   1  12
HETATM   12  C3  UNL     1       5.026  -2.991  43.062  1.00  0.00     0.351 C 
HETATM   13  O2  UNL     1       5.814  -3.594  42.301  1.00  0.00    -0.254 OA
BRANCH  12  14
HETATM   14  O1  UNL     1       5.311  -2.847  44.409  1.00  0.00    -0.314 OA
BRANCH  14  15
HETATM   15  C2  UNL     1       6.171  -1.807  44.857  1.00  0.00     0.175 C 
HETATM   16  C1  UNL     1       7.494  -2.434  45.203  1.00  0.00     0.034 C 
ENDBRANCH  14  15
ENDBRANCH  12  14
ENDBRANCH   1  12
TORSDOF 5
ENDMDL
MODEL 5
REMARK VINA RESULT: -5.029512083      3.218      5.107
REMARK  5 active torsions:
REMARK  status: ('A' for Active; 'I' for Inactive)
REMARK    1  A    between atoms: C2_2  and  O1_3 
REMARK    2  A    between atoms: O1_3  and  C3_4 
REMARK    3  A    between atoms: C3_4  and  C4_6 
REMARK       I    between atoms: C4_6  and  N1_8 
REMARK    4  A    between atoms: N1_8  and  C5_10 
REMARK    5  A    between atoms: N2_12  and  C7_14 
ROOT
HETATM    1  C4  UNL     1       5.782  -3.589  42.712  1.00  0.00     0.322 C 
HETATM    2  O3  UNL     1       6.380  -2.887  41.870  1.00  0.00    -0.261 OA
HETATM    3  N1  UNL     1       4.461  -3.997  42.475  1.00  0.00    -0.308 N 
ATOM      4  H1  UNL     1       3.983  -4.569  43.170  1.00  0.00     0.170 HD
ENDROOT
BRANCH   3   5
HETATM    5  C5  UNL     1       3.780  -3.634  41.298  1.00  0.00     0.080 C 
HETATM    6  C6  UNL     1       3.881  -4.385  40.015  1.00  0.00     0.089 C 
HETATM    7  N2  UNL     1       3.019  -2.588  41.316  1.00  0.00    -0.341 N 
ATOM      8  H2  UNL     1       2.512  -2.300  40.479  1.00  0.00     0.167 HD
BRANCH   7   9
HETATM    9  C7  UNL     1       2.902  -1.850  42.518  1.00  0.00     0.074 C 
HETATM   10  C8  UNL     1       3.862  -0.731  42.754  1.00  0.00     0.081 C 
HETATM   11  S1  UNL     1       1.742  -2.254  43.565  1.00  0.00    -0.066 SA
ENDBRANCH   7   9
ENDBRANCH   3   5
BRANCH   1  12
HETATM   12  C3  UNL     1       6.458  -3.993  43.958  1.00  0.00     0.351 C 
HETATM   13  O2  UNL     1       7.174  -5.017  44.015  1.00  0.00    -0.254 OA
BRANCH  12  14
HETATM   14  O1  UNL     1       6.274  -3.194  45.075  1.00  0.00    -0.314 OA
BRANCH  14  15
HETATM   15  C2  UNL     1       6.883  -1.912  45.153  1.00  0.00     0.175 C 
HETATM   16  C1  UNL     1       8.313  -2.116  45.569  1.00  0.00     0.034 C 
ENDBRANCH  14  15
ENDBRANCH  12  14
ENDBRANCH   1  12
TORSDOF 5
ENDMDL
