MODEL 1
REMARK VINA RESULT: -6.933233980      0.000      0.000
REMARK  10 active torsions:
REMARK  status: ('A' for Active; 'I' for Inactive)
REMARK    1  A    between atoms: O1_2  and  C2_3 
REMARK    2  A    between atoms: C4_5  and  O2_6 
REMARK    3  A    between atoms: O2_6  and  C5_7 
REMARK    4  A    between atoms: C5_7  and  C6_8 
REMARK    5  A    between atoms: C8_10  and  O3_11 
REMARK    6  A    between atoms: O3_11  and  C9_12 
REMARK    7  A    between atoms: C11_14  and  N1_15 
REMARK    8  A    between atoms: C13_20  and  N2_21 
REMARK    9  A    between atoms: C15_27  and  C16_28 
REMARK   10  A    between atoms: C17_34  and  O4_35 
ROOT
HETATM    1  C6  UNL     1     -25.089  -8.213  77.682  1.00  0.00     0.010 A 
HETATM    2  C7  UNL     1     -25.085  -8.725  76.412  1.00  0.00     0.054 A 
HETATM    3  C8  UNL     1     -26.009  -8.232  75.548  1.00  0.00     0.089 A 
HETATM    4  C15 UNL     1     -26.854  -7.269  76.041  1.00  0.00     0.080 A 
HETATM    5  S1  UNL     1     -26.354  -7.077  77.654  1.00  0.00    -0.088 SA
ENDROOT
BRANCH   3   6
HETATM    6  O3  UNL     1     -26.150  -8.646  74.193  1.00  0.00    -0.342 OA
BRANCH   6   7
HETATM    7  C9  UNL     1     -26.287  -9.992  73.848  1.00  0.00     0.166 C 
HETATM    8  C10 UNL     1     -26.004 -10.069  72.350  1.00  0.00     0.068 C 
HETATM    9  C11 UNL     1     -27.085  -9.299  71.640  1.00  0.00     0.188 C 
HETATM   10  C12 UNL     1     -28.426  -9.984  71.786  1.00  0.00     0.068 C 
HETATM   11  C13 UNL     1     -28.461 -10.912  72.970  1.00  0.00     0.221 C 
HETATM   12  C14 UNL     1     -27.708 -10.414  74.156  1.00  0.00     0.229 C 
HETATM   13  F1  UNL     1     -27.718 -11.408  75.115  1.00  0.00    -0.244 F 
BRANCH   9  14
HETATM   14  N1  UNL     1     -26.782  -9.116  70.232  1.00  0.00    -0.075 N 
ATOM     15  H13 UNL     1     -26.503  -8.155  70.035  1.00  0.00     0.274 HD
ATOM     16  H12 UNL     1     -25.917  -9.591  69.974  1.00  0.00     0.274 HD
ATOM     17  H11 UNL     1     -27.557  -9.407  69.637  1.00  0.00     0.274 HD
ENDBRANCH   9  14
BRANCH  11  18
HETATM   18  N2  UNL     1     -28.069 -12.262  72.652  1.00  0.00    -0.072 N 
ATOM     19  H23 UNL     1     -28.793 -12.924  72.931  1.00  0.00     0.274 HD
ATOM     20  H22 UNL     1     -28.080 -12.413  71.644  1.00  0.00     0.274 HD
ATOM     21  H21 UNL     1     -27.166 -12.526  73.047  1.00  0.00     0.274 HD
ENDBRANCH  11  18
ENDBRANCH   6   7
ENDBRANCH   3   6
BRANCH   4  22
HETATM   22  C16 UNL     1     -27.967  -6.557  75.298  1.00  0.00     0.396 C 
HETATM   23  F2  UNL     1     -28.484  -5.625  76.182  1.00  0.00    -0.208 F 
HETATM   24  F3  UNL     1     -28.960  -7.492  75.069  1.00  0.00    -0.208 F 
ENDBRANCH   4  22
BRANCH   1  25
HETATM   25  C5  UNL     1     -24.178  -8.597  78.829  1.00  0.00     0.223 C 
BRANCH  25  26
HETATM   26  O2  UNL     1     -23.282  -7.520  78.992  1.00  0.00    -0.330 OA
BRANCH  26  27
HETATM   27  C4  UNL     1     -22.050  -7.583  78.370  1.00  0.00     0.149 A 
HETATM   28  C3  UNL     1     -21.247  -6.466  78.280  1.00  0.00     0.112 A 
HETATM   29  C2  UNL     1     -20.024  -6.590  77.648  1.00  0.00     0.148 A 
HETATM   30  N4  UNL     1     -19.635  -7.773  77.138  1.00  0.00    -0.302 N 
HETATM   31  C17 UNL     1     -20.428  -8.878  77.226  1.00  0.00     0.227 A 
ATOM     32  H4  UNL     1     -18.729  -7.844  76.676  1.00  0.00     0.171 HD
HETATM   33  N3  UNL     1     -21.599  -8.726  77.840  1.00  0.00    -0.302 N 
ATOM     34  H3  UNL     1     -22.201  -9.546  77.913  1.00  0.00     0.171 HD
BRANCH  29  35
HETATM   35  O1  UNL     1     -19.223  -5.466  77.561  1.00  0.00    -0.341 OA
HETATM   36  C1  UNL     1     -19.555  -4.309  78.268  1.00  0.00     0.211 C 
ENDBRANCH  29  35
BRANCH  31  37
HETATM   37  O4  UNL     1     -19.997 -10.100  76.685  1.00  0.00    -0.327 OA
HETATM   38  C18 UNL     1     -18.955 -10.764  77.374  1.00  0.00     0.213 C 
ENDBRANCH  31  37
ENDBRANCH  26  27
ENDBRANCH  25  26
ENDBRANCH   1  25
TORSDOF 10
ENDMDL
MODEL 2
REMARK VINA RESULT: -6.828259934      0.583      2.307
REMARK  10 active torsions:
REMARK  status: ('A' for Active; 'I' for Inactive)
REMARK    1  A    between atoms: O1_2  and  C2_3 
REMARK    2  A    between atoms: C4_5  and  O2_6 
REMARK    3  A    between atoms: O2_6  and  C5_7 
REMARK    4  A    between atoms: C5_7  and  C6_8 
REMARK    5  A    between atoms: C8_10  and  O3_11 
REMARK    6  A    between atoms: O3_11  and  C9_12 
REMARK    7  A    between atoms: C11_14  and  N1_15 
REMARK    8  A    between atoms: C13_20  and  N2_21 
REMARK    9  A    between atoms: C15_27  and  C16_28 
REMARK   10  A    between atoms: C17_34  and  O4_35 
ROOT
HETATM    1  C6  UNL     1     -25.162  -8.241  77.625  1.00  0.00     0.010 A 
HETATM    2  C7  UNL     1     -25.174  -8.715  76.340  1.00  0.00     0.054 A 
HETATM    3  C8  UNL     1     -26.209  -8.326  75.552  1.00  0.00     0.089 A 
HETATM    4  C15 UNL     1     -27.136  -7.494  76.128  1.00  0.00     0.080 A 
HETATM    5  S1  UNL     1     -26.561  -7.280  77.713  1.00  0.00    -0.088 SA
ENDROOT
BRANCH   3   6
HETATM    6  O3  UNL     1     -26.383  -8.719  74.195  1.00  0.00    -0.342 OA
BRANCH   6   7
HETATM    7  C9  UNL     1     -26.400 -10.064  73.818  1.00  0.00     0.166 C 
HETATM    8  C10 UNL     1     -26.048 -10.085  72.333  1.00  0.00     0.068 C 
HETATM    9  C11 UNL     1     -27.154  -9.385  71.590  1.00  0.00     0.188 C 
HETATM   10  C12 UNL     1     -28.442 -10.174  71.663  1.00  0.00     0.068 C 
HETATM   11  C13 UNL     1     -28.455 -11.129  72.825  1.00  0.00     0.221 C 
HETATM   12  C14 UNL     1     -27.795 -10.601  74.053  1.00  0.00     0.229 C 
HETATM   13  F1  UNL     1     -27.769 -11.615  74.991  1.00  0.00    -0.244 F 
BRANCH   9  14
HETATM   14  N1  UNL     1     -26.805  -9.147  70.201  1.00  0.00    -0.075 N 
ATOM     15  H13 UNL     1     -25.850  -9.443  70.002  1.00  0.00     0.274 HD
ATOM     16  H12 UNL     1     -27.304  -9.784  69.579  1.00  0.00     0.274 HD
ATOM     17  H11 UNL     1     -26.955  -8.174  69.934  1.00  0.00     0.274 HD
ENDBRANCH   9  14
BRANCH  11  18
HETATM   18  N2  UNL     1     -27.945 -12.437  72.499  1.00  0.00    -0.072 N 
ATOM     19  H23 UNL     1     -27.172 -12.368  71.837  1.00  0.00     0.274 HD
ATOM     20  H22 UNL     1     -27.452 -12.841  73.295  1.00  0.00     0.274 HD
ATOM     21  H21 UNL     1     -28.661 -13.077  72.154  1.00  0.00     0.274 HD
ENDBRANCH  11  18
ENDBRANCH   6   7
ENDBRANCH   3   6
BRANCH   4  22
HETATM   22  C16 UNL     1     -28.378  -6.915  75.480  1.00  0.00     0.396 C 
HETATM   23  F2  UNL     1     -28.905  -6.017  76.392  1.00  0.00    -0.208 F 
HETATM   24  F3  UNL     1     -29.288  -7.949  75.359  1.00  0.00    -0.208 F 
ENDBRANCH   4  22
BRANCH   1  25
HETATM   25  C5  UNL     1     -24.135  -8.531  78.700  1.00  0.00     0.223 C 
BRANCH  25  26
HETATM   26  O2  UNL     1     -23.315  -7.387  78.774  1.00  0.00    -0.330 OA
BRANCH  26  27
HETATM   27  C4  UNL     1     -22.050  -7.441  78.222  1.00  0.00     0.149 A 
HETATM   28  C3  UNL     1     -21.589  -8.595  77.624  1.00  0.00     0.112 A 
HETATM   29  C2  UNL     1     -20.316  -8.588  77.087  1.00  0.00     0.148 A 
HETATM   30  N4  UNL     1     -19.553  -7.482  77.150  1.00  0.00    -0.302 N 
HETATM   31  C17 UNL     1     -20.007  -6.341  77.741  1.00  0.00     0.227 A 
ATOM     32  H4  UNL     1     -18.616  -7.498  76.747  1.00  0.00     0.171 HD
HETATM   33  N3  UNL     1     -21.237  -6.378  78.248  1.00  0.00    -0.302 N 
ATOM     34  H3  UNL     1     -21.588  -5.530  78.692  1.00  0.00     0.171 HD
BRANCH  29  35
HETATM   35  O1  UNL     1     -19.859  -9.749  76.488  1.00  0.00    -0.341 OA
HETATM   36  C1  UNL     1     -19.218 -10.728  77.249  1.00  0.00     0.211 C 
ENDBRANCH  29  35
BRANCH  31  37
HETATM   37  O4  UNL     1     -19.189  -5.201  77.792  1.00  0.00    -0.327 OA
HETATM   38  C18 UNL     1     -19.821  -3.984  78.141  1.00  0.00     0.213 C 
ENDBRANCH  31  37
ENDBRANCH  26  27
ENDBRANCH  25  26
ENDBRANCH   1  25
TORSDOF 10
ENDMDL
MODEL 3
REMARK VINA RESULT: -6.776386352      4.976      7.096
REMARK  10 active torsions:
REMARK  status: ('A' for Active; 'I' for Inactive)
REMARK    1  A    between atoms: O1_2  and  C2_3 
REMARK    2  A    between atoms: C4_5  and  O2_6 
REMARK    3  A    between atoms: O2_6  and  C5_7 
REMARK    4  A    between atoms: C5_7  and  C6_8 
REMARK    5  A    between atoms: C8_10  and  O3_11 
REMARK    6  A    between atoms: O3_11  and  C9_12 
REMARK    7  A    between atoms: C11_14  and  N1_15 
REMARK    8  A    between atoms: C13_20  and  N2_21 
REMARK    9  A    between atoms: C15_27  and  C16_28 
REMARK   10  A    between atoms: C17_34  and  O4_35 
ROOT
HETATM    1  C6  UNL     1     -28.142  -8.026  77.488  1.00  0.00     0.010 A 
HETATM    2  C7  UNL     1     -27.259  -8.488  76.550  1.00  0.00     0.054 A 
HETATM    3  C8  UNL     1     -27.565  -8.250  75.248  1.00  0.00     0.089 A 
HETATM    4  C15 UNL     1     -28.732  -7.568  75.011  1.00  0.00     0.080 A 
HETATM    5  S1  UNL     1     -29.360  -7.281  76.564  1.00  0.00    -0.088 SA
ENDROOT
BRANCH   3   6
HETATM    6  O3  UNL     1     -26.765  -8.656  74.143  1.00  0.00    -0.342 OA
BRANCH   6   7
HETATM    7  C9  UNL     1     -26.634 -10.000  73.787  1.00  0.00     0.166 C 
HETATM    8  C10 UNL     1     -26.152 -10.003  72.340  1.00  0.00     0.068 C 
HETATM    9  C11 UNL     1     -27.244  -9.408  71.492  1.00  0.00     0.188 C 
HETATM   10  C12 UNL     1     -28.461 -10.304  71.465  1.00  0.00     0.068 C 
HETATM   11  C13 UNL     1     -28.496 -11.247  72.637  1.00  0.00     0.221 C 
HETATM   12  C14 UNL     1     -27.994 -10.654  73.909  1.00  0.00     0.229 C 
HETATM   13  F1  UNL     1     -27.964 -11.654  74.862  1.00  0.00    -0.244 F 
BRANCH   9  14
HETATM   14  N1  UNL     1     -26.796  -9.152  70.135  1.00  0.00    -0.075 N 
ATOM     15  H13 UNL     1     -25.778  -9.156  70.073  1.00  0.00     0.274 HD
ATOM     16  H12 UNL     1     -26.996  -9.944  69.523  1.00  0.00     0.274 HD
ATOM     17  H11 UNL     1     -27.187  -8.287  69.763  1.00  0.00     0.274 HD
ENDBRANCH   9  14
BRANCH  11  18
HETATM   18  N2  UNL     1     -27.849 -12.509  72.378  1.00  0.00    -0.072 N 
ATOM     19  H23 UNL     1     -28.540 -13.242  72.216  1.00  0.00     0.274 HD
ATOM     20  H22 UNL     1     -27.394 -12.500  71.465  1.00  0.00     0.274 HD
ATOM     21  H21 UNL     1     -27.192 -12.786  73.107  1.00  0.00     0.274 HD
ENDBRANCH  11  18
ENDBRANCH   6   7
ENDBRANCH   3   6
BRANCH   4  22
HETATM   22  C16 UNL     1     -29.306  -7.173  73.665  1.00  0.00     0.396 C 
HETATM   23  F2  UNL     1     -30.054  -6.029  73.886  1.00  0.00    -0.208 F 
HETATM   24  F3  UNL     1     -30.192  -8.170  73.298  1.00  0.00    -0.208 F 
ENDBRANCH   4  22
BRANCH   1  25
HETATM   25  C5  UNL     1     -28.041  -8.170  78.992  1.00  0.00     0.223 C 
BRANCH  25  26
HETATM   26  O2  UNL     1     -29.365  -8.146  79.476  1.00  0.00    -0.330 OA
BRANCH  26  27
HETATM   27  C4  UNL     1     -29.888  -9.297  80.033  1.00  0.00     0.149 A 
HETATM   28  C3  UNL     1     -29.084 -10.172  80.731  1.00  0.00     0.112 A 
HETATM   29  C2  UNL     1     -29.663 -11.306  81.267  1.00  0.00     0.148 A 
HETATM   30  N4  UNL     1     -30.978 -11.542  81.109  1.00  0.00    -0.302 N 
HETATM   31  C17 UNL     1     -31.775 -10.678  80.419  1.00  0.00     0.227 A 
ATOM     32  H4  UNL     1     -31.387 -12.384  81.513  1.00  0.00     0.171 HD
HETATM   33  N3  UNL     1     -31.188  -9.595  79.915  1.00  0.00    -0.302 N 
ATOM     34  H3  UNL     1     -31.774  -8.941  79.397  1.00  0.00     0.171 HD
BRANCH  29  35
HETATM   35  O1  UNL     1     -28.850 -12.181  81.967  1.00  0.00    -0.341 OA
HETATM   36  C1  UNL     1     -28.084 -13.127  81.284  1.00  0.00     0.211 C 
ENDBRANCH  29  35
BRANCH  31  37
HETATM   37  O4  UNL     1     -33.144 -10.949  80.269  1.00  0.00    -0.327 OA
HETATM   38  C18 UNL     1     -33.912  -9.974  79.589  1.00  0.00     0.213 C 
ENDBRANCH  31  37
ENDBRANCH  26  27
ENDBRANCH  25  26
ENDBRANCH   1  25
TORSDOF 10
ENDMDL
MODEL 4
REMARK VINA RESULT: -6.758209088      4.608      6.700
REMARK  10 active torsions:
REMARK  status: ('A' for Active; 'I' for Inactive)
REMARK    1  A    between atoms: O1_2  and  C2_3 
REMARK    2  A    between atoms: C4_5  and  O2_6 
REMARK    3  A    between atoms: O2_6  and  C5_7 
REMARK    4  A    between atoms: C5_7  and  C6_8 
REMARK    5  A    between atoms: C8_10  and  O3_11 
REMARK    6  A    between atoms: O3_11  and  C9_12 
REMARK    7  A    between atoms: C11_14  and  N1_15 
REMARK    8  A    between atoms: C13_20  and  N2_21 
REMARK    9  A    between atoms: C15_27  and  C16_28 
REMARK   10  A    between atoms: C17_34  and  O4_35 
ROOT
HETATM    1  C6  UNL     1     -26.969  -8.955  78.171  1.00  0.00     0.010 A 
HETATM    2  C7  UNL     1     -26.497  -9.254  76.920  1.00  0.00     0.054 A 
HETATM    3  C8  UNL     1     -27.198  -8.762  75.866  1.00  0.00     0.089 A 
HETATM    4  C15 UNL     1     -28.309  -8.014  76.166  1.00  0.00     0.080 A 
HETATM    5  S1  UNL     1     -28.351  -8.013  77.865  1.00  0.00    -0.088 SA
ENDROOT
BRANCH   3   6
HETATM    6  O3  UNL     1     -26.855  -8.971  74.501  1.00  0.00    -0.342 OA
BRANCH   6   7
HETATM    7  C9  UNL     1     -26.709 -10.255  73.969  1.00  0.00     0.166 C 
HETATM    8  C10 UNL     1     -26.137 -10.063  72.567  1.00  0.00     0.068 C 
HETATM    9  C11 UNL     1     -27.170  -9.339  71.746  1.00  0.00     0.188 C 
HETATM   10  C12 UNL     1     -28.389 -10.206  71.519  1.00  0.00     0.068 C 
HETATM   11  C13 UNL     1     -28.502 -11.303  72.544  1.00  0.00     0.221 C 
HETATM   12  C14 UNL     1     -28.078 -10.899  73.915  1.00  0.00     0.229 C 
HETATM   13  F1  UNL     1     -28.113 -12.022  74.718  1.00  0.00    -0.244 F 
BRANCH   9  14
HETATM   14  N1  UNL     1     -26.637  -8.904  70.468  1.00  0.00    -0.075 N 
ATOM     15  H13 UNL     1     -27.344  -8.956  69.734  1.00  0.00     0.274 HD
ATOM     16  H12 UNL     1     -26.471  -7.898  70.459  1.00  0.00     0.274 HD
ATOM     17  H11 UNL     1     -25.797  -9.422  70.211  1.00  0.00     0.274 HD
ENDBRANCH   9  14
BRANCH  11  18
HETATM   18  N2  UNL     1     -27.848 -12.525  72.150  1.00  0.00    -0.072 N 
ATOM     19  H23 UNL     1     -28.533 -13.235  71.893  1.00  0.00     0.274 HD
ATOM     20  H22 UNL     1     -27.377 -12.410  71.253  1.00  0.00     0.274 HD
ATOM     21  H21 UNL     1     -27.202 -12.884  72.854  1.00  0.00     0.274 HD
ENDBRANCH  11  18
ENDBRANCH   6   7
ENDBRANCH   3   6
BRANCH   4  22
HETATM   22  C16 UNL     1     -29.261  -7.353  75.191  1.00  0.00     0.396 C 
HETATM   23  F2  UNL     1     -30.238  -6.743  75.960  1.00  0.00    -0.208 F 
HETATM   24  F3  UNL     1     -29.880  -8.367  74.482  1.00  0.00    -0.208 F 
ENDBRANCH   4  22
BRANCH   1  25
HETATM   25  C5  UNL     1     -26.384  -9.388  79.499  1.00  0.00     0.223 C 
BRANCH  25  26
HETATM   26  O2  UNL     1     -27.420  -9.246  80.445  1.00  0.00    -0.330 OA
BRANCH  26  27
HETATM   27  C4  UNL     1     -28.162 -10.360  80.786  1.00  0.00     0.149 A 
HETATM   28  C3  UNL     1     -27.558 -11.588  80.950  1.00  0.00     0.112 A 
HETATM   29  C2  UNL     1     -28.352 -12.666  81.294  1.00  0.00     0.148 A 
HETATM   30  N4  UNL     1     -29.677 -12.512  81.463  1.00  0.00    -0.302 N 
HETATM   31  C17 UNL     1     -30.276 -11.298  81.302  1.00  0.00     0.227 A 
ATOM     32  H4  UNL     1     -30.246 -13.320  81.718  1.00  0.00     0.171 HD
HETATM   33  N3  UNL     1     -29.485 -10.280  80.971  1.00  0.00    -0.302 N 
ATOM     34  H3  UNL     1     -29.922  -9.367  80.848  1.00  0.00     0.171 HD
BRANCH  29  35
HETATM   35  O1  UNL     1     -27.740 -13.896  81.457  1.00  0.00    -0.341 OA
HETATM   36  C1  UNL     1     -28.220 -14.801  82.405  1.00  0.00     0.211 C 
ENDBRANCH  29  35
BRANCH  31  37
HETATM   37  O4  UNL     1     -31.662 -11.166  81.485  1.00  0.00    -0.327 OA
HETATM   38  C18 UNL     1     -32.386 -10.567  80.428  1.00  0.00     0.213 C 
ENDBRANCH  31  37
ENDBRANCH  26  27
ENDBRANCH  25  26
ENDBRANCH   1  25
TORSDOF 10
ENDMDL
MODEL 5
REMARK VINA RESULT: -6.734444738      4.588      6.541
REMARK  10 active torsions:
REMARK  status: ('A' for Active; 'I' for Inactive)
REMARK    1  A    between atoms: O1_2  and  C2_3 
REMARK    2  A    between atoms: C4_5  and  O2_6 
REMARK    3  A    between atoms: O2_6  and  C5_7 
REMARK    4  A    between atoms: C5_7  and  C6_8 
REMARK    5  A    between atoms: C8_10  and  O3_11 
REMARK    6  A    between atoms: O3_11  and  C9_12 
REMARK    7  A    between atoms: C11_14  and  N1_15 
REMARK    8  A    between atoms: C13_20  and  N2_21 
REMARK    9  A    between atoms: C15_27  and  C16_28 
REMARK   10  A    between atoms: C17_34  and  O4_35 
ROOT
HETATM    1  C6  UNL     1     -27.061  -8.963  78.169  1.00  0.00     0.010 A 
HETATM    2  C7  UNL     1     -26.579  -9.265  76.924  1.00  0.00     0.054 A 
HETATM    3  C8  UNL     1     -27.269  -8.776  75.862  1.00  0.00     0.089 A 
HETATM    4  C15 UNL     1     -28.382  -8.026  76.151  1.00  0.00     0.080 A 
HETATM    5  S1  UNL     1     -28.440  -8.020  77.849  1.00  0.00    -0.088 SA
ENDROOT
BRANCH   3   6
HETATM    6  O3  UNL     1     -26.915  -8.989  74.500  1.00  0.00    -0.342 OA
BRANCH   6   7
HETATM    7  C9  UNL     1     -26.764 -10.274  73.974  1.00  0.00     0.166 C 
HETATM    8  C10 UNL     1     -26.141 -10.089  72.594  1.00  0.00     0.068 C 
HETATM    9  C11 UNL     1     -27.137  -9.355  71.736  1.00  0.00     0.188 C 
HETATM   10  C12 UNL     1     -28.355 -10.210  71.466  1.00  0.00     0.068 C 
HETATM   11  C13 UNL     1     -28.516 -11.304  72.487  1.00  0.00     0.221 C 
HETATM   12  C14 UNL     1     -28.136 -10.905  73.872  1.00  0.00     0.229 C 
HETATM   13  F1  UNL     1     -28.211 -12.027  74.674  1.00  0.00    -0.244 F 
BRANCH   9  14
HETATM   14  N1  UNL     1     -26.554  -8.926  70.478  1.00  0.00    -0.075 N 
ATOM     15  H13 UNL     1     -25.535  -8.914  70.526  1.00  0.00     0.274 HD
ATOM     16  H12 UNL     1     -26.673  -9.634  69.754  1.00  0.00     0.274 HD
ATOM     17  H11 UNL     1     -26.922  -8.023  70.178  1.00  0.00     0.274 HD
ENDBRANCH   9  14
BRANCH  11  18
HETATM   18  N2  UNL     1     -27.860 -12.533  72.117  1.00  0.00    -0.072 N 
ATOM     19  H23 UNL     1     -27.544 -13.038  72.945  1.00  0.00     0.274 HD
ATOM     20  H22 UNL     1     -28.534 -13.207  71.755  1.00  0.00     0.274 HD
ATOM     21  H21 UNL     1     -27.091 -12.401  71.459  1.00  0.00     0.274 HD
ENDBRANCH  11  18
ENDBRANCH   6   7
ENDBRANCH   3   6
BRANCH   4  22
HETATM   22  C16 UNL     1     -29.325  -7.366  75.165  1.00  0.00     0.396 C 
HETATM   23  F2  UNL     1     -30.340  -6.802  75.920  1.00  0.00    -0.208 F 
HETATM   24  F3  UNL     1     -29.895  -8.378  74.414  1.00  0.00    -0.208 F 
ENDBRANCH   4  22
BRANCH   1  25
HETATM   25  C5  UNL     1     -26.489  -9.392  79.504  1.00  0.00     0.223 C 
BRANCH  25  26
HETATM   26  O2  UNL     1     -27.528  -9.231  80.443  1.00  0.00    -0.330 OA
BRANCH  26  27
HETATM   27  C4  UNL     1     -28.288 -10.332  80.786  1.00  0.00     0.149 A 
HETATM   28  C3  UNL     1     -29.655 -10.228  80.936  1.00  0.00     0.112 A 
HETATM   29  C2  UNL     1     -30.363 -11.364  81.277  1.00  0.00     0.148 A 
HETATM   30  N4  UNL     1     -29.729 -12.537  81.456  1.00  0.00    -0.302 N 
HETATM   31  C17 UNL     1     -28.378 -12.642  81.308  1.00  0.00     0.227 A 
ATOM     32  H4  UNL     1     -30.270 -13.364  81.707  1.00  0.00     0.171 HD
HETATM   33  N3  UNL     1     -27.724 -11.531  80.978  1.00  0.00    -0.302 N 
ATOM     34  H3  UNL     1     -26.713 -11.597  80.864  1.00  0.00     0.171 HD
BRANCH  29  35
HETATM   35  O1  UNL     1     -31.734 -11.253  81.427  1.00  0.00    -0.341 OA
HETATM   36  C1  UNL     1     -32.499 -10.617  80.447  1.00  0.00     0.211 C 
ENDBRANCH  29  35
BRANCH  31  37
HETATM   37  O4  UNL     1     -27.743 -13.879  81.500  1.00  0.00    -0.327 OA
HETATM   38  C18 UNL     1     -28.313 -14.740  82.467  1.00  0.00     0.213 C 
ENDBRANCH  31  37
ENDBRANCH  26  27
ENDBRANCH  25  26
ENDBRANCH   1  25
TORSDOF 10
ENDMDL
