MODEL 1
REMARK VINA RESULT: -6.668205131      0.000      0.000
REMARK  10 active torsions:
REMARK  status: ('A' for Active; 'I' for Inactive)
REMARK    1  A    between atoms: O1_2  and  C2_3 
REMARK    2  A    between atoms: C4_5  and  C5_6 
REMARK    3  A    between atoms: C12_15  and  C13_16 
REMARK    4  A    between atoms: N1_17  and  N2_19 
REMARK    5  A    between atoms: N2_19  and  C14_21 
REMARK    6  A    between atoms: C14_21  and  C15_22 
REMARK    7  A    between atoms: C14_21  and  O4_27 
REMARK    8  A    between atoms: C15_22  and  C16_23 
REMARK    9  A    between atoms: O4_27  and  N3_28 
REMARK   10  A    between atoms: C17_33  and  O5_34 
ROOT
HETATM    1  C2  UNL     1     -24.747  -7.942  78.252  1.00  0.00     0.119 A 
HETATM    2  C3  UNL     1     -26.119  -7.835  78.161  1.00  0.00     0.053 A 
HETATM    3  C4  UNL     1     -26.838  -8.452  77.178  1.00  0.00     0.002 A 
HETATM    4  C12 UNL     1     -26.160  -9.218  76.248  1.00  0.00     0.060 A 
HETATM    5  N4  UNL     1     -24.824  -9.316  76.332  1.00  0.00    -0.333 N 
ATOM      6  H4  UNL     1     -24.329  -9.875  75.637  1.00  0.00     0.168 HD
HETATM    7  C17 UNL     1     -24.110  -8.704  77.301  1.00  0.00     0.176 A 
ENDROOT
BRANCH   4   8
HETATM    8  C13 UNL     1     -26.834  -9.995  75.231  1.00  0.00     0.137 C 
HETATM    9  N1  UNL     1     -26.466  -9.942  73.993  1.00  0.00    -0.312 N 
ATOM     10  H1  UNL     1     -25.694  -9.338  73.713  1.00  0.00     0.185 HD
BRANCH   9  11
HETATM   11  N2  UNL     1     -27.141 -10.726  73.032  1.00  0.00    -0.305 N 
ATOM     12  H2  UNL     1     -26.977 -11.732  73.003  1.00  0.00     0.183 HD
BRANCH  11  13
HETATM   13  C14 UNL     1     -28.068 -10.125  72.082  1.00  0.00     0.273 C 
BRANCH  13  14
HETATM   14  C15 UNL     1     -27.609  -8.748  71.706  1.00  0.00     0.174 C 
BRANCH  14  15
HETATM   15  C16 UNL     1     -26.790  -8.791  70.394  1.00  0.00     0.392 C 
HETATM   16  F1  UNL     1     -26.757  -7.612  69.741  1.00  0.00    -0.171 F 
HETATM   17  F2  UNL     1     -25.505  -9.216  70.781  1.00  0.00    -0.171 F 
HETATM   18  F3  UNL     1     -27.416  -9.789  69.657  1.00  0.00    -0.171 F 
ENDBRANCH  14  15
ENDBRANCH  13  14
BRANCH  13  19
HETATM   19  O4  UNL     1     -29.302 -10.128  72.696  1.00  0.00    -0.260 OA
BRANCH  19  20
HETATM   20  N3  UNL     1     -29.723  -8.876  72.877  1.00  0.00    -0.309 N 
ATOM     21  H32 UNL     1     -29.804  -8.185  72.131  1.00  0.00     0.184 HD
ATOM     22  H31 UNL     1     -29.946  -8.723  73.860  1.00  0.00     0.184 HD
ENDBRANCH  19  20
ENDBRANCH  13  19
ENDBRANCH  11  13
ENDBRANCH   9  11
ENDBRANCH   4   8
BRANCH   3  23
HETATM   23  C5  UNL     1     -28.322  -8.406  77.131  1.00  0.00     0.163 C 
HETATM   24  O2  UNL     1     -28.779  -8.047  78.444  1.00  0.00    -0.380 OA
HETATM   25  C6  UNL     1     -29.993  -7.469  78.305  1.00  0.00     0.176 C 
HETATM   26  C7  UNL     1     -30.242  -7.131  76.877  1.00  0.00     0.043 C 
HETATM   27  C8  UNL     1     -30.405  -5.641  76.726  1.00  0.00     0.175 C 
HETATM   28  C11 UNL     1     -28.887  -7.381  76.247  1.00  0.00     0.056 C 
HETATM   29  O3  UNL     1     -29.117  -5.104  76.759  1.00  0.00    -0.385 OA
HETATM   30  C9  UNL     1     -28.345  -6.045  76.055  1.00  0.00     0.124 C 
HETATM   31  C10 UNL     1     -28.607  -5.675  74.547  1.00  0.00     0.040 C 
ENDBRANCH   3  23
BRANCH   7  32
HETATM   32  O5  UNL     1     -22.784  -8.857  77.318  1.00  0.00    -0.339 OA
HETATM   33  C18 UNL     1     -21.631  -8.530  76.838  1.00  0.00     0.211 C 
ENDBRANCH   7  32
BRANCH   1  34
HETATM   34  O1  UNL     1     -23.978  -7.337  79.225  1.00  0.00    -0.352 OA
HETATM   35  C1  UNL     1     -23.872  -7.821  80.556  1.00  0.00     0.210 C 
ENDBRANCH   1  34
TORSDOF 10
ENDMDL
MODEL 2
REMARK VINA RESULT: -6.586990845      1.804      2.017
REMARK  10 active torsions:
REMARK  status: ('A' for Active; 'I' for Inactive)
REMARK    1  A    between atoms: O1_2  and  C2_3 
REMARK    2  A    between atoms: C4_5  and  C5_6 
REMARK    3  A    between atoms: C12_15  and  C13_16 
REMARK    4  A    between atoms: N1_17  and  N2_19 
REMARK    5  A    between atoms: N2_19  and  C14_21 
REMARK    6  A    between atoms: C14_21  and  C15_22 
REMARK    7  A    between atoms: C14_21  and  O4_27 
REMARK    8  A    between atoms: C15_22  and  C16_23 
REMARK    9  A    between atoms: O4_27  and  N3_28 
REMARK   10  A    between atoms: C17_33  and  O5_34 
ROOT
HETATM    1  C2  UNL     1     -24.460  -8.483  78.468  1.00  0.00     0.119 A 
HETATM    2  C3  UNL     1     -25.832  -8.392  78.365  1.00  0.00     0.053 A 
HETATM    3  C4  UNL     1     -26.494  -8.598  77.189  1.00  0.00     0.002 A 
HETATM    4  C12 UNL     1     -25.755  -8.920  76.066  1.00  0.00     0.060 A 
HETATM    5  N4  UNL     1     -24.419  -9.002  76.164  1.00  0.00    -0.333 N 
ATOM      6  H4  UNL     1     -23.879  -9.230  75.329  1.00  0.00     0.168 HD
HETATM    7  C17 UNL     1     -23.762  -8.794  77.324  1.00  0.00     0.176 A 
ENDROOT
BRANCH   4   8
HETATM    8  C13 UNL     1     -26.363  -9.259  74.797  1.00  0.00     0.137 C 
HETATM    9  N1  UNL     1     -25.903 -10.222  74.069  1.00  0.00    -0.312 N 
ATOM     10  H1  UNL     1     -25.091 -10.756  74.377  1.00  0.00     0.185 HD
BRANCH   9  11
HETATM   11  N2  UNL     1     -26.533 -10.530  72.843  1.00  0.00    -0.305 N 
ATOM     12  H2  UNL     1     -26.558 -11.498  72.523  1.00  0.00     0.183 HD
BRANCH  11  13
HETATM   13  C14 UNL     1     -27.148  -9.491  72.027  1.00  0.00     0.273 C 
BRANCH  13  14
HETATM   14  C15 UNL     1     -28.593  -9.807  71.783  1.00  0.00     0.174 C 
BRANCH  14  15
HETATM   15  C16 UNL     1     -29.490  -9.046  72.788  1.00  0.00     0.392 C 
HETATM   16  F1  UNL     1     -30.752  -8.861  72.351  1.00  0.00    -0.171 F 
HETATM   17  F2  UNL     1     -29.447  -9.813  73.967  1.00  0.00    -0.171 F 
HETATM   18  F3  UNL     1     -28.814  -7.848  72.979  1.00  0.00    -0.171 F 
ENDBRANCH  14  15
ENDBRANCH  13  14
BRANCH  13  19
HETATM   19  O4  UNL     1     -26.411  -9.430  70.865  1.00  0.00    -0.260 OA
BRANCH  19  20
HETATM   20  N3  UNL     1     -26.686  -8.302  70.210  1.00  0.00    -0.309 N 
ATOM     21  H32 UNL     1     -27.584  -8.101  69.767  1.00  0.00     0.184 HD
ATOM     22  H31 UNL     1     -25.874  -7.686  70.221  1.00  0.00     0.184 HD
ENDBRANCH  19  20
ENDBRANCH  13  19
ENDBRANCH  11  13
ENDBRANCH   9  11
ENDBRANCH   4   8
BRANCH   3  23
HETATM   23  C5  UNL     1     -27.976  -8.584  77.098  1.00  0.00     0.163 C 
HETATM   24  O2  UNL     1     -28.486  -8.565  78.440  1.00  0.00    -0.380 OA
HETATM   25  C6  UNL     1     -29.715  -8.004  78.398  1.00  0.00     0.176 C 
HETATM   26  C7  UNL     1     -29.932  -7.339  77.084  1.00  0.00     0.043 C 
HETATM   27  C8  UNL     1     -30.145  -5.861  77.289  1.00  0.00     0.175 C 
HETATM   28  C11 UNL     1     -28.551  -7.392  76.465  1.00  0.00     0.056 C 
HETATM   29  O3  UNL     1     -28.878  -5.312  77.498  1.00  0.00    -0.385 OA
HETATM   30  C9  UNL     1     -28.052  -6.035  76.619  1.00  0.00     0.124 C 
HETATM   31  C10 UNL     1     -28.281  -5.319  75.235  1.00  0.00     0.040 C 
ENDBRANCH   3  23
BRANCH   7  32
HETATM   32  O5  UNL     1     -22.431  -8.901  77.339  1.00  0.00    -0.339 OA
HETATM   33  C18 UNL     1     -21.289  -8.505  76.885  1.00  0.00     0.211 C 
ENDBRANCH   7  32
BRANCH   1  34
HETATM   34  O1  UNL     1     -23.748  -8.281  79.633  1.00  0.00    -0.352 OA
HETATM   35  C1  UNL     1     -24.043  -8.938  80.857  1.00  0.00     0.210 C 
ENDBRANCH   1  34
TORSDOF 10
ENDMDL
MODEL 3
REMARK VINA RESULT: -6.566639848      2.735      5.866
REMARK  10 active torsions:
REMARK  status: ('A' for Active; 'I' for Inactive)
REMARK    1  A    between atoms: O1_2  and  C2_3 
REMARK    2  A    between atoms: C4_5  and  C5_6 
REMARK    3  A    between atoms: C12_15  and  C13_16 
REMARK    4  A    between atoms: N1_17  and  N2_19 
REMARK    5  A    between atoms: N2_19  and  C14_21 
REMARK    6  A    between atoms: C14_21  and  C15_22 
REMARK    7  A    between atoms: C14_21  and  O4_27 
REMARK    8  A    between atoms: C15_22  and  C16_23 
REMARK    9  A    between atoms: O4_27  and  N3_28 
REMARK   10  A    between atoms: C17_33  and  O5_34 
ROOT
HETATM    1  C2  UNL     1     -31.954  -6.072  76.228  1.00  0.00     0.119 A 
HETATM    2  C3  UNL     1     -30.580  -6.035  76.109  1.00  0.00     0.053 A 
HETATM    3  C4  UNL     1     -29.912  -6.694  75.118  1.00  0.00     0.002 A 
HETATM    4  C12 UNL     1     -30.647  -7.416  74.196  1.00  0.00     0.060 A 
HETATM    5  N4  UNL     1     -31.983  -7.458  74.315  1.00  0.00    -0.333 N 
ATOM      6  H4  UNL     1     -32.519  -8.001  73.638  1.00  0.00     0.168 HD
HETATM    7  C17 UNL     1     -32.646  -6.811  75.297  1.00  0.00     0.176 A 
ENDROOT
BRANCH   4   8
HETATM    8  C13 UNL     1     -30.048  -8.064  73.050  1.00  0.00     0.137 C 
HETATM    9  N1  UNL     1     -29.730  -9.316  73.077  1.00  0.00    -0.312 N 
ATOM     10  H1  UNL     1     -29.890  -9.868  73.919  1.00  0.00     0.185 HD
BRANCH   9  11
HETATM   11  N2  UNL     1     -29.159  -9.914  71.932  1.00  0.00    -0.305 N 
ATOM     12  H2  UNL     1     -29.770 -10.300  71.212  1.00  0.00     0.183 HD
BRANCH  11  13
HETATM   13  C14 UNL     1     -27.715  -9.991  71.760  1.00  0.00     0.273 C 
BRANCH  13  14
HETATM   14  C15 UNL     1     -27.017  -9.315  72.902  1.00  0.00     0.174 C 
BRANCH  14  15
HETATM   15  C16 UNL     1     -26.373 -10.364  73.839  1.00  0.00     0.392 C 
HETATM   16  F1  UNL     1     -25.595  -9.825  74.799  1.00  0.00    -0.171 F 
HETATM   17  F2  UNL     1     -27.456 -11.083  74.379  1.00  0.00    -0.171 F 
HETATM   18  F3  UNL     1     -25.655 -11.175  72.968  1.00  0.00    -0.171 F 
ENDBRANCH  14  15
ENDBRANCH  13  14
BRANCH  13  19
HETATM   19  O4  UNL     1     -27.442  -9.402  70.544  1.00  0.00    -0.260 OA
BRANCH  19  20
HETATM   20  N3  UNL     1     -26.350  -8.645  70.640  1.00  0.00    -0.309 N 
ATOM     21  H32 UNL     1     -25.418  -8.941  70.349  1.00  0.00     0.184 HD
ATOM     22  H31 UNL     1     -26.589  -7.739  71.043  1.00  0.00     0.184 HD
ENDBRANCH  19  20
ENDBRANCH  13  19
ENDBRANCH  11  13
ENDBRANCH   9  11
ENDBRANCH   4   8
BRANCH   3  23
HETATM   23  C5  UNL     1     -28.441  -6.583  74.942  1.00  0.00     0.163 C 
HETATM   24  O2  UNL     1     -28.065  -5.250  75.319  1.00  0.00    -0.380 OA
HETATM   25  C6  UNL     1     -26.770  -5.288  75.701  1.00  0.00     0.176 C 
HETATM   26  C7  UNL     1     -26.333  -6.698  75.899  1.00  0.00     0.043 C 
HETATM   27  C8  UNL     1     -25.928  -6.909  77.335  1.00  0.00     0.175 C 
HETATM   28  C11 UNL     1     -27.641  -7.455  75.809  1.00  0.00     0.056 C 
HETATM   29  O3  UNL     1     -27.116  -7.044  78.057  1.00  0.00    -0.385 OA
HETATM   30  C9  UNL     1     -27.950  -7.776  77.193  1.00  0.00     0.124 C 
HETATM   31  C10 UNL     1     -27.488  -9.264  77.416  1.00  0.00     0.040 C 
ENDBRANCH   3  23
BRANCH   7  32
HETATM   32  O5  UNL     1     -33.978  -6.899  75.342  1.00  0.00    -0.339 OA
HETATM   33  C18 UNL     1     -35.090  -7.094  74.717  1.00  0.00     0.211 C 
ENDBRANCH   7  32
BRANCH   1  34
HETATM   34  O1  UNL     1     -32.672  -5.425  77.213  1.00  0.00    -0.352 OA
HETATM   35  C1  UNL     1     -32.747  -5.879  78.556  1.00  0.00     0.210 C 
ENDBRANCH   1  34
TORSDOF 10
ENDMDL
MODEL 4
REMARK VINA RESULT: -6.491279361      1.891      2.225
REMARK  10 active torsions:
REMARK  status: ('A' for Active; 'I' for Inactive)
REMARK    1  A    between atoms: O1_2  and  C2_3 
REMARK    2  A    between atoms: C4_5  and  C5_6 
REMARK    3  A    between atoms: C12_15  and  C13_16 
REMARK    4  A    between atoms: N1_17  and  N2_19 
REMARK    5  A    between atoms: N2_19  and  C14_21 
REMARK    6  A    between atoms: C14_21  and  C15_22 
REMARK    7  A    between atoms: C14_21  and  O4_27 
REMARK    8  A    between atoms: C15_22  and  C16_23 
REMARK    9  A    between atoms: O4_27  and  N3_28 
REMARK   10  A    between atoms: C17_33  and  O5_34 
ROOT
HETATM    1  C2  UNL     1     -24.023  -8.498  78.721  1.00  0.00     0.119 A 
HETATM    2  C3  UNL     1     -25.395  -8.619  78.800  1.00  0.00     0.053 A 
HETATM    3  C4  UNL     1     -26.181  -8.788  77.698  1.00  0.00     0.002 A 
HETATM    4  C12 UNL     1     -25.572  -8.849  76.458  1.00  0.00     0.060 A 
HETATM    5  N4  UNL     1     -24.238  -8.725  76.379  1.00  0.00    -0.333 N 
ATOM      6  H4  UNL     1     -23.796  -8.761  75.460  1.00  0.00     0.168 HD
HETATM    7  C17 UNL     1     -23.458  -8.553  77.467  1.00  0.00     0.176 A 
ENDROOT
BRANCH   4   8
HETATM    8  C13 UNL     1     -26.300  -9.128  75.239  1.00  0.00     0.137 C 
HETATM    9  N1  UNL     1     -26.566  -8.193  74.388  1.00  0.00    -0.312 N 
ATOM     10  H1  UNL     1     -26.272  -7.235  74.570  1.00  0.00     0.185 HD
BRANCH   9  11
HETATM   11  N2  UNL     1     -27.268  -8.510  73.204  1.00  0.00    -0.305 N 
ATOM     12  H2  UNL     1     -26.903  -8.191  72.306  1.00  0.00     0.183 HD
BRANCH  11  13
HETATM   13  C14 UNL     1     -28.502  -9.283  73.240  1.00  0.00     0.273 C 
BRANCH  13  14
HETATM   14  C15 UNL     1     -28.449 -10.398  72.238  1.00  0.00     0.174 C 
BRANCH  14  15
HETATM   15  C16 UNL     1     -27.806 -11.658  72.866  1.00  0.00     0.392 C 
HETATM   16  F1  UNL     1     -28.166 -12.806  72.258  1.00  0.00    -0.171 F 
HETATM   17  F2  UNL     1     -26.419 -11.434  72.792  1.00  0.00    -0.171 F 
HETATM   18  F3  UNL     1     -28.223 -11.605  74.190  1.00  0.00    -0.171 F 
ENDBRANCH  14  15
ENDBRANCH  13  14
BRANCH  13  19
HETATM   19  O4  UNL     1     -29.521  -8.390  72.991  1.00  0.00    -0.260 OA
BRANCH  19  20
HETATM   20  N3  UNL     1     -30.121  -8.054  74.133  1.00  0.00    -0.309 N 
ATOM     21  H32 UNL     1     -29.626  -7.793  74.986  1.00  0.00     0.184 HD
ATOM     22  H31 UNL     1     -31.134  -8.097  74.020  1.00  0.00     0.184 HD
ENDBRANCH  19  20
ENDBRANCH  13  19
ENDBRANCH  11  13
ENDBRANCH   9  11
ENDBRANCH   4   8
BRANCH   3  23
HETATM   23  C5  UNL     1     -27.648  -9.003  77.793  1.00  0.00     0.163 C 
HETATM   24  O2  UNL     1     -27.945  -9.321  79.160  1.00  0.00    -0.380 OA
HETATM   25  C6  UNL     1     -29.231  -8.974  79.387  1.00  0.00     0.176 C 
HETATM   26  C7  UNL     1     -29.736  -8.120  78.277  1.00  0.00     0.043 C 
HETATM   27  C8  UNL     1     -30.117  -6.763  78.811  1.00  0.00     0.175 C 
HETATM   28  C11 UNL     1     -28.471  -7.825  77.497  1.00  0.00     0.056 C 
HETATM   29  O3  UNL     1     -28.921  -6.060  78.975  1.00  0.00    -0.385 OA
HETATM   30  C9  UNL     1     -28.147  -6.458  77.870  1.00  0.00     0.124 C 
HETATM   31  C10 UNL     1     -28.681  -5.543  76.705  1.00  0.00     0.040 C 
ENDBRANCH   3  23
BRANCH   7  32
HETATM   32  O5  UNL     1     -22.138  -8.444  77.303  1.00  0.00    -0.339 OA
HETATM   33  C18 UNL     1     -21.047  -8.920  76.805  1.00  0.00     0.211 C 
ENDBRANCH   7  32
BRANCH   1  34
HETATM   34  O1  UNL     1     -23.188  -8.325  79.805  1.00  0.00    -0.352 OA
HETATM   35  C1  UNL     1     -23.404  -8.939  81.068  1.00  0.00     0.210 C 
ENDBRANCH   1  34
TORSDOF 10
ENDMDL
MODEL 5
REMARK VINA RESULT: -6.473138950      2.173      2.547
REMARK  10 active torsions:
REMARK  status: ('A' for Active; 'I' for Inactive)
REMARK    1  A    between atoms: O1_2  and  C2_3 
REMARK    2  A    between atoms: C4_5  and  C5_6 
REMARK    3  A    between atoms: C12_15  and  C13_16 
REMARK    4  A    between atoms: N1_17  and  N2_19 
REMARK    5  A    between atoms: N2_19  and  C14_21 
REMARK    6  A    between atoms: C14_21  and  C15_22 
REMARK    7  A    between atoms: C14_21  and  O4_27 
REMARK    8  A    between atoms: C15_22  and  C16_23 
REMARK    9  A    between atoms: O4_27  and  N3_28 
REMARK   10  A    between atoms: C17_33  and  O5_34 
ROOT
HETATM    1  C2  UNL     1     -23.894  -8.396  78.663  1.00  0.00     0.119 A 
HETATM    2  C3  UNL     1     -25.228  -8.627  78.931  1.00  0.00     0.053 A 
HETATM    3  C4  UNL     1     -26.111  -9.022  77.968  1.00  0.00     0.002 A 
HETATM    4  C12 UNL     1     -25.643  -9.205  76.681  1.00  0.00     0.060 A 
HETATM    5  N4  UNL     1     -24.347  -8.973  76.417  1.00  0.00    -0.333 N 
ATOM      6  H4  UNL     1     -24.010  -9.100  75.463  1.00  0.00     0.168 HD
HETATM    7  C17 UNL     1     -23.472  -8.578  77.367  1.00  0.00     0.176 A 
ENDROOT
BRANCH   4   8
HETATM    8  C13 UNL     1     -26.470  -9.720  75.611  1.00  0.00     0.137 C 
HETATM    9  N1  UNL     1     -26.076  -9.682  74.381  1.00  0.00    -0.312 N 
ATOM     10  H1  UNL     1     -25.172  -9.276  74.144  1.00  0.00     0.185 HD
BRANCH   9  11
HETATM   11  N2  UNL     1     -26.907 -10.207  73.367  1.00  0.00    -0.305 N 
ATOM     12  H2  UNL     1     -26.999 -11.218  73.269  1.00  0.00     0.183 HD
BRANCH  11  13
HETATM   13  C14 UNL     1     -27.637  -9.332  72.459  1.00  0.00     0.273 C 
BRANCH  13  14
HETATM   14  C15 UNL     1     -29.115  -9.517  72.633  1.00  0.00     0.174 C 
BRANCH  14  15
HETATM   15  C16 UNL     1     -29.718  -8.335  73.428  1.00  0.00     0.392 C 
HETATM   16  F1  UNL     1     -31.051  -8.205  73.272  1.00  0.00    -0.171 F 
HETATM   17  F2  UNL     1     -29.365  -8.580  74.768  1.00  0.00    -0.171 F 
HETATM   18  F3  UNL     1     -29.018  -7.235  72.949  1.00  0.00    -0.171 F 
ENDBRANCH  14  15
ENDBRANCH  13  14
BRANCH  13  19
HETATM   19  O4  UNL     1     -27.204  -9.649  71.190  1.00  0.00    -0.260 OA
BRANCH  19  20
HETATM   20  N3  UNL     1     -26.725  -8.561  70.588  1.00  0.00    -0.309 N 
ATOM     21  H32 UNL     1     -26.326  -7.761  71.080  1.00  0.00     0.184 HD
ATOM     22  H31 UNL     1     -26.818  -8.654  69.576  1.00  0.00     0.184 HD
ENDBRANCH  19  20
ENDBRANCH  13  19
ENDBRANCH  11  13
ENDBRANCH   9  11
ENDBRANCH   4   8
BRANCH   3  23
HETATM   23  C5  UNL     1     -27.526  -9.352  78.276  1.00  0.00     0.163 C 
HETATM   24  O2  UNL     1     -27.619  -9.556  79.693  1.00  0.00    -0.380 OA
HETATM   25  C6  UNL     1     -28.895  -9.301  80.057  1.00  0.00     0.176 C 
HETATM   26  C7  UNL     1     -29.615  -8.609  78.953  1.00  0.00     0.043 C 
HETATM   27  C8  UNL     1     -30.060  -7.244  79.410  1.00  0.00     0.175 C 
HETATM   28  C11 UNL     1     -28.492  -8.286  77.989  1.00  0.00     0.056 C 
HETATM   29  O3  UNL     1     -28.928  -6.427  79.352  1.00  0.00    -0.385 OA
HETATM   30  C9  UNL     1     -28.261  -6.865  78.194  1.00  0.00     0.124 C 
HETATM   31  C10 UNL     1     -29.022  -6.121  77.033  1.00  0.00     0.040 C 
ENDBRANCH   3  23
BRANCH   7  32
HETATM   32  O5  UNL     1     -22.198  -8.375  77.024  1.00  0.00    -0.339 OA
HETATM   33  C18 UNL     1     -21.020  -8.864  76.822  1.00  0.00     0.211 C 
ENDBRANCH   7  32
BRANCH   1  34
HETATM   34  O1  UNL     1     -22.965  -7.994  79.601  1.00  0.00    -0.352 OA
HETATM   35  C1  UNL     1     -22.820  -8.608  80.874  1.00  0.00     0.210 C 
ENDBRANCH   1  34
TORSDOF 10
ENDMDL
