MODEL 1
REMARK VINA RESULT: -3.813442650      0.000      0.000
REMARK  2 active torsions:
REMARK  status: ('A' for Active; 'I' for Inactive)
REMARK    1  A    between atoms: C2_2  and  O1_3 
REMARK    2  A    between atoms: C9_11  and  N1_12 
ROOT
HETATM    1  C1  UNL     1      24.227  32.938  -6.897  1.00  0.00     0.048 C 
HETATM    2  C2  UNL     1      24.085  33.476  -5.511  1.00  0.00     0.086 C 
HETATM    3  C3  UNL     1      25.243  34.354  -5.137  1.00  0.00     0.022 C 
HETATM    4  C4  UNL     1      26.419  33.595  -4.589  1.00  0.00     0.008 C 
HETATM    5  C5  UNL     1      26.065  32.694  -3.439  1.00  0.00     0.007 C 
HETATM    6  C6  UNL     1      24.558  32.862  -3.203  1.00  0.00     0.019 C 
HETATM    7  C7  UNL     1      24.340  34.315  -2.871  1.00  0.00     0.007 C 
HETATM    8  C8  UNL     1      24.726  35.241  -3.994  1.00  0.00     0.008 C 
HETATM    9  C9  UNL     1      23.874  32.427  -4.464  1.00  0.00     0.221 C 
ENDROOT
BRANCH   9  10
HETATM   10  N1  UNL     1      22.492  32.075  -4.281  1.00  0.00    -0.072 N 
ATOM     11  H13 UNL     1      21.947  32.304  -5.112  1.00  0.00     0.274 HD
ATOM     12  H12 UNL     1      22.374  31.062  -4.275  1.00  0.00     0.274 HD
ATOM     13  H11 UNL     1      22.076  32.494  -3.448  1.00  0.00     0.274 HD
ENDBRANCH   9  10
BRANCH   2  14
HETATM   14  O1  UNL     1      22.938  34.305  -5.490  1.00  0.00    -0.388 OA
ATOM     15  H1  UNL     1      22.750  34.512  -4.582  1.00  0.00     0.210 HD
ENDBRANCH   2  14
TORSDOF 2
ENDMDL
MODEL 2
REMARK VINA RESULT: -3.758783050     14.971     16.086
REMARK  2 active torsions:
REMARK  status: ('A' for Active; 'I' for Inactive)
REMARK    1  A    between atoms: C2_2  and  O1_3 
REMARK    2  A    between atoms: C9_11  and  N1_12 
ROOT
HETATM    1  C1  UNL     1      33.282  20.317  -3.382  1.00  0.00     0.048 C 
HETATM    2  C2  UNL     1      33.012  20.084  -1.931  1.00  0.00     0.086 C 
HETATM    3  C3  UNL     1      31.864  19.140  -1.726  1.00  0.00     0.022 C 
HETATM    4  C4  UNL     1      30.521  19.815  -1.741  1.00  0.00     0.008 C 
HETATM    5  C5  UNL     1      30.419  20.964  -0.777  1.00  0.00     0.007 C 
HETATM    6  C6  UNL     1      31.779  21.063  -0.073  1.00  0.00     0.019 C 
HETATM    7  C7  UNL     1      31.987  19.749   0.633  1.00  0.00     0.007 C 
HETATM    8  C8  UNL     1      32.051  18.576  -0.309  1.00  0.00     0.008 C 
HETATM    9  C9  UNL     1      32.796  21.336  -1.139  1.00  0.00     0.221 C 
ENDROOT
BRANCH   9  10
HETATM   10  N1  UNL     1      34.017  21.911  -0.640  1.00  0.00    -0.072 N 
ATOM     11  H13 UNL     1      34.087  21.791   0.371  1.00  0.00     0.274 HD
ATOM     12  H12 UNL     1      34.823  21.358  -0.931  1.00  0.00     0.274 HD
ATOM     13  H11 UNL     1      34.136  22.891  -0.898  1.00  0.00     0.274 HD
ENDBRANCH   9  10
BRANCH   2  14
HETATM   14  O1  UNL     1      34.150  19.448  -1.380  1.00  0.00    -0.388 OA
ATOM     15  H1  UNL     1      34.660  20.112  -0.932  1.00  0.00     0.210 HD
ENDBRANCH   2  14
TORSDOF 2
ENDMDL
MODEL 3
REMARK VINA RESULT: -3.715224591      1.577      2.232
REMARK  2 active torsions:
REMARK  status: ('A' for Active; 'I' for Inactive)
REMARK    1  A    between atoms: C2_2  and  O1_3 
REMARK    2  A    between atoms: C9_11  and  N1_12 
ROOT
HETATM    1  C1  UNL     1      24.686  36.237  -5.906  1.00  0.00     0.048 C 
HETATM    2  C2  UNL     1      24.217  34.889  -5.466  1.00  0.00     0.086 C 
HETATM    3  C3  UNL     1      24.457  34.671  -4.001  1.00  0.00     0.022 C 
HETATM    4  C4  UNL     1      25.834  34.157  -3.688  1.00  0.00     0.008 C 
HETATM    5  C5  UNL     1      26.199  32.919  -4.458  1.00  0.00     0.007 C 
HETATM    6  C6  UNL     1      24.990  32.583  -5.340  1.00  0.00     0.019 C 
HETATM    7  C7  UNL     1      23.834  32.347  -4.404  1.00  0.00     0.007 C 
HETATM    8  C8  UNL     1      23.475  33.562  -3.590  1.00  0.00     0.008 C 
HETATM    9  C9  UNL     1      24.788  33.752  -6.256  1.00  0.00     0.221 C 
ENDROOT
BRANCH   9  10
HETATM   10  N1  UNL     1      24.025  33.439  -7.435  1.00  0.00    -0.072 N 
ATOM     11  H13 UNL     1      23.206  34.043  -7.507  1.00  0.00     0.274 HD
ATOM     12  H12 UNL     1      24.524  33.729  -8.276  1.00  0.00     0.274 HD
ATOM     13  H11 UNL     1      23.758  32.456  -7.492  1.00  0.00     0.274 HD
ENDBRANCH   9  10
BRANCH   2  14
HETATM   14  O1  UNL     1      22.815  34.844  -5.648  1.00  0.00    -0.388 OA
ATOM     15  H1  UNL     1      22.504  34.025  -5.280  1.00  0.00     0.210 HD
ENDBRANCH   2  14
TORSDOF 2
ENDMDL
MODEL 4
REMARK VINA RESULT: -3.676888269      4.056      5.299
REMARK  2 active torsions:
REMARK  status: ('A' for Active; 'I' for Inactive)
REMARK    1  A    between atoms: C2_2  and  O1_3 
REMARK    2  A    between atoms: C9_11  and  N1_12 
ROOT
HETATM    1  C1  UNL     1      27.789  31.268  -2.174  1.00  0.00     0.048 C 
HETATM    2  C2  UNL     1      28.503  31.707  -3.411  1.00  0.00     0.086 C 
HETATM    3  C3  UNL     1      27.936  32.988  -3.951  1.00  0.00     0.022 C 
HETATM    4  C4  UNL     1      26.752  32.786  -4.854  1.00  0.00     0.008 C 
HETATM    5  C5  UNL     1      27.016  31.826  -5.980  1.00  0.00     0.007 C 
HETATM    6  C6  UNL     1      28.468  31.357  -5.820  1.00  0.00     0.019 C 
HETATM    7  C7  UNL     1      29.325  32.591  -5.916  1.00  0.00     0.007 C 
HETATM    8  C8  UNL     1      29.051  33.588  -4.822  1.00  0.00     0.008 C 
HETATM    9  C9  UNL     1      28.554  30.671  -4.490  1.00  0.00     0.221 C 
ENDROOT
BRANCH   9  10
HETATM   10  N1  UNL     1      29.677  29.780  -4.370  1.00  0.00    -0.072 N 
ATOM     11  H13 UNL     1      30.555  30.287  -4.481  1.00  0.00     0.274 HD
ATOM     12  H12 UNL     1      29.786  29.462  -3.407  1.00  0.00     0.274 HD
ATOM     13  H11 UNL     1      29.633  28.987  -5.011  1.00  0.00     0.274 HD
ENDBRANCH   9  10
BRANCH   2  14
HETATM   14  O1  UNL     1      29.843  31.987  -3.055  1.00  0.00    -0.388 OA
ATOM     15  H1  UNL     1      30.393  31.738  -3.788  1.00  0.00     0.210 HD
ENDBRANCH   2  14
TORSDOF 2
ENDMDL
MODEL 5
REMARK VINA RESULT: -3.610026569     11.587     12.659
REMARK  2 active torsions:
REMARK  status: ('A' for Active; 'I' for Inactive)
REMARK    1  A    between atoms: C2_2  and  O1_3 
REMARK    2  A    between atoms: C9_11  and  N1_12 
ROOT
HETATM    1  C1  UNL     1      28.013  24.031  -3.672  1.00  0.00     0.048 C 
HETATM    2  C2  UNL     1      27.961  22.593  -3.271  1.00  0.00     0.086 C 
HETATM    3  C3  UNL     1      27.707  22.438  -1.800  1.00  0.00     0.022 C 
HETATM    4  C4  UNL     1      28.956  22.498  -0.966  1.00  0.00     0.008 C 
HETATM    5  C5  UNL     1      30.018  21.529  -1.409  1.00  0.00     0.007 C 
HETATM    6  C6  UNL     1      29.442  20.775  -2.614  1.00  0.00     0.019 C 
HETATM    7  C7  UNL     1      28.204  20.072  -2.122  1.00  0.00     0.007 C 
HETATM    8  C8  UNL     1      27.141  21.019  -1.634  1.00  0.00     0.008 C 
HETATM    9  C9  UNL     1      29.166  21.800  -3.672  1.00  0.00     0.221 C 
ENDROOT
BRANCH   9  10
HETATM   10  N1  UNL     1      29.070  21.251  -4.998  1.00  0.00    -0.072 N 
ATOM     11  H13 UNL     1      28.129  21.370  -5.372  1.00  0.00     0.274 HD
ATOM     12  H12 UNL     1      29.589  21.824  -5.665  1.00  0.00     0.274 HD
ATOM     13  H11 UNL     1      29.363  20.276  -5.053  1.00  0.00     0.274 HD
ENDBRANCH   9  10
BRANCH   2  14
HETATM   14  O1  UNL     1      26.854  22.006  -3.927  1.00  0.00    -0.388 OA
ATOM     15  H1  UNL     1      27.040  22.004  -4.858  1.00  0.00     0.210 HD
ENDBRANCH   2  14
TORSDOF 2
ENDMDL
