MODEL 1
REMARK VINA RESULT: -7.508874069      0.000      0.000
REMARK  6 active torsions:
REMARK  status: ('A' for Active; 'I' for Inactive)
REMARK    1  A    between atoms: O1_2  and  C2_3 
REMARK    2  A    between atoms: C6_7  and  O2_8 
REMARK    3  A    between atoms: O2_8  and  C7_9 
REMARK    4  A    between atoms: C10_13  and  O4_14 
REMARK    5  A    between atoms: C11_16  and  O5_17 
REMARK    6  A    between atoms: C12_19  and  O6_20 
ROOT
HETATM    1  C7  UNL     1     -19.689  37.112  -1.769  1.00  0.00     0.292 C 
HETATM    2  O3  UNL     1     -20.091  36.734  -0.490  1.00  0.00    -0.351 OA
HETATM    3  C8  UNL     1     -20.463  37.730   0.343  1.00  0.00     0.152 C 
HETATM    4  C9  UNL     1     -19.210  38.276   1.016  1.00  0.00     0.042 C 
HETATM    5  C10 UNL     1     -21.230  38.860  -0.198  1.00  0.00     0.178 C 
HETATM    6  C11 UNL     1     -20.608  39.336  -1.518  1.00  0.00     0.183 C 
HETATM    7  C12 UNL     1     -20.671  38.073  -2.393  1.00  0.00     0.204 C 
ENDROOT
BRANCH   1   8
HETATM    8  O2  UNL     1     -19.508  36.077  -2.617  1.00  0.00    -0.347 OA
BRANCH   8   9
HETATM    9  C6  UNL     1     -18.268  35.535  -2.809  1.00  0.00     0.069 C 
HETATM   10  C5  UNL     1     -17.371  35.284  -1.654  1.00  0.00     0.042 C 
HETATM   11  C4  UNL     1     -16.392  34.141  -1.858  1.00  0.00     0.032 C 
HETATM   12  C3  UNL     1     -15.361  34.386  -2.853  1.00  0.00     0.006 C 
HETATM   13  C2  UNL     1     -15.413  35.144  -3.945  1.00  0.00     0.047 C 
HETATM   14  C15 UNL     1     -16.444  35.969  -4.534  1.00  0.00     0.054 A 
HETATM   15  C14 UNL     1     -17.805  35.477  -4.847  1.00  0.00     0.007 A 
HETATM   16  C16 UNL     1     -17.508  36.495  -3.725  1.00  0.00     0.036 A 
HETATM   17  C13 UNL     1     -18.345  34.473  -3.870  1.00  0.00     0.044 C 
BRANCH  13  18
HETATM   18  O1  UNL     1     -14.204  35.107  -4.630  1.00  0.00    -0.360 OA
HETATM   19  C1  UNL     1     -14.102  34.856  -6.015  1.00  0.00     0.209 C 
ENDBRANCH  13  18
ENDBRANCH   8   9
ENDBRANCH   1   8
BRANCH   7  20
HETATM   20  O6  UNL     1     -20.354  38.387  -3.701  1.00  0.00    -0.388 OA
ATOM     21  H6  UNL     1     -19.472  38.727  -3.793  1.00  0.00     0.210 HD
ENDBRANCH   7  20
BRANCH   6  22
HETATM   22  O5  UNL     1     -21.454  40.278  -2.092  1.00  0.00    -0.390 OA
ATOM     23  H5  UNL     1     -21.205  41.140  -1.777  1.00  0.00     0.210 HD
ENDBRANCH   6  22
BRANCH   5  24
HETATM   24  O4  UNL     1     -21.427  39.901   0.673  1.00  0.00    -0.390 OA
ATOM     25  H4  UNL     1     -21.799  39.660   1.514  1.00  0.00     0.210 HD
ENDBRANCH   5  24
TORSDOF 6
ENDMDL
MODEL 2
REMARK VINA RESULT: -7.240743304      2.596      4.050
REMARK  6 active torsions:
REMARK  status: ('A' for Active; 'I' for Inactive)
REMARK    1  A    between atoms: O1_2  and  C2_3 
REMARK    2  A    between atoms: C6_7  and  O2_8 
REMARK    3  A    between atoms: O2_8  and  C7_9 
REMARK    4  A    between atoms: C10_13  and  O4_14 
REMARK    5  A    between atoms: C11_16  and  O5_17 
REMARK    6  A    between atoms: C12_19  and  O6_20 
ROOT
HETATM    1  C7  UNL     1     -19.900  37.740  -5.174  1.00  0.00     0.292 C 
HETATM    2  O3  UNL     1     -21.049  37.961  -4.417  1.00  0.00    -0.351 OA
HETATM    3  C8  UNL     1     -21.588  39.197  -4.487  1.00  0.00     0.152 C 
HETATM    4  C9  UNL     1     -20.878  40.080  -3.469  1.00  0.00     0.042 C 
HETATM    5  C10 UNL     1     -21.600  39.896  -5.780  1.00  0.00     0.178 C 
HETATM    6  C11 UNL     1     -20.233  39.759  -6.465  1.00  0.00     0.183 C 
HETATM    7  C12 UNL     1     -20.071  38.235  -6.591  1.00  0.00     0.204 C 
ENDROOT
BRANCH   1   8
HETATM    8  O2  UNL     1     -19.511  36.449  -5.219  1.00  0.00    -0.347 OA
BRANCH   8   9
HETATM    9  C6  UNL     1     -18.313  36.058  -4.690  1.00  0.00     0.069 C 
HETATM   10  C5  UNL     1     -17.236  35.542  -5.571  1.00  0.00     0.042 C 
HETATM   11  C4  UNL     1     -15.830  35.773  -5.043  1.00  0.00     0.032 C 
HETATM   12  C3  UNL     1     -15.488  35.011  -3.852  1.00  0.00     0.006 C 
HETATM   13  C2  UNL     1     -16.282  34.588  -2.872  1.00  0.00     0.047 C 
HETATM   14  C15 UNL     1     -17.700  34.707  -2.619  1.00  0.00     0.054 A 
HETATM   15  C14 UNL     1     -18.421  36.000  -2.603  1.00  0.00     0.007 A 
HETATM   16  C16 UNL     1     -18.617  34.933  -3.701  1.00  0.00     0.036 A 
HETATM   17  C13 UNL     1     -17.916  37.008  -3.595  1.00  0.00     0.044 C 
BRANCH  13  18
HETATM   18  O1  UNL     1     -15.553  33.889  -1.915  1.00  0.00    -0.360 OA
HETATM   19  C1  UNL     1     -16.070  33.533  -0.652  1.00  0.00     0.209 C 
ENDBRANCH  13  18
ENDBRANCH   8   9
ENDBRANCH   1   8
BRANCH   7  20
HETATM   20  O6  UNL     1     -18.987  37.939  -7.395  1.00  0.00    -0.388 OA
ATOM     21  H6  UNL     1     -19.144  38.136  -8.311  1.00  0.00     0.210 HD
ENDBRANCH   7  20
BRANCH   6  22
HETATM   22  O5  UNL     1     -20.330  40.271  -7.754  1.00  0.00    -0.390 OA
ATOM     23  H5  UNL     1     -20.427  41.215  -7.699  1.00  0.00     0.210 HD
ENDBRANCH   6  22
BRANCH   5  24
HETATM   24  O4  UNL     1     -22.013  41.203  -5.732  1.00  0.00    -0.390 OA
ATOM     25  H4  UNL     1     -22.955  41.328  -5.715  1.00  0.00     0.210 HD
ENDBRANCH   5  24
TORSDOF 6
ENDMDL
MODEL 3
REMARK VINA RESULT: -7.061975634      1.565      6.671
REMARK  6 active torsions:
REMARK  status: ('A' for Active; 'I' for Inactive)
REMARK    1  A    between atoms: O1_2  and  C2_3 
REMARK    2  A    between atoms: C6_7  and  O2_8 
REMARK    3  A    between atoms: O2_8  and  C7_9 
REMARK    4  A    between atoms: C10_13  and  O4_14 
REMARK    5  A    between atoms: C11_16  and  O5_17 
REMARK    6  A    between atoms: C12_19  and  O6_20 
ROOT
HETATM    1  C7  UNL     1     -17.532  35.632  -2.176  1.00  0.00     0.292 C 
HETATM    2  O3  UNL     1     -17.983  35.607  -3.494  1.00  0.00    -0.351 OA
HETATM    3  C8  UNL     1     -17.034  35.613  -4.455  1.00  0.00     0.152 C 
HETATM    4  C9  UNL     1     -16.648  37.061  -4.729  1.00  0.00     0.042 C 
HETATM    5  C10 UNL     1     -15.804  34.837  -4.245  1.00  0.00     0.178 C 
HETATM    6  C11 UNL     1     -15.271  35.068  -2.825  1.00  0.00     0.183 C 
HETATM    7  C12 UNL     1     -16.446  34.609  -1.946  1.00  0.00     0.204 C 
ENDROOT
BRANCH   1   8
HETATM    8  O2  UNL     1     -18.503  35.436  -1.259  1.00  0.00    -0.347 OA
BRANCH   8   9
HETATM    9  C6  UNL     1     -18.942  36.463  -0.471  1.00  0.00     0.069 C 
HETATM   10  C5  UNL     1     -19.137  36.261   0.986  1.00  0.00     0.042 C 
HETATM   11  C4  UNL     1     -18.964  37.518   1.821  1.00  0.00     0.032 C 
HETATM   12  C3  UNL     1     -19.991  38.530   1.627  1.00  0.00     0.006 C 
HETATM   13  C2  UNL     1     -20.709  38.798   0.539  1.00  0.00     0.047 C 
HETATM   14  C15 UNL     1     -20.751  38.228  -0.788  1.00  0.00     0.054 A 
HETATM   15  C14 UNL     1     -19.558  38.075  -1.651  1.00  0.00     0.007 A 
HETATM   16  C16 UNL     1     -20.306  36.882  -1.020  1.00  0.00     0.036 A 
HETATM   17  C13 UNL     1     -18.293  37.745  -0.912  1.00  0.00     0.044 C 
BRANCH  13  18
HETATM   18  O1  UNL     1     -21.588  39.849   0.776  1.00  0.00    -0.360 OA
HETATM   19  C1  UNL     1     -21.991  40.763  -0.221  1.00  0.00     0.209 C 
ENDBRANCH  13  18
ENDBRANCH   8   9
ENDBRANCH   1   8
BRANCH   7  20
HETATM   20  O6  UNL     1     -16.050  34.538  -0.624  1.00  0.00    -0.388 OA
ATOM     21  H6  UNL     1     -15.879  35.394  -0.246  1.00  0.00     0.210 HD
ENDBRANCH   7  20
BRANCH   6  22
HETATM   22  O5  UNL     1     -14.218  34.188  -2.598  1.00  0.00    -0.390 OA
ATOM     23  H5  UNL     1     -14.360  33.406  -3.119  1.00  0.00     0.210 HD
ENDBRANCH   6  22
BRANCH   5  24
HETATM   24  O4  UNL     1     -14.827  35.026  -5.190  1.00  0.00    -0.390 OA
ATOM     25  H4  UNL     1     -14.883  34.456  -5.948  1.00  0.00     0.210 HD
ENDBRANCH   5  24
TORSDOF 6
ENDMDL
MODEL 4
REMARK VINA RESULT: -7.060705711      2.637      3.931
REMARK  6 active torsions:
REMARK  status: ('A' for Active; 'I' for Inactive)
REMARK    1  A    between atoms: O1_2  and  C2_3 
REMARK    2  A    between atoms: C6_7  and  O2_8 
REMARK    3  A    between atoms: O2_8  and  C7_9 
REMARK    4  A    between atoms: C10_13  and  O4_14 
REMARK    5  A    between atoms: C11_16  and  O5_17 
REMARK    6  A    between atoms: C12_19  and  O6_20 
ROOT
HETATM    1  C7  UNL     1     -20.237  38.283  -4.871  1.00  0.00     0.292 C 
HETATM    2  O3  UNL     1     -21.447  38.694  -4.317  1.00  0.00    -0.351 OA
HETATM    3  C8  UNL     1     -21.761  40.000  -4.458  1.00  0.00     0.152 C 
HETATM    4  C9  UNL     1     -21.103  40.770  -3.320  1.00  0.00     0.042 C 
HETATM    5  C10 UNL     1     -21.440  40.676  -5.723  1.00  0.00     0.178 C 
HETATM    6  C11 UNL     1     -20.016  40.313  -6.167  1.00  0.00     0.183 C 
HETATM    7  C12 UNL     1     -20.082  38.782  -6.287  1.00  0.00     0.204 C 
ENDROOT
BRANCH   1   8
HETATM    8  O2  UNL     1     -20.058  36.945  -4.868  1.00  0.00    -0.347 OA
BRANCH   8   9
HETATM    9  C6  UNL     1     -19.331  36.336  -3.884  1.00  0.00     0.069 C 
HETATM   10  C5  UNL     1     -19.046  37.045  -2.613  1.00  0.00     0.042 C 
HETATM   11  C4  UNL     1     -18.859  36.132  -1.414  1.00  0.00     0.032 C 
HETATM   12  C3  UNL     1     -17.659  35.310  -1.449  1.00  0.00     0.006 C 
HETATM   13  C2  UNL     1     -17.009  34.823  -2.502  1.00  0.00     0.047 C 
HETATM   14  C15 UNL     1     -17.219  34.912  -3.929  1.00  0.00     0.054 A 
HETATM   15  C14 UNL     1     -18.494  34.555  -4.592  1.00  0.00     0.007 A 
HETATM   16  C16 UNL     1     -17.967  36.002  -4.489  1.00  0.00     0.036 A 
HETATM   17  C13 UNL     1     -19.724  34.887  -3.796  1.00  0.00     0.044 C 
BRANCH  13  18
HETATM   18  O1  UNL     1     -15.902  34.082  -2.098  1.00  0.00    -0.360 OA
HETATM   19  C1  UNL     1     -15.811  33.443  -0.845  1.00  0.00     0.209 C 
ENDBRANCH  13  18
ENDBRANCH   8   9
ENDBRANCH   1   8
BRANCH   7  20
HETATM   20  O6  UNL     1     -18.938  38.305  -6.899  1.00  0.00    -0.388 OA
ATOM     21  H6  UNL     1     -18.929  37.358  -6.975  1.00  0.00     0.210 HD
ENDBRANCH   7  20
BRANCH   6  22
HETATM   22  O5  UNL     1     -19.809  40.818  -7.446  1.00  0.00    -0.390 OA
ATOM     23  H5  UNL     1     -18.891  40.713  -7.669  1.00  0.00     0.210 HD
ENDBRANCH   6  22
BRANCH   5  24
HETATM   24  O4  UNL     1     -21.641  42.033  -5.726  1.00  0.00    -0.390 OA
ATOM     25  H4  UNL     1     -22.125  42.372  -4.982  1.00  0.00     0.210 HD
ENDBRANCH   5  24
TORSDOF 6
ENDMDL
MODEL 5
REMARK VINA RESULT: -7.032238021      3.103      4.224
REMARK  6 active torsions:
REMARK  status: ('A' for Active; 'I' for Inactive)
REMARK    1  A    between atoms: O1_2  and  C2_3 
REMARK    2  A    between atoms: C6_7  and  O2_8 
REMARK    3  A    between atoms: O2_8  and  C7_9 
REMARK    4  A    between atoms: C10_13  and  O4_14 
REMARK    5  A    between atoms: C11_16  and  O5_17 
REMARK    6  A    between atoms: C12_19  and  O6_20 
ROOT
HETATM    1  C7  UNL     1     -20.082  38.382  -6.009  1.00  0.00     0.292 C 
HETATM    2  O3  UNL     1     -21.194  38.475  -5.175  1.00  0.00    -0.351 OA
HETATM    3  C8  UNL     1     -21.685  39.715  -4.962  1.00  0.00     0.152 C 
HETATM    4  C9  UNL     1     -20.906  40.342  -3.813  1.00  0.00     0.042 C 
HETATM    5  C10 UNL     1     -21.715  40.669  -6.079  1.00  0.00     0.178 C 
HETATM    6  C11 UNL     1     -20.379  40.637  -6.835  1.00  0.00     0.183 C 
HETATM    7  C12 UNL     1     -20.283  39.169  -7.282  1.00  0.00     0.204 C 
ENDROOT
BRANCH   1   8
HETATM    8  O2  UNL     1     -19.747  37.117  -6.339  1.00  0.00    -0.347 OA
BRANCH   8   9
HETATM    9  C6  UNL     1     -18.989  36.350  -5.498  1.00  0.00     0.069 C 
HETATM   10  C5  UNL     1     -19.550  35.868  -4.212  1.00  0.00     0.042 C 
HETATM   11  C4  UNL     1     -18.947  34.565  -3.716  1.00  0.00     0.032 C 
HETATM   12  C3  UNL     1     -17.556  34.651  -3.300  1.00  0.00     0.006 C 
HETATM   13  C2  UNL     1     -16.597  35.459  -3.744  1.00  0.00     0.047 C 
HETATM   14  C15 UNL     1     -16.560  36.500  -4.746  1.00  0.00     0.054 A 
HETATM   15  C14 UNL     1     -17.001  36.305  -6.145  1.00  0.00     0.007 A 
HETATM   16  C16 UNL     1     -17.762  37.185  -5.131  1.00  0.00     0.036 A 
HETATM   17  C13 UNL     1     -18.173  35.380  -6.306  1.00  0.00     0.044 C 
BRANCH  13  18
HETATM   18  O1  UNL     1     -15.401  35.217  -3.078  1.00  0.00    -0.360 OA
HETATM   19  C1  UNL     1     -15.219  34.153  -2.168  1.00  0.00     0.209 C 
ENDBRANCH  13  18
ENDBRANCH   8   9
ENDBRANCH   1   8
BRANCH   7  20
HETATM   20  O6  UNL     1     -19.240  39.013  -8.176  1.00  0.00    -0.388 OA
ATOM     21  H6  UNL     1     -19.384  38.300  -8.788  1.00  0.00     0.210 HD
ENDBRANCH   7  20
BRANCH   6  22
HETATM   22  O5  UNL     1     -20.501  41.410  -7.984  1.00  0.00    -0.390 OA
ATOM     23  H5  UNL     1     -19.988  42.202  -7.872  1.00  0.00     0.210 HD
ENDBRANCH   6  22
BRANCH   5  24
HETATM   24  O4  UNL     1     -22.074  41.950  -5.742  1.00  0.00    -0.390 OA
ATOM     25  H4  UNL     1     -21.504  42.631  -6.080  1.00  0.00     0.210 HD
ENDBRANCH   5  24
TORSDOF 6
ENDMDL
