MODEL 1
REMARK VINA RESULT: -7.258305582      0.000      0.000
REMARK  4 active torsions:
REMARK  status: ('A' for Active; 'I' for Inactive)
REMARK    1  A    between atoms: C2_2  and  O1_3 
REMARK    2  A    between atoms: O1_3  and  C3_4 
REMARK    3  A    between atoms: C3_4  and  C4_6 
REMARK    4  A    between atoms: C4_6  and  C5_7 
ROOT
HETATM    1  C5  UNL     1     -16.833  35.504  -3.015  1.00  0.00     0.142 C 
HETATM    2  O3  UNL     1     -15.846  35.815  -3.960  1.00  0.00    -0.358 OA
HETATM    3  C6  UNL     1     -16.437  36.829  -4.710  1.00  0.00     0.249 C 
HETATM    4  N1  UNL     1     -15.655  37.183  -5.865  1.00  0.00    -0.274 N 
ATOM      5  H1  UNL     1     -15.419  38.136  -6.140  1.00  0.00     0.176 HD
HETATM    6  S1  UNL     1     -15.169  35.737  -6.727  1.00  0.00     0.322 S 
HETATM    7  O4  UNL     1     -14.967  36.120  -8.147  1.00  0.00    -0.182 OA
HETATM    8  O5  UNL     1     -14.007  35.082  -6.092  1.00  0.00    -0.182 OA
HETATM    9  N2  UNL     1     -16.599  34.730  -6.666  1.00  0.00    -0.256 N 
ATOM     10  H2  UNL     1     -16.579  33.763  -6.988  1.00  0.00     0.181 HD
HETATM   11  C7  UNL     1     -17.798  35.314  -6.145  1.00  0.00     0.099 C 
HETATM   12  N3  UNL     1     -18.941  35.002  -6.679  1.00  0.00    -0.388 N 
ATOM     13  H31 UNL     1     -19.795  35.419  -6.308  1.00  0.00     0.157 HD
ATOM     14  H32 UNL     1     -18.947  34.345  -7.458  1.00  0.00     0.157 HD
HETATM   15  C8  UNL     1     -17.789  36.273  -5.009  1.00  0.00     0.069 C 
HETATM   16  C9  UNL     1     -18.784  37.364  -5.385  1.00  0.00     0.029 C 
HETATM   17  C10 UNL     1     -18.146  35.640  -3.687  1.00  0.00    -0.002 C 
HETATM   18  C11 UNL     1     -18.928  34.370  -3.800  1.00  0.00     0.019 C 
HETATM   19  C12 UNL     1     -19.009  36.614  -2.870  1.00  0.00     0.019 C 
ENDROOT
BRANCH   1  20
HETATM   20  C4  UNL     1     -16.576  34.131  -2.440  1.00  0.00     0.143 C 
BRANCH  20  21
HETATM   21  C3  UNL     1     -16.446  34.199  -0.946  1.00  0.00     0.261 C 
HETATM   22  O2  UNL     1     -15.889  33.263  -0.292  1.00  0.00    -0.265 OA
BRANCH  21  23
HETATM   23  O1  UNL     1     -16.922  35.271  -0.217  1.00  0.00    -0.322 OA
BRANCH  23  24
HETATM   24  C2  UNL     1     -17.941  35.124   0.755  1.00  0.00     0.174 C 
HETATM   25  C1  UNL     1     -18.647  36.474   0.842  1.00  0.00     0.034 C 
ENDBRANCH  23  24
ENDBRANCH  21  23
ENDBRANCH  20  21
ENDBRANCH   1  20
TORSDOF 4
ENDMDL
MODEL 2
REMARK VINA RESULT: -6.376958758      0.960      1.165
REMARK  4 active torsions:
REMARK  status: ('A' for Active; 'I' for Inactive)
REMARK    1  A    between atoms: C2_2  and  O1_3 
REMARK    2  A    between atoms: O1_3  and  C3_4 
REMARK    3  A    between atoms: C3_4  and  C4_6 
REMARK    4  A    between atoms: C4_6  and  C5_7 
ROOT
HETATM    1  C5  UNL     1     -17.382  36.016  -3.174  1.00  0.00     0.142 C 
HETATM    2  O3  UNL     1     -16.255  36.188  -3.990  1.00  0.00    -0.358 OA
HETATM    3  C6  UNL     1     -16.721  37.028  -4.999  1.00  0.00     0.249 C 
HETATM    4  N1  UNL     1     -15.762  37.197  -6.057  1.00  0.00    -0.274 N 
ATOM      5  H1  UNL     1     -15.490  38.092  -6.462  1.00  0.00     0.176 HD
HETATM    6  S1  UNL     1     -15.131  35.638  -6.550  1.00  0.00     0.322 S 
HETATM    7  O4  UNL     1     -14.701  35.766  -7.965  1.00  0.00    -0.182 OA
HETATM    8  O5  UNL     1     -14.085  35.152  -5.628  1.00  0.00    -0.182 OA
HETATM    9  N2  UNL     1     -16.546  34.606  -6.535  1.00  0.00    -0.256 N 
ATOM     10  H2  UNL     1     -16.466  33.598  -6.667  1.00  0.00     0.181 HD
HETATM   11  C7  UNL     1     -17.818  35.231  -6.330  1.00  0.00     0.099 C 
HETATM   12  N3  UNL     1     -18.855  34.786  -6.974  1.00  0.00    -0.388 N 
ATOM     13  H31 UNL     1     -19.761  35.231  -6.828  1.00  0.00     0.157 HD
ATOM     14  H32 UNL     1     -18.728  33.999  -7.610  1.00  0.00     0.157 HD
HETATM   15  C8  UNL     1     -18.002  36.378  -5.404  1.00  0.00     0.069 C 
HETATM   16  C9  UNL     1     -18.929  37.346  -6.128  1.00  0.00     0.029 C 
HETATM   17  C10 UNL     1     -18.567  35.981  -4.062  1.00  0.00    -0.002 C 
HETATM   18  C11 UNL     1     -19.312  34.684  -4.064  1.00  0.00     0.019 C 
HETATM   19  C12 UNL     1     -19.560  37.053  -3.588  1.00  0.00     0.019 C 
ENDROOT
BRANCH   1  20
HETATM   20  C4  UNL     1     -17.214  34.780  -2.324  1.00  0.00     0.143 C 
BRANCH  20  21
HETATM   21  C3  UNL     1     -17.436  35.100  -0.874  1.00  0.00     0.261 C 
HETATM   22  O2  UNL     1     -18.561  35.519  -0.458  1.00  0.00    -0.265 OA
BRANCH  21  23
HETATM   23  O1  UNL     1     -16.438  34.957   0.069  1.00  0.00    -0.322 OA
BRANCH  23  24
HETATM   24  C2  UNL     1     -16.706  34.502   1.383  1.00  0.00     0.174 C 
HETATM   25  C1  UNL     1     -16.675  35.737   2.278  1.00  0.00     0.034 C 
ENDBRANCH  23  24
ENDBRANCH  21  23
ENDBRANCH  20  21
ENDBRANCH   1  20
TORSDOF 4
ENDMDL
MODEL 3
REMARK VINA RESULT: -6.307957142      3.218      4.232
REMARK  4 active torsions:
REMARK  status: ('A' for Active; 'I' for Inactive)
REMARK    1  A    between atoms: C2_2  and  O1_3 
REMARK    2  A    between atoms: O1_3  and  C3_4 
REMARK    3  A    between atoms: C3_4  and  C4_6 
REMARK    4  A    between atoms: C4_6  and  C5_7 
ROOT
HETATM    1  C5  UNL     1     -17.441  34.810  -2.915  1.00  0.00     0.142 C 
HETATM    2  O3  UNL     1     -18.384  35.373  -2.044  1.00  0.00    -0.358 OA
HETATM    3  C6  UNL     1     -19.420  35.744  -2.899  1.00  0.00     0.249 C 
HETATM    4  N1  UNL     1     -20.434  36.512  -2.229  1.00  0.00    -0.274 N 
ATOM      5  H1  UNL     1     -21.437  36.341  -2.296  1.00  0.00     0.176 HD
HETATM    6  S1  UNL     1     -19.694  37.785  -1.280  1.00  0.00     0.322 S 
HETATM    7  O4  UNL     1     -20.690  38.880  -1.159  1.00  0.00    -0.182 OA
HETATM    8  O5  UNL     1     -19.171  37.281   0.007  1.00  0.00    -0.182 OA
HETATM    9  N2  UNL     1     -18.413  38.371  -2.320  1.00  0.00    -0.256 N 
ATOM     10  H2  UNL     1     -17.725  39.045  -1.983  1.00  0.00     0.181 HD
HETATM   11  C7  UNL     1     -18.366  37.869  -3.660  1.00  0.00     0.099 C 
HETATM   12  N3  UNL     1     -18.018  38.665  -4.625  1.00  0.00    -0.388 N 
ATOM     13  H31 UNL     1     -17.985  38.307  -5.580  1.00  0.00     0.157 HD
ATOM     14  H32 UNL     1     -17.787  39.631  -4.396  1.00  0.00     0.157 HD
HETATM   15  C8  UNL     1     -18.704  36.461  -3.994  1.00  0.00     0.069 C 
HETATM   16  C9  UNL     1     -19.535  36.530  -5.269  1.00  0.00     0.029 C 
HETATM   17  C10 UNL     1     -17.493  35.581  -4.179  1.00  0.00    -0.002 C 
HETATM   18  C11 UNL     1     -16.236  36.320  -4.515  1.00  0.00     0.019 C 
HETATM   19  C12 UNL     1     -17.744  34.600  -5.334  1.00  0.00     0.019 C 
ENDROOT
BRANCH   1  20
HETATM   20  C4  UNL     1     -16.082  34.797  -2.258  1.00  0.00     0.143 C 
BRANCH  20  21
HETATM   21  C3  UNL     1     -16.178  34.274  -0.853  1.00  0.00     0.261 C 
HETATM   22  O2  UNL     1     -16.161  33.027  -0.613  1.00  0.00    -0.265 OA
BRANCH  21  23
HETATM   23  O1  UNL     1     -16.288  35.116   0.235  1.00  0.00    -0.322 OA
BRANCH  23  24
HETATM   24  C2  UNL     1     -17.007  34.749   1.398  1.00  0.00     0.174 C 
HETATM   25  C1  UNL     1     -16.884  35.922   2.366  1.00  0.00     0.034 C 
ENDBRANCH  23  24
ENDBRANCH  21  23
ENDBRANCH  20  21
ENDBRANCH   1  20
TORSDOF 4
ENDMDL
MODEL 4
REMARK VINA RESULT: -6.254045331      2.994      4.785
REMARK  4 active torsions:
REMARK  status: ('A' for Active; 'I' for Inactive)
REMARK    1  A    between atoms: C2_2  and  O1_3 
REMARK    2  A    between atoms: O1_3  and  C3_4 
REMARK    3  A    between atoms: C3_4  and  C4_6 
REMARK    4  A    between atoms: C4_6  and  C5_7 
ROOT
HETATM    1  C5  UNL     1     -19.543  36.977  -5.530  1.00  0.00     0.142 C 
HETATM    2  O3  UNL     1     -18.817  36.410  -6.586  1.00  0.00    -0.358 OA
HETATM    3  C6  UNL     1     -18.271  35.263  -6.013  1.00  0.00     0.249 C 
HETATM    4  N1  UNL     1     -17.331  34.610  -6.883  1.00  0.00    -0.274 N 
ATOM      5  H1  UNL     1     -17.321  33.611  -7.088  1.00  0.00     0.176 HD
HETATM    6  S1  UNL     1     -16.207  35.781  -7.541  1.00  0.00     0.322 S 
HETATM    7  O4  UNL     1     -14.952  35.054  -7.860  1.00  0.00    -0.182 OA
HETATM    8  O5  UNL     1     -16.791  36.532  -8.671  1.00  0.00    -0.182 OA
HETATM    9  N2  UNL     1     -15.863  36.821  -6.175  1.00  0.00    -0.256 N 
ATOM     10  H2  UNL     1     -15.321  37.678  -6.287  1.00  0.00     0.181 HD
HETATM   11  C7  UNL     1     -16.371  36.424  -4.897  1.00  0.00     0.099 C 
HETATM   12  N3  UNL     1     -15.653  36.635  -3.835  1.00  0.00    -0.388 N 
ATOM     13  H31 UNL     1     -16.015  36.352  -2.924  1.00  0.00     0.157 HD
ATOM     14  H32 UNL     1     -14.743  37.080  -3.946  1.00  0.00     0.157 HD
HETATM   15  C8  UNL     1     -17.697  35.775  -4.734  1.00  0.00     0.069 C 
HETATM   16  C9  UNL     1     -17.486  34.660  -3.717  1.00  0.00     0.029 C 
HETATM   17  C10 UNL     1     -18.780  36.725  -4.285  1.00  0.00    -0.002 C 
HETATM   18  C11 UNL     1     -18.278  37.955  -3.597  1.00  0.00     0.019 C 
HETATM   19  C12 UNL     1     -19.705  36.012  -3.287  1.00  0.00     0.019 C 
ENDROOT
BRANCH   1  20
HETATM   20  C4  UNL     1     -19.795  38.439  -5.811  1.00  0.00     0.143 C 
BRANCH  20  21
HETATM   21  C3  UNL     1     -21.246  38.774  -5.615  1.00  0.00     0.261 C 
HETATM   22  O2  UNL     1     -22.055  38.787  -6.593  1.00  0.00    -0.265 OA
BRANCH  21  23
HETATM   23  O1  UNL     1     -21.764  39.079  -4.373  1.00  0.00    -0.322 OA
BRANCH  23  24
HETATM   24  C2  UNL     1     -21.289  40.174  -3.610  1.00  0.00     0.174 C 
HETATM   25  C1  UNL     1     -21.246  39.698  -2.160  1.00  0.00     0.034 C 
ENDBRANCH  23  24
ENDBRANCH  21  23
ENDBRANCH  20  21
ENDBRANCH   1  20
TORSDOF 4
ENDMDL
MODEL 5
REMARK VINA RESULT: -6.187455238      1.618      2.393
REMARK  4 active torsions:
REMARK  status: ('A' for Active; 'I' for Inactive)
REMARK    1  A    between atoms: C2_2  and  O1_3 
REMARK    2  A    between atoms: O1_3  and  C3_4 
REMARK    3  A    between atoms: C3_4  and  C4_6 
REMARK    4  A    between atoms: C4_6  and  C5_7 
ROOT
HETATM    1  C5  UNL     1     -17.927  36.572  -2.520  1.00  0.00     0.142 C 
HETATM    2  O3  UNL     1     -17.074  36.348  -3.609  1.00  0.00    -0.358 OA
HETATM    3  C6  UNL     1     -17.162  37.539  -4.327  1.00  0.00     0.249 C 
HETATM    4  N1  UNL     1     -16.491  37.463  -5.597  1.00  0.00    -0.274 N 
ATOM      5  H1  UNL     1     -15.841  38.162  -5.957  1.00  0.00     0.176 HD
HETATM    6  S1  UNL     1     -16.954  35.996  -6.434  1.00  0.00     0.322 S 
HETATM    7  O4  UNL     1     -16.797  36.251  -7.889  1.00  0.00    -0.182 OA
HETATM    8  O5  UNL     1     -16.216  34.819  -5.931  1.00  0.00    -0.182 OA
HETATM    9  N2  UNL     1     -18.671  35.874  -6.117  1.00  0.00    -0.256 N 
ATOM     10  H2  UNL     1     -19.201  35.045  -6.384  1.00  0.00     0.181 HD
HETATM   11  C7  UNL     1     -19.304  36.983  -5.470  1.00  0.00     0.099 C 
HETATM   12  N3  UNL     1     -20.509  37.321  -5.821  1.00  0.00    -0.388 N 
ATOM     13  H31 UNL     1     -20.959  38.111  -5.359  1.00  0.00     0.157 HD
ATOM     14  H32 UNL     1     -20.969  36.781  -6.553  1.00  0.00     0.157 HD
HETATM   15  C8  UNL     1     -18.634  37.772  -4.403  1.00  0.00     0.069 C 
HETATM   16  C9  UNL     1     -18.967  39.229  -4.699  1.00  0.00     0.029 C 
HETATM   17  C10 UNL     1     -19.065  37.385  -3.010  1.00  0.00    -0.002 C 
HETATM   18  C11 UNL     1     -20.396  36.707  -2.940  1.00  0.00     0.019 C 
HETATM   19  C12 UNL     1     -19.170  38.646  -2.138  1.00  0.00     0.019 C 
ENDROOT
BRANCH   1  20
HETATM   20  C4  UNL     1     -18.333  35.252  -1.909  1.00  0.00     0.143 C 
BRANCH  20  21
HETATM   21  C3  UNL     1     -17.661  35.055  -0.580  1.00  0.00     0.261 C 
HETATM   22  O2  UNL     1     -18.312  35.152   0.506  1.00  0.00    -0.265 OA
BRANCH  21  23
HETATM   23  O1  UNL     1     -16.316  34.761  -0.477  1.00  0.00    -0.322 OA
BRANCH  23  24
HETATM   24  C2  UNL     1     -15.748  33.620  -1.093  1.00  0.00     0.174 C 
HETATM   25  C1  UNL     1     -14.906  34.137  -2.256  1.00  0.00     0.034 C 
ENDBRANCH  23  24
ENDBRANCH  21  23
ENDBRANCH  20  21
ENDBRANCH   1  20
TORSDOF 4
ENDMDL
