MODEL 1
REMARK VINA RESULT: -5.039250042      0.000      0.000
REMARK  8 active torsions:
REMARK  status: ('A' for Active; 'I' for Inactive)
REMARK    1  A    between atoms: C2_3  and  N2_4 
REMARK    2  A    between atoms: N2_4  and  C3_6 
REMARK    3  A    between atoms: C3_6  and  C4_7 
REMARK    4  A    between atoms: C4_7  and  S1_8 
REMARK    5  A    between atoms: S1_8  and  S2_9 
REMARK    6  A    between atoms: S2_9  and  C5_10 
REMARK    7  A    between atoms: C7_15  and  N5_16 
REMARK    8  A    between atoms: C8_21  and  N7_22 
ROOT
HETATM    1  N1  UNL     1      21.009   1.587 144.477  1.00  0.00    -0.196 NA
HETATM    2  C1  UNL     1      21.215   0.532 144.944  1.00  0.00     0.078 C 
HETATM    3  C2  UNL     1      21.461  -0.793 145.493  1.00  0.00     0.238 C 
ENDROOT
BRANCH   3   4
HETATM    4  N2  UNL     1      20.287  -1.323 146.092  1.00  0.00    -0.409 N 
ATOM      5  H2  UNL     1      19.352  -1.110 145.742  1.00  0.00     0.154 HD
BRANCH   4   6
HETATM    6  C3  UNL     1      20.512  -2.198 147.248  1.00  0.00     0.125 C 
BRANCH   6   7
HETATM    7  C4  UNL     1      20.996  -1.257 148.315  1.00  0.00     0.105 C 
BRANCH   7   8
HETATM    8  S1  UNL     1      19.832  -0.116 149.008  1.00  0.00    -0.090 SA
BRANCH   8   9
HETATM    9  S2  UNL     1      20.708   1.691 149.808  1.00  0.00    -0.051 SA
BRANCH   9  10
HETATM   10  C5  UNL     1      20.463   1.571 151.613  1.00  0.00     0.097 A 
HETATM   11  C6  UNL     1      19.574   2.405 152.258  1.00  0.00     0.153 A 
HETATM   12  N3  UNL     1      18.906   3.377 151.496  1.00  0.00    -0.081 NA
HETATM   13  N4  UNL     1      19.382   2.218 153.574  1.00  0.00    -0.178 N 
HETATM   14  C7  UNL     1      20.034   1.253 154.286  1.00  0.00     0.678 A 
ATOM     15  H4  UNL     1      18.721   2.822 154.061  1.00  0.00     0.185 HD
HETATM   16  N6  UNL     1      20.912   0.416 153.616  1.00  0.00    -0.176 N 
HETATM   17  C8  UNL     1      21.115   0.589 152.289  1.00  0.00     0.135 A 
ATOM     18  H6  UNL     1      21.401  -0.324 154.119  1.00  0.00     0.186 HD
BRANCH  14  19
HETATM   19  N5  UNL     1      20.055   1.258 155.463  1.00  0.00    -0.234 N 
ATOM     20  H52 UNL     1      20.536   2.023 155.936  1.00  0.00     0.174 HD
ATOM     21  H51 UNL     1      19.451   0.648 156.014  1.00  0.00     0.174 HD
ENDBRANCH  14  19
BRANCH  17  22
HETATM   22  N7  UNL     1      22.084  -0.079 151.663  1.00  0.00    -0.384 N 
ATOM     23  H72 UNL     1      21.939  -0.433 150.718  1.00  0.00     0.157 HD
ATOM     24  H71 UNL     1      22.914  -0.345 152.193  1.00  0.00     0.157 HD
ENDBRANCH  17  22
ENDBRANCH   9  10
ENDBRANCH   8   9
ENDBRANCH   7   8
ENDBRANCH   6   7
ENDBRANCH   4   6
ENDBRANCH   3   4
TORSDOF 8
ENDMDL
MODEL 2
REMARK VINA RESULT: -4.812641133      1.106      1.123
REMARK  8 active torsions:
REMARK  status: ('A' for Active; 'I' for Inactive)
REMARK    1  A    between atoms: C2_3  and  N2_4 
REMARK    2  A    between atoms: N2_4  and  C3_6 
REMARK    3  A    between atoms: C3_6  and  C4_7 
REMARK    4  A    between atoms: C4_7  and  S1_8 
REMARK    5  A    between atoms: S1_8  and  S2_9 
REMARK    6  A    between atoms: S2_9  and  C5_10 
REMARK    7  A    between atoms: C7_15  and  N5_16 
REMARK    8  A    between atoms: C8_21  and  N7_22 
ROOT
HETATM    1  N1  UNL     1      21.102   0.848 144.179  1.00  0.00    -0.196 NA
HETATM    2  C1  UNL     1      21.437   0.792 145.300  1.00  0.00     0.078 C 
HETATM    3  C2  UNL     1      21.887   0.711 146.682  1.00  0.00     0.238 C 
ENDROOT
BRANCH   3   4
HETATM    4  N2  UNL     1      21.678  -0.590 147.212  1.00  0.00    -0.409 N 
ATOM      5  H2  UNL     1      22.425  -1.124 147.657  1.00  0.00     0.154 HD
BRANCH   4   6
HETATM    6  C3  UNL     1      20.315  -1.112 147.075  1.00  0.00     0.125 C 
BRANCH   6   7
HETATM    7  C4  UNL     1      19.568  -0.451 148.199  1.00  0.00     0.105 C 
BRANCH   7   8
HETATM    8  S1  UNL     1      20.248  -0.564 149.830  1.00  0.00    -0.090 SA
BRANCH   8   9
HETATM    9  S2  UNL     1      21.125   1.268 150.571  1.00  0.00    -0.051 SA
BRANCH   9  10
HETATM   10  C5  UNL     1      20.821   1.239 152.371  1.00  0.00     0.097 A 
HETATM   11  C6  UNL     1      19.825   2.013 152.927  1.00  0.00     0.153 A 
HETATM   12  N3  UNL     1      19.092   2.859 152.077  1.00  0.00    -0.081 NA
HETATM   13  N4  UNL     1      19.599   1.892 154.244  1.00  0.00    -0.178 N 
HETATM   14  C7  UNL     1      20.317   1.049 155.043  1.00  0.00     0.678 A 
ATOM     15  H4  UNL     1      18.860   2.453 154.667  1.00  0.00     0.185 HD
HETATM   16  N6  UNL     1      21.303   0.269 154.461  1.00  0.00    -0.176 N 
HETATM   17  C8  UNL     1      21.543   0.376 153.133  1.00  0.00     0.135 A 
ATOM     18  H6  UNL     1      21.846  -0.381 155.030  1.00  0.00     0.186 HD
BRANCH  14  19
HETATM   19  N5  UNL     1      20.289   1.132 156.217  1.00  0.00    -0.234 N 
ATOM     20  H52 UNL     1      19.620   1.773 156.642  1.00  0.00     0.174 HD
ATOM     21  H51 UNL     1      20.759   0.452 156.815  1.00  0.00     0.174 HD
ENDBRANCH  14  19
BRANCH  17  22
HETATM   22  N7  UNL     1      22.600  -0.224 152.588  1.00  0.00    -0.384 N 
ATOM     23  H72 UNL     1      22.599  -0.473 151.599  1.00  0.00     0.157 HD
ATOM     24  H71 UNL     1      23.346  -0.551 153.202  1.00  0.00     0.157 HD
ENDBRANCH  17  22
ENDBRANCH   9  10
ENDBRANCH   8   9
ENDBRANCH   7   8
ENDBRANCH   6   7
ENDBRANCH   4   6
ENDBRANCH   3   4
TORSDOF 8
ENDMDL
MODEL 3
REMARK VINA RESULT: -4.704814234      1.747      1.907
REMARK  8 active torsions:
REMARK  status: ('A' for Active; 'I' for Inactive)
REMARK    1  A    between atoms: C2_3  and  N2_4 
REMARK    2  A    between atoms: N2_4  and  C3_6 
REMARK    3  A    between atoms: C3_6  and  C4_7 
REMARK    4  A    between atoms: C4_7  and  S1_8 
REMARK    5  A    between atoms: S1_8  and  S2_9 
REMARK    6  A    between atoms: S2_9  and  C5_10 
REMARK    7  A    between atoms: C7_15  and  N5_16 
REMARK    8  A    between atoms: C8_21  and  N7_22 
ROOT
HETATM    1  N1  UNL     1      21.013   1.541 144.511  1.00  0.00    -0.196 NA
HETATM    2  C1  UNL     1      21.218   0.530 145.068  1.00  0.00     0.078 C 
HETATM    3  C2  UNL     1      21.478  -0.740 145.728  1.00  0.00     0.238 C 
ENDROOT
BRANCH   3   4
HETATM    4  N2  UNL     1      20.293  -1.516 145.827  1.00  0.00    -0.409 N 
ATOM      5  H2  UNL     1      20.160  -2.378 145.298  1.00  0.00     0.154 HD
BRANCH   4   6
HETATM    6  C3  UNL     1      19.274  -0.992 146.743  1.00  0.00     0.125 C 
BRANCH   6   7
HETATM    7  C4  UNL     1      19.913  -1.123 148.097  1.00  0.00     0.105 C 
BRANCH   7   8
HETATM    8  S1  UNL     1      20.068   0.337 149.087  1.00  0.00    -0.090 SA
BRANCH   8   9
HETATM    9  S2  UNL     1      19.863   0.011 151.214  1.00  0.00    -0.051 SA
BRANCH   9  10
HETATM   10  C5  UNL     1      21.040   1.176 151.982  1.00  0.00     0.097 A 
HETATM   11  C6  UNL     1      20.606   2.387 152.478  1.00  0.00     0.153 A 
HETATM   12  N3  UNL     1      19.248   2.715 152.328  1.00  0.00    -0.081 NA
HETATM   13  N4  UNL     1      21.504   3.168 153.099  1.00  0.00    -0.178 N 
HETATM   14  C7  UNL     1      22.815   2.815 153.244  1.00  0.00     0.678 A 
ATOM     15  H4  UNL     1      21.194   4.063 153.478  1.00  0.00     0.185 HD
HETATM   16  N6  UNL     1      23.227   1.588 152.752  1.00  0.00    -0.176 N 
HETATM   17  C8  UNL     1      22.333   0.786 152.126  1.00  0.00     0.135 A 
ATOM     18  H6  UNL     1      24.196   1.290 152.860  1.00  0.00     0.186 HD
BRANCH  14  19
HETATM   19  N5  UNL     1      23.638   3.597 153.556  1.00  0.00    -0.234 N 
ATOM     20  H52 UNL     1      23.598   3.995 154.494  1.00  0.00     0.174 HD
ATOM     21  H51 UNL     1      24.484   3.735 153.005  1.00  0.00     0.174 HD
ENDBRANCH  14  19
BRANCH  17  22
HETATM   22  N7  UNL     1      22.743  -0.310 151.487  1.00  0.00    -0.384 N 
ATOM     23  H72 UNL     1      23.245  -0.235 150.603  1.00  0.00     0.157 HD
ATOM     24  H71 UNL     1      22.427  -1.218 151.827  1.00  0.00     0.157 HD
ENDBRANCH  17  22
ENDBRANCH   9  10
ENDBRANCH   8   9
ENDBRANCH   7   8
ENDBRANCH   6   7
ENDBRANCH   4   6
ENDBRANCH   3   4
TORSDOF 8
ENDMDL
MODEL 4
REMARK VINA RESULT: -4.687738785      1.690      2.184
REMARK  8 active torsions:
REMARK  status: ('A' for Active; 'I' for Inactive)
REMARK    1  A    between atoms: C2_3  and  N2_4 
REMARK    2  A    between atoms: N2_4  and  C3_6 
REMARK    3  A    between atoms: C3_6  and  C4_7 
REMARK    4  A    between atoms: C4_7  and  S1_8 
REMARK    5  A    between atoms: S1_8  and  S2_9 
REMARK    6  A    between atoms: S2_9  and  C5_10 
REMARK    7  A    between atoms: C7_15  and  N5_16 
REMARK    8  A    between atoms: C8_21  and  N7_22 
ROOT
HETATM    1  N1  UNL     1      17.655   0.081 146.396  1.00  0.00    -0.196 NA
HETATM    2  C1  UNL     1      18.488  -0.632 146.810  1.00  0.00     0.078 C 
HETATM    3  C2  UNL     1      19.526  -1.495 147.354  1.00  0.00     0.238 C 
ENDROOT
BRANCH   3   4
HETATM    4  N2  UNL     1      20.815  -1.069 146.937  1.00  0.00    -0.409 N 
ATOM      5  H2  UNL     1      21.516  -1.719 146.582  1.00  0.00     0.154 HD
BRANCH   4   6
HETATM    6  C3  UNL     1      21.068   0.371 147.053  1.00  0.00     0.125 C 
BRANCH   6   7
HETATM    7  C4  UNL     1      21.815   0.496 148.351  1.00  0.00     0.105 C 
BRANCH   7   8
HETATM    8  S1  UNL     1      20.960   1.187 149.739  1.00  0.00    -0.090 SA
BRANCH   8   9
HETATM    9  S2  UNL     1      19.982  -0.263 151.010  1.00  0.00    -0.051 SA
BRANCH   9  10
HETATM   10  C5  UNL     1      20.423   0.233 152.711  1.00  0.00     0.097 A 
HETATM   11  C6  UNL     1      19.748   1.257 153.341  1.00  0.00     0.153 A 
HETATM   12  N3  UNL     1      18.752   1.936 152.619  1.00  0.00    -0.081 NA
HETATM   13  N4  UNL     1      20.066   1.526 154.617  1.00  0.00    -0.178 N 
HETATM   14  C7  UNL     1      21.028   0.838 155.299  1.00  0.00     0.678 A 
ATOM     15  H4  UNL     1      19.569   2.275 155.097  1.00  0.00     0.185 HD
HETATM   16  N6  UNL     1      21.684  -0.197 154.652  1.00  0.00    -0.176 N 
HETATM   17  C8  UNL     1      21.373  -0.484 153.366  1.00  0.00     0.135 A 
ATOM     18  H6  UNL     1      22.396  -0.740 155.141  1.00  0.00     0.186 HD
BRANCH  14  19
HETATM   19  N5  UNL     1      21.474   1.235 156.314  1.00  0.00    -0.234 N 
ATOM     20  H52 UNL     1      22.322   1.801 156.282  1.00  0.00     0.174 HD
ATOM     21  H51 UNL     1      20.943   1.204 157.183  1.00  0.00     0.174 HD
ENDBRANCH  14  19
BRANCH  17  22
HETATM   22  N7  UNL     1      22.112  -1.347 152.670  1.00  0.00    -0.384 N 
ATOM     23  H72 UNL     1      22.694  -1.024 151.898  1.00  0.00     0.157 HD
ATOM     24  H71 UNL     1      21.981  -2.345 152.836  1.00  0.00     0.157 HD
ENDBRANCH  17  22
ENDBRANCH   9  10
ENDBRANCH   8   9
ENDBRANCH   7   8
ENDBRANCH   6   7
ENDBRANCH   4   6
ENDBRANCH   3   4
TORSDOF 8
ENDMDL
MODEL 5
REMARK VINA RESULT: -4.629072781      2.366      3.497
REMARK  8 active torsions:
REMARK  status: ('A' for Active; 'I' for Inactive)
REMARK    1  A    between atoms: C2_3  and  N2_4 
REMARK    2  A    between atoms: N2_4  and  C3_6 
REMARK    3  A    between atoms: C3_6  and  C4_7 
REMARK    4  A    between atoms: C4_7  and  S1_8 
REMARK    5  A    between atoms: S1_8  and  S2_9 
REMARK    6  A    between atoms: S2_9  and  C5_10 
REMARK    7  A    between atoms: C7_15  and  N5_16 
REMARK    8  A    between atoms: C8_21  and  N7_22 
ROOT
HETATM    1  N1  UNL     1      20.272  -2.732 152.803  1.00  0.00    -0.196 NA
HETATM    2  C1  UNL     1      20.426  -3.322 151.802  1.00  0.00     0.078 C 
HETATM    3  C2  UNL     1      20.649  -4.067 150.572  1.00  0.00     0.238 C 
ENDROOT
BRANCH   3   4
HETATM    4  N2  UNL     1      21.396  -3.301 149.639  1.00  0.00    -0.409 N 
ATOM      5  H2  UNL     1      22.393  -3.119 149.758  1.00  0.00     0.154 HD
BRANCH   4   6
HETATM    6  C3  UNL     1      20.636  -2.789 148.494  1.00  0.00     0.125 C 
BRANCH   6   7
HETATM    7  C4  UNL     1      21.028  -1.340 148.428  1.00  0.00     0.105 C 
BRANCH   7   8
HETATM    8  S1  UNL     1      19.850  -0.135 148.972  1.00  0.00    -0.090 SA
BRANCH   8   9
HETATM    9  S2  UNL     1      20.716   1.672 149.783  1.00  0.00    -0.051 SA
BRANCH   9  10
HETATM   10  C5  UNL     1      20.459   1.547 151.586  1.00  0.00     0.097 A 
HETATM   11  C6  UNL     1      19.570   2.383 152.228  1.00  0.00     0.153 A 
HETATM   12  N3  UNL     1      18.912   3.361 151.465  1.00  0.00    -0.081 NA
HETATM   13  N4  UNL     1      19.368   2.192 153.542  1.00  0.00    -0.178 N 
HETATM   14  C7  UNL     1      20.011   1.222 154.255  1.00  0.00     0.678 A 
ATOM     15  H4  UNL     1      18.707   2.798 154.027  1.00  0.00     0.185 HD
HETATM   16  N6  UNL     1      20.889   0.383 153.588  1.00  0.00    -0.176 N 
HETATM   17  C8  UNL     1      21.102   0.559 152.263  1.00  0.00     0.135 A 
ATOM     18  H6  UNL     1      21.372  -0.361 154.091  1.00  0.00     0.186 HD
BRANCH  14  19
HETATM   19  N5  UNL     1      20.024   1.222 155.432  1.00  0.00    -0.234 N 
ATOM     20  H52 UNL     1      19.546   1.979 155.922  1.00  0.00     0.174 HD
ATOM     21  H51 UNL     1      20.316   0.405 155.967  1.00  0.00     0.174 HD
ENDBRANCH  14  19
BRANCH  17  22
HETATM   22  N7  UNL     1      22.072  -0.112 151.641  1.00  0.00    -0.384 N 
ATOM     23  H72 UNL     1      22.480   0.251 150.780  1.00  0.00     0.157 HD
ATOM     24  H71 UNL     1      22.300  -1.051 151.965  1.00  0.00     0.157 HD
ENDBRANCH  17  22
ENDBRANCH   9  10
ENDBRANCH   8   9
ENDBRANCH   7   8
ENDBRANCH   6   7
ENDBRANCH   4   6
ENDBRANCH   3   4
TORSDOF 8
ENDMDL
