MODEL 1
REMARK VINA RESULT: -4.346941374      0.000      0.000
REMARK  1 active torsions:
REMARK  status: ('A' for Active; 'I' for Inactive)
REMARK    1  A    between atoms: C4_4  and  N1_5 
ROOT
HETATM    1  C1  UNL     1     -17.093 -37.342  14.997  1.00  0.00     0.032 C 
HETATM    2  C2  UNL     1     -17.014 -36.026  15.768  1.00  0.00     0.078 C 
HETATM    3  C3  UNL     1     -18.348 -35.817  16.413  1.00  0.00     0.047 C 
HETATM    4  C4  UNL     1     -18.505 -34.426  17.002  1.00  0.00     0.100 C 
HETATM    5  C5  UNL     1     -18.242 -33.356  15.983  1.00  0.00     0.066 C 
HETATM    6  C6  UNL     1     -17.564 -33.913  14.736  1.00  0.00     0.057 C 
HETATM    7  N2  UNL     1     -16.637 -34.929  15.004  1.00  0.00    -0.398 N 
ATOM      8  H2  UNL     1     -15.687 -34.864  14.638  1.00  0.00     0.159 HD
ENDROOT
BRANCH   4   9
HETATM    9  N1  UNL     1     -19.910 -34.332  17.398  1.00  0.00    -0.138 NA
HETATM   10 CL1  UNL     1     -20.590 -35.870  17.774  1.00  0.00    -0.004 Cl
ENDBRANCH   4   9
TORSDOF 1
ENDMDL
MODEL 2
REMARK VINA RESULT: -4.342468695      2.228      3.482
REMARK  1 active torsions:
REMARK  status: ('A' for Active; 'I' for Inactive)
REMARK    1  A    between atoms: C4_4  and  N1_5 
ROOT
HETATM    1  C1  UNL     1     -20.284 -35.643  17.854  1.00  0.00     0.032 C 
HETATM    2  C2  UNL     1     -18.796 -35.782  17.536  1.00  0.00     0.078 C 
HETATM    3  C3  UNL     1     -18.493 -34.815  16.435  1.00  0.00     0.047 C 
HETATM    4  C4  UNL     1     -17.113 -35.020  15.836  1.00  0.00     0.100 C 
HETATM    5  C5  UNL     1     -16.913 -36.432  15.364  1.00  0.00     0.066 C 
HETATM    6  C6  UNL     1     -17.988 -37.368  15.903  1.00  0.00     0.057 C 
HETATM    7  N2  UNL     1     -18.392 -37.071  17.213  1.00  0.00    -0.398 N 
ATOM      8  H2  UNL     1     -18.389 -37.799  17.926  1.00  0.00     0.159 HD
ENDROOT
BRANCH   4   9
HETATM    9  N1  UNL     1     -17.068 -34.146  14.664  1.00  0.00    -0.138 NA
HETATM   10 CL1  UNL     1     -18.239 -32.884  14.741  1.00  0.00    -0.004 Cl
ENDBRANCH   4   9
TORSDOF 1
ENDMDL
MODEL 3
REMARK VINA RESULT: -4.310575725      6.530      7.679
REMARK  1 active torsions:
REMARK  status: ('A' for Active; 'I' for Inactive)
REMARK    1  A    between atoms: C4_4  and  N1_5 
ROOT
HETATM    1  C1  UNL     1     -18.277 -30.888  15.393  1.00  0.00     0.032 C 
HETATM    2  C2  UNL     1     -18.489 -29.551  14.686  1.00  0.00     0.078 C 
HETATM    3  C3  UNL     1     -17.208 -28.787  14.801  1.00  0.00     0.047 C 
HETATM    4  C4  UNL     1     -17.346 -27.337  14.371  1.00  0.00     0.100 C 
HETATM    5  C5  UNL     1     -18.444 -26.636  15.118  1.00  0.00     0.066 C 
HETATM    6  C6  UNL     1     -19.349 -27.618  15.852  1.00  0.00     0.057 C 
HETATM    7  N2  UNL     1     -19.570 -28.814  15.155  1.00  0.00    -0.398 N 
ATOM      8  H2  UNL     1     -20.521 -29.142  14.992  1.00  0.00     0.159 HD
ENDROOT
BRANCH   4   9
HETATM    9  N1  UNL     1     -16.080 -26.704  14.737  1.00  0.00    -0.138 NA
HETATM   10 CL1  UNL     1     -14.715 -27.648  14.272  1.00  0.00    -0.004 Cl
ENDBRANCH   4   9
TORSDOF 1
ENDMDL
MODEL 4
REMARK VINA RESULT: -4.307007974      5.026      6.208
REMARK  1 active torsions:
REMARK  status: ('A' for Active; 'I' for Inactive)
REMARK    1  A    between atoms: C4_4  and  N1_5 
ROOT
HETATM    1  C1  UNL     1     -16.265 -28.376  12.830  1.00  0.00     0.032 C 
HETATM    2  C2  UNL     1     -16.773 -28.659  14.243  1.00  0.00     0.078 C 
HETATM    3  C3  UNL     1     -17.302 -30.058  14.246  1.00  0.00     0.047 C 
HETATM    4  C4  UNL     1     -18.073 -30.394  15.510  1.00  0.00     0.100 C 
HETATM    5  C5  UNL     1     -19.182 -29.413  15.763  1.00  0.00     0.066 C 
HETATM    6  C6  UNL     1     -19.043 -28.163  14.903  1.00  0.00     0.057 C 
HETATM    7  N2  UNL     1     -17.715 -27.753  14.712  1.00  0.00    -0.398 N 
ATOM      8  H2  UNL     1     -17.443 -26.792  14.916  1.00  0.00     0.159 HD
ENDROOT
BRANCH   4   9
HETATM    9  N1  UNL     1     -18.681 -31.700  15.256  1.00  0.00    -0.138 NA
HETATM   10 CL1  UNL     1     -17.591 -32.792  14.488  1.00  0.00    -0.004 Cl
ENDBRANCH   4   9
TORSDOF 1
ENDMDL
MODEL 5
REMARK VINA RESULT: -4.275523620      7.122      7.989
REMARK  1 active torsions:
REMARK  status: ('A' for Active; 'I' for Inactive)
REMARK    1  A    between atoms: C4_4  and  N1_5 
ROOT
HETATM    1  C1  UNL     1     -19.330 -27.514  15.558  1.00  0.00     0.032 C 
HETATM    2  C2  UNL     1     -18.370 -27.217  14.408  1.00  0.00     0.078 C 
HETATM    3  C3  UNL     1     -18.112 -28.513  13.708  1.00  0.00     0.047 C 
HETATM    4  C4  UNL     1     -16.978 -28.424  12.703  1.00  0.00     0.100 C 
HETATM    5  C5  UNL     1     -15.716 -27.906  13.331  1.00  0.00     0.066 C 
HETATM    6  C6  UNL     1     -15.974 -27.290  14.701  1.00  0.00     0.057 C 
HETATM    7  N2  UNL     1     -17.188 -26.594  14.788  1.00  0.00    -0.398 N 
ATOM      8  H2  UNL     1     -17.203 -25.633  15.129  1.00  0.00     0.159 HD
ENDROOT
BRANCH   4   9
HETATM    9  N1  UNL     1     -16.733 -29.801  12.275  1.00  0.00    -0.138 NA
HETATM   10 CL1  UNL     1     -16.668 -30.898  13.602  1.00  0.00    -0.004 Cl
ENDBRANCH   4   9
TORSDOF 1
ENDMDL
