MODEL 1
REMARK VINA RESULT: -7.427736689      0.000      0.000
REMARK  10 active torsions:
REMARK  status: ('A' for Active; 'I' for Inactive)
REMARK    1  A    between atoms: C2_2  and  C3_3 
REMARK    2  A    between atoms: C4_4  and  O1_5 
REMARK    3  A    between atoms: C5_7  and  C6_8 
REMARK    4  A    between atoms: C6_8  and  N1_9 
REMARK    5  A    between atoms: C10_20  and  C11_21 
REMARK    6  A    between atoms: C12_22  and  C13_23 
REMARK    7  A    between atoms: C13_23  and  C14_24 
REMARK    8  A    between atoms: C14_24  and  N5_25 
REMARK       I    between atoms: N7_33  and  C20_35 
REMARK    9  A    between atoms: C20_35  and  C21_37 
REMARK   10  A    between atoms: C21_37  and  C22_38 
ROOT
HETATM    1  C6  UNL     1       7.792  37.067  25.942  1.00  0.00     0.105 C 
ENDROOT
BRANCH   1   2
HETATM    2  C5  UNL     1       6.303  36.974  26.111  1.00  0.00     0.029 A 
HETATM    3  C4  UNL     1       5.484  37.137  25.026  1.00  0.00     0.088 A 
HETATM    4  C3  UNL     1       4.132  37.059  25.238  1.00  0.00     0.020 A 
HETATM    5  C19 UNL     1       3.594  36.825  26.495  1.00  0.00     0.116 A 
HETATM    6  N6  UNL     1       4.428  36.669  27.535  1.00  0.00    -0.351 N 
HETATM    7  N7  UNL     1       2.318  36.758  26.645  1.00  0.00    -0.313 N 
HETATM    8  C18 UNL     1       5.786  36.744  27.345  1.00  0.00     0.105 A 
ATOM      9  H6  UNL     1       4.053  36.495  28.467  1.00  0.00     0.166 HD
HETATM   10  C20 UNL     1       1.668  36.520  27.902  1.00  0.00     0.223 C 
ATOM     11  H7  UNL     1       1.733  36.881  25.819  1.00  0.00     0.170 HD
HETATM   12  O2  UNL     1       1.831  35.410  28.452  1.00  0.00    -0.273 OA
BRANCH   3  13
HETATM   13  O1  UNL     1       5.994  37.374  23.754  1.00  0.00    -0.359 OA
ATOM     14  H1  UNL     1       6.885  37.682  23.636  1.00  0.00     0.217 HD
ENDBRANCH   3  13
BRANCH   4  15
HETATM   15  C2  UNL     1       3.175  37.214  24.111  1.00  0.00     0.041 C 
HETATM   16  C1  UNL     1       3.019  35.955  23.292  1.00  0.00     0.010 C 
ENDBRANCH   4  15
BRANCH  10  17
HETATM   17  C21 UNL     1       0.845  37.573  28.492  1.00  0.00     0.111 C 
BRANCH  17  18
HETATM   18  C22 UNL     1       1.549  38.635  29.251  1.00  0.00    -0.043 C 
HETATM   19  C23 UNL     1       0.480  39.355  30.090  1.00  0.00     0.015 C 
HETATM   20  C24 UNL     1       2.549  38.083  30.249  1.00  0.00     0.015 C 
HETATM   21  C25 UNL     1       2.214  39.703  28.445  1.00  0.00     0.015 C 
ENDBRANCH  17  18
ENDBRANCH  10  17
ENDBRANCH   1   2
BRANCH   1  22
HETATM   22  N1  UNL     1       8.444  35.875  25.995  1.00  0.00    -0.349 N 
HETATM   23  C7  UNL     1       9.034  34.977  26.557  1.00  0.00     0.135 A 
HETATM   24  N2  UNL     1       9.512  33.848  25.886  1.00  0.00    -0.283 N 
HETATM   25  C17 UNL     1       9.372  34.819  27.900  1.00  0.00     0.075 A 
HETATM   26  N3  UNL     1      10.090  33.077  26.750  1.00  0.00    -0.283 N 
ATOM     27  H2  UNL     1       9.422  33.663  24.888  1.00  0.00     0.188 HD
HETATM   28  C8  UNL     1      10.036  33.609  27.978  1.00  0.00     0.135 A 
ATOM     29  H3  UNL     1      10.528  32.183  26.526  1.00  0.00     0.188 HD
HETATM   30  N4  UNL     1      10.374  33.437  29.283  1.00  0.00    -0.349 N 
HETATM   31  C9  UNL     1       9.949  34.478  30.002  1.00  0.00     0.111 A 
ATOM     32  H4  UNL     1      10.877  32.633  29.657  1.00  0.00     0.167 HD
HETATM   33  C10 UNL     1       9.300  35.389  29.154  1.00  0.00     0.051 A 
ATOM     34  H1  UNL     1       8.427  35.563  25.024  1.00  0.00     0.166 HD
BRANCH  33  35
HETATM   35  C11 UNL     1       8.708  36.628  29.547  1.00  0.00    -0.064 C 
HETATM   36  C12 UNL     1       8.231  37.682  29.872  1.00  0.00    -0.099 C 
BRANCH  36  37
HETATM   37  C13 UNL     1       7.616  38.959  30.293  1.00  0.00     0.113 C 
BRANCH  37  38
HETATM   38  C14 UNL     1       8.651  39.922  30.819  1.00  0.00     0.128 C 
BRANCH  38  39
HETATM   39  N5  UNL     1       8.139  41.033  31.528  1.00  0.00    -0.420 N 
HETATM   40  C15 UNL     1       6.801  40.965  31.984  1.00  0.00     0.142 C 
HETATM   41  C16 UNL     1       8.634  42.320  31.208  1.00  0.00     0.142 C 
ENDBRANCH  38  39
ENDBRANCH  37  38
ENDBRANCH  36  37
ENDBRANCH  33  35
ENDBRANCH   1  22
TORSDOF 10
ENDMDL
MODEL 2
REMARK VINA RESULT: -7.419545456      0.809      1.348
REMARK  10 active torsions:
REMARK  status: ('A' for Active; 'I' for Inactive)
REMARK    1  A    between atoms: C2_2  and  C3_3 
REMARK    2  A    between atoms: C4_4  and  O1_5 
REMARK    3  A    between atoms: C5_7  and  C6_8 
REMARK    4  A    between atoms: C6_8  and  N1_9 
REMARK    5  A    between atoms: C10_20  and  C11_21 
REMARK    6  A    between atoms: C12_22  and  C13_23 
REMARK    7  A    between atoms: C13_23  and  C14_24 
REMARK    8  A    between atoms: C14_24  and  N5_25 
REMARK       I    between atoms: N7_33  and  C20_35 
REMARK    9  A    between atoms: C20_35  and  C21_37 
REMARK   10  A    between atoms: C21_37  and  C22_38 
ROOT
HETATM    1  C6  UNL     1       7.728  37.065  25.971  1.00  0.00     0.105 C 
ENDROOT
BRANCH   1   2
HETATM    2  C5  UNL     1       6.241  36.948  26.141  1.00  0.00     0.029 A 
HETATM    3  C4  UNL     1       5.421  37.053  25.050  1.00  0.00     0.088 A 
HETATM    4  C3  UNL     1       4.071  36.955  25.262  1.00  0.00     0.020 A 
HETATM    5  C19 UNL     1       3.534  36.759  26.527  1.00  0.00     0.116 A 
HETATM    6  N6  UNL     1       4.370  36.660  27.573  1.00  0.00    -0.351 N 
HETATM    7  N7  UNL     1       2.260  36.671  26.677  1.00  0.00    -0.313 N 
HETATM    8  C18 UNL     1       5.726  36.755  27.382  1.00  0.00     0.105 A 
ATOM      9  H6  UNL     1       3.996  36.515  28.511  1.00  0.00     0.166 HD
HETATM   10  C20 UNL     1       1.612  36.469  27.941  1.00  0.00     0.223 C 
ATOM     11  H7  UNL     1       1.674  36.751  25.846  1.00  0.00     0.170 HD
HETATM   12  O2  UNL     1       1.796  35.384  28.534  1.00  0.00    -0.273 OA
BRANCH   3  13
HETATM   13  O1  UNL     1       5.930  37.251  23.770  1.00  0.00    -0.359 OA
ATOM     14  H1  UNL     1       6.838  37.498  23.640  1.00  0.00     0.217 HD
ENDBRANCH   3  13
BRANCH   4  15
HETATM   15  C2  UNL     1       3.114  37.048  24.129  1.00  0.00     0.041 C 
HETATM   16  C1  UNL     1       3.006  35.763  23.341  1.00  0.00     0.010 C 
ENDBRANCH   4  15
BRANCH  10  17
HETATM   17  C21 UNL     1       0.767  37.527  28.489  1.00  0.00     0.111 C 
BRANCH  17  18
HETATM   18  C22 UNL     1      -0.698  37.290  28.486  1.00  0.00    -0.043 C 
HETATM   19  C23 UNL     1      -1.080  36.889  29.920  1.00  0.00     0.015 C 
HETATM   20  C24 UNL     1      -1.497  38.544  28.185  1.00  0.00     0.015 C 
HETATM   21  C25 UNL     1      -1.194  36.183  27.613  1.00  0.00     0.015 C 
ENDBRANCH  17  18
ENDBRANCH  10  17
ENDBRANCH   1   2
BRANCH   1  22
HETATM   22  N1  UNL     1       8.397  35.882  26.010  1.00  0.00    -0.349 N 
HETATM   23  C7  UNL     1       9.006  34.989  26.560  1.00  0.00     0.135 A 
HETATM   24  N2  UNL     1       9.494  33.871  25.877  1.00  0.00    -0.283 N 
HETATM   25  C17 UNL     1       9.360  34.828  27.898  1.00  0.00     0.075 A 
HETATM   26  N3  UNL     1      10.091  33.103  26.730  1.00  0.00    -0.283 N 
ATOM     27  H2  UNL     1       9.396  33.691  24.879  1.00  0.00     0.188 HD
HETATM   28  C8  UNL     1      10.042  33.627  27.963  1.00  0.00     0.135 A 
ATOM     29  H3  UNL     1      10.540  32.217  26.496  1.00  0.00     0.188 HD
HETATM   30  N4  UNL     1      10.395  33.452  29.263  1.00  0.00    -0.349 N 
HETATM   31  C9  UNL     1       9.963  34.482  29.993  1.00  0.00     0.111 A 
ATOM     32  H4  UNL     1      10.913  32.652  29.627  1.00  0.00     0.167 HD
HETATM   33  C10 UNL     1       9.293  35.388  29.157  1.00  0.00     0.051 A 
ATOM     34  H1  UNL     1       8.375  35.576  25.037  1.00  0.00     0.166 HD
BRANCH  33  35
HETATM   35  C11 UNL     1       8.687  36.616  29.564  1.00  0.00    -0.064 C 
HETATM   36  C12 UNL     1       8.197  37.661  29.899  1.00  0.00    -0.099 C 
BRANCH  36  37
HETATM   37  C13 UNL     1       7.570  38.928  30.334  1.00  0.00     0.113 C 
BRANCH  37  38
HETATM   38  C14 UNL     1       8.602  39.918  30.812  1.00  0.00     0.128 C 
BRANCH  38  39
HETATM   39  N5  UNL     1       8.092  41.023  31.532  1.00  0.00    -0.420 N 
HETATM   40  C15 UNL     1       6.752  40.954  31.985  1.00  0.00     0.142 C 
HETATM   41  C16 UNL     1       8.592  42.311  31.228  1.00  0.00     0.142 C 
ENDBRANCH  38  39
ENDBRANCH  37  38
ENDBRANCH  36  37
ENDBRANCH  33  35
ENDBRANCH   1  22
TORSDOF 10
ENDMDL
MODEL 3
REMARK VINA RESULT: -7.415306407      2.274      3.147
REMARK  10 active torsions:
REMARK  status: ('A' for Active; 'I' for Inactive)
REMARK    1  A    between atoms: C2_2  and  C3_3 
REMARK    2  A    between atoms: C4_4  and  O1_5 
REMARK    3  A    between atoms: C5_7  and  C6_8 
REMARK    4  A    between atoms: C6_8  and  N1_9 
REMARK    5  A    between atoms: C10_20  and  C11_21 
REMARK    6  A    between atoms: C12_22  and  C13_23 
REMARK    7  A    between atoms: C13_23  and  C14_24 
REMARK    8  A    between atoms: C14_24  and  N5_25 
REMARK       I    between atoms: N7_33  and  C20_35 
REMARK    9  A    between atoms: C20_35  and  C21_37 
REMARK   10  A    between atoms: C21_37  and  C22_38 
ROOT
HETATM    1  C6  UNL     1       8.426  37.213  25.818  1.00  0.00     0.105 C 
ENDROOT
BRANCH   1   2
HETATM    2  C5  UNL     1       7.131  37.316  25.066  1.00  0.00     0.029 A 
HETATM    3  C4  UNL     1       6.945  38.332  24.167  1.00  0.00     0.088 A 
HETATM    4  C3  UNL     1       5.739  38.390  23.519  1.00  0.00     0.020 A 
HETATM    5  C19 UNL     1       4.731  37.464  23.751  1.00  0.00     0.116 A 
HETATM    6  N6  UNL     1       4.950  36.482  24.639  1.00  0.00    -0.351 N 
HETATM    7  N7  UNL     1       3.615  37.558  23.118  1.00  0.00    -0.313 N 
HETATM    8  C18 UNL     1       6.151  36.406  25.299  1.00  0.00     0.105 A 
ATOM      9  H6  UNL     1       4.222  35.791  24.823  1.00  0.00     0.166 HD
HETATM   10  C20 UNL     1       2.516  36.652  23.289  1.00  0.00     0.223 C 
ATOM     11  H7  UNL     1       3.506  38.323  22.453  1.00  0.00     0.170 HD
HETATM   12  O2  UNL     1       2.666  35.464  22.929  1.00  0.00    -0.273 OA
BRANCH   3  13
HETATM   13  O1  UNL     1       7.937  39.275  23.915  1.00  0.00    -0.359 OA
ATOM     14  H1  UNL     1       8.553  39.527  24.592  1.00  0.00     0.217 HD
ENDBRANCH   3  13
BRANCH   4  15
HETATM   15  C2  UNL     1       5.462  39.455  22.521  1.00  0.00     0.041 C 
HETATM   16  C1  UNL     1       4.954  40.733  23.148  1.00  0.00     0.010 C 
ENDBRANCH   4  15
BRANCH  10  17
HETATM   17  C21 UNL     1       1.269  37.142  23.871  1.00  0.00     0.111 C 
BRANCH  17  18
HETATM   18  C22 UNL     1       1.334  37.678  25.253  1.00  0.00    -0.043 C 
HETATM   19  C23 UNL     1      -0.115  37.757  25.760  1.00  0.00     0.015 C 
HETATM   20  C24 UNL     1       2.055  36.751  26.212  1.00  0.00     0.015 C 
HETATM   21  C25 UNL     1       1.889  39.057  25.408  1.00  0.00     0.015 C 
ENDBRANCH  17  18
ENDBRANCH  10  17
ENDBRANCH   1   2
BRANCH   1  22
HETATM   22  N1  UNL     1       8.912  35.949  25.939  1.00  0.00    -0.349 N 
HETATM   23  C7  UNL     1       9.272  34.971  26.560  1.00  0.00     0.135 A 
HETATM   24  N2  UNL     1       9.740  33.809  25.941  1.00  0.00    -0.283 N 
HETATM   25  C17 UNL     1       9.318  34.741  27.934  1.00  0.00     0.075 A 
HETATM   26  N3  UNL     1      10.043  32.952  26.861  1.00  0.00    -0.283 N 
ATOM     27  H2  UNL     1       9.827  33.661  24.935  1.00  0.00     0.188 HD
HETATM   28  C8  UNL     1       9.810  33.457  28.081  1.00  0.00     0.135 A 
ATOM     29  H3  UNL     1      10.410  32.017  26.683  1.00  0.00     0.188 HD
HETATM   30  N4  UNL     1       9.861  33.213  29.416  1.00  0.00    -0.349 N 
HETATM   31  C9  UNL     1       9.426  34.280  30.089  1.00  0.00     0.111 A 
ATOM     32  H4  UNL     1      10.184  32.344  29.841  1.00  0.00     0.167 HD
HETATM   33  C10 UNL     1       9.068  35.284  29.177  1.00  0.00     0.051 A 
ATOM     34  H1  UNL     1       9.051  35.666  24.969  1.00  0.00     0.166 HD
BRANCH  33  35
HETATM   35  C11 UNL     1       8.557  36.576  29.508  1.00  0.00    -0.064 C 
HETATM   36  C12 UNL     1       8.110  37.660  29.769  1.00  0.00    -0.099 C 
BRANCH  36  37
HETATM   37  C13 UNL     1       7.593  39.004  30.108  1.00  0.00     0.113 C 
BRANCH  37  38
HETATM   38  C14 UNL     1       6.105  39.095  29.884  1.00  0.00     0.128 C 
BRANCH  38  39
HETATM   39  N5  UNL     1       5.654  38.638  28.624  1.00  0.00    -0.420 N 
HETATM   40  C15 UNL     1       5.602  39.574  27.563  1.00  0.00     0.142 C 
HETATM   41  C16 UNL     1       4.705  37.589  28.590  1.00  0.00     0.142 C 
ENDBRANCH  38  39
ENDBRANCH  37  38
ENDBRANCH  36  37
ENDBRANCH  33  35
ENDBRANCH   1  22
TORSDOF 10
ENDMDL
MODEL 4
REMARK VINA RESULT: -7.412469984      2.278      4.755
REMARK  10 active torsions:
REMARK  status: ('A' for Active; 'I' for Inactive)
REMARK    1  A    between atoms: C2_2  and  C3_3 
REMARK    2  A    between atoms: C4_4  and  O1_5 
REMARK    3  A    between atoms: C5_7  and  C6_8 
REMARK    4  A    between atoms: C6_8  and  N1_9 
REMARK    5  A    between atoms: C10_20  and  C11_21 
REMARK    6  A    between atoms: C12_22  and  C13_23 
REMARK    7  A    between atoms: C13_23  and  C14_24 
REMARK    8  A    between atoms: C14_24  and  N5_25 
REMARK       I    between atoms: N7_33  and  C20_35 
REMARK    9  A    between atoms: C20_35  and  C21_37 
REMARK   10  A    between atoms: C21_37  and  C22_38 
ROOT
HETATM    1  C6  UNL     1       8.617  37.484  29.608  1.00  0.00     0.105 C 
ENDROOT
BRANCH   1   2
HETATM    2  C5  UNL     1       7.133  37.564  29.393  1.00  0.00     0.029 A 
HETATM    3  C4  UNL     1       6.383  38.431  30.141  1.00  0.00     0.088 A 
HETATM    4  C3  UNL     1       5.031  38.454  29.917  1.00  0.00     0.020 A 
HETATM    5  C19 UNL     1       4.426  37.636  28.973  1.00  0.00     0.116 A 
HETATM    6  N6  UNL     1       5.194  36.799  28.257  1.00  0.00    -0.351 N 
HETATM    7  N7  UNL     1       3.153  37.693  28.796  1.00  0.00    -0.313 N 
HETATM    8  C18 UNL     1       6.550  36.761  28.466  1.00  0.00     0.105 A 
ATOM      9  H6  UNL     1       4.769  36.191  27.558  1.00  0.00     0.166 HD
HETATM   10  C20 UNL     1       2.437  36.890  27.847  1.00  0.00     0.223 C 
ATOM     11  H7  UNL     1       2.620  38.350  29.366  1.00  0.00     0.170 HD
HETATM   12  O2  UNL     1       2.654  37.077  26.630  1.00  0.00    -0.273 OA
BRANCH   3  13
HETATM   13  O1  UNL     1       6.962  39.262  31.096  1.00  0.00    -0.359 OA
ATOM     14  H1  UNL     1       7.899  39.414  31.104  1.00  0.00     0.217 HD
ENDBRANCH   3  13
BRANCH   4  15
HETATM   15  C2  UNL     1       4.148  39.374  30.680  1.00  0.00     0.041 C 
HETATM   16  C1  UNL     1       3.702  38.800  32.004  1.00  0.00     0.010 C 
ENDBRANCH   4  15
BRANCH  10  17
HETATM   17  C21 UNL     1       1.487  35.891  28.327  1.00  0.00     0.111 C 
BRANCH  17  18
HETATM   18  C22 UNL     1       0.135  36.371  28.707  1.00  0.00    -0.043 C 
HETATM   19  C23 UNL     1      -0.862  35.312  28.208  1.00  0.00     0.015 C 
HETATM   20  C24 UNL     1      -0.064  36.446  30.208  1.00  0.00     0.015 C 
HETATM   21  C25 UNL     1      -0.311  37.661  28.097  1.00  0.00     0.015 C 
ENDBRANCH  17  18
ENDBRANCH  10  17
ENDBRANCH   1   2
BRANCH   1  22
HETATM   22  N1  UNL     1       9.079  36.242  29.913  1.00  0.00    -0.349 N 
HETATM   23  C7  UNL     1       9.474  35.128  29.646  1.00  0.00     0.135 A 
HETATM   24  N2  UNL     1       9.847  34.200  30.623  1.00  0.00    -0.283 N 
HETATM   25  C17 UNL     1       9.659  34.507  28.412  1.00  0.00     0.075 A 
HETATM   26  N3  UNL     1      10.222  33.114  30.029  1.00  0.00    -0.283 N 
ATOM     27  H2  UNL     1       9.826  34.353  31.631  1.00  0.00     0.188 HD
HETATM   28  C8  UNL     1      10.131  33.239  28.698  1.00  0.00     0.135 A 
ATOM     29  H3  UNL     1      10.545  32.273  30.510  1.00  0.00     0.188 HD
HETATM   30  N4  UNL     1      10.318  32.617  27.504  1.00  0.00    -0.349 N 
HETATM   31  C9  UNL     1       9.986  33.440  26.508  1.00  0.00     0.111 A 
ATOM     32  H4  UNL     1      10.662  31.664  27.388  1.00  0.00     0.167 HD
HETATM   33  C10 UNL     1       9.558  34.664  27.045  1.00  0.00     0.051 A 
ATOM     34  H1  UNL     1       9.109  36.256  30.933  1.00  0.00     0.166 HD
BRANCH  33  35
HETATM   35  C11 UNL     1       9.119  35.800  26.299  1.00  0.00    -0.064 C 
HETATM   36  C12 UNL     1       8.751  36.770  25.693  1.00  0.00    -0.099 C 
BRANCH  36  37
HETATM   37  C13 UNL     1       8.284  37.940  24.918  1.00  0.00     0.113 C 
BRANCH  37  38
HETATM   38  C14 UNL     1       6.827  38.228  25.178  1.00  0.00     0.128 C 
BRANCH  38  39
HETATM   39  N5  UNL     1       5.922  37.648  24.258  1.00  0.00    -0.420 N 
HETATM   40  C15 UNL     1       5.111  38.520  23.492  1.00  0.00     0.142 C 
HETATM   41  C16 UNL     1       5.376  36.379  24.562  1.00  0.00     0.142 C 
ENDBRANCH  38  39
ENDBRANCH  37  38
ENDBRANCH  36  37
ENDBRANCH  33  35
ENDBRANCH   1  22
TORSDOF 10
ENDMDL
MODEL 5
REMARK VINA RESULT: -7.391287160      1.214      1.874
REMARK  10 active torsions:
REMARK  status: ('A' for Active; 'I' for Inactive)
REMARK    1  A    between atoms: C2_2  and  C3_3 
REMARK    2  A    between atoms: C4_4  and  O1_5 
REMARK    3  A    between atoms: C5_7  and  C6_8 
REMARK    4  A    between atoms: C6_8  and  N1_9 
REMARK    5  A    between atoms: C10_20  and  C11_21 
REMARK    6  A    between atoms: C12_22  and  C13_23 
REMARK    7  A    between atoms: C13_23  and  C14_24 
REMARK    8  A    between atoms: C14_24  and  N5_25 
REMARK       I    between atoms: N7_33  and  C20_35 
REMARK    9  A    between atoms: C20_35  and  C21_37 
REMARK   10  A    between atoms: C21_37  and  C22_38 
ROOT
HETATM    1  C6  UNL     1       7.704  37.025  25.879  1.00  0.00     0.105 C 
ENDROOT
BRANCH   1   2
HETATM    2  C5  UNL     1       6.220  36.921  26.084  1.00  0.00     0.029 A 
HETATM    3  C4  UNL     1       5.374  37.063  25.017  1.00  0.00     0.088 A 
HETATM    4  C3  UNL     1       4.029  36.976  25.260  1.00  0.00     0.020 A 
HETATM    5  C19 UNL     1       3.522  36.754  26.533  1.00  0.00     0.116 A 
HETATM    6  N6  UNL     1       4.381  36.619  27.555  1.00  0.00    -0.351 N 
HETATM    7  N7  UNL     1       2.250  36.678  26.713  1.00  0.00    -0.313 N 
HETATM    8  C18 UNL     1       5.733  36.703  27.333  1.00  0.00     0.105 A 
ATOM      9  H6  UNL     1       4.029  36.455  28.498  1.00  0.00     0.166 HD
HETATM   10  C20 UNL     1       1.632  36.452  27.988  1.00  0.00     0.223 C 
ATOM     11  H7  UNL     1       1.645  36.785  25.900  1.00  0.00     0.170 HD
HETATM   12  O2  UNL     1       1.817  35.351  28.549  1.00  0.00    -0.273 OA
BRANCH   3  13
HETATM   13  O1  UNL     1       5.853  37.287  23.730  1.00  0.00    -0.359 OA
ATOM     14  H1  UNL     1       5.548  38.027  23.219  1.00  0.00     0.217 HD
ENDBRANCH   3  13
BRANCH   4  15
HETATM   15  C2  UNL     1       3.045  37.108  24.155  1.00  0.00     0.041 C 
HETATM   16  C1  UNL     1       2.889  35.840  23.349  1.00  0.00     0.010 C 
ENDBRANCH   4  15
BRANCH  10  17
HETATM   17  C21 UNL     1       0.813  37.505  28.583  1.00  0.00     0.111 C 
BRANCH  17  18
HETATM   18  C22 UNL     1      -0.649  37.264  28.658  1.00  0.00    -0.043 C 
HETATM   19  C23 UNL     1      -0.950  36.845  30.106  1.00  0.00     0.015 C 
HETATM   20  C24 UNL     1      -1.466  38.519  28.415  1.00  0.00     0.015 C 
HETATM   21  C25 UNL     1      -1.188  36.165  27.801  1.00  0.00     0.015 C 
ENDBRANCH  17  18
ENDBRANCH  10  17
ENDBRANCH   1   2
BRANCH   1  22
HETATM   22  N1  UNL     1       8.369  35.841  25.953  1.00  0.00    -0.349 N 
HETATM   23  C7  UNL     1       8.979  34.965  26.528  1.00  0.00     0.135 A 
HETATM   24  N2  UNL     1       9.459  33.823  25.880  1.00  0.00    -0.283 N 
HETATM   25  C17 UNL     1       9.343  34.848  27.869  1.00  0.00     0.075 A 
HETATM   26  N3  UNL     1      10.060  33.082  26.754  1.00  0.00    -0.283 N 
ATOM     27  H2  UNL     1       9.352  33.610  24.889  1.00  0.00     0.188 HD
HETATM   28  C8  UNL     1      10.022  33.647  27.969  1.00  0.00     0.135 A 
ATOM     29  H3  UNL     1      10.504  32.187  26.546  1.00  0.00     0.188 HD
HETATM   30  N4  UNL     1      10.384  33.515  29.271  1.00  0.00    -0.349 N 
HETATM   31  C9  UNL     1       9.960  34.571  29.969  1.00  0.00     0.111 A 
ATOM     32  H4  UNL     1      10.903  32.726  29.658  1.00  0.00     0.167 HD
HETATM   33  C10 UNL     1       9.287  35.451  29.108  1.00  0.00     0.051 A 
ATOM     34  H1  UNL     1       8.339  35.503  24.991  1.00  0.00     0.166 HD
BRANCH  33  35
HETATM   35  C11 UNL     1       8.688  36.694  29.479  1.00  0.00    -0.064 C 
HETATM   36  C12 UNL     1       8.192  37.735  29.813  1.00  0.00    -0.099 C 
BRANCH  36  37
HETATM   37  C13 UNL     1       7.559  39.017  30.192  1.00  0.00     0.113 C 
BRANCH  37  38
HETATM   38  C14 UNL     1       6.070  38.865  30.370  1.00  0.00     0.128 C 
BRANCH  38  39
HETATM   39  N5  UNL     1       5.280  39.839  29.716  1.00  0.00    -0.420 N 
HETATM   40  C15 UNL     1       5.649  41.197  29.866  1.00  0.00     0.142 C 
HETATM   41  C16 UNL     1       3.902  39.574  29.534  1.00  0.00     0.142 C 
ENDBRANCH  38  39
ENDBRANCH  37  38
ENDBRANCH  36  37
ENDBRANCH  33  35
ENDBRANCH   1  22
TORSDOF 10
ENDMDL
