MODEL 1
REMARK VINA RESULT: -6.040625213      0.000      0.000
REMARK  4 active torsions:
REMARK  status: ('A' for Active; 'I' for Inactive)
REMARK    1  A    between atoms: C3_5  and  N2_6 
REMARK    2  A    between atoms: C4_10  and  S2_11 
REMARK    3  A    between atoms: S2_11  and  C5_12 
REMARK    4  A    between atoms: C5_12  and  C7_14 
ROOT
HETATM    1  C1  UNL     1      21.125  30.516   3.513  1.00  0.00     0.070 C 
HETATM    2  C2  UNL     1      21.219  31.375   4.759  1.00  0.00     0.031 A 
HETATM    3  N1  UNL     1      20.728  32.585   4.821  1.00  0.00    -0.339 N 
ATOM      4  H1  UNL     1      20.258  33.001   4.016  1.00  0.00     0.168 HD
HETATM    5  C3  UNL     1      20.858  33.261   5.960  1.00  0.00     0.143 A 
HETATM    6  S1  UNL     1      21.687  32.178   6.973  1.00  0.00    -0.045 SA
HETATM    7  C4  UNL     1      21.837  30.877   5.871  1.00  0.00     0.067 A 
ENDROOT
BRANCH   7   8
HETATM    8  S2  UNL     1      22.620  29.267   6.093  1.00  0.00    -0.116 SA
BRANCH   8   9
HETATM    9  C5  UNL     1      24.310  29.536   6.676  1.00  0.00     0.053 C 
HETATM   10  C6  UNL     1      24.338  29.631   8.172  1.00  0.00     0.022 C 
BRANCH   9  11
HETATM   11  C7  UNL     1      25.188  28.485   6.095  1.00  0.00    -0.001 A 
HETATM   12  C8  UNL     1      25.535  28.444   4.653  1.00  0.00     0.006 A 
HETATM   13  C9  UNL     1      26.567  28.780   5.690  1.00  0.00     0.006 A 
ENDBRANCH   9  11
ENDBRANCH   8   9
ENDBRANCH   7   8
BRANCH   5  14
HETATM   14  N2  UNL     1      20.448  34.470   6.236  1.00  0.00    -0.380 N 
ATOM     15  H22 UNL     1      19.729  35.014   5.761  1.00  0.00     0.158 HD
ATOM     16  H21 UNL     1      20.769  35.093   6.978  1.00  0.00     0.158 HD
ENDBRANCH   5  14
TORSDOF 4
ENDMDL
MODEL 2
REMARK VINA RESULT: -5.762472997      7.442      9.757
REMARK  4 active torsions:
REMARK  status: ('A' for Active; 'I' for Inactive)
REMARK    1  A    between atoms: C3_5  and  N2_6 
REMARK    2  A    between atoms: C4_10  and  S2_11 
REMARK    3  A    between atoms: S2_11  and  C5_12 
REMARK    4  A    between atoms: C5_12  and  C7_14 
ROOT
HETATM    1  C1  UNL     1      32.181  26.648   5.629  1.00  0.00     0.070 C 
HETATM    2  C2  UNL     1      31.704  26.264   7.016  1.00  0.00     0.031 A 
HETATM    3  N1  UNL     1      32.125  25.192   7.636  1.00  0.00    -0.339 N 
ATOM      4  H1  UNL     1      32.802  24.567   7.198  1.00  0.00     0.168 HD
HETATM    5  C3  UNL     1      31.649  24.939   8.852  1.00  0.00     0.143 A 
HETATM    6  S1  UNL     1      30.583  26.230   9.140  1.00  0.00    -0.045 SA
HETATM    7  C4  UNL     1      30.796  27.059   7.657  1.00  0.00     0.067 A 
ENDROOT
BRANCH   7   8
HETATM    8  S2  UNL     1      30.021  28.577   7.067  1.00  0.00    -0.116 SA
BRANCH   8   9
HETATM    9  C5  UNL     1      28.243  28.459   7.372  1.00  0.00     0.053 C 
HETATM   10  C6  UNL     1      27.923  28.892   8.772  1.00  0.00     0.022 C 
BRANCH   9  11
HETATM   11  C7  UNL     1      27.525  29.203   6.303  1.00  0.00    -0.001 A 
HETATM   12  C8  UNL     1      27.352  28.659   4.934  1.00  0.00     0.006 A 
HETATM   13  C9  UNL     1      26.183  28.803   5.865  1.00  0.00     0.006 A 
ENDBRANCH   9  11
ENDBRANCH   8   9
ENDBRANCH   7   8
BRANCH   5  14
HETATM   14  N2  UNL     1      31.930  23.936   9.640  1.00  0.00    -0.380 N 
ATOM     15  H22 UNL     1      32.384  23.055   9.400  1.00  0.00     0.158 HD
ATOM     16  H21 UNL     1      31.751  23.847  10.641  1.00  0.00     0.158 HD
ENDBRANCH   5  14
TORSDOF 4
ENDMDL
MODEL 3
REMARK VINA RESULT: -5.614822800      1.345      1.967
REMARK  4 active torsions:
REMARK  status: ('A' for Active; 'I' for Inactive)
REMARK    1  A    between atoms: C3_5  and  N2_6 
REMARK    2  A    between atoms: C4_10  and  S2_11 
REMARK    3  A    between atoms: S2_11  and  C5_12 
REMARK    4  A    between atoms: C5_12  and  C7_14 
ROOT
HETATM    1  C1  UNL     1      21.692  32.249   7.445  1.00  0.00     0.070 C 
HETATM    2  C2  UNL     1      21.393  31.991   5.981  1.00  0.00     0.031 A 
HETATM    3  N1  UNL     1      20.883  32.902   5.193  1.00  0.00    -0.339 N 
ATOM      4  H1  UNL     1      20.663  33.834   5.544  1.00  0.00     0.168 HD
HETATM    5  C3  UNL     1      20.657  32.581   3.921  1.00  0.00     0.143 A 
HETATM    6  S1  UNL     1      21.171  30.965   3.821  1.00  0.00    -0.045 SA
HETATM    7  C4  UNL     1      21.663  30.762   5.447  1.00  0.00     0.067 A 
ENDROOT
BRANCH   7   8
HETATM    8  S2  UNL     1      22.346  29.309   6.270  1.00  0.00    -0.116 SA
BRANCH   8   9
HETATM    9  C5  UNL     1      24.109  29.591   6.547  1.00  0.00     0.053 C 
HETATM   10  C6  UNL     1      24.380  29.814   8.005  1.00  0.00     0.022 C 
BRANCH   9  11
HETATM   11  C7  UNL     1      24.875  28.477   5.927  1.00  0.00    -0.001 A 
HETATM   12  C8  UNL     1      25.130  28.401   4.468  1.00  0.00     0.006 A 
HETATM   13  C9  UNL     1      26.244  28.672   5.437  1.00  0.00     0.006 A 
ENDBRANCH   9  11
ENDBRANCH   8   9
ENDBRANCH   7   8
BRANCH   5  14
HETATM   14  N2  UNL     1      20.159  33.328   2.973  1.00  0.00    -0.380 N 
ATOM     15  H22 UNL     1      19.190  33.385   2.661  1.00  0.00     0.158 HD
ATOM     16  H21 UNL     1      20.644  33.993   2.370  1.00  0.00     0.158 HD
ENDBRANCH   5  14
TORSDOF 4
ENDMDL
MODEL 4
REMARK VINA RESULT: -5.292774230      1.470      2.357
REMARK  4 active torsions:
REMARK  status: ('A' for Active; 'I' for Inactive)
REMARK    1  A    between atoms: C3_5  and  N2_6 
REMARK    2  A    between atoms: C4_10  and  S2_11 
REMARK    3  A    between atoms: S2_11  and  C5_12 
REMARK    4  A    between atoms: C5_12  and  C7_14 
ROOT
HETATM    1  C1  UNL     1      21.002  30.402   2.902  1.00  0.00     0.070 C 
HETATM    2  C2  UNL     1      21.407  30.575   4.353  1.00  0.00     0.031 A 
HETATM    3  N1  UNL     1      21.273  31.707   4.993  1.00  0.00    -0.339 N 
ATOM      4  H1  UNL     1      20.885  32.528   4.528  1.00  0.00     0.168 HD
HETATM    5  C3  UNL     1      21.655  31.761   6.266  1.00  0.00     0.143 A 
HETATM    6  S1  UNL     1      22.218  30.189   6.580  1.00  0.00    -0.045 SA
HETATM    7  C4  UNL     1      21.934  29.514   5.033  1.00  0.00     0.067 A 
ENDROOT
BRANCH   7   8
HETATM    8  S2  UNL     1      22.257  27.844   4.431  1.00  0.00    -0.116 SA
BRANCH   8   9
HETATM    9  C5  UNL     1      24.014  27.720   4.025  1.00  0.00     0.053 C 
HETATM   10  C6  UNL     1      24.218  27.835   2.543  1.00  0.00     0.022 C 
BRANCH   9  11
HETATM   11  C7  UNL     1      24.765  28.710   4.843  1.00  0.00    -0.001 A 
HETATM   12  C8  UNL     1      25.337  28.376   6.169  1.00  0.00     0.006 A 
HETATM   13  C9  UNL     1      26.223  28.634   4.985  1.00  0.00     0.006 A 
ENDBRANCH   9  11
ENDBRANCH   8   9
ENDBRANCH   7   8
BRANCH   5  14
HETATM   14  N2  UNL     1      21.611  32.779   7.084  1.00  0.00    -0.380 N 
ATOM     15  H22 UNL     1      22.011  32.852   8.019  1.00  0.00     0.158 HD
ATOM     16  H21 UNL     1      21.170  33.688   6.940  1.00  0.00     0.158 HD
ENDBRANCH   5  14
TORSDOF 4
ENDMDL
MODEL 5
REMARK VINA RESULT: -5.265319172      4.598      6.044
REMARK  4 active torsions:
REMARK  status: ('A' for Active; 'I' for Inactive)
REMARK    1  A    between atoms: C3_5  and  N2_6 
REMARK    2  A    between atoms: C4_10  and  S2_11 
REMARK    3  A    between atoms: S2_11  and  C5_12 
REMARK    4  A    between atoms: C5_12  and  C7_14 
ROOT
HETATM    1  C1  UNL     1      25.441  28.405   4.763  1.00  0.00     0.070 C 
HETATM    2  C2  UNL     1      25.904  28.822   6.146  1.00  0.00     0.031 A 
HETATM    3  N1  UNL     1      25.077  29.001   7.143  1.00  0.00    -0.339 N 
ATOM      4  H1  UNL     1      24.074  28.865   7.021  1.00  0.00     0.168 HD
HETATM    5  C3  UNL     1      25.579  29.365   8.320  1.00  0.00     0.143 A 
HETATM    6  S1  UNL     1      27.250  29.460   8.029  1.00  0.00    -0.045 SA
HETATM    7  C4  UNL     1      27.236  29.021   6.375  1.00  0.00     0.067 A 
ENDROOT
BRANCH   7   8
HETATM    8  S2  UNL     1      28.609  28.872   5.214  1.00  0.00    -0.116 SA
BRANCH   8   9
HETATM    9  C5  UNL     1      30.152  29.038   6.139  1.00  0.00     0.053 C 
HETATM   10  C6  UNL     1      30.257  27.962   7.178  1.00  0.00     0.022 C 
BRANCH   9  11
HETATM   11  C7  UNL     1      31.284  29.094   5.175  1.00  0.00    -0.001 A 
HETATM   12  C8  UNL     1      31.860  27.879   4.550  1.00  0.00     0.006 A 
HETATM   13  C9  UNL     1      31.076  28.870   3.740  1.00  0.00     0.006 A 
ENDBRANCH   9  11
ENDBRANCH   8   9
ENDBRANCH   7   8
BRANCH   5  14
HETATM   14  N2  UNL     1      24.941  29.596   9.436  1.00  0.00    -0.380 N 
ATOM     15  H22 UNL     1      24.642  28.923  10.141  1.00  0.00     0.158 HD
ATOM     16  H21 UNL     1      24.625  30.491   9.811  1.00  0.00     0.158 HD
ENDBRANCH   5  14
TORSDOF 4
ENDMDL
