MODEL 1
REMARK VINA RESULT: -7.058103292      0.000      0.000
REMARK  19 active torsions:
REMARK  status: ('A' for Active; 'I' for Inactive)
REMARK    1  A    between atoms: N1_1  and  C1_5 
REMARK    2  A    between atoms: C2_6  and  O1_7 
REMARK    3  A    between atoms: O1_7  and  C3_8 
REMARK    4  A    between atoms: C4_10  and  S1_11 
REMARK    5  A    between atoms: S1_11  and  C5_12 
REMARK    6  A    between atoms: C5_12  and  C6_13 
REMARK    7  A    between atoms: C6_13  and  C7_14 
REMARK    8  A    between atoms: C7_14  and  O3_15 
REMARK    9  A    between atoms: C8_17  and  O4_18 
REMARK   10  A    between atoms: C9_20  and  O5_21 
REMARK   11  A    between atoms: C10_23  and  O6_24 
REMARK   12  A    between atoms: C11_27  and  O8_28 
REMARK   13  A    between atoms: C11_27  and  S2_30 
REMARK   14  A    between atoms: S2_30  and  S3_31 
REMARK   15  A    between atoms: S3_31  and  C12_32 
REMARK   16  A    between atoms: C13_34  and  O10_35 
REMARK   17  A    between atoms: C14_37  and  O11_38 
REMARK   18  A    between atoms: C15_40  and  O12_41 
REMARK   19  A    between atoms: C16_43  and  O13_44 
ROOT
HETATM    1  C1  UNL     1     -16.246  16.425   7.689  1.00  0.00     0.312 C 
HETATM    2  C2  UNL     1     -14.792  16.818   7.720  1.00  0.00     0.304 C 
HETATM    3  O7  UNL     1     -14.500  15.639   7.035  1.00  0.00    -0.311 OA
HETATM    4  C11 UNL     1     -15.826  15.284   6.795  1.00  0.00     0.261 C 
ENDROOT
BRANCH   2   5
HETATM    5  O1  UNL     1     -14.414  17.890   6.929  1.00  0.00    -0.326 OA
BRANCH   5   6
HETATM    6  C3  UNL     1     -13.656  18.828   7.598  1.00  0.00     0.295 C 
HETATM    7  O2  UNL     1     -12.753  18.154   8.413  1.00  0.00    -0.340 OA
HETATM    8  C4  UNL     1     -11.618  18.976   8.696  1.00  0.00     0.217 C 
HETATM    9  C8  UNL     1     -12.186  20.375   8.995  1.00  0.00     0.188 C 
HETATM   10  C9  UNL     1     -13.565  20.151   9.623  1.00  0.00     0.183 C 
HETATM   11  C10 UNL     1     -14.489  19.746   8.465  1.00  0.00     0.204 C 
BRANCH   8  12
HETATM   12  S1  UNL     1     -10.794  18.348  10.126  1.00  0.00    -0.135 SA
BRANCH  12  13
HETATM   13  C5  UNL     1     -10.892  16.633  10.483  1.00  0.00     0.079 C 
BRANCH  13  14
HETATM   14  C6  UNL     1     -10.002  16.066  11.539  1.00  0.00     0.036 C 
BRANCH  14  15
HETATM   15  C7  UNL     1     -10.689  15.188  12.520  1.00  0.00     0.165 C 
BRANCH  15  16
HETATM   16  O3  UNL     1     -10.671  15.723  13.808  1.00  0.00    -0.401 OA
ATOM     17  H3  UNL     1     -10.733  16.671  13.802  1.00  0.00     0.209 HD
ENDBRANCH  15  16
ENDBRANCH  14  15
ENDBRANCH  13  14
ENDBRANCH  12  13
ENDBRANCH   8  12
BRANCH   9  18
HETATM   18  O4  UNL     1     -11.425  21.046   9.912  1.00  0.00    -0.389 OA
ATOM     19  H4  UNL     1     -11.815  21.880  10.151  1.00  0.00     0.210 HD
ENDBRANCH   9  18
BRANCH  10  20
HETATM   20  O5  UNL     1     -13.452  19.092  10.499  1.00  0.00    -0.390 OA
ATOM     21  H5  UNL     1     -14.323  18.901  10.828  1.00  0.00     0.210 HD
ENDBRANCH  10  20
BRANCH  11  22
HETATM   22  O6  UNL     1     -14.824  20.930   7.809  1.00  0.00    -0.388 OA
ATOM     23  H6  UNL     1     -15.160  21.587   8.406  1.00  0.00     0.210 HD
ENDBRANCH  11  22
ENDBRANCH   5   6
ENDBRANCH   2   5
BRANCH   1  24
HETATM   24  N1  UNL     1     -17.115  17.413   7.084  1.00  0.00    -0.064 N 
ATOM     25  H13 UNL     1     -17.545  17.041   6.238  1.00  0.00     0.275 HD
ATOM     26  H12 UNL     1     -17.949  17.553   7.655  1.00  0.00     0.275 HD
ATOM     27  H11 UNL     1     -16.662  18.307   6.891  1.00  0.00     0.275 HD
ENDBRANCH   1  24
BRANCH   4  28
HETATM   28  O8  UNL     1     -16.150  14.023   7.309  1.00  0.00    -0.354 OA
ATOM     29  H8  UNL     1     -16.410  13.397   6.643  1.00  0.00     0.214 HD
ENDBRANCH   4  28
BRANCH   4  30
HETATM   30  S2  UNL     1     -16.395  15.535   5.093  1.00  0.00    -0.025 SA
BRANCH  30  31
HETATM   31  S3  UNL     1     -14.773  16.348   3.983  1.00  0.00    -0.057 SA
BRANCH  31  32
HETATM   32  C12 UNL     1     -14.102  14.990   2.948  1.00  0.00     0.228 C 
HETATM   33  O9  UNL     1     -14.994  14.596   1.974  1.00  0.00    -0.340 OA
HETATM   34  C13 UNL     1     -14.401  14.086   0.831  1.00  0.00     0.289 C 
HETATM   35  C14 UNL     1     -13.074  13.415   1.103  1.00  0.00     0.204 C 
HETATM   36  C15 UNL     1     -12.058  14.398   1.627  1.00  0.00     0.183 C 
HETATM   37  C16 UNL     1     -12.791  15.476   2.389  1.00  0.00     0.189 C 
BRANCH  34  38
HETATM   38  O10 UNL     1     -15.258  13.094   0.330  1.00  0.00    -0.368 OA
ATOM     39  H10 UNL     1     -15.935  13.537  -0.168  1.00  0.00     0.212 HD
ENDBRANCH  34  38
BRANCH  35  40
HETATM   40  O11 UNL     1     -13.188  12.373   2.005  1.00  0.00    -0.388 OA
ATOM     41  H11 UNL     1     -12.534  12.418   2.693  1.00  0.00     0.210 HD
ENDBRANCH  35  40
BRANCH  36  42
HETATM   42  O12 UNL     1     -11.126  13.758   2.435  1.00  0.00    -0.390 OA
ATOM     43  H12 UNL     1     -11.423  13.737   3.338  1.00  0.00     0.210 HD
ENDBRANCH  36  42
BRANCH  37  44
HETATM   44  O13 UNL     1     -12.030  16.010   3.418  1.00  0.00    -0.389 OA
ATOM     45  H13 UNL     1     -11.322  15.412   3.623  1.00  0.00     0.210 HD
ENDBRANCH  37  44
ENDBRANCH  31  32
ENDBRANCH  30  31
ENDBRANCH   4  30
TORSDOF 19
ENDMDL
MODEL 2
REMARK VINA RESULT: -6.724469779      2.787      4.286
REMARK  19 active torsions:
REMARK  status: ('A' for Active; 'I' for Inactive)
REMARK    1  A    between atoms: N1_1  and  C1_5 
REMARK    2  A    between atoms: C2_6  and  O1_7 
REMARK    3  A    between atoms: O1_7  and  C3_8 
REMARK    4  A    between atoms: C4_10  and  S1_11 
REMARK    5  A    between atoms: S1_11  and  C5_12 
REMARK    6  A    between atoms: C5_12  and  C6_13 
REMARK    7  A    between atoms: C6_13  and  C7_14 
REMARK    8  A    between atoms: C7_14  and  O3_15 
REMARK    9  A    between atoms: C8_17  and  O4_18 
REMARK   10  A    between atoms: C9_20  and  O5_21 
REMARK   11  A    between atoms: C10_23  and  O6_24 
REMARK   12  A    between atoms: C11_27  and  O8_28 
REMARK   13  A    between atoms: C11_27  and  S2_30 
REMARK   14  A    between atoms: S2_30  and  S3_31 
REMARK   15  A    between atoms: S3_31  and  C12_32 
REMARK   16  A    between atoms: C13_34  and  O10_35 
REMARK   17  A    between atoms: C14_37  and  O11_38 
REMARK   18  A    between atoms: C15_40  and  O12_41 
REMARK   19  A    between atoms: C16_43  and  O13_44 
ROOT
HETATM    1  C1  UNL     1     -13.177  19.827   3.877  1.00  0.00     0.312 C 
HETATM    2  C2  UNL     1     -13.510  19.695   5.340  1.00  0.00     0.304 C 
HETATM    3  O7  UNL     1     -14.538  18.822   4.988  1.00  0.00    -0.311 OA
HETATM    4  C11 UNL     1     -14.192  18.735   3.641  1.00  0.00     0.261 C 
ENDROOT
BRANCH   2   5
HETATM    5  O1  UNL     1     -12.604  19.009   6.131  1.00  0.00    -0.326 OA
BRANCH   5   6
HETATM    6  C3  UNL     1     -12.603  19.416   7.449  1.00  0.00     0.295 C 
HETATM    7  O2  UNL     1     -12.243  18.330   8.238  1.00  0.00    -0.340 OA
HETATM    8  C4  UNL     1     -11.695  18.770   9.484  1.00  0.00     0.217 C 
HETATM    9  C8  UNL     1     -12.604  19.922   9.949  1.00  0.00     0.188 C 
HETATM   10  C9  UNL     1     -14.005  19.604   9.414  1.00  0.00     0.183 C 
HETATM   11  C10 UNL     1     -13.955  19.914   7.910  1.00  0.00     0.204 C 
BRANCH   8  12
HETATM   12  S1  UNL     1     -11.769  17.444  10.647  1.00  0.00    -0.135 SA
BRANCH  12  13
HETATM   13  C5  UNL     1     -10.581  16.157  10.550  1.00  0.00     0.079 C 
BRANCH  13  14
HETATM   14  C6  UNL     1      -9.803  15.802  11.774  1.00  0.00     0.036 C 
BRANCH  14  15
HETATM   15  C7  UNL     1     -10.567  15.035  12.790  1.00  0.00     0.165 C 
BRANCH  15  16
HETATM   16  O3  UNL     1     -10.666  15.720  14.001  1.00  0.00    -0.401 OA
ATOM     17  H3  UNL     1     -11.351  16.379  13.985  1.00  0.00     0.209 HD
ENDBRANCH  15  16
ENDBRANCH  14  15
ENDBRANCH  13  14
ENDBRANCH  12  13
ENDBRANCH   8  12
BRANCH   9  18
HETATM   18  O4  UNL     1     -12.693  19.979  11.312  1.00  0.00    -0.389 OA
ATOM     19  H4  UNL     1     -11.879  20.268  11.707  1.00  0.00     0.210 HD
ENDBRANCH   9  18
BRANCH  10  20
HETATM   20  O5  UNL     1     -14.215  18.253   9.588  1.00  0.00    -0.390 OA
ATOM     21  H5  UNL     1     -14.278  18.093  10.522  1.00  0.00     0.210 HD
ENDBRANCH  10  20
BRANCH  11  22
HETATM   22  O6  UNL     1     -14.073  21.298   7.799  1.00  0.00    -0.388 OA
ATOM     23  H6  UNL     1     -14.140  21.581   6.895  1.00  0.00     0.210 HD
ENDBRANCH  11  22
ENDBRANCH   5   6
ENDBRANCH   2   5
BRANCH   1  24
HETATM   24  N1  UNL     1     -11.806  19.496   3.548  1.00  0.00    -0.064 N 
ATOM     25  H13 UNL     1     -11.260  19.349   4.397  1.00  0.00     0.275 HD
ATOM     26  H12 UNL     1     -11.752  18.561   3.144  1.00  0.00     0.275 HD
ATOM     27  H11 UNL     1     -11.346  20.174   2.940  1.00  0.00     0.275 HD
ENDBRANCH   1  24
BRANCH   4  28
HETATM   28  O8  UNL     1     -15.235  19.117   2.788  1.00  0.00    -0.354 OA
ATOM     29  H8  UNL     1     -14.961  19.705   2.094  1.00  0.00     0.214 HD
ENDBRANCH   4  28
BRANCH   4  30
HETATM   30  S2  UNL     1     -13.392  17.185   3.149  1.00  0.00    -0.025 SA
BRANCH  30  31
HETATM   31  S3  UNL     1     -14.879  15.665   3.143  1.00  0.00    -0.057 SA
BRANCH  31  32
HETATM   32  C12 UNL     1     -15.242  15.267   4.898  1.00  0.00     0.228 C 
HETATM   33  O9  UNL     1     -14.348  15.870   5.757  1.00  0.00    -0.340 OA
HETATM   34  C13 UNL     1     -14.866  16.152   7.010  1.00  0.00     0.289 C 
HETATM   35  C14 UNL     1     -15.949  15.186   7.434  1.00  0.00     0.204 C 
HETATM   36  C15 UNL     1     -17.147  15.269   6.524  1.00  0.00     0.183 C 
HETATM   37  C16 UNL     1     -16.670  15.672   5.148  1.00  0.00     0.189 C 
BRANCH  34  38
HETATM   38  O10 UNL     1     -13.817  16.010   7.931  1.00  0.00    -0.368 OA
ATOM     39  H10 UNL     1     -14.121  16.364   8.758  1.00  0.00     0.212 HD
ENDBRANCH  34  38
BRANCH  35  40
HETATM   40  O11 UNL     1     -15.503  13.877   7.460  1.00  0.00    -0.388 OA
ATOM     41  H11 UNL     1     -16.191  13.266   7.694  1.00  0.00     0.210 HD
ENDBRANCH  35  40
BRANCH  36  42
HETATM   42  O12 UNL     1     -17.819  14.053   6.484  1.00  0.00    -0.390 OA
ATOM     43  H12 UNL     1     -18.276  13.895   7.302  1.00  0.00     0.210 HD
ENDBRANCH  36  42
BRANCH  37  44
HETATM   44  O13 UNL     1     -17.471  15.162   4.138  1.00  0.00    -0.389 OA
ATOM     45  H13 UNL     1     -18.225  15.728   4.022  1.00  0.00     0.210 HD
ENDBRANCH  37  44
ENDBRANCH  31  32
ENDBRANCH  30  31
ENDBRANCH   4  30
TORSDOF 19
ENDMDL
MODEL 3
REMARK VINA RESULT: -6.671949540      1.281      2.156
REMARK  19 active torsions:
REMARK  status: ('A' for Active; 'I' for Inactive)
REMARK    1  A    between atoms: N1_1  and  C1_5 
REMARK    2  A    between atoms: C2_6  and  O1_7 
REMARK    3  A    between atoms: O1_7  and  C3_8 
REMARK    4  A    between atoms: C4_10  and  S1_11 
REMARK    5  A    between atoms: S1_11  and  C5_12 
REMARK    6  A    between atoms: C5_12  and  C6_13 
REMARK    7  A    between atoms: C6_13  and  C7_14 
REMARK    8  A    between atoms: C7_14  and  O3_15 
REMARK    9  A    between atoms: C8_17  and  O4_18 
REMARK   10  A    between atoms: C9_20  and  O5_21 
REMARK   11  A    between atoms: C10_23  and  O6_24 
REMARK   12  A    between atoms: C11_27  and  O8_28 
REMARK   13  A    between atoms: C11_27  and  S2_30 
REMARK   14  A    between atoms: S2_30  and  S3_31 
REMARK   15  A    between atoms: S3_31  and  C12_32 
REMARK   16  A    between atoms: C13_34  and  O10_35 
REMARK   17  A    between atoms: C14_37  and  O11_38 
REMARK   18  A    between atoms: C15_40  and  O12_41 
REMARK   19  A    between atoms: C16_43  and  O13_44 
ROOT
HETATM    1  C1  UNL     1     -16.183  16.380   7.612  1.00  0.00     0.312 C 
HETATM    2  C2  UNL     1     -14.731  16.776   7.540  1.00  0.00     0.304 C 
HETATM    3  O7  UNL     1     -14.503  15.647   6.754  1.00  0.00    -0.311 OA
HETATM    4  C11 UNL     1     -15.846  15.303   6.610  1.00  0.00     0.261 C 
ENDROOT
BRANCH   2   5
HETATM    5  O1  UNL     1     -14.423  17.900   6.791  1.00  0.00    -0.326 OA
BRANCH   5   6
HETATM    6  C3  UNL     1     -13.680  18.834   7.481  1.00  0.00     0.295 C 
HETATM    7  O2  UNL     1     -12.853  18.159   8.371  1.00  0.00    -0.340 OA
HETATM    8  C4  UNL     1     -11.712  18.954   8.704  1.00  0.00     0.217 C 
HETATM    9  C8  UNL     1     -12.252  20.378   8.926  1.00  0.00     0.188 C 
HETATM   10  C9  UNL     1     -13.676  20.214   9.470  1.00  0.00     0.183 C 
HETATM   11  C10 UNL     1     -14.537  19.802   8.266  1.00  0.00     0.204 C 
BRANCH   8  12
HETATM   12  S1  UNL     1     -11.001  18.345  10.200  1.00  0.00    -0.135 SA
BRANCH  12  13
HETATM   13  C5  UNL     1     -11.024  16.619  10.516  1.00  0.00     0.079 C 
BRANCH  13  14
HETATM   14  C6  UNL     1     -10.060  16.056  11.508  1.00  0.00     0.036 C 
BRANCH  14  15
HETATM   15  C7  UNL     1     -10.673  15.166  12.526  1.00  0.00     0.165 C 
BRANCH  15  16
HETATM   16  O3  UNL     1     -10.629  15.723  13.805  1.00  0.00    -0.401 OA
ATOM     17  H3  UNL     1     -10.637  15.058  14.485  1.00  0.00     0.209 HD
ENDBRANCH  15  16
ENDBRANCH  14  15
ENDBRANCH  13  14
ENDBRANCH  12  13
ENDBRANCH   8  12
BRANCH   9  18
HETATM   18  O4  UNL     1     -11.531  21.053   9.870  1.00  0.00    -0.389 OA
ATOM     19  H4  UNL     1     -10.842  21.579   9.479  1.00  0.00     0.210 HD
ENDBRANCH   9  18
BRANCH  10  20
HETATM   20  O5  UNL     1     -13.652  19.179  10.380  1.00  0.00    -0.390 OA
ATOM     21  H5  UNL     1     -14.553  18.927  10.547  1.00  0.00     0.210 HD
ENDBRANCH  10  20
BRANCH  11  22
HETATM   22  O6  UNL     1     -14.791  20.975   7.557  1.00  0.00    -0.388 OA
ATOM     23  H6  UNL     1     -14.708  21.749   8.102  1.00  0.00     0.210 HD
ENDBRANCH  11  22
ENDBRANCH   5   6
ENDBRANCH   2   5
BRANCH   1  24
HETATM   24  N1  UNL     1     -17.101  17.402   7.154  1.00  0.00    -0.064 N 
ATOM     25  H13 UNL     1     -16.595  18.255   6.914  1.00  0.00     0.275 HD
ATOM     26  H12 UNL     1     -17.476  17.160   6.237  1.00  0.00     0.275 HD
ATOM     27  H11 UNL     1     -17.858  17.608   7.806  1.00  0.00     0.275 HD
ENDBRANCH   1  24
BRANCH   4  28
HETATM   28  O8  UNL     1     -16.125  14.008   7.066  1.00  0.00    -0.354 OA
ATOM     29  H8  UNL     1     -15.409  13.398   6.935  1.00  0.00     0.214 HD
ENDBRANCH   4  28
BRANCH   4  30
HETATM   30  S2  UNL     1     -16.564  15.664   4.986  1.00  0.00    -0.025 SA
BRANCH  30  31
HETATM   31  S3  UNL     1     -15.391  14.657   3.525  1.00  0.00    -0.057 SA
BRANCH  31  32
HETATM   32  C12 UNL     1     -14.196  15.882   2.863  1.00  0.00     0.228 C 
HETATM   33  O9  UNL     1     -14.267  17.084   3.534  1.00  0.00    -0.340 OA
HETATM   34  C13 UNL     1     -13.077  17.793   3.558  1.00  0.00     0.289 C 
HETATM   35  C14 UNL     1     -12.211  17.534   2.347  1.00  0.00     0.204 C 
HETATM   36  C15 UNL     1     -11.769  16.094   2.285  1.00  0.00     0.183 C 
HETATM   37  C16 UNL     1     -12.835  15.243   2.933  1.00  0.00     0.189 C 
BRANCH  34  38
HETATM   38  O10 UNL     1     -13.410  19.156   3.531  1.00  0.00    -0.368 OA
ATOM     39  H10 UNL     1     -14.356  19.213   3.601  1.00  0.00     0.212 HD
ENDBRANCH  34  38
BRANCH  35  40
HETATM   40  O11 UNL     1     -12.853  17.852   1.165  1.00  0.00    -0.388 OA
ATOM     41  H11 UNL     1     -12.601  17.277   0.451  1.00  0.00     0.210 HD
ENDBRANCH  35  40
BRANCH  36  42
HETATM   42  O12 UNL     1     -11.548  15.705   0.969  1.00  0.00    -0.390 OA
ATOM     43  H12 UNL     1     -10.809  16.175   0.599  1.00  0.00     0.210 HD
ENDBRANCH  36  42
BRANCH  37  44
HETATM   44  O13 UNL     1     -12.903  13.970   2.387  1.00  0.00    -0.389 OA
ATOM     45  H13 UNL     1     -13.201  13.362   3.053  1.00  0.00     0.210 HD
ENDBRANCH  37  44
ENDBRANCH  31  32
ENDBRANCH  30  31
ENDBRANCH   4  30
TORSDOF 19
ENDMDL
MODEL 4
REMARK VINA RESULT: -6.662260235      1.055      1.865
REMARK  19 active torsions:
REMARK  status: ('A' for Active; 'I' for Inactive)
REMARK    1  A    between atoms: N1_1  and  C1_5 
REMARK    2  A    between atoms: C2_6  and  O1_7 
REMARK    3  A    between atoms: O1_7  and  C3_8 
REMARK    4  A    between atoms: C4_10  and  S1_11 
REMARK    5  A    between atoms: S1_11  and  C5_12 
REMARK    6  A    between atoms: C5_12  and  C6_13 
REMARK    7  A    between atoms: C6_13  and  C7_14 
REMARK    8  A    between atoms: C7_14  and  O3_15 
REMARK    9  A    between atoms: C8_17  and  O4_18 
REMARK   10  A    between atoms: C9_20  and  O5_21 
REMARK   11  A    between atoms: C10_23  and  O6_24 
REMARK   12  A    between atoms: C11_27  and  O8_28 
REMARK   13  A    between atoms: C11_27  and  S2_30 
REMARK   14  A    between atoms: S2_30  and  S3_31 
REMARK   15  A    between atoms: S3_31  and  C12_32 
REMARK   16  A    between atoms: C13_34  and  O10_35 
REMARK   17  A    between atoms: C14_37  and  O11_38 
REMARK   18  A    between atoms: C15_40  and  O12_41 
REMARK   19  A    between atoms: C16_43  and  O13_44 
ROOT
HETATM    1  C1  UNL     1     -16.061  16.425   7.542  1.00  0.00     0.312 C 
HETATM    2  C2  UNL     1     -14.585  16.718   7.468  1.00  0.00     0.304 C 
HETATM    3  O7  UNL     1     -14.455  15.637   6.595  1.00  0.00    -0.311 OA
HETATM    4  C11 UNL     1     -15.822  15.405   6.455  1.00  0.00     0.261 C 
ENDROOT
BRANCH   2   5
HETATM    5  O1  UNL     1     -14.205  17.869   6.799  1.00  0.00    -0.326 OA
BRANCH   5   6
HETATM    6  C3  UNL     1     -13.463  18.736   7.572  1.00  0.00     0.295 C 
HETATM    7  O2  UNL     1     -12.807  17.994   8.548  1.00  0.00    -0.340 OA
HETATM    8  C4  UNL     1     -11.644  18.684   9.011  1.00  0.00     0.217 C 
HETATM    9  C8  UNL     1     -12.074  20.152   9.177  1.00  0.00     0.188 C 
HETATM   10  C9  UNL     1     -13.559  20.122   9.555  1.00  0.00     0.183 C 
HETATM   11  C10 UNL     1     -14.312  19.783   8.259  1.00  0.00     0.204 C 
BRANCH   8  12
HETATM   12  S1  UNL     1     -11.166  18.022  10.576  1.00  0.00    -0.135 SA
BRANCH  12  13
HETATM   13  C5  UNL     1     -10.303  16.495  10.630  1.00  0.00     0.079 C 
BRANCH  13  14
HETATM   14  C6  UNL     1     -10.776  15.434  11.567  1.00  0.00     0.036 C 
BRANCH  14  15
HETATM   15  C7  UNL     1     -10.003  15.337  12.831  1.00  0.00     0.165 C 
BRANCH  15  16
HETATM   16  O3  UNL     1     -10.752  15.742  13.937  1.00  0.00    -0.401 OA
ATOM     17  H3  UNL     1     -10.291  16.383  14.466  1.00  0.00     0.209 HD
ENDBRANCH  15  16
ENDBRANCH  14  15
ENDBRANCH  13  14
ENDBRANCH  12  13
ENDBRANCH   8  12
BRANCH   9  18
HETATM   18  O4  UNL     1     -11.406  20.765  10.200  1.00  0.00    -0.389 OA
ATOM     19  H4  UNL     1     -12.004  21.161  10.824  1.00  0.00     0.210 HD
ENDBRANCH   9  18
BRANCH  10  20
HETATM   20  O5  UNL     1     -13.733  19.095  10.458  1.00  0.00    -0.390 OA
ATOM     21  H5  UNL     1     -14.662  19.040  10.650  1.00  0.00     0.210 HD
ENDBRANCH  10  20
BRANCH  11  22
HETATM   22  O6  UNL     1     -14.376  20.970   7.531  1.00  0.00    -0.388 OA
ATOM     23  H6  UNL     1     -14.593  21.715   8.078  1.00  0.00     0.210 HD
ENDBRANCH  11  22
ENDBRANCH   5   6
ENDBRANCH   2   5
BRANCH   1  24
HETATM   24  N1  UNL     1     -16.907  17.545   7.181  1.00  0.00    -0.064 N 
ATOM     25  H13 UNL     1     -16.387  18.218   6.619  1.00  0.00     0.275 HD
ATOM     26  H12 UNL     1     -17.609  17.256   6.500  1.00  0.00     0.275 HD
ATOM     27  H11 UNL     1     -17.349  18.008   7.975  1.00  0.00     0.275 HD
ENDBRANCH   1  24
BRANCH   4  28
HETATM   28  O8  UNL     1     -16.190  14.104   6.819  1.00  0.00    -0.354 OA
ATOM     29  H8  UNL     1     -15.456  13.561   7.079  1.00  0.00     0.214 HD
ENDBRANCH   4  28
BRANCH   4  30
HETATM   30  S2  UNL     1     -16.536  15.941   4.878  1.00  0.00    -0.025 SA
BRANCH  30  31
HETATM   31  S3  UNL     1     -15.811  14.634   3.365  1.00  0.00    -0.057 SA
BRANCH  31  32
HETATM   32  C12 UNL     1     -14.132  15.220   2.913  1.00  0.00     0.228 C 
HETATM   33  O9  UNL     1     -13.240  14.177   2.783  1.00  0.00    -0.340 OA
HETATM   34  C13 UNL     1     -12.210  14.418   1.888  1.00  0.00     0.289 C 
HETATM   35  C14 UNL     1     -11.843  15.881   1.789  1.00  0.00     0.204 C 
HETATM   36  C15 UNL     1     -12.987  16.700   1.248  1.00  0.00     0.183 C 
HETATM   37  C16 UNL     1     -14.281  16.034   1.655  1.00  0.00     0.189 C 
BRANCH  34  38
HETATM   38  O10 UNL     1     -11.077  13.751   2.377  1.00  0.00    -0.368 OA
ATOM     39  H10 UNL     1     -11.128  12.853   2.070  1.00  0.00     0.212 HD
ENDBRANCH  34  38
BRANCH  35  40
HETATM   40  O11 UNL     1     -11.459  16.409   3.008  1.00  0.00    -0.388 OA
ATOM     41  H11 UNL     1     -11.056  17.265   2.920  1.00  0.00     0.210 HD
ENDBRANCH  35  40
BRANCH  36  42
HETATM   42  O12 UNL     1     -12.924  18.005   1.721  1.00  0.00    -0.390 OA
ATOM     43  H12 UNL     1     -13.784  18.306   1.991  1.00  0.00     0.210 HD
ENDBRANCH  36  42
BRANCH  37  44
HETATM   44  O13 UNL     1     -15.315  16.942   1.821  1.00  0.00    -0.389 OA
ATOM     45  H13 UNL     1     -14.965  17.824   1.777  1.00  0.00     0.210 HD
ENDBRANCH  37  44
ENDBRANCH  31  32
ENDBRANCH  30  31
ENDBRANCH   4  30
TORSDOF 19
ENDMDL
MODEL 5
REMARK VINA RESULT: -6.638516976      5.455      8.529
REMARK  19 active torsions:
REMARK  status: ('A' for Active; 'I' for Inactive)
REMARK    1  A    between atoms: N1_1  and  C1_5 
REMARK    2  A    between atoms: C2_6  and  O1_7 
REMARK    3  A    between atoms: O1_7  and  C3_8 
REMARK    4  A    between atoms: C4_10  and  S1_11 
REMARK    5  A    between atoms: S1_11  and  C5_12 
REMARK    6  A    between atoms: C5_12  and  C6_13 
REMARK    7  A    between atoms: C6_13  and  C7_14 
REMARK    8  A    between atoms: C7_14  and  O3_15 
REMARK    9  A    between atoms: C8_17  and  O4_18 
REMARK   10  A    between atoms: C9_20  and  O5_21 
REMARK   11  A    between atoms: C10_23  and  O6_24 
REMARK   12  A    between atoms: C11_27  and  O8_28 
REMARK   13  A    between atoms: C11_27  and  S2_30 
REMARK   14  A    between atoms: S2_30  and  S3_31 
REMARK   15  A    between atoms: S3_31  and  C12_32 
REMARK   16  A    between atoms: C13_34  and  O10_35 
REMARK   17  A    between atoms: C14_37  and  O11_38 
REMARK   18  A    between atoms: C15_40  and  O12_41 
REMARK   19  A    between atoms: C16_43  and  O13_44 
ROOT
HETATM    1  C1  UNL     1     -17.875  21.214   8.507  1.00  0.00     0.312 C 
HETATM    2  C2  UNL     1     -16.689  21.152   9.435  1.00  0.00     0.304 C 
HETATM    3  O7  UNL     1     -17.548  21.460  10.490  1.00  0.00    -0.311 OA
HETATM    4  C11 UNL     1     -18.723  21.358   9.748  1.00  0.00     0.261 C 
ENDROOT
BRANCH   2   5
HETATM    5  O1  UNL     1     -16.139  19.904   9.668  1.00  0.00    -0.326 OA
BRANCH   5   6
HETATM    6  C3  UNL     1     -14.875  19.751   9.138  1.00  0.00     0.295 C 
HETATM    7  O2  UNL     1     -14.106  19.034  10.048  1.00  0.00    -0.340 OA
HETATM    8  C4  UNL     1     -13.023  18.376   9.387  1.00  0.00     0.217 C 
HETATM    9  C8  UNL     1     -12.460  19.407   8.392  1.00  0.00     0.188 C 
HETATM   10  C9  UNL     1     -12.688  20.782   9.028  1.00  0.00     0.183 C 
HETATM   11  C10 UNL     1     -14.188  21.071   8.868  1.00  0.00     0.204 C 
BRANCH   8  12
HETATM   12  S1  UNL     1     -11.789  17.959  10.578  1.00  0.00    -0.135 SA
BRANCH  12  13
HETATM   13  C5  UNL     1     -11.006  16.392  10.484  1.00  0.00     0.079 C 
BRANCH  13  14
HETATM   14  C6  UNL     1     -10.055  15.996  11.566  1.00  0.00     0.036 C 
BRANCH  14  15
HETATM   15  C7  UNL     1     -10.640  15.119  12.611  1.00  0.00     0.165 C 
BRANCH  15  16
HETATM   16  O3  UNL     1     -10.669  15.738  13.861  1.00  0.00    -0.401 OA
ATOM     17  H3  UNL     1     -11.345  16.404  13.915  1.00  0.00     0.209 HD
ENDBRANCH  15  16
ENDBRANCH  14  15
ENDBRANCH  13  14
ENDBRANCH  12  13
ENDBRANCH   8  12
BRANCH   9  18
HETATM   18  O4  UNL     1     -11.112  19.258   8.216  1.00  0.00    -0.389 OA
ATOM     19  H4  UNL     1     -10.616  19.761   8.852  1.00  0.00     0.210 HD
ENDBRANCH   9  18
BRANCH  10  20
HETATM   20  O5  UNL     1     -12.393  20.670  10.370  1.00  0.00    -0.390 OA
ATOM     21  H5  UNL     1     -11.931  21.460  10.626  1.00  0.00     0.210 HD
ENDBRANCH  10  20
BRANCH  11  22
HETATM   22  O6  UNL     1     -14.359  21.494   7.550  1.00  0.00    -0.388 OA
ATOM     23  H6  UNL     1     -14.322  22.440   7.470  1.00  0.00     0.210 HD
ENDBRANCH  11  22
ENDBRANCH   5   6
ENDBRANCH   2   5
BRANCH   1  24
HETATM   24  N1  UNL     1     -18.088  20.008   7.734  1.00  0.00    -0.064 N 
ATOM     25  H13 UNL     1     -17.531  20.029   6.880  1.00  0.00     0.275 HD
ATOM     26  H12 UNL     1     -17.661  19.207   8.199  1.00  0.00     0.275 HD
ATOM     27  H11 UNL     1     -19.066  19.817   7.518  1.00  0.00     0.275 HD
ENDBRANCH   1  24
BRANCH   4  28
HETATM   28  O8  UNL     1     -19.483  22.534   9.772  1.00  0.00    -0.354 OA
ATOM     29  H8  UNL     1     -19.690  22.833  10.650  1.00  0.00     0.214 HD
ENDBRANCH   4  28
BRANCH   4  30
HETATM   30  S2  UNL     1     -19.701  19.863  10.055  1.00  0.00    -0.025 SA
BRANCH  30  31
HETATM   31  S3  UNL     1     -20.731  20.134  11.896  1.00  0.00    -0.057 SA
BRANCH  31  32
HETATM   32  C12 UNL     1     -19.975  18.980  13.106  1.00  0.00     0.228 C 
HETATM   33  O9  UNL     1     -20.278  17.666  12.821  1.00  0.00    -0.340 OA
HETATM   34  C13 UNL     1     -19.316  16.758  13.234  1.00  0.00     0.289 C 
HETATM   35  C14 UNL     1     -18.552  17.221  14.454  1.00  0.00     0.204 C 
HETATM   36  C15 UNL     1     -17.764  18.472  14.167  1.00  0.00     0.183 C 
HETATM   37  C16 UNL     1     -18.495  19.261  13.107  1.00  0.00     0.189 C 
BRANCH  34  38
HETATM   38  O10 UNL     1     -19.990  15.583  13.603  1.00  0.00    -0.368 OA
ATOM     39  H10 UNL     1     -19.346  14.886  13.620  1.00  0.00     0.212 HD
ENDBRANCH  34  38
BRANCH  35  40
HETATM   40  O11 UNL     1     -19.382  17.457  15.534  1.00  0.00    -0.388 OA
ATOM     41  H11 UNL     1     -18.973  17.229  16.361  1.00  0.00     0.210 HD
ENDBRANCH  35  40
BRANCH  36  42
HETATM   42  O12 UNL     1     -17.598  19.224  15.325  1.00  0.00    -0.390 OA
ATOM     43  H12 UNL     1     -18.213  19.947  15.346  1.00  0.00     0.210 HD
ENDBRANCH  36  42
BRANCH  37  44
HETATM   44  O13 UNL     1     -18.293  20.627  13.226  1.00  0.00    -0.389 OA
ATOM     45  H13 UNL     1     -17.905  20.811  14.073  1.00  0.00     0.210 HD
ENDBRANCH  37  44
ENDBRANCH  31  32
ENDBRANCH  30  31
ENDBRANCH   4  30
TORSDOF 19
ENDMDL
