MODEL 1
REMARK VINA RESULT: -9.362469802      0.000      0.000
REMARK  18 active torsions:
REMARK  status: ('A' for Active; 'I' for Inactive)
REMARK    1  A    between atoms: C2_2  and  N1_3 
REMARK    2  A    between atoms: N1_3  and  C3_5 
REMARK    3  A    between atoms: C3_5  and  O1_6 
REMARK    4  A    between atoms: C3_5  and  N2_8 
REMARK    5  A    between atoms: N2_8  and  C4_10 
REMARK    6  A    between atoms: C4_10  and  C5_11 
REMARK    7  A    between atoms: C4_10  and  C24_39 
REMARK       I    between atoms: C5_11  and  N3_13 
REMARK    8  A    between atoms: N3_13  and  C6_15 
REMARK    9  A    between atoms: C6_15  and  C7_16 
REMARK   10  A    between atoms: C6_15  and  C21_36 
REMARK       I    between atoms: C7_16  and  N4_18 
REMARK   11  A    between atoms: N4_18  and  C8_19 
REMARK   12  A    between atoms: C8_19  and  C9_20 
REMARK   13  A    between atoms: C8_19  and  C17_32 
REMARK   14  A    between atoms: C9_20  and  O4_21 
REMARK   15  A    between atoms: O4_21  and  C10_22 
REMARK   16  A    between atoms: C10_22  and  C11_23 
REMARK   17  A    between atoms: C16_29  and  O5_30 
REMARK   18  A    between atoms: C17_32  and  C18_33 
ROOT
HETATM    1  C6  UNL     1      22.222  17.243  35.598  1.00  0.00     0.194 C 
ENDROOT
BRANCH   1   2
HETATM    2  N3  UNL     1      21.540  18.414  35.335  1.00  0.00    -0.345 N 
HETATM    3  C5  UNL     1      21.074  19.546  36.033  1.00  0.00     0.241 C 
HETATM    4  O2  UNL     1      21.240  19.601  37.312  1.00  0.00    -0.271 OA
ATOM      5  H3  UNL     1      21.306  18.480  34.344  1.00  0.00     0.163 HD
BRANCH   3   6
HETATM    6  C4  UNL     1      20.435  20.580  35.285  1.00  0.00     0.180 C 
BRANCH   6   7
HETATM    7  N2  UNL     1      19.029  20.514  35.020  1.00  0.00    -0.343 N 
ATOM      8  H2  UNL     1      18.715  20.056  34.164  1.00  0.00     0.164 HD
BRANCH   7   9
HETATM    9  C3  UNL     1      18.081  21.042  35.872  1.00  0.00     0.213 C 
BRANCH   9  10
HETATM   10  N1  UNL     1      17.672  21.113  37.180  1.00  0.00    -0.357 N 
ATOM     11  H1  UNL     1      17.488  22.005  37.639  1.00  0.00     0.163 HD
BRANCH  10  12
HETATM   12  C2  UNL     1      17.508  19.782  37.911  1.00  0.00     0.118 C 
HETATM   13  C1  UNL     1      16.858  20.192  39.281  1.00  0.00     0.026 C 
ENDBRANCH  10  12
ENDBRANCH   9  10
BRANCH   9  14
HETATM   14  O1  UNL     1      17.185  21.761  35.042  1.00  0.00    -0.333 OA
ATOM     15  H1  UNL     1      16.336  21.335  35.032  1.00  0.00     0.220 HD
ENDBRANCH   9  14
ENDBRANCH   7   9
ENDBRANCH   6   7
BRANCH   6  16
HETATM   16  C24 UNL     1      21.266  20.840  34.018  1.00  0.00     0.009 C 
HETATM   17  C25 UNL     1      22.501  21.616  34.418  1.00  0.00     0.012 C 
HETATM   18  C26 UNL     1      20.486  21.715  33.087  1.00  0.00     0.012 C 
ENDBRANCH   6  16
ENDBRANCH   3   6
ENDBRANCH   1   2
BRANCH   1  19
HETATM   19  C7  UNL     1      23.814  17.226  35.175  1.00  0.00     0.310 C 
HETATM   20  O3  UNL     1      24.025  17.477  34.128  1.00  0.00    -0.255 OA
HETATM   21  N4  UNL     1      24.354  16.854  36.467  1.00  0.00    -0.406 NA
BRANCH  21  22
HETATM   22  C8  UNL     1      24.910  16.534  37.554  1.00  0.00     0.191 C 
BRANCH  22  23
HETATM   23  C9  UNL     1      26.297  16.949  38.035  1.00  0.00     0.207 C 
BRANCH  23  24
HETATM   24  O4  UNL     1      26.047  17.916  38.939  1.00  0.00    -0.388 OA
BRANCH  24  25
HETATM   25  C10 UNL     1      25.638  17.776  40.156  1.00  0.00     0.174 C 
BRANCH  25  26
HETATM   26  C11 UNL     1      24.845  18.719  40.986  1.00  0.00     0.040 C 
HETATM   27  C12 UNL     1      23.884  18.207  41.985  1.00  0.00     0.034 C 
HETATM   28  C13 UNL     1      23.346  19.561  42.481  1.00  0.00     0.036 C 
HETATM   29  C14 UNL     1      24.259  20.338  43.399  1.00  0.00     0.033 C 
HETATM   30 CL1  UNL     1      21.744  19.389  43.176  1.00  0.00    -0.119 Cl
HETATM   31  C15 UNL     1      23.197  20.318  41.157  1.00  0.00     0.057 C 
HETATM   32  C16 UNL     1      23.844  19.522  40.063  1.00  0.00     0.126 C 
BRANCH  32  33
HETATM   33  O5  UNL     1      24.536  20.325  39.203  1.00  0.00    -0.395 OA
ATOM     34  H5  UNL     1      24.469  21.233  39.474  1.00  0.00     0.210 HD
ENDBRANCH  32  33
ENDBRANCH  25  26
ENDBRANCH  24  25
ENDBRANCH  23  24
ENDBRANCH  22  23
BRANCH  22  35
HETATM   35  C17 UNL     1      24.925  15.034  37.896  1.00  0.00     0.045 C 
BRANCH  35  36
HETATM   36  C18 UNL     1      26.180  14.308  37.870  1.00  0.00    -0.020 C 
HETATM   37  C19 UNL     1      26.005  13.161  38.984  1.00  0.00     0.009 C 
HETATM   38  C20 UNL     1      26.383  13.431  36.681  1.00  0.00     0.009 C 
ENDBRANCH  35  36
ENDBRANCH  22  35
ENDBRANCH  21  22
ENDBRANCH   1  19
BRANCH   1  39
HETATM   39  C21 UNL     1      21.567  16.128  34.914  1.00  0.00     0.010 C 
HETATM   40  C22 UNL     1      20.069  16.300  34.869  1.00  0.00     0.012 C 
HETATM   41  C23 UNL     1      21.920  14.724  35.235  1.00  0.00     0.012 C 
ENDBRANCH   1  39
TORSDOF 18
ENDMDL
MODEL 2
REMARK VINA RESULT: -9.261950223      2.739      4.567
REMARK  18 active torsions:
REMARK  status: ('A' for Active; 'I' for Inactive)
REMARK    1  A    between atoms: C2_2  and  N1_3 
REMARK    2  A    between atoms: N1_3  and  C3_5 
REMARK    3  A    between atoms: C3_5  and  O1_6 
REMARK    4  A    between atoms: C3_5  and  N2_8 
REMARK    5  A    between atoms: N2_8  and  C4_10 
REMARK    6  A    between atoms: C4_10  and  C5_11 
REMARK    7  A    between atoms: C4_10  and  C24_39 
REMARK       I    between atoms: C5_11  and  N3_13 
REMARK    8  A    between atoms: N3_13  and  C6_15 
REMARK    9  A    between atoms: C6_15  and  C7_16 
REMARK   10  A    between atoms: C6_15  and  C21_36 
REMARK       I    between atoms: C7_16  and  N4_18 
REMARK   11  A    between atoms: N4_18  and  C8_19 
REMARK   12  A    between atoms: C8_19  and  C9_20 
REMARK   13  A    between atoms: C8_19  and  C17_32 
REMARK   14  A    between atoms: C9_20  and  O4_21 
REMARK   15  A    between atoms: O4_21  and  C10_22 
REMARK   16  A    between atoms: C10_22  and  C11_23 
REMARK   17  A    between atoms: C16_29  and  O5_30 
REMARK   18  A    between atoms: C17_32  and  C18_33 
ROOT
HETATM    1  C6  UNL     1      21.920  17.860  35.066  1.00  0.00     0.194 C 
ENDROOT
BRANCH   1   2
HETATM    2  N3  UNL     1      21.266  19.053  34.834  1.00  0.00    -0.345 N 
HETATM    3  C5  UNL     1      20.551  20.026  35.561  1.00  0.00     0.241 C 
HETATM    4  O2  UNL     1      20.349  19.837  36.822  1.00  0.00    -0.271 OA
ATOM      5  H3  UNL     1      21.315  19.304  33.847  1.00  0.00     0.163 HD
BRANCH   3   6
HETATM    6  C4  UNL     1      20.082  21.178  34.861  1.00  0.00     0.180 C 
BRANCH   6   7
HETATM    7  N2  UNL     1      18.701  21.289  34.503  1.00  0.00    -0.343 N 
ATOM      8  H2  UNL     1      18.464  21.548  33.545  1.00  0.00     0.164 HD
BRANCH   7   9
HETATM    9  C3  UNL     1      17.674  21.062  35.397  1.00  0.00     0.213 C 
BRANCH   9  10
HETATM   10  N1  UNL     1      17.183  20.185  36.331  1.00  0.00    -0.357 N 
ATOM     11  H1  UNL     1      16.908  19.234  36.085  1.00  0.00     0.163 HD
BRANCH  10  12
HETATM   12  C2  UNL     1      17.070  20.711  37.760  1.00  0.00     0.118 C 
HETATM   13  C1  UNL     1      16.859  19.411  38.616  1.00  0.00     0.026 C 
ENDBRANCH  10  12
ENDBRANCH   9  10
BRANCH   9  14
HETATM   14  O1  UNL     1      16.793  22.162  35.249  1.00  0.00    -0.333 OA
ATOM     15  H1  UNL     1      17.283  22.946  35.033  1.00  0.00     0.220 HD
ENDBRANCH   9  14
ENDBRANCH   7   9
ENDBRANCH   6   7
BRANCH   6  16
HETATM   16  C24 UNL     1      21.026  21.435  33.675  1.00  0.00     0.009 C 
HETATM   17  C25 UNL     1      21.793  22.708  33.954  1.00  0.00     0.012 C 
HETATM   18  C26 UNL     1      20.213  21.680  32.442  1.00  0.00     0.012 C 
ENDBRANCH   6  16
ENDBRANCH   3   6
ENDBRANCH   1   2
BRANCH   1  19
HETATM   19  C7  UNL     1      22.879  17.315  33.842  1.00  0.00     0.310 C 
HETATM   20  O3  UNL     1      22.348  16.984  32.940  1.00  0.00    -0.255 OA
HETATM   21  N4  UNL     1      24.156  17.503  34.498  1.00  0.00    -0.406 NA
BRANCH  21  22
HETATM   22  C8  UNL     1      25.312  17.635  34.991  1.00  0.00     0.191 C 
BRANCH  22  23
HETATM   23  C9  UNL     1      26.383  16.558  35.122  1.00  0.00     0.207 C 
BRANCH  23  24
HETATM   24  O4  UNL     1      25.868  15.508  34.453  1.00  0.00    -0.388 OA
BRANCH  24  25
HETATM   25  C10 UNL     1      25.750  14.289  34.862  1.00  0.00     0.174 C 
BRANCH  25  26
HETATM   26  C11 UNL     1      25.507  13.789  36.240  1.00  0.00     0.040 C 
HETATM   27  C12 UNL     1      26.644  13.494  37.137  1.00  0.00     0.034 C 
HETATM   28  C13 UNL     1      25.838  12.990  38.348  1.00  0.00     0.036 C 
HETATM   29  C14 UNL     1      25.149  14.053  39.171  1.00  0.00     0.033 C 
HETATM   30 CL1  UNL     1      26.808  11.934  39.359  1.00  0.00    -0.119 Cl
HETATM   31  C15 UNL     1      24.780  12.124  37.654  1.00  0.00     0.057 C 
HETATM   32  C16 UNL     1      24.858  12.350  36.174  1.00  0.00     0.126 C 
BRANCH  32  33
HETATM   33  O5  UNL     1      23.616  12.417  35.613  1.00  0.00    -0.395 OA
ATOM     34  H5  UNL     1      22.953  12.173  36.248  1.00  0.00     0.210 HD
ENDBRANCH  32  33
ENDBRANCH  25  26
ENDBRANCH  24  25
ENDBRANCH  23  24
ENDBRANCH  22  23
BRANCH  22  35
HETATM   35  C17 UNL     1      25.389  18.287  36.383  1.00  0.00     0.045 C 
BRANCH  35  36
HETATM   36  C18 UNL     1      24.664  17.694  37.489  1.00  0.00    -0.020 C 
HETATM   37  C19 UNL     1      25.737  17.634  38.686  1.00  0.00     0.009 C 
HETATM   38  C20 UNL     1      23.658  18.583  38.141  1.00  0.00     0.009 C 
ENDBRANCH  35  36
ENDBRANCH  22  35
ENDBRANCH  21  22
ENDBRANCH   1  19
BRANCH   1  39
HETATM   39  C21 UNL     1      20.943  16.814  35.367  1.00  0.00     0.010 C 
HETATM   40  C22 UNL     1      21.590  15.454  35.462  1.00  0.00     0.012 C 
HETATM   41  C23 UNL     1      19.663  16.730  34.623  1.00  0.00     0.012 C 
ENDBRANCH   1  39
TORSDOF 18
ENDMDL
MODEL 3
REMARK VINA RESULT: -9.256394623      2.886      5.521
REMARK  18 active torsions:
REMARK  status: ('A' for Active; 'I' for Inactive)
REMARK    1  A    between atoms: C2_2  and  N1_3 
REMARK    2  A    between atoms: N1_3  and  C3_5 
REMARK    3  A    between atoms: C3_5  and  O1_6 
REMARK    4  A    between atoms: C3_5  and  N2_8 
REMARK    5  A    between atoms: N2_8  and  C4_10 
REMARK    6  A    between atoms: C4_10  and  C5_11 
REMARK    7  A    between atoms: C4_10  and  C24_39 
REMARK       I    between atoms: C5_11  and  N3_13 
REMARK    8  A    between atoms: N3_13  and  C6_15 
REMARK    9  A    between atoms: C6_15  and  C7_16 
REMARK   10  A    between atoms: C6_15  and  C21_36 
REMARK       I    between atoms: C7_16  and  N4_18 
REMARK   11  A    between atoms: N4_18  and  C8_19 
REMARK   12  A    between atoms: C8_19  and  C9_20 
REMARK   13  A    between atoms: C8_19  and  C17_32 
REMARK   14  A    between atoms: C9_20  and  O4_21 
REMARK   15  A    between atoms: O4_21  and  C10_22 
REMARK   16  A    between atoms: C10_22  and  C11_23 
REMARK   17  A    between atoms: C16_29  and  O5_30 
REMARK   18  A    between atoms: C17_32  and  C18_33 
ROOT
HETATM    1  C6  UNL     1      22.035  17.624  35.334  1.00  0.00     0.194 C 
ENDROOT
BRANCH   1   2
HETATM    2  N3  UNL     1      21.373  18.797  35.035  1.00  0.00    -0.345 N 
HETATM    3  C5  UNL     1      20.607  19.777  35.698  1.00  0.00     0.241 C 
HETATM    4  O2  UNL     1      20.347  19.621  36.953  1.00  0.00    -0.271 OA
ATOM      5  H3  UNL     1      21.465  19.021  34.044  1.00  0.00     0.163 HD
BRANCH   3   6
HETATM    6  C4  UNL     1      20.153  20.899  34.942  1.00  0.00     0.180 C 
BRANCH   6   7
HETATM    7  N2  UNL     1      18.782  20.987  34.537  1.00  0.00    -0.343 N 
ATOM      8  H2  UNL     1      18.574  21.125  33.548  1.00  0.00     0.164 HD
BRANCH   7   9
HETATM    9  C3  UNL     1      17.731  20.893  35.425  1.00  0.00     0.213 C 
BRANCH   9  10
HETATM   10  N1  UNL     1      17.174  20.125  36.418  1.00  0.00    -0.357 N 
ATOM     11  H1  UNL     1      16.966  19.136  36.280  1.00  0.00     0.163 HD
BRANCH  10  12
HETATM   12  C2  UNL     1      16.886  20.832  37.740  1.00  0.00     0.118 C 
HETATM   13  C1  UNL     1      17.044  19.693  38.810  1.00  0.00     0.026 C 
ENDBRANCH  10  12
ENDBRANCH   9  10
BRANCH   9  14
HETATM   14  O1  UNL     1      16.918  22.025  35.172  1.00  0.00    -0.333 OA
ATOM     15  H1  UNL     1      17.136  22.401  34.327  1.00  0.00     0.220 HD
ENDBRANCH   9  14
ENDBRANCH   7   9
ENDBRANCH   6   7
BRANCH   6  16
HETATM   16  C24 UNL     1      21.132  21.121  33.778  1.00  0.00     0.009 C 
HETATM   17  C25 UNL     1      22.227  22.047  34.257  1.00  0.00     0.012 C 
HETATM   18  C26 UNL     1      20.422  21.828  32.665  1.00  0.00     0.012 C 
ENDBRANCH   6  16
ENDBRANCH   3   6
ENDBRANCH   1   2
BRANCH   1  19
HETATM   19  C7  UNL     1      23.576  17.503  34.765  1.00  0.00     0.310 C 
HETATM   20  O3  UNL     1      23.686  17.599  33.677  1.00  0.00    -0.255 OA
HETATM   21  N4  UNL     1      24.237  17.299  36.038  1.00  0.00    -0.406 NA
BRANCH  21  22
HETATM   22  C8  UNL     1      24.895  17.118  37.101  1.00  0.00     0.191 C 
BRANCH  22  23
HETATM   23  C9  UNL     1      24.827  15.910  38.029  1.00  0.00     0.207 C 
BRANCH  23  24
HETATM   24  O4  UNL     1      24.649  14.870  37.190  1.00  0.00    -0.388 OA
BRANCH  24  25
HETATM   25  C10 UNL     1      25.369  13.803  37.089  1.00  0.00     0.174 C 
BRANCH  25  26
HETATM   26  C11 UNL     1      25.776  13.068  35.863  1.00  0.00     0.040 C 
HETATM   27  C12 UNL     1      26.910  12.122  35.903  1.00  0.00     0.034 C 
HETATM   28  C13 UNL     1      26.907  11.717  34.418  1.00  0.00     0.036 C 
HETATM   29  C14 UNL     1      25.812  10.767  33.994  1.00  0.00     0.033 C 
HETATM   30 CL1  UNL     1      28.483  11.132  33.917  1.00  0.00    -0.119 Cl
HETATM   31  C15 UNL     1      26.683  13.077  33.746  1.00  0.00     0.057 C 
HETATM   32  C16 UNL     1      26.340  14.090  34.797  1.00  0.00     0.126 C 
BRANCH  32  33
HETATM   33  O5  UNL     1      25.348  14.930  34.377  1.00  0.00    -0.395 OA
ATOM     34  H5  UNL     1      25.073  15.496  35.089  1.00  0.00     0.210 HD
ENDBRANCH  32  33
ENDBRANCH  25  26
ENDBRANCH  24  25
ENDBRANCH  23  24
ENDBRANCH  22  23
BRANCH  22  35
HETATM   35  C17 UNL     1      24.869  18.267  38.123  1.00  0.00     0.045 C 
BRANCH  35  36
HETATM   36  C18 UNL     1      23.744  19.181  38.142  1.00  0.00    -0.020 C 
HETATM   37  C19 UNL     1      23.707  19.743  39.649  1.00  0.00     0.009 C 
HETATM   38  C20 UNL     1      23.961  20.474  37.430  1.00  0.00     0.009 C 
ENDBRANCH  35  36
ENDBRANCH  22  35
ENDBRANCH  21  22
ENDBRANCH   1  19
BRANCH   1  39
HETATM   39  C21 UNL     1      21.278  16.485  34.814  1.00  0.00     0.010 C 
HETATM   40  C22 UNL     1      19.789  16.717  34.897  1.00  0.00     0.012 C 
HETATM   41  C23 UNL     1      21.611  15.098  35.221  1.00  0.00     0.012 C 
ENDBRANCH   1  39
TORSDOF 18
ENDMDL
MODEL 4
REMARK VINA RESULT: -9.135886332      2.800      4.489
REMARK  18 active torsions:
REMARK  status: ('A' for Active; 'I' for Inactive)
REMARK    1  A    between atoms: C2_2  and  N1_3 
REMARK    2  A    between atoms: N1_3  and  C3_5 
REMARK    3  A    between atoms: C3_5  and  O1_6 
REMARK    4  A    between atoms: C3_5  and  N2_8 
REMARK    5  A    between atoms: N2_8  and  C4_10 
REMARK    6  A    between atoms: C4_10  and  C5_11 
REMARK    7  A    between atoms: C4_10  and  C24_39 
REMARK       I    between atoms: C5_11  and  N3_13 
REMARK    8  A    between atoms: N3_13  and  C6_15 
REMARK    9  A    between atoms: C6_15  and  C7_16 
REMARK   10  A    between atoms: C6_15  and  C21_36 
REMARK       I    between atoms: C7_16  and  N4_18 
REMARK   11  A    between atoms: N4_18  and  C8_19 
REMARK   12  A    between atoms: C8_19  and  C9_20 
REMARK   13  A    between atoms: C8_19  and  C17_32 
REMARK   14  A    between atoms: C9_20  and  O4_21 
REMARK   15  A    between atoms: O4_21  and  C10_22 
REMARK   16  A    between atoms: C10_22  and  C11_23 
REMARK   17  A    between atoms: C16_29  and  O5_30 
REMARK   18  A    between atoms: C17_32  and  C18_33 
ROOT
HETATM    1  C6  UNL     1      21.783  17.770  35.057  1.00  0.00     0.194 C 
ENDROOT
BRANCH   1   2
HETATM    2  N3  UNL     1      21.169  18.986  34.836  1.00  0.00    -0.345 N 
HETATM    3  C5  UNL     1      20.488  19.976  35.571  1.00  0.00     0.241 C 
HETATM    4  O2  UNL     1      20.280  19.784  36.831  1.00  0.00    -0.271 OA
ATOM      5  H3  UNL     1      21.226  19.244  33.850  1.00  0.00     0.163 HD
BRANCH   3   6
HETATM    6  C4  UNL     1      20.057  21.149  34.882  1.00  0.00     0.180 C 
BRANCH   6   7
HETATM    7  N2  UNL     1      18.684  21.299  34.505  1.00  0.00    -0.343 N 
ATOM      8  H2  UNL     1      18.469  21.596  33.552  1.00  0.00     0.164 HD
BRANCH   7   9
HETATM    9  C3  UNL     1      17.639  21.059  35.372  1.00  0.00     0.213 C 
BRANCH   9  10
HETATM   10  N1  UNL     1      17.131  20.173  36.290  1.00  0.00    -0.357 N 
ATOM     11  H1  UNL     1      16.991  19.188  36.067  1.00  0.00     0.163 HD
BRANCH  10  12
HETATM   12  C2  UNL     1      16.791  20.744  37.665  1.00  0.00     0.118 C 
HETATM   13  C1  UNL     1      16.967  19.515  38.628  1.00  0.00     0.026 C 
ENDBRANCH  10  12
ENDBRANCH   9  10
BRANCH   9  14
HETATM   14  O1  UNL     1      16.753  22.153  35.210  1.00  0.00    -0.333 OA
ATOM     15  H1  UNL     1      16.655  22.359  34.288  1.00  0.00     0.220 HD
ENDBRANCH   9  14
ENDBRANCH   7   9
ENDBRANCH   6   7
BRANCH   6  16
HETATM   16  C24 UNL     1      21.024  21.401  33.713  1.00  0.00     0.009 C 
HETATM   17  C25 UNL     1      21.674  22.750  33.926  1.00  0.00     0.012 C 
HETATM   18  C26 UNL     1      20.245  21.490  32.438  1.00  0.00     0.012 C 
ENDBRANCH   6  16
ENDBRANCH   3   6
ENDBRANCH   1   2
BRANCH   1  19
HETATM   19  C7  UNL     1      22.779  17.238  33.857  1.00  0.00     0.310 C 
HETATM   20  O3  UNL     1      22.279  16.744  33.015  1.00  0.00    -0.255 OA
HETATM   21  N4  UNL     1      24.033  17.669  34.440  1.00  0.00    -0.406 NA
BRANCH  21  22
HETATM   22  C8  UNL     1      25.169  18.011  34.873  1.00  0.00     0.191 C 
BRANCH  22  23
HETATM   23  C9  UNL     1      26.305  17.088  35.300  1.00  0.00     0.207 C 
BRANCH  23  24
HETATM   24  O4  UNL     1      26.293  17.165  36.646  1.00  0.00    -0.388 OA
BRANCH  24  25
HETATM   25  C10 UNL     1      26.911  16.405  37.488  1.00  0.00     0.174 C 
BRANCH  25  26
HETATM   26  C11 UNL     1      26.648  14.982  37.823  1.00  0.00     0.040 C 
HETATM   27  C12 UNL     1      25.921  14.114  36.873  1.00  0.00     0.034 C 
HETATM   28  C13 UNL     1      25.899  12.832  37.724  1.00  0.00     0.036 C 
HETATM   29  C14 UNL     1      27.200  12.069  37.802  1.00  0.00     0.033 C 
HETATM   30 CL1  UNL     1      24.574  11.782  37.254  1.00  0.00    -0.119 Cl
HETATM   31  C15 UNL     1      25.567  13.406  39.107  1.00  0.00     0.057 C 
HETATM   32  C16 UNL     1      25.654  14.901  39.049  1.00  0.00     0.126 C 
BRANCH  32  33
HETATM   33  O5  UNL     1      26.244  15.411  40.169  1.00  0.00    -0.395 OA
ATOM     34  H5  UNL     1      26.882  14.798  40.513  1.00  0.00     0.210 HD
ENDBRANCH  32  33
ENDBRANCH  25  26
ENDBRANCH  24  25
ENDBRANCH  23  24
ENDBRANCH  22  23
BRANCH  22  35
HETATM   35  C17 UNL     1      25.182  19.034  36.022  1.00  0.00     0.045 C 
BRANCH  35  36
HETATM   36  C18 UNL     1      24.122  20.017  36.114  1.00  0.00    -0.020 C 
HETATM   37  C19 UNL     1      23.799  20.115  37.687  1.00  0.00     0.009 C 
HETATM   38  C20 UNL     1      24.542  21.431  35.888  1.00  0.00     0.009 C 
ENDBRANCH  35  36
ENDBRANCH  22  35
ENDBRANCH  21  22
ENDBRANCH   1  19
BRANCH   1  39
HETATM   39  C21 UNL     1      20.769  16.741  35.283  1.00  0.00     0.010 C 
HETATM   40  C22 UNL     1      21.372  15.358  35.325  1.00  0.00     0.012 C 
HETATM   41  C23 UNL     1      19.504  16.733  34.508  1.00  0.00     0.012 C 
ENDBRANCH   1  39
TORSDOF 18
ENDMDL
MODEL 5
REMARK VINA RESULT: -9.110933360      2.991      5.640
REMARK  18 active torsions:
REMARK  status: ('A' for Active; 'I' for Inactive)
REMARK    1  A    between atoms: C2_2  and  N1_3 
REMARK    2  A    between atoms: N1_3  and  C3_5 
REMARK    3  A    between atoms: C3_5  and  O1_6 
REMARK    4  A    between atoms: C3_5  and  N2_8 
REMARK    5  A    between atoms: N2_8  and  C4_10 
REMARK    6  A    between atoms: C4_10  and  C5_11 
REMARK    7  A    between atoms: C4_10  and  C24_39 
REMARK       I    between atoms: C5_11  and  N3_13 
REMARK    8  A    between atoms: N3_13  and  C6_15 
REMARK    9  A    between atoms: C6_15  and  C7_16 
REMARK   10  A    between atoms: C6_15  and  C21_36 
REMARK       I    between atoms: C7_16  and  N4_18 
REMARK   11  A    between atoms: N4_18  and  C8_19 
REMARK   12  A    between atoms: C8_19  and  C9_20 
REMARK   13  A    between atoms: C8_19  and  C17_32 
REMARK   14  A    between atoms: C9_20  and  O4_21 
REMARK   15  A    between atoms: O4_21  and  C10_22 
REMARK   16  A    between atoms: C10_22  and  C11_23 
REMARK   17  A    between atoms: C16_29  and  O5_30 
REMARK   18  A    between atoms: C17_32  and  C18_33 
ROOT
HETATM    1  C6  UNL     1      22.070  17.614  35.300  1.00  0.00     0.194 C 
ENDROOT
BRANCH   1   2
HETATM    2  N3  UNL     1      21.418  18.792  34.997  1.00  0.00    -0.345 N 
HETATM    3  C5  UNL     1      20.663  19.782  35.656  1.00  0.00     0.241 C 
HETATM    4  O2  UNL     1      20.405  19.636  36.913  1.00  0.00    -0.271 OA
ATOM      5  H3  UNL     1      21.509  19.009  34.004  1.00  0.00     0.163 HD
BRANCH   3   6
HETATM    6  C4  UNL     1      20.217  20.905  34.896  1.00  0.00     0.180 C 
BRANCH   6   7
HETATM    7  N2  UNL     1      18.856  20.983  34.459  1.00  0.00    -0.343 N 
ATOM      8  H2  UNL     1      18.669  21.104  33.463  1.00  0.00     0.164 HD
BRANCH   7   9
HETATM    9  C3  UNL     1      17.786  20.903  35.326  1.00  0.00     0.213 C 
BRANCH   9  10
HETATM   10  N1  UNL     1      17.227  20.173  36.345  1.00  0.00    -0.357 N 
ATOM     11  H1  UNL     1      16.916  19.211  36.209  1.00  0.00     0.163 HD
BRANCH  10  12
HETATM   12  C2  UNL     1      17.099  20.878  37.693  1.00  0.00     0.118 C 
HETATM   13  C1  UNL     1      16.933  19.696  38.713  1.00  0.00     0.026 C 
ENDBRANCH  10  12
ENDBRANCH   9  10
BRANCH   9  14
HETATM   14  O1  UNL     1      16.945  21.994  34.991  1.00  0.00    -0.333 OA
ATOM     15  H1  UNL     1      16.227  21.698  34.445  1.00  0.00     0.220 HD
ENDBRANCH   9  14
ENDBRANCH   7   9
ENDBRANCH   6   7
BRANCH   6  16
HETATM   16  C24 UNL     1      21.221  21.141  33.756  1.00  0.00     0.009 C 
HETATM   17  C25 UNL     1      22.326  22.030  34.281  1.00  0.00     0.012 C 
HETATM   18  C26 UNL     1      20.546  21.893  32.652  1.00  0.00     0.012 C 
ENDBRANCH   6  16
ENDBRANCH   3   6
ENDBRANCH   1   2
BRANCH   1  19
HETATM   19  C7  UNL     1      23.612  17.479  34.736  1.00  0.00     0.310 C 
HETATM   20  O3  UNL     1      23.724  17.563  33.648  1.00  0.00    -0.255 OA
HETATM   21  N4  UNL     1      24.269  17.287  36.012  1.00  0.00    -0.406 NA
BRANCH  21  22
HETATM   22  C8  UNL     1      24.924  17.114  37.079  1.00  0.00     0.191 C 
BRANCH  22  23
HETATM   23  C9  UNL     1      24.898  15.887  37.984  1.00  0.00     0.207 C 
BRANCH  23  24
HETATM   24  O4  UNL     1      24.987  14.852  37.126  1.00  0.00    -0.388 OA
BRANCH  24  25
HETATM   25  C10 UNL     1      26.056  14.332  36.621  1.00  0.00     0.174 C 
BRANCH  25  26
HETATM   26  C11 UNL     1      26.177  13.217  35.646  1.00  0.00     0.040 C 
HETATM   27  C12 UNL     1      26.756  13.456  34.308  1.00  0.00     0.034 C 
HETATM   28  C13 UNL     1      26.592  12.034  33.744  1.00  0.00     0.036 C 
HETATM   29  C14 UNL     1      27.574  11.004  34.252  1.00  0.00     0.033 C 
HETATM   30 CL1  UNL     1      26.541  12.050  31.990  1.00  0.00    -0.119 Cl
HETATM   31  C15 UNL     1      25.186  11.681  34.245  1.00  0.00     0.057 C 
HETATM   32  C16 UNL     1      24.736  12.733  35.214  1.00  0.00     0.126 C 
BRANCH  32  33
HETATM   33  O5  UNL     1      24.083  12.184  36.279  1.00  0.00    -0.395 OA
ATOM     34  H5  UNL     1      23.207  11.916  36.026  1.00  0.00     0.210 HD
ENDBRANCH  32  33
ENDBRANCH  25  26
ENDBRANCH  24  25
ENDBRANCH  23  24
ENDBRANCH  22  23
BRANCH  22  35
HETATM   35  C17 UNL     1      24.839  18.242  38.122  1.00  0.00     0.045 C 
BRANCH  35  36
HETATM   36  C18 UNL     1      23.711  19.152  38.099  1.00  0.00    -0.020 C 
HETATM   37  C19 UNL     1      23.653  19.759  39.587  1.00  0.00     0.009 C 
HETATM   38  C20 UNL     1      23.932  20.423  37.351  1.00  0.00     0.009 C 
ENDBRANCH  35  36
ENDBRANCH  22  35
ENDBRANCH  21  22
ENDBRANCH   1  19
BRANCH   1  39
HETATM   39  C21 UNL     1      21.305  16.480  34.781  1.00  0.00     0.010 C 
HETATM   40  C22 UNL     1      19.818  16.719  34.870  1.00  0.00     0.012 C 
HETATM   41  C23 UNL     1      21.633  15.091  35.183  1.00  0.00     0.012 C 
ENDBRANCH   1  39
TORSDOF 18
ENDMDL
