MODEL 1
REMARK VINA RESULT: -9.795894322      0.000      0.000
REMARK  5 active torsions:
REMARK  status: ('A' for Active; 'I' for Inactive)
REMARK    1  A    between atoms: C5_6  and  O1_7 
REMARK    2  A    between atoms: O1_7  and  C6_8 
REMARK    3  A    between atoms: C9_12  and  S1_13 
REMARK    4  A    between atoms: S1_13  and  N1_16 
REMARK    5  A    between atoms: N1_16  and  C10_18 
ROOT
HETATM    1  C6  UNL     1      17.257  11.821  18.280  1.00  0.00     0.149 A 
HETATM    2  C7  UNL     1      16.888  13.141  18.208  1.00  0.00     0.081 A 
HETATM    3  C8  UNL     1      15.805  13.613  18.965  1.00  0.00     0.062 A 
HETATM    4 CL2  UNL     1      15.346  15.288  18.868  1.00  0.00    -0.083 Cl
HETATM    5  C9  UNL     1      15.080  12.791  19.794  1.00  0.00     0.117 A 
HETATM    6  C13 UNL     1      15.483  11.469  19.837  1.00  0.00     0.117 A 
HETATM    7  N3  UNL     1      16.513  11.039  19.112  1.00  0.00    -0.345 N 
ATOM      8  H3  UNL     1      16.764  10.053  19.185  1.00  0.00     0.167 HD
ENDROOT
BRANCH   1   9
HETATM    9  O1  UNL     1      18.307  11.270  17.574  1.00  0.00    -0.290 OA
BRANCH   9  10
HETATM   10  C5  UNL     1      18.457  11.191  16.219  1.00  0.00     0.123 A 
HETATM   11  C4  UNL     1      19.306  12.124  15.611  1.00  0.00     0.070 A 
HETATM   12  C3  UNL     1      19.480  12.076  14.251  1.00  0.00     0.035 A 
HETATM   13 CL1  UNL     1      20.170  13.346  16.532  1.00  0.00    -0.081 Cl
HETATM   14  C2  UNL     1      18.828  11.123  13.499  1.00  0.00    -0.034 A 
HETATM   15  C1  UNL     1      19.039  11.100  12.012  1.00  0.00     0.050 C 
HETATM   16  C15 UNL     1      17.989  10.194  14.073  1.00  0.00     0.076 A 
HETATM   17  C14 UNL     1      17.815  10.245  15.461  1.00  0.00     0.094 A 
HETATM   18  N4  UNL     1      17.321   9.216  13.295  1.00  0.00    -0.100 NA
HETATM   19 CL3  UNL     1      16.765   9.006  16.148  1.00  0.00    -0.079 Cl
ENDBRANCH   9  10
ENDBRANCH   1   9
BRANCH   5  20
HETATM   20  S1  UNL     1      13.731  13.361  20.746  1.00  0.00     0.267 S 
HETATM   21  O2  UNL     1      12.814  14.191  19.876  1.00  0.00    -0.200 OA
HETATM   22  O3  UNL     1      14.290  14.257  21.836  1.00  0.00    -0.200 OA
BRANCH  20  23
HETATM   23  N1  UNL     1      12.877  12.018  21.417  1.00  0.00    -0.260 N 
ATOM     24  H1  UNL     1      12.979  11.070  21.056  1.00  0.00     0.181 HD
BRANCH  23  25
HETATM   25  C10 UNL     1      12.085  12.308  22.429  1.00  0.00     0.158 A 
HETATM   26  N2  UNL     1      12.440  12.688  23.655  1.00  0.00    -0.345 N 
HETATM   27  C11 UNL     1      11.510  12.933  24.529  1.00  0.00     0.097 A 
ATOM     28  H2  UNL     1      13.424  12.785  23.905  1.00  0.00     0.167 HD
HETATM   29  C12 UNL     1      10.206  12.787  24.138  1.00  0.00     0.070 A 
HETATM   30  S2  UNL     1      10.381  12.296  22.509  1.00  0.00    -0.064 SA
ENDBRANCH  23  25
ENDBRANCH  20  23
ENDBRANCH   5  20
TORSDOF 5
ENDMDL
MODEL 2
REMARK VINA RESULT: -9.736634302      0.958      2.010
REMARK  5 active torsions:
REMARK  status: ('A' for Active; 'I' for Inactive)
REMARK    1  A    between atoms: C5_6  and  O1_7 
REMARK    2  A    between atoms: O1_7  and  C6_8 
REMARK    3  A    between atoms: C9_12  and  S1_13 
REMARK    4  A    between atoms: S1_13  and  N1_16 
REMARK    5  A    between atoms: N1_16  and  C10_18 
ROOT
HETATM    1  C6  UNL     1      17.244  11.713  18.321  1.00  0.00     0.149 A 
HETATM    2  C7  UNL     1      16.905  13.040  18.230  1.00  0.00     0.081 A 
HETATM    3  C8  UNL     1      15.818  13.542  18.962  1.00  0.00     0.062 A 
HETATM    4 CL2  UNL     1      15.396  15.225  18.842  1.00  0.00    -0.083 Cl
HETATM    5  C9  UNL     1      15.060  12.743  19.785  1.00  0.00     0.117 A 
HETATM    6  C13 UNL     1      15.435  11.413  19.846  1.00  0.00     0.117 A 
HETATM    7  N3  UNL     1      16.469  10.955  19.145  1.00  0.00    -0.345 N 
ATOM      8  H3  UNL     1      16.698   9.965  19.231  1.00  0.00     0.167 HD
ENDROOT
BRANCH   1   9
HETATM    9  O1  UNL     1      18.295  11.134  17.639  1.00  0.00    -0.290 OA
BRANCH   9  10
HETATM   10  C5  UNL     1      18.537  11.155  16.295  1.00  0.00     0.123 A 
HETATM   11  C4  UNL     1      17.874  10.204  15.508  1.00  0.00     0.070 A 
HETATM   12  C3  UNL     1      18.094  10.194  14.154  1.00  0.00     0.035 A 
HETATM   13 CL1  UNL     1      16.759   9.032  16.193  1.00  0.00    -0.081 Cl
HETATM   14  C2  UNL     1      18.952  11.106  13.581  1.00  0.00    -0.034 A 
HETATM   15  C1  UNL     1      19.171  11.066  12.096  1.00  0.00     0.050 C 
HETATM   16  C15 UNL     1      19.614  12.052  14.333  1.00  0.00     0.076 A 
HETATM   17  C14 UNL     1      19.387  12.060  15.714  1.00  0.00     0.094 A 
HETATM   18  N4  UNL     1      20.497  12.988  13.738  1.00  0.00    -0.100 NA
HETATM   19 CL3  UNL     1      20.226  13.318  16.621  1.00  0.00    -0.079 Cl
ENDBRANCH   9  10
ENDBRANCH   1   9
BRANCH   5  20
HETATM   20  S1  UNL     1      13.706  13.350  20.705  1.00  0.00     0.267 S 
HETATM   21  O2  UNL     1      12.831  14.201  19.815  1.00  0.00    -0.200 OA
HETATM   22  O3  UNL     1      14.264  14.232  21.806  1.00  0.00    -0.200 OA
BRANCH  20  23
HETATM   23  N1  UNL     1      12.803  12.030  21.359  1.00  0.00    -0.260 N 
ATOM     24  H1  UNL     1      12.854  11.088  20.973  1.00  0.00     0.181 HD
BRANCH  23  25
HETATM   25  C10 UNL     1      12.043  12.330  22.392  1.00  0.00     0.158 A 
HETATM   26  N2  UNL     1      12.433  12.768  23.588  1.00  0.00    -0.345 N 
HETATM   27  C11 UNL     1      11.532  13.014  24.492  1.00  0.00     0.097 A 
ATOM     28  H2  UNL     1      13.423  12.908  23.792  1.00  0.00     0.167 HD
HETATM   29  C12 UNL     1      10.219  12.808  24.160  1.00  0.00     0.070 A 
HETATM   30  S2  UNL     1      10.345  12.263  22.545  1.00  0.00    -0.064 SA
ENDBRANCH  23  25
ENDBRANCH  20  23
ENDBRANCH   5  20
TORSDOF 5
ENDMDL
MODEL 3
REMARK VINA RESULT: -9.169346863      1.334      2.198
REMARK  5 active torsions:
REMARK  status: ('A' for Active; 'I' for Inactive)
REMARK    1  A    between atoms: C5_6  and  O1_7 
REMARK    2  A    between atoms: O1_7  and  C6_8 
REMARK    3  A    between atoms: C9_12  and  S1_13 
REMARK    4  A    between atoms: S1_13  and  N1_16 
REMARK    5  A    between atoms: N1_16  and  C10_18 
ROOT
HETATM    1  C6  UNL     1      17.206  11.494  18.694  1.00  0.00     0.149 A 
HETATM    2  C7  UNL     1      16.916  12.822  18.498  1.00  0.00     0.081 A 
HETATM    3  C8  UNL     1      15.786  13.393  19.103  1.00  0.00     0.062 A 
HETATM    4 CL2  UNL     1      15.428  15.076  18.849  1.00  0.00    -0.083 Cl
HETATM    5  C9  UNL     1      14.937  12.665  19.901  1.00  0.00     0.117 A 
HETATM    6  C13 UNL     1      15.265  11.332  20.071  1.00  0.00     0.117 A 
HETATM    7  N3  UNL     1      16.340  10.807  19.490  1.00  0.00    -0.345 N 
ATOM      8  H3  UNL     1      16.531   9.818  19.653  1.00  0.00     0.167 HD
ENDROOT
BRANCH   1   9
HETATM    9  O1  UNL     1      18.293  10.849  18.141  1.00  0.00    -0.290 OA
BRANCH   9  10
HETATM   10  C5  UNL     1      18.317  10.034  17.045  1.00  0.00     0.123 A 
HETATM   11  C4  UNL     1      18.127   8.662  17.260  1.00  0.00     0.070 A 
HETATM   12  C3  UNL     1      18.147   7.813  16.182  1.00  0.00     0.035 A 
HETATM   13 CL1  UNL     1      17.851   7.993  18.861  1.00  0.00    -0.081 Cl
HETATM   14  C2  UNL     1      18.348   8.305  14.912  1.00  0.00    -0.034 A 
HETATM   15  C1  UNL     1      18.365   7.347  13.755  1.00  0.00     0.050 C 
HETATM   16  C15 UNL     1      18.535   9.649  14.674  1.00  0.00     0.076 A 
HETATM   17  C14 UNL     1      18.514  10.513  15.775  1.00  0.00     0.094 A 
HETATM   18  N4  UNL     1      18.743  10.150  13.365  1.00  0.00    -0.100 NA
HETATM   19 CL3  UNL     1      18.715  12.226  15.409  1.00  0.00    -0.079 Cl
ENDBRANCH   9  10
ENDBRANCH   1   9
BRANCH   5  20
HETATM   20  S1  UNL     1      13.529  13.360  20.664  1.00  0.00     0.267 S 
HETATM   21  O2  UNL     1      12.812  14.256  19.681  1.00  0.00    -0.200 OA
HETATM   22  O3  UNL     1      14.013  14.216  21.820  1.00  0.00    -0.200 OA
BRANCH  20  23
HETATM   23  N1  UNL     1      12.479  12.103  21.214  1.00  0.00    -0.260 N 
ATOM     24  H1  UNL     1      12.325  11.247  20.681  1.00  0.00     0.181 HD
BRANCH  23  25
HETATM   25  C10 UNL     1      11.893  12.330  22.371  1.00  0.00     0.158 A 
HETATM   26  N2  UNL     1      12.476  12.597  23.539  1.00  0.00    -0.345 N 
HETATM   27  C11 UNL     1      11.727  12.796  24.583  1.00  0.00     0.097 A 
ATOM     28  H2  UNL     1      13.492  12.645  23.613  1.00  0.00     0.167 HD
HETATM   29  C12 UNL     1      10.369  12.720  24.423  1.00  0.00     0.070 A 
HETATM   30  S2  UNL     1      10.231  12.361  22.757  1.00  0.00    -0.064 SA
ENDBRANCH  23  25
ENDBRANCH  20  23
ENDBRANCH   5  20
TORSDOF 5
ENDMDL
MODEL 4
REMARK VINA RESULT: -9.141934044      1.147      1.350
REMARK  5 active torsions:
REMARK  status: ('A' for Active; 'I' for Inactive)
REMARK    1  A    between atoms: C5_6  and  O1_7 
REMARK    2  A    between atoms: O1_7  and  C6_8 
REMARK    3  A    between atoms: C9_12  and  S1_13 
REMARK    4  A    between atoms: S1_13  and  N1_16 
REMARK    5  A    between atoms: N1_16  and  C10_18 
ROOT
HETATM    1  C6  UNL     1      17.329  11.724  18.428  1.00  0.00     0.149 A 
HETATM    2  C7  UNL     1      16.891  11.125  19.583  1.00  0.00     0.081 A 
HETATM    3  C8  UNL     1      15.773  11.634  20.261  1.00  0.00     0.062 A 
HETATM    4 CL2  UNL     1      15.226  10.868  21.723  1.00  0.00    -0.083 Cl
HETATM    5  C9  UNL     1      15.081  12.731  19.808  1.00  0.00     0.117 A 
HETATM    6  C13 UNL     1      15.555  13.304  18.642  1.00  0.00     0.117 A 
HETATM    7  N3  UNL     1      16.617  12.808  18.012  1.00  0.00    -0.345 N 
ATOM      8  H3  UNL     1      16.920  13.273  17.156  1.00  0.00     0.167 HD
ENDROOT
BRANCH   1   9
HETATM    9  O1  UNL     1      18.417  11.293  17.696  1.00  0.00    -0.290 OA
BRANCH   9  10
HETATM   10  C5  UNL     1      18.537  11.217  16.337  1.00  0.00     0.123 A 
HETATM   11  C4  UNL     1      19.362  12.161  15.712  1.00  0.00     0.070 A 
HETATM   12  C3  UNL     1      19.506  12.116  14.348  1.00  0.00     0.035 A 
HETATM   13 CL1  UNL     1      20.232  13.392  16.615  1.00  0.00    -0.081 Cl
HETATM   14  C2  UNL     1      18.849  11.157  13.610  1.00  0.00    -0.034 A 
HETATM   15  C1  UNL     1      19.027  11.137  12.119  1.00  0.00     0.050 C 
HETATM   16  C15 UNL     1      18.034  10.216  14.202  1.00  0.00     0.076 A 
HETATM   17  C14 UNL     1      17.890  10.264  15.593  1.00  0.00     0.094 A 
HETATM   18  N4  UNL     1      17.360   9.232  13.437  1.00  0.00    -0.100 NA
HETATM   19 CL3  UNL     1      16.870   9.013  16.301  1.00  0.00    -0.079 Cl
ENDBRANCH   9  10
ENDBRANCH   1   9
BRANCH   5  20
HETATM   20  S1  UNL     1      13.685  13.376  20.636  1.00  0.00     0.267 S 
HETATM   21  O2  UNL     1      12.957  14.339  19.726  1.00  0.00    -0.200 OA
HETATM   22  O3  UNL     1      14.189  14.151  21.840  1.00  0.00    -0.200 OA
BRANCH  20  23
HETATM   23  N1  UNL     1      12.640  12.087  21.115  1.00  0.00    -0.260 N 
ATOM     24  H1  UNL     1      12.536  11.234  20.566  1.00  0.00     0.181 HD
BRANCH  23  25
HETATM   25  C10 UNL     1      11.988  12.286  22.242  1.00  0.00     0.158 A 
HETATM   26  N2  UNL     1      12.502  12.526  23.448  1.00  0.00    -0.345 N 
HETATM   27  C11 UNL     1      11.694  12.698  24.451  1.00  0.00     0.097 A 
ATOM     28  H2  UNL     1      13.513  12.574  23.581  1.00  0.00     0.167 HD
HETATM   29  C12 UNL     1      10.348  12.623  24.212  1.00  0.00     0.070 A 
HETATM   30  S2  UNL     1      10.306  12.304  22.533  1.00  0.00    -0.064 SA
ENDBRANCH  23  25
ENDBRANCH  20  23
ENDBRANCH   5  20
TORSDOF 5
ENDMDL
MODEL 5
REMARK VINA RESULT: -9.128808959      1.574      1.884
REMARK  5 active torsions:
REMARK  status: ('A' for Active; 'I' for Inactive)
REMARK    1  A    between atoms: C5_6  and  O1_7 
REMARK    2  A    between atoms: O1_7  and  C6_8 
REMARK    3  A    between atoms: C9_12  and  S1_13 
REMARK    4  A    between atoms: S1_13  and  N1_16 
REMARK    5  A    between atoms: N1_16  and  C10_18 
ROOT
HETATM    1  C6  UNL     1      17.287  11.600  18.543  1.00  0.00     0.149 A 
HETATM    2  C7  UNL     1      16.958  12.921  18.363  1.00  0.00     0.081 A 
HETATM    3  C8  UNL     1      15.828  13.459  18.998  1.00  0.00     0.062 A 
HETATM    4 CL2  UNL     1      15.420  15.133  18.764  1.00  0.00    -0.083 Cl
HETATM    5  C9  UNL     1      15.017  12.703  19.810  1.00  0.00     0.117 A 
HETATM    6  C13 UNL     1      15.383  11.379  19.964  1.00  0.00     0.117 A 
HETATM    7  N3  UNL     1      16.459  10.885  19.354  1.00  0.00    -0.345 N 
ATOM      8  H3  UNL     1      16.679   9.901  19.505  1.00  0.00     0.167 HD
ENDROOT
BRANCH   1   9
HETATM    9  O1  UNL     1      18.377  10.987  17.960  1.00  0.00    -0.290 OA
BRANCH   9  10
HETATM   10  C5  UNL     1      18.380  10.027  16.988  1.00  0.00     0.123 A 
HETATM   11  C4  UNL     1      18.527  10.456  15.662  1.00  0.00     0.070 A 
HETATM   12  C3  UNL     1      18.533   9.519  14.660  1.00  0.00     0.035 A 
HETATM   13 CL1  UNL     1      18.719  12.150  15.239  1.00  0.00    -0.081 Cl
HETATM   14  C2  UNL     1      18.398   8.181  14.956  1.00  0.00    -0.034 A 
HETATM   15  C1  UNL     1      18.407   7.183  13.833  1.00  0.00     0.050 C 
HETATM   16  C15 UNL     1      18.255   7.735  16.251  1.00  0.00     0.076 A 
HETATM   17  C14 UNL     1      18.249   8.692  17.272  1.00  0.00     0.094 A 
HETATM   18  N4  UNL     1      18.115   6.356  16.550  1.00  0.00    -0.100 NA
HETATM   19 CL3  UNL     1      18.106   8.063  18.912  1.00  0.00    -0.079 Cl
ENDBRANCH   9  10
ENDBRANCH   1   9
BRANCH   5  20
HETATM   20  S1  UNL     1      13.609  13.356  20.610  1.00  0.00     0.267 S 
HETATM   21  O2  UNL     1      12.853  14.248  19.654  1.00  0.00    -0.200 OA
HETATM   22  O3  UNL     1      14.098  14.207  21.768  1.00  0.00    -0.200 OA
BRANCH  20  23
HETATM   23  N1  UNL     1      12.600  12.068  21.165  1.00  0.00    -0.260 N 
ATOM     24  H1  UNL     1      12.496  11.194  20.649  1.00  0.00     0.181 HD
BRANCH  23  25
HETATM   25  C10 UNL     1      11.975  12.297  22.301  1.00  0.00     0.158 A 
HETATM   26  N2  UNL     1      12.518  12.558  23.489  1.00  0.00    -0.345 N 
HETATM   27  C11 UNL     1      11.735  12.759  24.507  1.00  0.00     0.097 A 
ATOM     28  H2  UNL     1      13.532  12.600  23.599  1.00  0.00     0.167 HD
HETATM   29  C12 UNL     1      10.383  12.693  24.299  1.00  0.00     0.070 A 
HETATM   30  S2  UNL     1      10.301  12.338  22.629  1.00  0.00    -0.064 SA
ENDBRANCH  23  25
ENDBRANCH  20  23
ENDBRANCH   5  20
TORSDOF 5
ENDMDL
