MODEL 1
REMARK VINA RESULT: -10.469574049      0.000      0.000
REMARK  7 active torsions:
REMARK  status: ('A' for Active; 'I' for Inactive)
REMARK    1  A    between atoms: O1_2  and  C2_3 
REMARK    2  A    between atoms: C3_6  and  N2_7 
REMARK    3  A    between atoms: N2_7  and  C4_9 
REMARK    4  A    between atoms: C7_12  and  N3_13 
REMARK    5  A    between atoms: N3_13  and  C8_15 
REMARK    6  A    between atoms: C9_18  and  C10_19 
REMARK    7  A    between atoms: C12_23  and  C13_24 
ROOT
HETATM    1  N3  UNL     1      18.654  12.591  17.250  1.00  0.00    -0.192 N 
ATOM      2  H3  UNL     1      19.437  12.778  17.876  1.00  0.00     0.184 HD
ENDROOT
BRANCH   1   3
HETATM    3  C7  UNL     1      17.363  12.797  17.756  1.00  0.00     0.049 A 
HETATM    4  C6  UNL     1      16.685  11.790  18.382  1.00  0.00     0.032 A 
HETATM    5  C5  UNL     1      15.424  12.003  18.865  1.00  0.00     0.032 A 
HETATM    6  C4  UNL     1      14.815  13.228  18.729  1.00  0.00     0.049 A 
HETATM    7  C20 UNL     1      15.498  14.256  18.094  1.00  0.00     0.032 A 
HETATM    8  C19 UNL     1      16.767  14.029  17.612  1.00  0.00     0.032 A 
BRANCH   6   9
HETATM    9  N2  UNL     1      13.511  13.473  19.206  1.00  0.00    -0.192 N 
ATOM     10  H2  UNL     1      12.818  13.919  18.605  1.00  0.00     0.184 HD
BRANCH   9  11
HETATM   11  C3  UNL     1      13.202  13.128  20.405  1.00  0.00     0.684 A 
HETATM   12  N1  UNL     1      13.705  11.980  20.913  1.00  0.00    -0.167 N 
HETATM   13  C2  UNL     1      13.383  11.592  22.175  1.00  0.00     0.197 A 
ATOM     14  H1  UNL     1      14.329  11.404  20.348  1.00  0.00     0.186 HD
HETATM   15  C22 UNL     1      12.541  12.373  22.933  1.00  0.00     0.183 A 
HETATM   16  C21 UNL     1      12.030  13.547  22.404  1.00  0.00     0.152 A 
HETATM   17  F2  UNL     1      12.227  11.969  24.195  1.00  0.00    -0.200 F 
HETATM   18  N8  UNL     1      12.368  13.904  21.153  1.00  0.00    -0.199 N 
ATOM     19  H8  UNL     1      11.996  14.768  20.757  1.00  0.00     0.183 HD
BRANCH  13  20
HETATM   20  O1  UNL     1      13.890  10.422  22.710  1.00  0.00    -0.338 OA
HETATM   21  C1  UNL     1      15.017   9.764  22.200  1.00  0.00     0.211 C 
ENDBRANCH  13  20
ENDBRANCH   9  11
ENDBRANCH   6   9
ENDBRANCH   1   3
BRANCH   1  22
HETATM   22  C8  UNL     1      18.929  12.190  16.071  1.00  0.00     0.683 A 
HETATM   23  N4  UNL     1      18.199  11.192  15.518  1.00  0.00    -0.186 N 
HETATM   24  C9  UNL     1      18.452  10.732  14.279  1.00  0.00     0.117 A 
ATOM     25  H4  UNL     1      17.438  10.778  16.055  1.00  0.00     0.184 HD
HETATM   26  C17 UNL     1      19.483  11.299  13.560  1.00  0.00     0.161 A 
HETATM   27  F1  UNL     1      19.748  10.844  12.312  1.00  0.00    -0.202 F 
HETATM   28  C18 UNL     1      20.231  12.316  14.116  1.00  0.00     0.150 A 
HETATM   29  N7  UNL     1      19.945  12.747  15.362  1.00  0.00    -0.199 N 
ATOM     30  H7  UNL     1      20.495  13.500  15.775  1.00  0.00     0.183 HD
BRANCH  24  31
HETATM   31  C10 UNL     1      17.670   9.648  13.677  1.00  0.00     0.079 A 
HETATM   32  C11 UNL     1      16.832   9.823  12.603  1.00  0.00     0.121 A 
HETATM   33  N5  UNL     1      16.264   8.625  12.299  1.00  0.00    -0.353 N 
HETATM   34  C12 UNL     1      16.747   7.726  13.176  1.00  0.00     0.089 A 
ATOM     35  H5  UNL     1      15.598   8.443  11.548  1.00  0.00     0.166 HD
HETATM   36  N6  UNL     1      17.603   8.369  14.007  1.00  0.00    -0.342 N 
ATOM     37  H6  UNL     1      18.117   7.932  14.772  1.00  0.00     0.167 HD
BRANCH  34  38
HETATM   38  C13 UNL     1      16.440   6.276  13.270  1.00  0.00     0.007 C 
HETATM   39  C14 UNL     1      16.631   5.842  14.712  1.00  0.00     0.022 C 
HETATM   40  C15 UNL     1      17.348   5.437  12.422  1.00  0.00     0.022 C 
HETATM   41  C16 UNL     1      14.979   6.091  12.932  1.00  0.00     0.022 C 
ENDBRANCH  34  38
ENDBRANCH  24  31
ENDBRANCH   1  22
TORSDOF 7
ENDMDL
MODEL 2
REMARK VINA RESULT: -10.415991033      1.762      2.411
REMARK  7 active torsions:
REMARK  status: ('A' for Active; 'I' for Inactive)
REMARK    1  A    between atoms: O1_2  and  C2_3 
REMARK    2  A    between atoms: C3_6  and  N2_7 
REMARK    3  A    between atoms: N2_7  and  C4_9 
REMARK    4  A    between atoms: C7_12  and  N3_13 
REMARK    5  A    between atoms: N3_13  and  C8_15 
REMARK    6  A    between atoms: C9_18  and  C10_19 
REMARK    7  A    between atoms: C12_23  and  C13_24 
ROOT
HETATM    1  N3  UNL     1      17.689  10.861  18.879  1.00  0.00    -0.192 N 
ATOM      2  H3  UNL     1      18.148  10.159  19.460  1.00  0.00     0.184 HD
ENDROOT
BRANCH   1   3
HETATM    3  C7  UNL     1      16.716  11.664  19.489  1.00  0.00     0.049 A 
HETATM    4  C6  UNL     1      16.261  12.800  18.883  1.00  0.00     0.032 A 
HETATM    5  C5  UNL     1      15.315  13.577  19.493  1.00  0.00     0.032 A 
HETATM    6  C4  UNL     1      14.808  13.233  20.724  1.00  0.00     0.049 A 
HETATM    7  C20 UNL     1      15.266  12.080  21.346  1.00  0.00     0.032 A 
HETATM    8  C19 UNL     1      16.217  11.306  20.722  1.00  0.00     0.032 A 
BRANCH   6   9
HETATM    9  N2  UNL     1      13.842  14.022  21.382  1.00  0.00    -0.192 N 
ATOM     10  H2  UNL     1      13.993  15.023  21.505  1.00  0.00     0.184 HD
BRANCH   9  11
HETATM   11  C3  UNL     1      12.770  13.468  21.825  1.00  0.00     0.684 A 
HETATM   12  N1  UNL     1      12.306  13.810  23.048  1.00  0.00    -0.167 N 
HETATM   13  C2  UNL     1      11.181  13.229  23.540  1.00  0.00     0.197 A 
ATOM     14  H1  UNL     1      12.803  14.506  23.604  1.00  0.00     0.186 HD
HETATM   15  C22 UNL     1      10.515  12.290  22.785  1.00  0.00     0.183 A 
HETATM   16  C21 UNL     1      10.997  11.946  21.533  1.00  0.00     0.152 A 
HETATM   17  F2  UNL     1       9.389  11.716  23.292  1.00  0.00    -0.200 F 
HETATM   18  N8  UNL     1      12.114  12.540  21.075  1.00  0.00    -0.199 N 
ATOM     19  H8  UNL     1      12.474  12.291  20.153  1.00  0.00     0.183 HD
BRANCH  13  20
HETATM   20  O1  UNL     1      10.693  13.567  24.788  1.00  0.00    -0.338 OA
HETATM   21  C1  UNL     1      10.842  12.757  25.922  1.00  0.00     0.211 C 
ENDBRANCH  13  20
ENDBRANCH   9  11
ENDBRANCH   6   9
ENDBRANCH   1   3
BRANCH   1  22
HETATM   22  C8  UNL     1      18.048  10.935  17.658  1.00  0.00     0.683 A 
HETATM   23  N4  UNL     1      17.543  10.057  16.759  1.00  0.00    -0.186 N 
HETATM   24  C9  UNL     1      17.891  10.093  15.460  1.00  0.00     0.117 A 
ATOM     25  H4  UNL     1      16.881   9.349  17.075  1.00  0.00     0.184 HD
HETATM   26  C17 UNL     1      18.787  11.055  15.041  1.00  0.00     0.161 A 
HETATM   27  F1  UNL     1      19.147  11.101  13.737  1.00  0.00    -0.202 F 
HETATM   28  C18 UNL     1      19.306  11.954  15.950  1.00  0.00     0.150 A 
HETATM   29  N7  UNL     1      18.930  11.882  17.244  1.00  0.00    -0.199 N 
ATOM     30  H7  UNL     1      19.311  12.545  17.919  1.00  0.00     0.183 HD
BRANCH  24  31
HETATM   31  C10 UNL     1      17.353   9.142  14.483  1.00  0.00     0.079 A 
HETATM   32  C11 UNL     1      16.951   9.498  13.220  1.00  0.00     0.121 A 
HETATM   33  N5  UNL     1      16.506   8.384  12.578  1.00  0.00    -0.353 N 
HETATM   34  C12 UNL     1      16.633   7.357  13.438  1.00  0.00     0.089 A 
ATOM     35  H5  UNL     1      16.144   8.336  11.626  1.00  0.00     0.166 HD
HETATM   36  N6  UNL     1      17.153   7.839  14.593  1.00  0.00    -0.342 N 
ATOM     37  H6  UNL     1      17.357   7.281  15.423  1.00  0.00     0.167 HD
BRANCH  34  38
HETATM   38  C13 UNL     1      16.288   5.929  13.222  1.00  0.00     0.007 C 
HETATM   39  C14 UNL     1      16.459   5.193  14.539  1.00  0.00     0.022 C 
HETATM   40  C15 UNL     1      17.179   5.264  12.216  1.00  0.00     0.022 C 
HETATM   41  C16 UNL     1      14.826   5.857  12.853  1.00  0.00     0.022 C 
ENDBRANCH  34  38
ENDBRANCH  24  31
ENDBRANCH   1  22
TORSDOF 7
ENDMDL
MODEL 3
REMARK VINA RESULT: -10.326810986      3.029      9.442
REMARK  7 active torsions:
REMARK  status: ('A' for Active; 'I' for Inactive)
REMARK    1  A    between atoms: O1_2  and  C2_3 
REMARK    2  A    between atoms: C3_6  and  N2_7 
REMARK    3  A    between atoms: N2_7  and  C4_9 
REMARK    4  A    between atoms: C7_12  and  N3_13 
REMARK    5  A    between atoms: N3_13  and  C8_15 
REMARK    6  A    between atoms: C9_18  and  C10_19 
REMARK    7  A    between atoms: C12_23  and  C13_24 
ROOT
HETATM    1  N3  UNL     1      17.915  11.431  17.879  1.00  0.00    -0.192 N 
ATOM      2  H3  UNL     1      18.754  11.288  18.441  1.00  0.00     0.184 HD
ENDROOT
BRANCH   1   3
HETATM    3  C7  UNL     1      17.780  10.658  16.717  1.00  0.00     0.049 A 
HETATM    4  C6  UNL     1      17.057   9.499  16.725  1.00  0.00     0.032 A 
HETATM    5  C5  UNL     1      16.939   8.751  15.586  1.00  0.00     0.032 A 
HETATM    6  C4  UNL     1      17.544   9.149  14.416  1.00  0.00     0.049 A 
HETATM    7  C20 UNL     1      18.280  10.326  14.402  1.00  0.00     0.032 A 
HETATM    8  C19 UNL     1      18.391  11.069  15.554  1.00  0.00     0.032 A 
BRANCH   6   9
HETATM    9  N2  UNL     1      17.450   8.392  13.230  1.00  0.00    -0.192 N 
ATOM     10  H2  UNL     1      17.645   8.825  12.327  1.00  0.00     0.184 HD
BRANCH   9  11
HETATM   11  C3  UNL     1      17.117   7.152  13.297  1.00  0.00     0.684 A 
HETATM   12  N1  UNL     1      15.810   6.814  13.227  1.00  0.00    -0.167 N 
HETATM   13  C2  UNL     1      15.436   5.511  13.306  1.00  0.00     0.197 A 
ATOM     14  H1  UNL     1      15.102   7.541  13.113  1.00  0.00     0.186 HD
HETATM   15  C22 UNL     1      16.395   4.536  13.459  1.00  0.00     0.183 A 
HETATM   16  C21 UNL     1      17.732   4.891  13.530  1.00  0.00     0.152 A 
HETATM   17  F2  UNL     1      16.003   3.234  13.538  1.00  0.00    -0.200 F 
HETATM   18  N8  UNL     1      18.070   6.190  13.448  1.00  0.00    -0.199 N 
ATOM     19  H8  UNL     1      19.053   6.459  13.500  1.00  0.00     0.183 HD
BRANCH  13  20
HETATM   20  O1  UNL     1      14.103   5.148  13.235  1.00  0.00    -0.338 OA
HETATM   21  C1  UNL     1      13.047   6.022  13.525  1.00  0.00     0.211 C 
ENDBRANCH  13  20
ENDBRANCH   9  11
ENDBRANCH   6   9
ENDBRANCH   1   3
BRANCH   1  22
HETATM   22  C8  UNL     1      17.076  12.297  18.290  1.00  0.00     0.683 A 
HETATM   23  N4  UNL     1      16.236  11.985  19.306  1.00  0.00    -0.186 N 
HETATM   24  C9  UNL     1      15.332  12.864  19.775  1.00  0.00     0.117 A 
ATOM     25  H4  UNL     1      16.291  11.058  19.728  1.00  0.00     0.184 HD
HETATM   26  C17 UNL     1      15.266  14.115  19.199  1.00  0.00     0.161 A 
HETATM   27  F1  UNL     1      14.359  15.009  19.661  1.00  0.00    -0.202 F 
HETATM   28  C18 UNL     1      16.117  14.443  18.164  1.00  0.00     0.150 A 
HETATM   29  N7  UNL     1      17.009  13.531  17.724  1.00  0.00    -0.199 N 
ATOM     30  H7  UNL     1      17.640  13.769  16.959  1.00  0.00     0.183 HD
BRANCH  24  31
HETATM   31  C10 UNL     1      14.417  12.530  20.870  1.00  0.00     0.079 A 
HETATM   32  C11 UNL     1      14.494  11.367  21.595  1.00  0.00     0.121 A 
HETATM   33  N5  UNL     1      13.504  11.372  22.528  1.00  0.00    -0.353 N 
HETATM   34  C12 UNL     1      12.826  12.525  22.376  1.00  0.00     0.089 A 
ATOM     35  H5  UNL     1      13.311  10.640  23.212  1.00  0.00     0.166 HD
HETATM   36  N6  UNL     1      13.399  13.217  21.361  1.00  0.00    -0.342 N 
ATOM     37  H6  UNL     1      13.091  14.130  21.027  1.00  0.00     0.167 HD
BRANCH  34  38
HETATM   38  C13 UNL     1      11.655  13.012  23.148  1.00  0.00     0.007 C 
HETATM   39  C14 UNL     1      11.864  12.651  24.608  1.00  0.00     0.022 C 
HETATM   40  C15 UNL     1      10.369  12.381  22.708  1.00  0.00     0.022 C 
HETATM   41  C16 UNL     1      11.635  14.519  23.055  1.00  0.00     0.022 C 
ENDBRANCH  34  38
ENDBRANCH  24  31
ENDBRANCH   1  22
TORSDOF 7
ENDMDL
MODEL 4
REMARK VINA RESULT: -10.276702562      3.043      9.341
REMARK  7 active torsions:
REMARK  status: ('A' for Active; 'I' for Inactive)
REMARK    1  A    between atoms: O1_2  and  C2_3 
REMARK    2  A    between atoms: C3_6  and  N2_7 
REMARK    3  A    between atoms: N2_7  and  C4_9 
REMARK    4  A    between atoms: C7_12  and  N3_13 
REMARK    5  A    between atoms: N3_13  and  C8_15 
REMARK    6  A    between atoms: C9_18  and  C10_19 
REMARK    7  A    between atoms: C12_23  and  C13_24 
ROOT
HETATM    1  N3  UNL     1      17.825  11.655  18.343  1.00  0.00    -0.192 N 
ATOM      2  H3  UNL     1      18.439  11.531  19.147  1.00  0.00     0.184 HD
ENDROOT
BRANCH   1   3
HETATM    3  C7  UNL     1      18.073  10.861  17.215  1.00  0.00     0.049 A 
HETATM    4  C6  UNL     1      18.400  11.427  16.016  1.00  0.00     0.032 A 
HETATM    5  C5  UNL     1      18.634  10.640  14.922  1.00  0.00     0.032 A 
HETATM    6  C4  UNL     1      18.543   9.271  15.007  1.00  0.00     0.049 A 
HETATM    7  C20 UNL     1      18.211   8.689  16.222  1.00  0.00     0.032 A 
HETATM    8  C19 UNL     1      17.979   9.491  17.316  1.00  0.00     0.032 A 
BRANCH   6   9
HETATM    9  N2  UNL     1      18.766   8.435  13.893  1.00  0.00    -0.192 N 
ATOM     10  H2  UNL     1      19.541   8.623  13.256  1.00  0.00     0.184 HD
BRANCH   9  11
HETATM   11  C3  UNL     1      17.985   7.435  13.687  1.00  0.00     0.684 A 
HETATM   12  N1  UNL     1      16.678   7.660  13.424  1.00  0.00    -0.167 N 
HETATM   13  C2  UNL     1      15.833   6.617  13.214  1.00  0.00     0.197 A 
ATOM     14  H1  UNL     1      16.325   8.617  13.383  1.00  0.00     0.186 HD
HETATM   15  C22 UNL     1      16.316   5.329  13.270  1.00  0.00     0.183 A 
HETATM   16  C21 UNL     1      17.656   5.108  13.540  1.00  0.00     0.152 A 
HETATM   17  F2  UNL     1      15.456   4.295  13.059  1.00  0.00    -0.200 F 
HETATM   18  N8  UNL     1      18.467   6.162  13.743  1.00  0.00    -0.199 N 
ATOM     19  H8  UNL     1      19.455   6.006  13.943  1.00  0.00     0.183 HD
BRANCH  13  20
HETATM   20  O1  UNL     1      14.494   6.830  12.943  1.00  0.00    -0.338 OA
HETATM   21  C1  UNL     1      13.674   7.666  13.713  1.00  0.00     0.211 C 
ENDBRANCH  13  20
ENDBRANCH   9  11
ENDBRANCH   6   9
ENDBRANCH   1   3
BRANCH   1  22
HETATM   22  C8  UNL     1      16.893  12.520  18.446  1.00  0.00     0.683 A 
HETATM   23  N4  UNL     1      15.820  12.255  19.229  1.00  0.00    -0.186 N 
HETATM   24  C9  UNL     1      14.811  13.134  19.369  1.00  0.00     0.117 A 
ATOM     25  H4  UNL     1      15.776  11.366  19.726  1.00  0.00     0.184 HD
HETATM   26  C17 UNL     1      14.881  14.335  18.694  1.00  0.00     0.161 A 
HETATM   27  F1  UNL     1      13.871  15.228  18.825  1.00  0.00    -0.202 F 
HETATM   28  C18 UNL     1      15.970  14.613  17.894  1.00  0.00     0.150 A 
HETATM   29  N7  UNL     1      16.960  13.703  17.782  1.00  0.00    -0.199 N 
ATOM     30  H7  UNL     1      17.768  13.905  17.192  1.00  0.00     0.183 HD
BRANCH  24  31
HETATM   31  C10 UNL     1      13.644  12.852  20.210  1.00  0.00     0.079 A 
HETATM   32  C11 UNL     1      12.632  12.001  19.842  1.00  0.00     0.121 A 
HETATM   33  N5  UNL     1      11.711  11.966  20.842  1.00  0.00    -0.353 N 
HETATM   34  C12 UNL     1      12.153  12.787  21.813  1.00  0.00     0.089 A 
ATOM     35  H5  UNL     1      10.849  11.421  20.855  1.00  0.00     0.166 HD
HETATM   36  N6  UNL     1      13.333  13.317  21.409  1.00  0.00    -0.342 N 
ATOM     37  H6  UNL     1      13.896  13.975  21.948  1.00  0.00     0.167 HD
BRANCH  34  38
HETATM   38  C13 UNL     1      11.513  13.099  23.116  1.00  0.00     0.007 C 
HETATM   39  C14 UNL     1      12.294  12.396  24.211  1.00  0.00     0.022 C 
HETATM   40  C15 UNL     1      10.095  12.618  23.194  1.00  0.00     0.022 C 
HETATM   41  C16 UNL     1      11.644  14.585  23.351  1.00  0.00     0.022 C 
ENDBRANCH  34  38
ENDBRANCH  24  31
ENDBRANCH   1  22
TORSDOF 7
ENDMDL
MODEL 5
REMARK VINA RESULT: -10.195427542      2.321      3.302
REMARK  7 active torsions:
REMARK  status: ('A' for Active; 'I' for Inactive)
REMARK    1  A    between atoms: O1_2  and  C2_3 
REMARK    2  A    between atoms: C3_6  and  N2_7 
REMARK    3  A    between atoms: N2_7  and  C4_9 
REMARK    4  A    between atoms: C7_12  and  N3_13 
REMARK    5  A    between atoms: N3_13  and  C8_15 
REMARK    6  A    between atoms: C9_18  and  C10_19 
REMARK    7  A    between atoms: C12_23  and  C13_24 
ROOT
HETATM    1  N3  UNL     1      16.872  12.092  19.152  1.00  0.00    -0.192 N 
ATOM      2  H3  UNL     1      17.544  12.539  19.776  1.00  0.00     0.184 HD
ENDROOT
BRANCH   1   3
HETATM    3  C7  UNL     1      15.529  12.090  19.551  1.00  0.00     0.049 A 
HETATM    4  C6  UNL     1      14.591  12.811  18.867  1.00  0.00     0.032 A 
HETATM    5  C5  UNL     1      13.285  12.804  19.271  1.00  0.00     0.032 A 
HETATM    6  C4  UNL     1      12.891  12.077  20.370  1.00  0.00     0.049 A 
HETATM    7  C20 UNL     1      13.838  11.343  21.069  1.00  0.00     0.032 A 
HETATM    8  C19 UNL     1      15.150  11.357  20.653  1.00  0.00     0.032 A 
BRANCH   6   9
HETATM    9  N2  UNL     1      11.554  12.062  20.817  1.00  0.00    -0.192 N 
ATOM     10  H2  UNL     1      10.813  11.706  20.212  1.00  0.00     0.184 HD
BRANCH   9  11
HETATM   11  C3  UNL     1      11.276  12.500  21.993  1.00  0.00     0.684 A 
HETATM   12  N1  UNL     1      10.142  12.087  22.602  1.00  0.00    -0.167 N 
HETATM   13  C2  UNL     1       9.825  12.547  23.841  1.00  0.00     0.197 A 
ATOM     14  H1  UNL     1       9.522  11.429  22.130  1.00  0.00     0.186 HD
HETATM   15  C22 UNL     1      10.665  13.435  24.473  1.00  0.00     0.183 A 
HETATM   16  C21 UNL     1      11.825  13.853  23.841  1.00  0.00     0.152 A 
HETATM   17  F2  UNL     1      10.331  13.887  25.713  1.00  0.00    -0.200 F 
HETATM   18  N8  UNL     1      12.111  13.379  22.615  1.00  0.00    -0.199 N 
ATOM     19  H8  UNL     1      12.963  13.683  22.144  1.00  0.00     0.183 HD
BRANCH  13  20
HETATM   20  O1  UNL     1       8.669  12.134  24.477  1.00  0.00    -0.338 OA
HETATM   21  C1  UNL     1       8.420  10.804  24.842  1.00  0.00     0.211 C 
ENDBRANCH  13  20
ENDBRANCH   9  11
ENDBRANCH   6   9
ENDBRANCH   1   3
BRANCH   1  22
HETATM   22  C8  UNL     1      17.323  11.582  18.075  1.00  0.00     0.683 A 
HETATM   23  N4  UNL     1      16.843  10.388  17.649  1.00  0.00    -0.186 N 
HETATM   24  C9  UNL     1      17.288   9.808  16.519  1.00  0.00     0.117 A 
ATOM     25  H4  UNL     1      16.125   9.918  18.199  1.00  0.00     0.184 HD
HETATM   26  C17 UNL     1      18.258  10.453  15.781  1.00  0.00     0.161 A 
HETATM   27  F1  UNL     1      18.715   9.878  14.644  1.00  0.00    -0.202 F 
HETATM   28  C18 UNL     1      18.753  11.668  16.208  1.00  0.00     0.150 A 
HETATM   29  N7  UNL     1      18.279  12.215  17.347  1.00  0.00    -0.199 N 
ATOM     30  H7  UNL     1      18.642  13.114  17.664  1.00  0.00     0.183 HD
BRANCH  24  31
HETATM   31  C10 UNL     1      16.777   8.515  16.056  1.00  0.00     0.079 A 
HETATM   32  C11 UNL     1      16.918   7.346  16.762  1.00  0.00     0.121 A 
HETATM   33  N5  UNL     1      16.337   6.341  16.055  1.00  0.00    -0.353 N 
HETATM   34  C12 UNL     1      15.845   6.885  14.927  1.00  0.00     0.089 A 
ATOM     35  H5  UNL     1      16.283   5.359  16.328  1.00  0.00     0.166 HD
HETATM   36  N6  UNL     1      16.123   8.212  14.947  1.00  0.00    -0.342 N 
ATOM     37  H6  UNL     1      15.866   8.876  14.216  1.00  0.00     0.167 HD
BRANCH  34  38
HETATM   38  C13 UNL     1      15.118   6.212  13.822  1.00  0.00     0.007 C 
HETATM   39  C14 UNL     1      14.162   7.215  13.200  1.00  0.00     0.022 C 
HETATM   40  C15 UNL     1      14.303   5.045  14.292  1.00  0.00     0.022 C 
HETATM   41  C16 UNL     1      16.129   5.837  12.764  1.00  0.00     0.022 C 
ENDBRANCH  34  38
ENDBRANCH  24  31
ENDBRANCH   1  22
TORSDOF 7
ENDMDL
