MODEL 1
REMARK VINA RESULT: -10.297118356      0.000      0.000
REMARK  7 active torsions:
REMARK  status: ('A' for Active; 'I' for Inactive)
REMARK    1  A    between atoms: O1_1  and  C1_3 
REMARK    2  A    between atoms: C2_6  and  N2_7 
REMARK    3  A    between atoms: N2_7  and  C3_9 
REMARK    4  A    between atoms: C5_16  and  N5_17 
REMARK    5  A    between atoms: N5_17  and  N6_19 
REMARK    6  A    between atoms: C6_21  and  C7_22 
REMARK    7  A    between atoms: C15_33  and  C16_34 
ROOT
HETATM    1  C3  UNL     1      17.666  12.452  17.177  1.00  0.00     0.700 A 
HETATM    2  N3  UNL     1      18.382  12.669  16.064  1.00  0.00    -0.164 N 
ATOM      3  H3  UNL     1      18.509  13.623  15.730  1.00  0.00     0.186 HD
HETATM    4  C4  UNL     1      18.945  11.639  15.371  1.00  0.00     0.208 A 
HETATM    5 CL1  UNL     1      19.870  11.982  13.926  1.00  0.00    -0.044 Cl
HETATM    6  N4  UNL     1      18.768  10.384  15.822  1.00  0.00    -0.163 N 
ATOM      7  H4  UNL     1      19.184   9.604  15.312  1.00  0.00     0.187 HD
HETATM    8  C5  UNL     1      18.060  10.141  16.926  1.00  0.00     0.713 A 
HETATM    9  N7  UNL     1      17.512  11.194  17.595  1.00  0.00    -0.021 N 
ATOM     10  H7  UNL     1      16.968  11.016  18.440  1.00  0.00     0.203 HD
ENDROOT
BRANCH   1  11
HETATM   11  N2  UNL     1      17.107  13.556  17.855  1.00  0.00    -0.176 N 
ATOM     12  H2  UNL     1      17.485  14.483  17.658  1.00  0.00     0.186 HD
BRANCH  11  13
HETATM   13  C2  UNL     1      16.147  13.460  18.708  1.00  0.00     0.122 A 
HETATM   14  N1  UNL     1      14.990  14.104  18.484  1.00  0.00    -0.322 N 
HETATM   15  C1  UNL     1      13.954  14.022  19.370  1.00  0.00     0.152 A 
ATOM     16  H1  UNL     1      14.883  14.664  17.639  1.00  0.00     0.169 HD
HETATM   17  C15 UNL     1      14.040  13.282  20.529  1.00  0.00     0.025 A 
HETATM   18  C14 UNL     1      15.233  12.607  20.779  1.00  0.00     0.020 A 
HETATM   19  C13 UNL     1      16.245  12.718  19.861  1.00  0.00     0.050 A 
BRANCH  15  20
HETATM   20  O1  UNL     1      12.792  14.732  19.041  1.00  0.00    -0.345 OA
ATOM     21  H1  UNL     1      12.132  14.804  19.721  1.00  0.00     0.219 HD
ENDBRANCH  15  20
BRANCH  17  22
HETATM   22  C16 UNL     1      12.917  13.209  21.455  1.00  0.00    -0.021 A 
HETATM   23  C17 UNL     1      12.709  14.257  22.318  1.00  0.00     0.015 A 
HETATM   24  C18 UNL     1      11.657  14.247  23.227  1.00  0.00     0.043 A 
HETATM   25  C19 UNL     1      10.787  13.178  23.289  1.00  0.00     0.116 A 
HETATM   26  F1  UNL     1       9.759  13.179  24.186  1.00  0.00    -0.206 F 
HETATM   27  C20 UNL     1      10.987  12.122  22.428  1.00  0.00     0.043 A 
HETATM   28  C21 UNL     1      12.048  12.148  21.522  1.00  0.00     0.015 A 
ENDBRANCH  17  22
ENDBRANCH  11  13
ENDBRANCH   1  11
BRANCH   8  29
HETATM   29  N5  UNL     1      17.902   8.926  17.345  1.00  0.00    -0.132 N 
ATOM     30  H5  UNL     1      17.108   8.386  17.002  1.00  0.00     0.205 HD
BRANCH  29  31
HETATM   31  N6  UNL     1      18.746   8.352  18.216  1.00  0.00    -0.297 N 
HETATM   32  C6  UNL     1      18.680   8.208  19.450  1.00  0.00     0.119 C 
ATOM     33  H6  UNL     1      19.590   7.967  17.792  1.00  0.00     0.186 HD
BRANCH  32  34
HETATM   34  C7  UNL     1      17.649   8.621  20.356  1.00  0.00    -0.019 A 
HETATM   35  C8  UNL     1      16.331   8.425  20.151  1.00  0.00     0.014 A 
HETATM   36  C9  UNL     1      15.394   8.866  21.097  1.00  0.00     0.024 A 
HETATM   37  C10 UNL     1      15.770   9.505  22.249  1.00  0.00     0.034 A 
HETATM   38 CL2  UNL     1      14.576  10.042  23.407  1.00  0.00    -0.084 Cl
HETATM   39  C11 UNL     1      17.114   9.700  22.448  1.00  0.00     0.024 A 
HETATM   40  C12 UNL     1      18.040   9.273  21.532  1.00  0.00     0.014 A 
ENDBRANCH  32  34
ENDBRANCH  29  31
ENDBRANCH   8  29
TORSDOF 7
ENDMDL
MODEL 2
REMARK VINA RESULT: -10.003419625      4.222      8.367
REMARK  7 active torsions:
REMARK  status: ('A' for Active; 'I' for Inactive)
REMARK    1  A    between atoms: O1_1  and  C1_3 
REMARK    2  A    between atoms: C2_6  and  N2_7 
REMARK    3  A    between atoms: N2_7  and  C3_9 
REMARK    4  A    between atoms: C5_16  and  N5_17 
REMARK    5  A    between atoms: N5_17  and  N6_19 
REMARK    6  A    between atoms: C6_21  and  C7_22 
REMARK    7  A    between atoms: C15_33  and  C16_34 
ROOT
HETATM    1  C3  UNL     1      13.975  10.869  22.630  1.00  0.00     0.700 A 
HETATM    2  N3  UNL     1      13.279  11.326  23.681  1.00  0.00    -0.164 N 
ATOM      3  H3  UNL     1      13.477  10.957  24.610  1.00  0.00     0.186 HD
HETATM    4  C4  UNL     1      12.312  12.275  23.531  1.00  0.00     0.208 A 
HETATM    5 CL1  UNL     1      11.436  12.835  24.938  1.00  0.00    -0.044 Cl
HETATM    6  N4  UNL     1      12.061  12.753  22.299  1.00  0.00    -0.163 N 
ATOM      7  H4  UNL     1      11.339  13.463  22.174  1.00  0.00     0.187 HD
HETATM    8  C5  UNL     1      12.739  12.315  21.238  1.00  0.00     0.713 A 
HETATM    9  N7  UNL     1      13.699  11.366  21.423  1.00  0.00    -0.021 N 
ATOM     10  H7  UNL     1      14.222  11.025  20.615  1.00  0.00     0.203 HD
ENDROOT
BRANCH   1  11
HETATM   11  N2  UNL     1      14.965   9.886  22.843  1.00  0.00    -0.176 N 
ATOM     12  H2  UNL     1      15.091   9.528  23.790  1.00  0.00     0.186 HD
BRANCH  11  13
HETATM   13  C2  UNL     1      15.719   9.416  21.910  1.00  0.00     0.122 A 
HETATM   14  N1  UNL     1      15.317   8.346  21.205  1.00  0.00    -0.322 N 
HETATM   15  C1  UNL     1      16.093   7.824  20.210  1.00  0.00     0.152 A 
ATOM     16  H1  UNL     1      14.417   7.915  21.416  1.00  0.00     0.169 HD
HETATM   17  C15 UNL     1      17.317   8.363  19.880  1.00  0.00     0.025 A 
HETATM   18  C14 UNL     1      17.752   9.473  20.601  1.00  0.00     0.020 A 
HETATM   19  C13 UNL     1      16.939   9.962  21.590  1.00  0.00     0.050 A 
BRANCH  15  20
HETATM   20  O1  UNL     1      15.580   6.707  19.538  1.00  0.00    -0.345 OA
ATOM     21  H1  UNL     1      16.216   6.120  19.145  1.00  0.00     0.219 HD
ENDBRANCH  15  20
BRANCH  17  22
HETATM   22  C16 UNL     1      18.124   7.787  18.811  1.00  0.00    -0.021 A 
HETATM   23  C17 UNL     1      18.159   8.427  17.597  1.00  0.00     0.015 A 
HETATM   24  C18 UNL     1      18.907   7.926  16.537  1.00  0.00     0.043 A 
HETATM   25  C19 UNL     1      19.639   6.766  16.675  1.00  0.00     0.116 A 
HETATM   26  F1  UNL     1      20.369   6.284  15.628  1.00  0.00    -0.206 F 
HETATM   27  C20 UNL     1      19.611   6.116  17.889  1.00  0.00     0.043 A 
HETATM   28  C21 UNL     1      18.855   6.631  18.943  1.00  0.00     0.015 A 
ENDBRANCH  17  22
ENDBRANCH  11  13
ENDBRANCH   1  11
BRANCH   8  29
HETATM   29  N5  UNL     1      12.483  12.787  20.059  1.00  0.00    -0.132 N 
ATOM     30  H5  UNL     1      12.029  12.183  19.375  1.00  0.00     0.205 HD
BRANCH  29  31
HETATM   31  N6  UNL     1      12.794  14.045  19.708  1.00  0.00    -0.297 N 
HETATM   32  C6  UNL     1      13.800  14.515  19.147  1.00  0.00     0.119 C 
ATOM     33  H6  UNL     1      12.081  14.735  19.941  1.00  0.00     0.186 HD
BRANCH  32  34
HETATM   34  C7  UNL     1      14.978  13.840  18.686  1.00  0.00    -0.019 A 
HETATM   35  C8  UNL     1      15.264  12.548  18.942  1.00  0.00     0.014 A 
HETATM   36  C9  UNL     1      16.445  11.973  18.447  1.00  0.00     0.024 A 
HETATM   37  C10 UNL     1      17.342  12.687  17.696  1.00  0.00     0.034 A 
HETATM   38 CL2  UNL     1      18.803  11.940  17.095  1.00  0.00    -0.084 Cl
HETATM   39  C11 UNL     1      17.040  14.002  17.442  1.00  0.00     0.024 A 
HETATM   40  C12 UNL     1      15.890  14.575  17.919  1.00  0.00     0.014 A 
ENDBRANCH  32  34
ENDBRANCH  29  31
ENDBRANCH   8  29
TORSDOF 7
ENDMDL
MODEL 3
REMARK VINA RESULT: -9.890309631      4.420      8.225
REMARK  7 active torsions:
REMARK  status: ('A' for Active; 'I' for Inactive)
REMARK    1  A    between atoms: O1_1  and  C1_3 
REMARK    2  A    between atoms: C2_6  and  N2_7 
REMARK    3  A    between atoms: N2_7  and  C3_9 
REMARK    4  A    between atoms: C5_16  and  N5_17 
REMARK    5  A    between atoms: N5_17  and  N6_19 
REMARK    6  A    between atoms: C6_21  and  C7_22 
REMARK    7  A    between atoms: C15_33  and  C16_34 
ROOT
HETATM    1  C3  UNL     1      17.691   8.553  20.339  1.00  0.00     0.700 A 
HETATM    2  N3  UNL     1      17.112   7.347  20.254  1.00  0.00    -0.164 N 
ATOM      3  H3  UNL     1      17.490   6.657  19.606  1.00  0.00     0.186 HD
HETATM    4  C4  UNL     1      16.029   7.025  21.017  1.00  0.00     0.208 A 
HETATM    5 CL1  UNL     1      15.316   5.434  20.864  1.00  0.00    -0.044 Cl
HETATM    6  N4  UNL     1      15.541   7.946  21.866  1.00  0.00    -0.163 N 
ATOM      7  H4  UNL     1      14.730   7.718  22.442  1.00  0.00     0.187 HD
HETATM    8  C5  UNL     1      16.097   9.154  21.970  1.00  0.00     0.713 A 
HETATM    9  N7  UNL     1      17.179   9.442  21.192  1.00  0.00    -0.021 N 
ATOM     10  H7  UNL     1      17.611  10.364  21.266  1.00  0.00     0.203 HD
ENDROOT
BRANCH   1  11
HETATM   11  N2  UNL     1      18.810   8.832  19.525  1.00  0.00    -0.176 N 
ATOM     12  H2  UNL     1      19.739   8.723  19.932  1.00  0.00     0.186 HD
BRANCH  11  13
HETATM   13  C2  UNL     1      18.725   9.216  18.299  1.00  0.00     0.122 A 
HETATM   14  N1  UNL     1      18.929   8.332  17.308  1.00  0.00    -0.322 N 
HETATM   15  C1  UNL     1      18.845   8.708  15.998  1.00  0.00     0.152 A 
ATOM     16  H1  UNL     1      19.150   7.363  17.538  1.00  0.00     0.169 HD
HETATM   17  C15 UNL     1      18.551  10.002  15.627  1.00  0.00     0.025 A 
HETATM   18  C14 UNL     1      18.337  10.934  16.640  1.00  0.00     0.020 A 
HETATM   19  C13 UNL     1      18.430  10.510  17.940  1.00  0.00     0.050 A 
BRANCH  15  20
HETATM   20  O1  UNL     1      19.076   7.708  15.044  1.00  0.00    -0.345 OA
ATOM     21  H1  UNL     1      19.177   7.996  14.144  1.00  0.00     0.219 HD
ENDBRANCH  15  20
BRANCH  17  22
HETATM   22  C16 UNL     1      18.466  10.375  14.220  1.00  0.00    -0.021 A 
HETATM   23  C17 UNL     1      17.300  10.118  13.542  1.00  0.00     0.015 A 
HETATM   24  C18 UNL     1      17.158  10.448  12.198  1.00  0.00     0.043 A 
HETATM   25  C19 UNL     1      18.189  11.045  11.505  1.00  0.00     0.116 A 
HETATM   26  F1  UNL     1      18.037  11.364  10.187  1.00  0.00    -0.206 F 
HETATM   27  C20 UNL     1      19.362  11.308  12.175  1.00  0.00     0.043 A 
HETATM   28  C21 UNL     1      19.489  10.970  13.524  1.00  0.00     0.015 A 
ENDBRANCH  17  22
ENDBRANCH  11  13
ENDBRANCH   1  11
BRANCH   8  29
HETATM   29  N5  UNL     1      15.613  10.027  22.794  1.00  0.00    -0.132 N 
ATOM     30  H5  UNL     1      16.201  10.364  23.556  1.00  0.00     0.205 HD
BRANCH  29  31
HETATM   31  N6  UNL     1      14.364  10.506  22.679  1.00  0.00    -0.297 N 
HETATM   32  C6  UNL     1      13.874  11.340  21.897  1.00  0.00     0.119 C 
ATOM     33  H6  UNL     1      13.702  10.117  23.350  1.00  0.00     0.186 HD
BRANCH  32  34
HETATM   34  C7  UNL     1      14.508  12.074  20.842  1.00  0.00    -0.019 A 
HETATM   35  C8  UNL     1      14.893  11.538  19.666  1.00  0.00     0.014 A 
HETATM   36  C9  UNL     1      15.508  12.338  18.691  1.00  0.00     0.024 A 
HETATM   37  C10 UNL     1      15.739  13.674  18.887  1.00  0.00     0.034 A 
HETATM   38 CL2  UNL     1      16.507  14.641  17.650  1.00  0.00    -0.084 Cl
HETATM   39  C11 UNL     1      15.343  14.209  20.087  1.00  0.00     0.024 A 
HETATM   40  C12 UNL     1      14.741  13.439  21.048  1.00  0.00     0.014 A 
ENDBRANCH  32  34
ENDBRANCH  29  31
ENDBRANCH   8  29
TORSDOF 7
ENDMDL
MODEL 4
REMARK VINA RESULT: -9.870545621      4.520      6.461
REMARK  7 active torsions:
REMARK  status: ('A' for Active; 'I' for Inactive)
REMARK    1  A    between atoms: O1_1  and  C1_3 
REMARK    2  A    between atoms: C2_6  and  N2_7 
REMARK    3  A    between atoms: N2_7  and  C3_9 
REMARK    4  A    between atoms: C5_16  and  N5_17 
REMARK    5  A    between atoms: N5_17  and  N6_19 
REMARK    6  A    between atoms: C6_21  and  C7_22 
REMARK    7  A    between atoms: C15_33  and  C16_34 
ROOT
HETATM    1  C3  UNL     1      19.527  12.538  15.636  1.00  0.00     0.700 A 
HETATM    2  N3  UNL     1      20.734  13.115  15.544  1.00  0.00    -0.164 N 
ATOM      3  H3  UNL     1      21.104  13.628  16.342  1.00  0.00     0.186 HD
HETATM    4  C4  UNL     1      21.475  13.029  14.403  1.00  0.00     0.208 A 
HETATM    5 CL1  UNL     1      23.044  13.801  14.339  1.00  0.00    -0.044 Cl
HETATM    6  N4  UNL     1      20.972  12.349  13.356  1.00  0.00    -0.163 N 
ATOM      7  H4  UNL     1      21.517  12.278  12.496  1.00  0.00     0.187 HD
HETATM    8  C5  UNL     1      19.775  11.766  13.422  1.00  0.00     0.713 A 
HETATM    9  N7  UNL     1      19.061  11.872  14.578  1.00  0.00    -0.021 N 
ATOM     10  H7  UNL     1      18.143  11.429  14.636  1.00  0.00     0.203 HD
ENDROOT
BRANCH   1  11
HETATM   11  N2  UNL     1      18.804  12.659  16.842  1.00  0.00    -0.176 N 
ATOM     12  H2  UNL     1      18.694  13.589  17.246  1.00  0.00     0.186 HD
BRANCH  11  13
HETATM   13  C2  UNL     1      18.276  11.660  17.462  1.00  0.00     0.122 A 
HETATM   14  N1  UNL     1      18.934  10.491  17.525  1.00  0.00    -0.322 N 
HETATM   15  C1  UNL     1      18.401   9.415  18.175  1.00  0.00     0.152 A 
ATOM     16  H1  UNL     1      19.848  10.406  17.081  1.00  0.00     0.169 HD
HETATM   17  C15 UNL     1      17.171   9.470  18.793  1.00  0.00     0.025 A 
HETATM   18  C14 UNL     1      16.472  10.675  18.738  1.00  0.00     0.020 A 
HETATM   19  C13 UNL     1      17.048  11.728  18.075  1.00  0.00     0.050 A 
BRANCH  15  20
HETATM   20  O1  UNL     1      19.171   8.244  18.181  1.00  0.00    -0.345 OA
ATOM     21  H1  UNL     1      18.698   7.426  18.081  1.00  0.00     0.219 HD
ENDBRANCH  15  20
BRANCH  17  22
HETATM   22  C16 UNL     1      16.627   8.306  19.482  1.00  0.00    -0.021 A 
HETATM   23  C17 UNL     1      16.594   8.311  20.854  1.00  0.00     0.015 A 
HETATM   24  C18 UNL     1      16.090   7.230  21.569  1.00  0.00     0.043 A 
HETATM   25  C19 UNL     1      15.606   6.116  20.916  1.00  0.00     0.116 A 
HETATM   26  F1  UNL     1      15.115   5.061  21.628  1.00  0.00    -0.206 F 
HETATM   27  C20 UNL     1      15.635   6.100  19.540  1.00  0.00     0.043 A 
HETATM   28  C21 UNL     1      16.145   7.193  18.837  1.00  0.00     0.015 A 
ENDBRANCH  17  22
ENDBRANCH  11  13
ENDBRANCH   1  11
BRANCH   8  29
HETATM   29  N5  UNL     1      19.308  11.116  12.404  1.00  0.00    -0.132 N 
ATOM     30  H5  UNL     1      19.937  10.513  11.875  1.00  0.00     0.205 HD
BRANCH  29  31
HETATM   31  N6  UNL     1      18.025  11.208  12.022  1.00  0.00    -0.297 N 
HETATM   32  C6  UNL     1      17.032  10.514  12.307  1.00  0.00     0.119 C 
ATOM     33  H6  UNL     1      17.829  11.982  11.387  1.00  0.00     0.186 HD
BRANCH  32  34
HETATM   34  C7  UNL     1      16.945   9.365  13.158  1.00  0.00    -0.019 A 
HETATM   35  C8  UNL     1      16.913   9.415  14.504  1.00  0.00     0.014 A 
HETATM   36  C9  UNL     1      16.827   8.232  15.255  1.00  0.00     0.024 A 
HETATM   37  C10 UNL     1      16.772   6.998  14.663  1.00  0.00     0.034 A 
HETATM   38 CL2  UNL     1      16.665   5.545  15.629  1.00  0.00    -0.084 Cl
HETATM   39  C11 UNL     1      16.806   6.959  13.292  1.00  0.00     0.024 A 
HETATM   40  C12 UNL     1      16.889   8.106  12.547  1.00  0.00     0.014 A 
ENDBRANCH  32  34
ENDBRANCH  29  31
ENDBRANCH   8  29
TORSDOF 7
ENDMDL
MODEL 5
REMARK VINA RESULT: -9.721093805      2.896      5.641
REMARK  7 active torsions:
REMARK  status: ('A' for Active; 'I' for Inactive)
REMARK    1  A    between atoms: O1_1  and  C1_3 
REMARK    2  A    between atoms: C2_6  and  N2_7 
REMARK    3  A    between atoms: N2_7  and  C3_9 
REMARK    4  A    between atoms: C5_16  and  N5_17 
REMARK    5  A    between atoms: N5_17  and  N6_19 
REMARK    6  A    between atoms: C6_21  and  C7_22 
REMARK    7  A    between atoms: C15_33  and  C16_34 
ROOT
HETATM    1  C3  UNL     1      19.164   7.131  18.824  1.00  0.00     0.700 A 
HETATM    2  N3  UNL     1      18.720   5.889  19.064  1.00  0.00    -0.164 N 
ATOM      3  H3  UNL     1      18.459   5.627  20.013  1.00  0.00     0.186 HD
HETATM    4  C4  UNL     1      18.610   4.970  18.063  1.00  0.00     0.208 A 
HETATM    5 CL1  UNL     1      18.023   3.364  18.434  1.00  0.00    -0.044 Cl
HETATM    6  N4  UNL     1      18.959   5.330  16.814  1.00  0.00    -0.163 N 
ATOM      7  H4  UNL     1      18.882   4.652  16.056  1.00  0.00     0.187 HD
HETATM    8  C5  UNL     1      19.404   6.559  16.549  1.00  0.00     0.713 A 
HETATM    9  N7  UNL     1      19.501   7.453  17.574  1.00  0.00    -0.021 N 
ATOM     10  H7  UNL     1      19.841   8.395  17.379  1.00  0.00     0.203 HD
ENDROOT
BRANCH   1  11
HETATM   11  N2  UNL     1      19.257   8.042  19.899  1.00  0.00    -0.176 N 
ATOM     12  H2  UNL     1      20.098   8.021  20.475  1.00  0.00     0.186 HD
BRANCH  11  13
HETATM   13  C2  UNL     1      18.339   8.897  20.192  1.00  0.00     0.122 A 
HETATM   14  N1  UNL     1      17.649   9.497  19.208  1.00  0.00    -0.322 N 
HETATM   15  C1  UNL     1      16.670  10.408  19.487  1.00  0.00     0.152 A 
ATOM     16  H1  UNL     1      17.859   9.269  18.237  1.00  0.00     0.169 HD
HETATM   17  C15 UNL     1      16.343  10.756  20.779  1.00  0.00     0.025 A 
HETATM   18  C14 UNL     1      17.048  10.144  21.813  1.00  0.00     0.020 A 
HETATM   19  C13 UNL     1      18.021   9.236  21.485  1.00  0.00     0.050 A 
BRANCH  15  20
HETATM   20  O1  UNL     1      16.012  10.975  18.388  1.00  0.00    -0.345 OA
ATOM     21  H1  UNL     1      15.592  11.815  18.533  1.00  0.00     0.219 HD
ENDBRANCH  15  20
BRANCH  17  22
HETATM   22  C16 UNL     1      15.292  11.730  21.048  1.00  0.00    -0.021 A 
HETATM   23  C17 UNL     1      14.096  11.283  21.552  1.00  0.00     0.015 A 
HETATM   24  C18 UNL     1      13.053  12.162  21.827  1.00  0.00     0.043 A 
HETATM   25  C19 UNL     1      13.192  13.515  21.599  1.00  0.00     0.116 A 
HETATM   26  F1  UNL     1      12.162  14.367  21.871  1.00  0.00    -0.206 F 
HETATM   27  C20 UNL     1      14.387  13.974  21.092  1.00  0.00     0.043 A 
HETATM   28  C21 UNL     1      15.423  13.079  20.822  1.00  0.00     0.015 A 
ENDBRANCH  17  22
ENDBRANCH  11  13
ENDBRANCH   1  11
BRANCH   8  29
HETATM   29  N5  UNL     1      19.736   6.887  15.341  1.00  0.00    -0.132 N 
ATOM     30  H5  UNL     1      20.723   6.999  15.115  1.00  0.00     0.205 HD
BRANCH  29  31
HETATM   31  N6  UNL     1      18.824   7.083  14.376  1.00  0.00    -0.297 N 
HETATM   32  C6  UNL     1      18.307   8.126  13.936  1.00  0.00     0.119 C 
ATOM     33  H6  UNL     1      18.497   6.229  13.925  1.00  0.00     0.186 HD
BRANCH  32  34
HETATM   34  C7  UNL     1      18.531   9.485  14.333  1.00  0.00    -0.019 A 
HETATM   35  C8  UNL     1      19.139  10.412  13.566  1.00  0.00     0.014 A 
HETATM   36  C9  UNL     1      19.313  11.721  14.042  1.00  0.00     0.024 A 
HETATM   37  C10 UNL     1      18.881  12.106  15.283  1.00  0.00     0.034 A 
HETATM   38 CL2  UNL     1      19.114  13.745  15.844  1.00  0.00    -0.084 Cl
HETATM   39  C11 UNL     1      18.263  11.154  16.055  1.00  0.00     0.024 A 
HETATM   40  C12 UNL     1      18.087   9.873  15.602  1.00  0.00     0.014 A 
ENDBRANCH  32  34
ENDBRANCH  29  31
ENDBRANCH   8  29
TORSDOF 7
ENDMDL
