MODEL 1
REMARK VINA RESULT: -10.230646945      0.000      0.000
REMARK  7 active torsions:
REMARK  status: ('A' for Active; 'I' for Inactive)
REMARK    1  A    between atoms: N1_1  and  C1_4 
REMARK    2  A    between atoms: C2_7  and  N3_8 
REMARK    3  A    between atoms: C6_12  and  O1_13 
REMARK    4  A    between atoms: O1_13  and  C7_14 
REMARK    5  A    between atoms: C11_18  and  N4_19 
REMARK    6  A    between atoms: N4_19  and  C12_21 
REMARK    7  A    between atoms: C13_24  and  C14_25 
ROOT
HETATM    1  C7  UNL     1      19.005  11.213  13.810  1.00  0.00     0.080 A 
HETATM    2  C8  UNL     1      20.161  11.930  13.598  1.00  0.00     0.037 A 
HETATM    3  C9  UNL     1      20.683  12.780  14.551  1.00  0.00     0.005 A 
HETATM    4  C10 UNL     1      20.047  12.924  15.741  1.00  0.00     0.029 A 
HETATM    5  C11 UNL     1      18.876  12.236  16.036  1.00  0.00     0.036 A 
HETATM    6  C21 UNL     1      18.399  11.387  15.019  1.00  0.00     0.066 A 
ENDROOT
BRANCH   5   7
HETATM    7  N4  UNL     1      18.262  12.400  17.218  1.00  0.00    -0.342 N 
ATOM      8  H4  UNL     1      19.036  12.730  17.794  1.00  0.00     0.167 HD
BRANCH   7   9
HETATM    9  C12 UNL     1      17.367  12.400  18.019  1.00  0.00     0.119 A 
HETATM   10  N5  UNL     1      16.618  13.551  18.212  1.00  0.00    -0.327 N 
HETATM   11  C13 UNL     1      15.615  13.660  19.065  1.00  0.00     0.149 A 
ATOM     12  H5  UNL     1      16.858  14.372  17.656  1.00  0.00     0.169 HD
HETATM   13  N6  UNL     1      15.300  12.577  19.797  1.00  0.00    -0.341 N 
HETATM   14  C15 UNL     1      15.978  11.424  19.669  1.00  0.00     0.049 A 
ATOM     15  H6  UNL     1      14.531  12.633  20.464  1.00  0.00     0.167 HD
HETATM   16  C16 UNL     1      15.646  10.305  20.432  1.00  0.00     0.054 A 
HETATM   17  C20 UNL     1      17.026  11.285  18.788  1.00  0.00     0.035 A 
HETATM   18  C17 UNL     1      16.323   9.104  20.325  1.00  0.00     0.036 A 
HETATM   19 CL1  UNL     1      15.898   7.703  21.287  1.00  0.00    -0.084 Cl
HETATM   20  C18 UNL     1      17.366   8.981  19.440  1.00  0.00     0.025 A 
HETATM   21  C19 UNL     1      17.712  10.078  18.675  1.00  0.00     0.019 A 
BRANCH  11  22
HETATM   22  C14 UNL     1      14.840  14.945  19.225  1.00  0.00     0.420 C 
HETATM   23  F1  UNL     1      13.489  14.716  19.243  1.00  0.00    -0.206 F 
HETATM   24  F2  UNL     1      15.198  15.844  18.229  1.00  0.00    -0.206 F 
ENDBRANCH  11  22
ENDBRANCH   7   9
ENDBRANCH   5   7
BRANCH   1  25
HETATM   25  O1  UNL     1      18.482  10.347  12.828  1.00  0.00    -0.293 OA
BRANCH  25  26
HETATM   26  C6  UNL     1      17.930   9.155  13.275  1.00  0.00     0.166 A 
HETATM   27  C5  UNL     1      16.604   8.823  13.031  1.00  0.00     0.105 A 
HETATM   28  C2  UNL     1      16.050   7.641  13.472  1.00  0.00     0.123 A 
HETATM   29  N2  UNL     1      16.842   6.805  14.154  1.00  0.00    -0.177 N 
HETATM   30  C1  UNL     1      18.128   7.086  14.411  1.00  0.00     0.679 A 
ATOM     31  H2  UNL     1      16.454   5.924  14.492  1.00  0.00     0.185 HD
HETATM   32  N7  UNL     1      18.643   8.241  13.972  1.00  0.00    -0.170 N 
ATOM     33  H7  UNL     1      19.623   8.442  14.174  1.00  0.00     0.186 HD
BRANCH  28  34
HETATM   34  N3  UNL     1      14.693   7.297  13.226  1.00  0.00    -0.364 N 
HETATM   35  C3  UNL     1      13.641   6.612  12.534  1.00  0.00     0.144 A 
HETATM   36  C4  UNL     1      13.279   7.514  13.656  1.00  0.00     0.144 A 
ENDBRANCH  28  34
BRANCH  30  37
HETATM   37  N1  UNL     1      18.838   6.227  15.080  1.00  0.00    -0.234 N 
ATOM     38  H12 UNL     1      18.618   5.231  15.082  1.00  0.00     0.174 HD
ATOM     39  H11 UNL     1      19.638   6.560  15.617  1.00  0.00     0.174 HD
ENDBRANCH  30  37
ENDBRANCH  25  26
ENDBRANCH   1  25
TORSDOF 7
ENDMDL
MODEL 2
REMARK VINA RESULT: -10.223122994      4.111      7.958
REMARK  7 active torsions:
REMARK  status: ('A' for Active; 'I' for Inactive)
REMARK    1  A    between atoms: N1_1  and  C1_4 
REMARK    2  A    between atoms: C2_7  and  N3_8 
REMARK    3  A    between atoms: C6_12  and  O1_13 
REMARK    4  A    between atoms: O1_13  and  C7_14 
REMARK    5  A    between atoms: C11_18  and  N4_19 
REMARK    6  A    between atoms: N4_19  and  C12_21 
REMARK    7  A    between atoms: C13_24  and  C14_25 
ROOT
HETATM    1  C7  UNL     1      14.059  13.410  19.149  1.00  0.00     0.080 A 
HETATM    2  C8  UNL     1      14.249  14.773  19.123  1.00  0.00     0.037 A 
HETATM    3  C9  UNL     1      15.403  15.344  18.625  1.00  0.00     0.005 A 
HETATM    4  C10 UNL     1      16.390  14.548  18.142  1.00  0.00     0.029 A 
HETATM    5  C11 UNL     1      16.277  13.164  18.131  1.00  0.00     0.036 A 
HETATM    6  C21 UNL     1      15.076  12.648  18.654  1.00  0.00     0.066 A 
ENDROOT
BRANCH   5   7
HETATM    7  N4  UNL     1      17.271  12.397  17.654  1.00  0.00    -0.342 N 
ATOM      8  H4  UNL     1      18.009  12.596  18.329  1.00  0.00     0.167 HD
BRANCH   7   9
HETATM    9  C12 UNL     1      17.831  11.622  16.927  1.00  0.00     0.119 A 
HETATM   10  N5  UNL     1      18.380  12.073  15.736  1.00  0.00    -0.327 N 
HETATM   11  C13 UNL     1      19.016  11.308  14.866  1.00  0.00     0.149 A 
ATOM     12  H5  UNL     1      18.287  13.065  15.516  1.00  0.00     0.169 HD
HETATM   13  N6  UNL     1      19.138  10.002  15.158  1.00  0.00    -0.341 N 
HETATM   14  C15 UNL     1      18.633   9.487  16.291  1.00  0.00     0.049 A 
ATOM     15  H6  UNL     1      19.623   9.389  14.503  1.00  0.00     0.167 HD
HETATM   16  C16 UNL     1      18.763   8.130  16.588  1.00  0.00     0.054 A 
HETATM   17  C20 UNL     1      17.967  10.262  17.214  1.00  0.00     0.035 A 
HETATM   18  C17 UNL     1      18.255   7.570  17.746  1.00  0.00     0.036 A 
HETATM   19 CL1  UNL     1      18.424   5.865  18.109  1.00  0.00    -0.084 Cl
HETATM   20  C18 UNL     1      17.594   8.357  18.656  1.00  0.00     0.025 A 
HETATM   21  C19 UNL     1      17.453   9.704  18.382  1.00  0.00     0.019 A 
BRANCH  11  22
HETATM   22  C14 UNL     1      19.591  11.865  13.586  1.00  0.00     0.420 C 
HETATM   23  F1  UNL     1      20.152  10.878  12.818  1.00  0.00    -0.206 F 
HETATM   24  F2  UNL     1      20.500  12.875  13.872  1.00  0.00    -0.206 F 
ENDBRANCH  11  22
ENDBRANCH   7   9
ENDBRANCH   5   7
BRANCH   1  25
HETATM   25  O1  UNL     1      12.876  12.839  19.660  1.00  0.00    -0.293 OA
BRANCH  25  26
HETATM   26  C6  UNL     1      12.920  12.373  20.966  1.00  0.00     0.166 A 
HETATM   27  C5  UNL     1      11.980  12.755  21.914  1.00  0.00     0.105 A 
HETATM   28  C2  UNL     1      12.017  12.296  23.212  1.00  0.00     0.123 A 
HETATM   29  N2  UNL     1      13.005  11.455  23.541  1.00  0.00    -0.177 N 
HETATM   30  C1  UNL     1      13.933  11.060  22.657  1.00  0.00     0.679 A 
ATOM     31  H2  UNL     1      13.054  11.103  24.497  1.00  0.00     0.185 HD
HETATM   32  N7  UNL     1      13.875  11.520  21.401  1.00  0.00    -0.170 N 
ATOM     33  H7  UNL     1      14.587  11.210  20.739  1.00  0.00     0.186 HD
BRANCH  28  34
HETATM   34  N3  UNL     1      11.058  12.685  24.187  1.00  0.00    -0.364 N 
HETATM   35  C3  UNL     1       9.739  13.023  24.634  1.00  0.00     0.144 A 
HETATM   36  C4  UNL     1      10.847  13.043  25.621  1.00  0.00     0.144 A 
ENDBRANCH  28  34
BRANCH  30  37
HETATM   37  N1  UNL     1      14.864  10.240  23.046  1.00  0.00    -0.234 N 
ATOM     38  H12 UNL     1      15.740  10.572  23.450  1.00  0.00     0.174 HD
ATOM     39  H11 UNL     1      14.714   9.237  22.943  1.00  0.00     0.174 HD
ENDBRANCH  30  37
ENDBRANCH  25  26
ENDBRANCH   1  25
TORSDOF 7
ENDMDL
MODEL 3
REMARK VINA RESULT: -10.158059194      3.221      4.426
REMARK  7 active torsions:
REMARK  status: ('A' for Active; 'I' for Inactive)
REMARK    1  A    between atoms: N1_1  and  C1_4 
REMARK    2  A    between atoms: C2_7  and  N3_8 
REMARK    3  A    between atoms: C6_12  and  O1_13 
REMARK    4  A    between atoms: O1_13  and  C7_14 
REMARK    5  A    between atoms: C11_18  and  N4_19 
REMARK    6  A    between atoms: N4_19  and  C12_21 
REMARK    7  A    between atoms: C13_24  and  C14_25 
ROOT
HETATM    1  C7  UNL     1      18.846   7.775  16.351  1.00  0.00     0.080 A 
HETATM    2  C8  UNL     1      19.049   6.565  16.978  1.00  0.00     0.037 A 
HETATM    3  C9  UNL     1      18.797   6.383  18.322  1.00  0.00     0.005 A 
HETATM    4  C10 UNL     1      18.334   7.421  19.063  1.00  0.00     0.029 A 
HETATM    5  C11 UNL     1      18.102   8.673  18.509  1.00  0.00     0.036 A 
HETATM    6  C21 UNL     1      18.380   8.789  17.133  1.00  0.00     0.066 A 
ENDROOT
BRANCH   5   7
HETATM    7  N4  UNL     1      17.650   9.687  19.264  1.00  0.00    -0.342 N 
ATOM      8  H4  UNL     1      18.496  10.248  19.360  1.00  0.00     0.167 HD
BRANCH   7   9
HETATM    9  C12 UNL     1      16.869  10.344  19.898  1.00  0.00     0.119 A 
HETATM   10  N5  UNL     1      16.303   9.817  21.048  1.00  0.00    -0.327 N 
HETATM   11  C13 UNL     1      15.435  10.452  21.817  1.00  0.00     0.149 A 
ATOM     12  H5  UNL     1      16.575   8.873  21.321  1.00  0.00     0.169 HD
HETATM   13  N6  UNL     1      15.078  11.696  21.456  1.00  0.00    -0.341 N 
HETATM   14  C15 UNL     1      15.581  12.278  20.354  1.00  0.00     0.049 A 
ATOM     15  H6  UNL     1      14.410  12.209  22.030  1.00  0.00     0.167 HD
HETATM   16  C16 UNL     1      15.206  13.570  19.985  1.00  0.00     0.054 A 
HETATM   17  C20 UNL     1      16.486  11.638  19.537  1.00  0.00     0.035 A 
HETATM   18  C17 UNL     1      15.706  14.196  18.858  1.00  0.00     0.036 A 
HETATM   19 CL1  UNL     1      15.229  15.819  18.404  1.00  0.00    -0.084 Cl
HETATM   20  C18 UNL     1      16.608  13.545  18.054  1.00  0.00     0.025 A 
HETATM   21  C19 UNL     1      16.993  12.264  18.401  1.00  0.00     0.019 A 
BRANCH  11  22
HETATM   22  C14 UNL     1      14.857   9.819  23.059  1.00  0.00     0.420 C 
HETATM   23  F1  UNL     1      13.946  10.644  23.664  1.00  0.00    -0.206 F 
HETATM   24  F2  UNL     1      15.878   9.453  23.926  1.00  0.00    -0.206 F 
ENDBRANCH  11  22
ENDBRANCH   7   9
ENDBRANCH   5   7
BRANCH   1  25
HETATM   25  O1  UNL     1      19.107   7.947  14.977  1.00  0.00    -0.293 OA
BRANCH  25  26
HETATM   26  C6  UNL     1      18.041   8.343  14.183  1.00  0.00     0.166 A 
HETATM   27  C5  UNL     1      16.889   7.577  14.065  1.00  0.00     0.105 A 
HETATM   28  C2  UNL     1      15.826   7.965  13.278  1.00  0.00     0.123 A 
HETATM   29  N2  UNL     1      15.938   9.123  12.617  1.00  0.00    -0.177 N 
HETATM   30  C1  UNL     1      17.033   9.894  12.702  1.00  0.00     0.679 A 
ATOM     31  H2  UNL     1      15.165   9.430  12.026  1.00  0.00     0.185 HD
HETATM   32  N7  UNL     1      18.052   9.496  13.474  1.00  0.00    -0.170 N 
ATOM     33  H7  UNL     1      18.878  10.092  13.531  1.00  0.00     0.186 HD
BRANCH  28  34
HETATM   34  N3  UNL     1      14.645   7.183  13.153  1.00  0.00    -0.364 N 
HETATM   35  C3  UNL     1      13.856   6.117  12.610  1.00  0.00     0.144 A 
HETATM   36  C4  UNL     1      13.242   7.002  13.632  1.00  0.00     0.144 A 
ENDBRANCH  28  34
BRANCH  30  37
HETATM   37  N1  UNL     1      17.072  11.007  12.033  1.00  0.00    -0.234 N 
ATOM     38  H12 UNL     1      16.284  11.326  11.470  1.00  0.00     0.174 HD
ATOM     39  H11 UNL     1      17.917  11.577  12.072  1.00  0.00     0.174 HD
ENDBRANCH  30  37
ENDBRANCH  25  26
ENDBRANCH   1  25
TORSDOF 7
ENDMDL
MODEL 4
REMARK VINA RESULT: -10.136404039      1.603      1.867
REMARK  7 active torsions:
REMARK  status: ('A' for Active; 'I' for Inactive)
REMARK    1  A    between atoms: N1_1  and  C1_4 
REMARK    2  A    between atoms: C2_7  and  N3_8 
REMARK    3  A    between atoms: C6_12  and  O1_13 
REMARK    4  A    between atoms: O1_13  and  C7_14 
REMARK    5  A    between atoms: C11_18  and  N4_19 
REMARK    6  A    between atoms: N4_19  and  C12_21 
REMARK    7  A    between atoms: C13_24  and  C14_25 
ROOT
HETATM    1  C7  UNL     1      18.734  10.415  13.952  1.00  0.00     0.080 A 
HETATM    2  C8  UNL     1      19.714  11.211  13.402  1.00  0.00     0.037 A 
HETATM    3  C9  UNL     1      20.163  12.357  14.026  1.00  0.00     0.005 A 
HETATM    4  C10 UNL     1      19.631  12.723  15.219  1.00  0.00     0.029 A 
HETATM    5  C11 UNL     1      18.639  11.975  15.841  1.00  0.00     0.036 A 
HETATM    6  C21 UNL     1      18.227  10.819  15.150  1.00  0.00     0.066 A 
ENDROOT
BRANCH   5   7
HETATM    7  N4  UNL     1      18.123  12.362  17.019  1.00  0.00    -0.342 N 
ATOM      8  H4  UNL     1      18.838  13.015  17.338  1.00  0.00     0.167 HD
BRANCH   7   9
HETATM    9  C12 UNL     1      17.342  12.417  17.930  1.00  0.00     0.119 A 
HETATM   10  N5  UNL     1      16.579  13.560  18.112  1.00  0.00    -0.327 N 
HETATM   11  C13 UNL     1      15.693  13.725  19.079  1.00  0.00     0.149 A 
ATOM     12  H5  UNL     1      16.709  14.327  17.452  1.00  0.00     0.169 HD
HETATM   13  N6  UNL     1      15.524  12.713  19.946  1.00  0.00    -0.341 N 
HETATM   14  C15 UNL     1      16.225  11.573  19.840  1.00  0.00     0.049 A 
ATOM     15  H6  UNL     1      14.847  12.814  20.703  1.00  0.00     0.167 HD
HETATM   16  C16 UNL     1      16.044  10.527  20.744  1.00  0.00     0.054 A 
HETATM   17  C20 UNL     1      17.153  11.376  18.842  1.00  0.00     0.035 A 
HETATM   18  C17 UNL     1      16.751   9.341  20.661  1.00  0.00     0.036 A 
HETATM   19 CL1  UNL     1      16.515   8.032  21.802  1.00  0.00    -0.084 Cl
HETATM   20  C18 UNL     1      17.672   9.159  19.659  1.00  0.00     0.025 A 
HETATM   21  C19 UNL     1      17.868  10.183  18.753  1.00  0.00     0.019 A 
BRANCH  11  22
HETATM   22  C14 UNL     1      14.893  14.998  19.219  1.00  0.00     0.420 C 
HETATM   23  F1  UNL     1      13.549  14.739  19.283  1.00  0.00    -0.206 F 
HETATM   24  F2  UNL     1      15.203  15.870  18.183  1.00  0.00    -0.206 F 
ENDBRANCH  11  22
ENDBRANCH   7   9
ENDBRANCH   5   7
BRANCH   1  25
HETATM   25  O1  UNL     1      18.284   9.246  13.305  1.00  0.00    -0.293 OA
BRANCH  25  26
HETATM   26  C6  UNL     1      18.453   8.049  13.986  1.00  0.00     0.166 A 
HETATM   27  C5  UNL     1      17.871   6.867  13.549  1.00  0.00     0.105 A 
HETATM   28  C2  UNL     1      18.034   5.675  14.221  1.00  0.00     0.123 A 
HETATM   29  N2  UNL     1      18.784   5.690  15.330  1.00  0.00    -0.177 N 
HETATM   30  C1  UNL     1      19.364   6.809  15.787  1.00  0.00     0.679 A 
ATOM     31  H2  UNL     1      18.918   4.820  15.845  1.00  0.00     0.185 HD
HETATM   32  N7  UNL     1      19.191   7.955  15.116  1.00  0.00    -0.170 N 
ATOM     33  H7  UNL     1      19.639   8.798  15.475  1.00  0.00     0.186 HD
BRANCH  28  34
HETATM   34  N3  UNL     1      17.440   4.462  13.778  1.00  0.00    -0.364 N 
HETATM   35  C3  UNL     1      16.398   3.479  13.730  1.00  0.00     0.144 A 
HETATM   36  C4  UNL     1      17.618   3.257  12.914  1.00  0.00     0.144 A 
ENDBRANCH  28  34
BRANCH  30  37
HETATM   37  N1  UNL     1      20.080   6.750  16.871  1.00  0.00    -0.234 N 
ATOM     38  H12 UNL     1      19.661   6.826  17.798  1.00  0.00     0.174 HD
ATOM     39  H11 UNL     1      21.088   6.623  16.790  1.00  0.00     0.174 HD
ENDBRANCH  30  37
ENDBRANCH  25  26
ENDBRANCH   1  25
TORSDOF 7
ENDMDL
MODEL 5
REMARK VINA RESULT: -10.043282235      3.465      7.800
REMARK  7 active torsions:
REMARK  status: ('A' for Active; 'I' for Inactive)
REMARK    1  A    between atoms: N1_1  and  C1_4 
REMARK    2  A    between atoms: C2_7  and  N3_8 
REMARK    3  A    between atoms: C6_12  and  O1_13 
REMARK    4  A    between atoms: O1_13  and  C7_14 
REMARK    5  A    between atoms: C11_18  and  N4_19 
REMARK    6  A    between atoms: N4_19  and  C12_21 
REMARK    7  A    between atoms: C13_24  and  C14_25 
ROOT
HETATM    1  C7  UNL     1      15.506   9.896  21.670  1.00  0.00     0.080 A 
HETATM    2  C8  UNL     1      16.366   9.475  22.660  1.00  0.00     0.037 A 
HETATM    3  C9  UNL     1      17.671   9.114  22.393  1.00  0.00     0.005 A 
HETATM    4  C10 UNL     1      18.134   9.168  21.119  1.00  0.00     0.029 A 
HETATM    5  C11 UNL     1      17.332   9.581  20.063  1.00  0.00     0.036 A 
HETATM    6  C21 UNL     1      16.012   9.935  20.406  1.00  0.00     0.066 A 
ENDROOT
BRANCH   5   7
HETATM    7  N4  UNL     1      17.811   9.621  18.809  1.00  0.00    -0.342 N 
ATOM      8  H4  UNL     1      18.518   8.886  18.850  1.00  0.00     0.167 HD
BRANCH   7   9
HETATM    9  C12 UNL     1      17.925   9.982  17.669  1.00  0.00     0.119 A 
HETATM   10  N5  UNL     1      18.535  11.195  17.392  1.00  0.00    -0.327 N 
HETATM   11  C13 UNL     1      18.712  11.686  16.178  1.00  0.00     0.149 A 
ATOM     12  H5  UNL     1      18.872  11.748  18.181  1.00  0.00     0.169 HD
HETATM   13  N6  UNL     1      18.267  10.957  15.141  1.00  0.00    -0.341 N 
HETATM   14  C15 UNL     1      17.664   9.771  15.326  1.00  0.00     0.049 A 
ATOM     15  H6  UNL     1      18.390  11.312  14.193  1.00  0.00     0.167 HD
HETATM   16  C16 UNL     1      17.205   9.019  14.244  1.00  0.00     0.054 A 
HETATM   17  C20 UNL     1      17.468   9.237  16.579  1.00  0.00     0.035 A 
HETATM   18  C17 UNL     1      16.580   7.795  14.401  1.00  0.00     0.036 A 
HETATM   19 CL1  UNL     1      16.008   6.858  13.037  1.00  0.00    -0.084 Cl
HETATM   20  C18 UNL     1      16.393   7.276  15.659  1.00  0.00     0.025 A 
HETATM   21  C19 UNL     1      16.840   8.005  16.744  1.00  0.00     0.019 A 
BRANCH  11  22
HETATM   22  C14 UNL     1      19.387  13.017  15.946  1.00  0.00     0.420 C 
HETATM   23  F1  UNL     1      20.589  13.088  16.599  1.00  0.00    -0.206 F 
HETATM   24  F2  UNL     1      18.537  14.052  16.314  1.00  0.00    -0.206 F 
ENDBRANCH  11  22
ENDBRANCH   7   9
ENDBRANCH   5   7
BRANCH   1  25
HETATM   25  O1  UNL     1      14.175  10.263  21.956  1.00  0.00    -0.293 OA
BRANCH  25  26
HETATM   26  C6  UNL     1      13.804  11.562  21.643  1.00  0.00     0.166 A 
HETATM   27  C5  UNL     1      14.456  12.296  20.660  1.00  0.00     0.105 A 
HETATM   28  C2  UNL     1      14.092  13.586  20.343  1.00  0.00     0.123 A 
HETATM   29  N2  UNL     1      13.072  14.124  21.024  1.00  0.00    -0.177 N 
HETATM   30  C1  UNL     1      12.415  13.452  21.980  1.00  0.00     0.679 A 
ATOM     31  H2  UNL     1      12.786  15.079  20.808  1.00  0.00     0.185 HD
HETATM   32  N7  UNL     1      12.787  12.198  22.269  1.00  0.00    -0.170 N 
ATOM     33  H7  UNL     1      12.279  11.698  22.998  1.00  0.00     0.186 HD
BRANCH  28  34
HETATM   34  N3  UNL     1      14.757  14.342  19.339  1.00  0.00    -0.364 N 
HETATM   35  C3  UNL     1      14.911  15.462  18.459  1.00  0.00     0.144 A 
HETATM   36  C4  UNL     1      15.941  14.393  18.431  1.00  0.00     0.144 A 
ENDBRANCH  28  34
BRANCH  30  37
HETATM   37  N1  UNL     1      11.434  14.037  22.600  1.00  0.00    -0.234 N 
ATOM     38  H12 UNL     1      10.468  13.727  22.494  1.00  0.00     0.174 HD
ATOM     39  H11 UNL     1      11.637  14.829  23.209  1.00  0.00     0.174 HD
ENDBRANCH  30  37
ENDBRANCH  25  26
ENDBRANCH   1  25
TORSDOF 7
ENDMDL
