MODEL 1
REMARK VINA RESULT: -5.416095022      0.000      0.000
REMARK  1 active torsions:
REMARK  status: ('A' for Active; 'I' for Inactive)
REMARK       I    between atoms: N3_4  and  C2_6 
REMARK    1  A    between atoms: C2_6  and  C3_8 
ROOT
HETATM    1  C3  UNL     1       8.754  -6.543   0.002  1.00  0.00     0.053 C 
HETATM    2  C4  UNL     1       9.772  -5.554   0.491  1.00  0.00     0.004 C 
HETATM    3  C5  UNL     1      10.638  -5.067  -0.649  1.00  0.00     0.006 C 
HETATM    4  C6  UNL     1       9.761  -4.107  -1.455  1.00  0.00     0.005 C 
HETATM    5  C7  UNL     1       8.414  -4.288  -0.806  1.00  0.00    -0.008 C 
HETATM    6  C8  UNL     1       8.856  -4.329   0.671  1.00  0.00     0.011 C 
HETATM    7  C9  UNL     1       7.900  -5.694  -0.952  1.00  0.00     0.013 C 
HETATM    8  C10 UNL     1       8.428  -6.508  -2.069  1.00  0.00    -0.003 A 
HETATM    9  C11 UNL     1       8.046  -7.974  -2.021  1.00  0.00     0.011 A 
HETATM   10  C12 UNL     1       9.143  -7.433  -1.118  1.00  0.00     0.009 A 
ENDROOT
BRANCH   1  11
HETATM   11  C2  UNL     1       7.981  -7.141   1.109  1.00  0.00     0.233 C 
HETATM   12  N3  UNL     1       8.716  -7.826   2.117  1.00  0.00    -0.303 N 
HETATM   13  C1  UNL     1       8.337  -8.924   2.647  1.00  0.00     0.203 C 
ATOM     14  H3  UNL     1       9.595  -7.417   2.433  1.00  0.00     0.171 HD
HETATM   15  N1  UNL     1       7.113  -9.496   2.206  1.00  0.00    -0.066 NA
HETATM   16  N2  UNL     1       9.138  -9.525   3.640  1.00  0.00    -0.066 NA
HETATM   17  O1  UNL     1       6.734  -7.052   1.160  1.00  0.00    -0.272 OA
ENDBRANCH   1  11
TORSDOF 1
ENDMDL
MODEL 2
REMARK VINA RESULT: -5.351151900      1.770      3.019
REMARK  1 active torsions:
REMARK  status: ('A' for Active; 'I' for Inactive)
REMARK       I    between atoms: N3_4  and  C2_6 
REMARK    1  A    between atoms: C2_6  and  C3_8 
ROOT
HETATM    1  C3  UNL     1       8.302  -6.703   1.029  1.00  0.00     0.053 C 
HETATM    2  C4  UNL     1       8.135  -5.512   0.131  1.00  0.00     0.004 C 
HETATM    3  C5  UNL     1       9.250  -4.514   0.350  1.00  0.00     0.006 C 
HETATM    4  C6  UNL     1      10.487  -5.122  -0.313  1.00  0.00     0.005 C 
HETATM    5  C7  UNL     1      10.004  -6.501  -0.679  1.00  0.00    -0.008 C 
HETATM    6  C8  UNL     1       8.597  -6.140  -1.197  1.00  0.00     0.011 C 
HETATM    7  C9  UNL     1       9.625  -7.307   0.533  1.00  0.00     0.013 C 
HETATM    8  C10 UNL     1      10.228  -6.928   1.830  1.00  0.00    -0.003 A 
HETATM    9  C11 UNL     1       9.631  -7.627   3.035  1.00  0.00     0.011 A 
HETATM   10  C12 UNL     1       8.894  -6.475   2.369  1.00  0.00     0.009 A 
ENDROOT
BRANCH   1  11
HETATM   11  C2  UNL     1       7.160  -7.634   0.941  1.00  0.00     0.233 C 
HETATM   12  N3  UNL     1       7.446  -8.977   0.567  1.00  0.00    -0.303 N 
HETATM   13  C1  UNL     1       6.720  -9.660  -0.230  1.00  0.00     0.203 C 
ATOM     14  H3  UNL     1       8.278  -9.419   0.959  1.00  0.00     0.171 HD
HETATM   15  N1  UNL     1       5.560  -9.046  -0.777  1.00  0.00    -0.066 NA
HETATM   16  N2  UNL     1       7.090 -10.986  -0.537  1.00  0.00    -0.066 NA
HETATM   17  O1  UNL     1       5.990  -7.261   1.182  1.00  0.00    -0.272 OA
ENDBRANCH   1  11
TORSDOF 1
ENDMDL
MODEL 3
REMARK VINA RESULT: -5.126573208      3.768      5.198
REMARK  1 active torsions:
REMARK  status: ('A' for Active; 'I' for Inactive)
REMARK       I    between atoms: N3_4  and  C2_6 
REMARK    1  A    between atoms: C2_6  and  C3_8 
ROOT
HETATM    1  C3  UNL     1       5.854  -9.809  -2.865  1.00  0.00     0.053 C 
HETATM    2  C4  UNL     1       7.032 -10.421  -3.566  1.00  0.00     0.004 C 
HETATM    3  C5  UNL     1       6.865 -10.337  -5.067  1.00  0.00     0.006 C 
HETATM    4  C6  UNL     1       7.122  -8.874  -5.433  1.00  0.00     0.005 C 
HETATM    5  C7  UNL     1       7.220  -8.223  -4.078  1.00  0.00    -0.008 C 
HETATM    6  C8  UNL     1       8.058  -9.293  -3.350  1.00  0.00     0.011 C 
HETATM    7  C9  UNL     1       5.938  -8.338  -3.300  1.00  0.00     0.013 C 
HETATM    8  C10 UNL     1       4.686  -8.543  -4.062  1.00  0.00    -0.003 A 
HETATM    9  C11 UNL     1       3.476  -8.879  -3.213  1.00  0.00     0.011 A 
HETATM   10  C12 UNL     1       4.526  -9.938  -3.511  1.00  0.00     0.009 A 
ENDROOT
BRANCH   1  11
HETATM   11  C2  UNL     1       5.919  -9.994  -1.401  1.00  0.00     0.233 C 
HETATM   12  N3  UNL     1       5.765  -8.832  -0.594  1.00  0.00    -0.303 N 
HETATM   13  C1  UNL     1       6.456  -8.602   0.455  1.00  0.00     0.203 C 
ATOM     14  H3  UNL     1       5.063  -8.144  -0.869  1.00  0.00     0.171 HD
HETATM   15  N1  UNL     1       7.434  -9.559   0.838  1.00  0.00    -0.066 NA
HETATM   16  N2  UNL     1       6.226  -7.419   1.187  1.00  0.00    -0.066 NA
HETATM   17  O1  UNL     1       6.101 -11.122  -0.890  1.00  0.00    -0.272 OA
ENDBRANCH   1  11
TORSDOF 1
ENDMDL
MODEL 4
REMARK VINA RESULT: -5.076460092      3.213      4.436
REMARK  1 active torsions:
REMARK  status: ('A' for Active; 'I' for Inactive)
REMARK       I    between atoms: N3_4  and  C2_6 
REMARK    1  A    between atoms: C2_6  and  C3_8 
ROOT
HETATM    1  C3  UNL     1       8.122  -7.330  -0.552  1.00  0.00     0.053 C 
HETATM    2  C4  UNL     1       8.744  -5.965  -0.488  1.00  0.00     0.004 C 
HETATM    3  C5  UNL     1       8.511  -5.333   0.866  1.00  0.00     0.006 C 
HETATM    4  C6  UNL     1       9.455  -6.055   1.829  1.00  0.00     0.005 C 
HETATM    5  C7  UNL     1       9.998  -7.165   0.967  1.00  0.00    -0.008 C 
HETATM    6  C8  UNL     1      10.221  -6.376  -0.339  1.00  0.00     0.011 C 
HETATM    7  C9  UNL     1       8.917  -8.105   0.510  1.00  0.00     0.013 C 
HETATM    8  C10 UNL     1       7.678  -8.175   1.315  1.00  0.00    -0.003 A 
HETATM    9  C11 UNL     1       6.550  -8.962   0.677  1.00  0.00     0.011 A 
HETATM   10  C12 UNL     1       6.868  -7.551   0.207  1.00  0.00     0.009 A 
ENDROOT
BRANCH   1  11
HETATM   11  C2  UNL     1       8.212  -7.921  -1.902  1.00  0.00     0.233 C 
HETATM   12  N3  UNL     1       7.623  -7.189  -2.971  1.00  0.00    -0.303 N 
HETATM   13  C1  UNL     1       6.957  -7.729  -3.917  1.00  0.00     0.203 C 
ATOM     14  H3  UNL     1       7.740  -6.175  -2.982  1.00  0.00     0.171 HD
HETATM   15  N1  UNL     1       6.793  -9.140  -3.903  1.00  0.00    -0.066 NA
HETATM   16  N2  UNL     1       6.413  -6.913  -4.931  1.00  0.00    -0.066 NA
HETATM   17  O1  UNL     1       8.779  -9.019  -2.101  1.00  0.00    -0.272 OA
ENDBRANCH   1  11
TORSDOF 1
ENDMDL
MODEL 5
REMARK VINA RESULT: -5.058780998      3.151      4.728
REMARK  1 active torsions:
REMARK  status: ('A' for Active; 'I' for Inactive)
REMARK       I    between atoms: N3_4  and  C2_6 
REMARK    1  A    between atoms: C2_6  and  C3_8 
ROOT
HETATM    1  C3  UNL     1       9.850  -5.663   0.715  1.00  0.00     0.053 C 
HETATM    2  C4  UNL     1       9.880  -6.579   1.903  1.00  0.00     0.004 C 
HETATM    3  C5  UNL     1       8.511  -6.679   2.538  1.00  0.00     0.006 C 
HETATM    4  C6  UNL     1       7.681  -7.557   1.599  1.00  0.00     0.005 C 
HETATM    5  C7  UNL     1       8.602  -7.715   0.417  1.00  0.00    -0.008 C 
HETATM    6  C8  UNL     1       9.932  -7.932   1.168  1.00  0.00     0.011 C 
HETATM    7  C9  UNL     1       8.902  -6.398  -0.245  1.00  0.00     0.013 C 
HETATM    8  C10 UNL     1       7.934  -5.295  -0.056  1.00  0.00    -0.003 A 
HETATM    9  C11 UNL     1       8.408  -3.944  -0.553  1.00  0.00     0.011 A 
HETATM   10  C12 UNL     1       8.925  -4.505   0.762  1.00  0.00     0.009 A 
ENDROOT
BRANCH   1  11
HETATM   11  C2  UNL     1      11.196  -5.435   0.152  1.00  0.00     0.233 C 
HETATM   12  N3  UNL     1      12.271  -5.302   1.075  1.00  0.00    -0.303 N 
HETATM   13  C1  UNL     1      13.214  -4.452   0.947  1.00  0.00     0.203 C 
ATOM     14  H3  UNL     1      12.288  -5.921   1.886  1.00  0.00     0.171 HD
HETATM   15  N1  UNL     1      13.191  -3.588  -0.182  1.00  0.00    -0.066 NA
HETATM   16  N2  UNL     1      14.235  -4.400   1.919  1.00  0.00    -0.066 NA
HETATM   17  O1  UNL     1      11.386  -5.360  -1.083  1.00  0.00    -0.272 OA
ENDBRANCH   1  11
TORSDOF 1
ENDMDL
