MODEL 1
REMARK VINA RESULT: -6.375551771      0.000      0.000
REMARK  2 active torsions:
REMARK  status: ('A' for Active; 'I' for Inactive)
REMARK    1  A    between atoms: C1_2  and  N1_3 
REMARK       I    between atoms: N1_3  and  C2_5 
REMARK       I    between atoms: C2_5  and  N2_7 
REMARK       I    between atoms: N2_7  and  C3_9 
REMARK       I    between atoms: C3_9  and  N3_11 
REMARK    2  A    between atoms: N3_11  and  C4_13 
ROOT
HETATM    1  N1  UNL     1      11.265  -4.069  -1.299  1.00  0.00    -0.286 N 
ATOM      2  H1  UNL     1      11.259  -4.639  -0.453  1.00  0.00     0.172 HD
HETATM    3  C2  UNL     1      10.322  -3.689  -2.139  1.00  0.00     0.330 C 
HETATM    4  O2  UNL     1      10.220  -2.901  -3.057  1.00  0.00    -0.246 OA
HETATM    5  N2  UNL     1       8.778  -4.459  -2.011  1.00  0.00    -0.261 N 
ATOM      6  H2  UNL     1       7.922  -4.328  -2.551  1.00  0.00     0.175 HD
HETATM    7  C3  UNL     1       9.047  -5.270  -0.997  1.00  0.00     0.324 C 
HETATM    8  O3  UNL     1       9.918  -5.257  -0.137  1.00  0.00    -0.247 OA
HETATM    9  N3  UNL     1       8.115  -6.444  -0.863  1.00  0.00    -0.337 N 
ATOM     10  H3  UNL     1       7.336  -6.560  -1.511  1.00  0.00     0.164 HD
ENDROOT
BRANCH   9  11
HETATM   11  C4  UNL     1       8.329  -7.383   0.169  1.00  0.00     0.095 C 
HETATM   12  C5  UNL     1       7.517  -7.046   1.470  1.00  0.00     0.031 C 
HETATM   13  C6  UNL     1       6.997  -8.434   1.852  1.00  0.00    -0.008 C 
HETATM   14  C7  UNL     1       7.836  -9.360   2.561  1.00  0.00     0.005 C 
HETATM   15  C12 UNL     1       6.490  -8.716   0.494  1.00  0.00     0.001 A 
HETATM   16  C8  UNL     1       9.090  -9.704   1.881  1.00  0.00     0.001 C 
HETATM   17  C9  UNL     1       8.843  -9.776   0.414  1.00  0.00     0.012 C 
HETATM   18  C10 UNL     1       7.917  -8.734  -0.122  1.00  0.00    -0.015 A 
HETATM   19  C11 UNL     1       6.753  -9.276  -0.745  1.00  0.00     0.018 A 
ENDBRANCH   9  11
BRANCH   1  20
HETATM   20  C1  UNL     1      12.534  -3.231  -2.175  1.00  0.00     0.356 C 
HETATM   21  O1  UNL     1      13.572  -3.487  -1.587  1.00  0.00    -0.283 OA
ENDBRANCH   1  20
TORSDOF 2
ENDMDL
MODEL 2
REMARK VINA RESULT: -6.266076442      3.519      5.790
REMARK  2 active torsions:
REMARK  status: ('A' for Active; 'I' for Inactive)
REMARK    1  A    between atoms: C1_2  and  N1_3 
REMARK       I    between atoms: N1_3  and  C2_5 
REMARK       I    between atoms: C2_5  and  N2_7 
REMARK       I    between atoms: N2_7  and  C3_9 
REMARK       I    between atoms: C3_9  and  N3_11 
REMARK    2  A    between atoms: N3_11  and  C4_13 
ROOT
HETATM    1  N1  UNL     1       7.882  -6.659  -0.178  1.00  0.00    -0.286 N 
ATOM      2  H1  UNL     1       7.985  -7.039  -1.119  1.00  0.00     0.172 HD
HETATM    3  C2  UNL     1       7.350  -7.129   0.933  1.00  0.00     0.330 C 
HETATM    4  O2  UNL     1       7.327  -6.814   2.105  1.00  0.00    -0.246 OA
HETATM    5  N2  UNL     1       6.391  -8.564   0.817  1.00  0.00    -0.261 N 
ATOM      6  H2  UNL     1       5.888  -9.090   1.533  1.00  0.00     0.175 HD
HETATM    7  C3  UNL     1       6.507  -8.772  -0.488  1.00  0.00     0.324 C 
HETATM    8  O3  UNL     1       7.315  -8.377  -1.319  1.00  0.00    -0.247 OA
HETATM    9  N3  UNL     1       5.448  -9.661  -1.083  1.00  0.00    -0.337 N 
ATOM     10  H3  UNL     1       4.725 -10.068  -0.491  1.00  0.00     0.164 HD
ENDROOT
BRANCH   9  11
HETATM   11  C4  UNL     1       5.466  -9.925  -2.470  1.00  0.00     0.095 C 
HETATM   12  C5  UNL     1       4.945 -11.366  -2.816  1.00  0.00     0.031 C 
HETATM   13  C6  UNL     1       4.059 -11.066  -4.028  1.00  0.00    -0.008 C 
HETATM   14  C7  UNL     1       4.637 -10.913  -5.336  1.00  0.00     0.005 C 
HETATM   15  C12 UNL     1       3.348  -9.965  -3.349  1.00  0.00     0.001 A 
HETATM   16  C8  UNL     1       5.639  -9.847  -5.446  1.00  0.00     0.001 C 
HETATM   17  C9  UNL     1       5.227  -8.701  -4.589  1.00  0.00     0.012 C 
HETATM   18  C10 UNL     1       4.622  -9.079  -3.277  1.00  0.00    -0.015 A 
HETATM   19  C11 UNL     1       3.288  -8.602  -3.109  1.00  0.00     0.018 A 
ENDBRANCH   9  11
BRANCH   1  20
HETATM   20  C1  UNL     1       8.346  -5.136   0.561  1.00  0.00     0.356 C 
HETATM   21  O1  UNL     1       8.344  -4.312  -0.341  1.00  0.00    -0.283 OA
ENDBRANCH   1  20
TORSDOF 2
ENDMDL
MODEL 3
REMARK VINA RESULT: -6.137236780      0.923      1.055
REMARK  2 active torsions:
REMARK  status: ('A' for Active; 'I' for Inactive)
REMARK    1  A    between atoms: C1_2  and  N1_3 
REMARK       I    between atoms: N1_3  and  C2_5 
REMARK       I    between atoms: C2_5  and  N2_7 
REMARK       I    between atoms: N2_7  and  C3_9 
REMARK       I    between atoms: C3_9  and  N3_11 
REMARK    2  A    between atoms: N3_11  and  C4_13 
ROOT
HETATM    1  N1  UNL     1      11.072  -4.386  -1.188  1.00  0.00    -0.286 N 
ATOM      2  H1  UNL     1      10.929  -5.070  -0.444  1.00  0.00     0.172 HD
HETATM    3  C2  UNL     1      10.286  -3.890  -2.124  1.00  0.00     0.330 C 
HETATM    4  O2  UNL     1      10.331  -2.980  -2.926  1.00  0.00    -0.246 OA
HETATM    5  N2  UNL     1       8.764  -4.670  -2.385  1.00  0.00    -0.261 N 
ATOM      6  H2  UNL     1       8.015  -4.464  -3.048  1.00  0.00     0.175 HD
HETATM    7  C3  UNL     1       8.867  -5.616  -1.462  1.00  0.00     0.324 C 
HETATM    8  O3  UNL     1       9.570  -5.725  -0.465  1.00  0.00    -0.247 OA
HETATM    9  N3  UNL     1       7.956  -6.797  -1.663  1.00  0.00    -0.337 N 
ATOM     10  H3  UNL     1       7.308  -6.820  -2.451  1.00  0.00     0.164 HD
ENDROOT
BRANCH   9  11
HETATM   11  C4  UNL     1       8.005  -7.872  -0.750  1.00  0.00     0.095 C 
HETATM   12  C5  UNL     1       7.121  -7.623   0.524  1.00  0.00     0.031 C 
HETATM   13  C6  UNL     1       6.456  -8.993   0.683  1.00  0.00    -0.008 C 
HETATM   14  C7  UNL     1       7.154 -10.075   1.323  1.00  0.00     0.005 C 
HETATM   15  C12 UNL     1       6.040  -9.055  -0.732  1.00  0.00     0.001 A 
HETATM   16  C8  UNL     1       8.425 -10.448   0.693  1.00  0.00     0.001 C 
HETATM   17  C9  UNL     1       8.293 -10.315  -0.784  1.00  0.00     0.012 C 
HETATM   18  C10 UNL     1       7.505  -9.132  -1.243  1.00  0.00    -0.015 A 
HETATM   19  C11 UNL     1       6.355  -9.481  -2.012  1.00  0.00     0.018 A 
ENDBRANCH   9  11
BRANCH   1  20
HETATM   20  C1  UNL     1      12.456  -3.433  -1.695  1.00  0.00     0.356 C 
HETATM   21  O1  UNL     1      13.135  -3.269  -0.693  1.00  0.00    -0.283 OA
ENDBRANCH   1  20
TORSDOF 2
ENDMDL
MODEL 4
REMARK VINA RESULT: -5.953862824      4.073      6.650
REMARK  2 active torsions:
REMARK  status: ('A' for Active; 'I' for Inactive)
REMARK    1  A    between atoms: C1_2  and  N1_3 
REMARK       I    between atoms: N1_3  and  C2_5 
REMARK       I    between atoms: C2_5  and  N2_7 
REMARK       I    between atoms: N2_7  and  C3_9 
REMARK       I    between atoms: C3_9  and  N3_11 
REMARK    2  A    between atoms: N3_11  and  C4_13 
ROOT
HETATM    1  N1  UNL     1       4.921 -10.011  -3.018  1.00  0.00    -0.286 N 
ATOM      2  H1  UNL     1       4.900  -9.015  -2.795  1.00  0.00     0.172 HD
HETATM    3  C2  UNL     1       5.470 -11.057  -2.430  1.00  0.00     0.330 C 
HETATM    4  O2  UNL     1       5.411 -12.264  -2.539  1.00  0.00    -0.246 OA
HETATM    5  N2  UNL     1       6.607 -10.757  -1.161  1.00  0.00    -0.261 N 
ATOM      6  H2  UNL     1       7.146 -11.403  -0.584  1.00  0.00     0.175 HD
HETATM    7  C3  UNL     1       6.563  -9.432  -1.168  1.00  0.00     0.324 C 
HETATM    8  O3  UNL     1       5.742  -8.633  -1.602  1.00  0.00    -0.247 OA
HETATM    9  N3  UNL     1       7.747  -8.757  -0.528  1.00  0.00    -0.337 N 
ATOM     10  H3  UNL     1       8.495  -9.313  -0.114  1.00  0.00     0.164 HD
ENDROOT
BRANCH   9  11
HETATM   11  C4  UNL     1       7.812  -7.347  -0.506  1.00  0.00     0.095 C 
HETATM   12  C5  UNL     1       7.383  -6.746   0.880  1.00  0.00     0.031 C 
HETATM   13  C6  UNL     1       8.459  -5.673   1.071  1.00  0.00    -0.008 C 
HETATM   14  C7  UNL     1       8.339  -4.393   0.427  1.00  0.00     0.005 C 
HETATM   15  C12 UNL     1       9.566  -6.602   0.770  1.00  0.00     0.001 A 
HETATM   16  C8  UNL     1       8.246  -4.445  -1.036  1.00  0.00     0.001 C 
HETATM   17  C9  UNL     1       9.119  -5.539  -1.540  1.00  0.00     0.012 C 
HETATM   18  C10 UNL     1       9.122  -6.779  -0.708  1.00  0.00    -0.015 A 
HETATM   19  C11 UNL     1      10.411  -7.119  -0.199  1.00  0.00     0.018 A 
ENDBRANCH   9  11
BRANCH   1  20
HETATM   20  C1  UNL     1       4.242 -10.966  -4.324  1.00  0.00     0.356 C 
HETATM   21  O1  UNL     1       3.818 -10.163  -5.140  1.00  0.00    -0.283 OA
ENDBRANCH   1  20
TORSDOF 2
ENDMDL
MODEL 5
REMARK VINA RESULT: -5.925648298      2.163      2.899
REMARK  2 active torsions:
REMARK  status: ('A' for Active; 'I' for Inactive)
REMARK    1  A    between atoms: C1_2  and  N1_3 
REMARK       I    between atoms: N1_3  and  C2_5 
REMARK       I    between atoms: C2_5  and  N2_7 
REMARK       I    between atoms: N2_7  and  C3_9 
REMARK       I    between atoms: C3_9  and  N3_11 
REMARK    2  A    between atoms: N3_11  and  C4_13 
ROOT
HETATM    1  N1  UNL     1      14.051  -3.425  -0.879  1.00  0.00    -0.286 N 
ATOM      2  H1  UNL     1      13.602  -3.685   0.000  1.00  0.00     0.172 HD
HETATM    3  C2  UNL     1      13.587  -3.136  -2.079  1.00  0.00     0.330 C 
HETATM    4  O2  UNL     1      14.030  -2.674  -3.111  1.00  0.00    -0.246 OA
HETATM    5  N2  UNL     1      11.921  -3.478  -2.398  1.00  0.00    -0.261 N 
ATOM      6  H2  UNL     1      11.363  -3.345  -3.242  1.00  0.00     0.175 HD
HETATM    7  C3  UNL     1      11.591  -3.967  -1.210  1.00  0.00     0.324 C 
HETATM    8  O3  UNL     1      12.108  -3.871  -0.103  1.00  0.00    -0.247 OA
HETATM    9  N3  UNL     1      10.346  -4.812  -1.199  1.00  0.00    -0.337 N 
ATOM     10  H3  UNL     1       9.813  -4.957  -2.056  1.00  0.00     0.164 HD
ENDROOT
BRANCH   9  11
HETATM   11  C4  UNL     1       9.921  -5.403   0.011  1.00  0.00     0.095 C 
HETATM   12  C5  UNL     1       8.485  -4.933   0.440  1.00  0.00     0.031 C 
HETATM   13  C6  UNL     1       7.870  -6.262   0.887  1.00  0.00    -0.008 C 
HETATM   14  C7  UNL     1       8.138  -6.788   2.197  1.00  0.00     0.005 C 
HETATM   15  C12 UNL     1       8.282  -6.968  -0.342  1.00  0.00     0.001 A 
HETATM   16  C8  UNL     1       9.558  -7.018   2.491  1.00  0.00     0.001 C 
HETATM   17  C9  UNL     1      10.238  -7.499   1.258  1.00  0.00     0.012 C 
HETATM   18  C10 UNL     1       9.794  -6.839  -0.006  1.00  0.00    -0.015 A 
HETATM   19  C11 UNL     1       9.246  -7.749  -0.959  1.00  0.00     0.018 A 
ENDBRANCH   9  11
BRANCH   1  20
HETATM   20  C1  UNL     1      15.725  -3.196  -1.352  1.00  0.00     0.356 C 
HETATM   21  O1  UNL     1      16.306  -4.222  -1.035  1.00  0.00    -0.283 OA
ENDBRANCH   1  20
TORSDOF 2
ENDMDL
