MODEL 1
REMARK VINA RESULT: -5.228156054      0.000      0.000
REMARK  12 active torsions:
REMARK  status: ('A' for Active; 'I' for Inactive)
REMARK    1  A    between atoms: N1_1  and  C1_4 
REMARK    2  A    between atoms: N4_12  and  C5_13 
REMARK    3  A    between atoms: C6_15  and  N5_16 
REMARK    4  A    between atoms: C7_20  and  O2_21 
REMARK    5  A    between atoms: C7_20  and  C8_23 
REMARK       I    between atoms: C8_23  and  N6_25 
REMARK    6  A    between atoms: N6_25  and  N7_27 
REMARK    7  A    between atoms: N7_27  and  N8_28 
REMARK    8  A    between atoms: C9_31  and  N9_32 
REMARK       I    between atoms: N9_32  and  C10_34 
REMARK    9  A    between atoms: C10_34  and  C11_36 
REMARK   10  A    between atoms: C11_36  and  C12_37 
REMARK   11  A    between atoms: C12_37  and  O5_38 
REMARK   12  A    between atoms: C13_40  and  O6_41 
ROOT
HETATM    1  C5  UNL     1      15.232  -0.326  40.981  1.00  0.00     0.264 C 
HETATM    2  O1  UNL     1      15.980   0.799  40.829  1.00  0.00    -0.328 OA
HETATM    3  C6  UNL     1      15.395   1.995  41.035  1.00  0.00     0.367 C 
HETATM    4  C7  UNL     1      14.281   1.988  42.028  1.00  0.00     0.214 C 
HETATM    5  C9  UNL     1      13.216   1.040  41.640  1.00  0.00     0.166 C 
HETATM    6  C13 UNL     1      13.767  -0.164  40.909  1.00  0.00     0.193 C 
ENDROOT
BRANCH   1   7
HETATM    7  N4  UNL     1      15.693  -1.295  39.984  1.00  0.00    -0.297 N 
HETATM    8  C2  UNL     1      15.998  -0.963  38.714  1.00  0.00     0.156 A 
HETATM    9  N2  UNL     1      15.984   0.211  38.025  1.00  0.00    -0.174 N 
HETATM   10  C3  UNL     1      16.396  -2.098  38.035  1.00  0.00     0.120 A 
HETATM   11  C1  UNL     1      16.337   0.302  36.731  1.00  0.00     0.678 A 
ATOM     12  H2  UNL     1      15.693   1.059  38.512  1.00  0.00     0.186 HD
HETATM   13  N11 UNL     1      16.720  -0.811  36.090  1.00  0.00    -0.177 N 
HETATM   14  C14 UNL     1      16.763  -2.009  36.693  1.00  0.00     0.162 A 
ATOM     15  H11 UNL     1      16.988  -0.746  35.107  1.00  0.00     0.185 HD
HETATM   16  N10 UNL     1      17.160  -3.179  36.032  1.00  0.00    -0.080 NA
HETATM   17  N3  UNL     1      16.316  -3.084  38.928  1.00  0.00    -0.346 N 
HETATM   18  C4  UNL     1      15.890  -2.598  40.108  1.00  0.00     0.188 A 
ATOM     19  H3  UNL     1      16.544  -4.061  38.744  1.00  0.00     0.167 HD
BRANCH  11  20
HETATM   20  N1  UNL     1      16.306   1.462  36.111  1.00  0.00    -0.234 N 
ATOM     21  H12 UNL     1      16.414   2.335  36.627  1.00  0.00     0.174 HD
ATOM     22  H11 UNL     1      16.173   1.504  35.100  1.00  0.00     0.174 HD
ENDBRANCH  11  20
ENDBRANCH   1   7
BRANCH   6  23
HETATM   23  O6  UNL     1      13.248  -0.213  39.617  1.00  0.00    -0.389 OA
ATOM     24  H6  UNL     1      12.301  -0.166  39.575  1.00  0.00     0.210 HD
ENDBRANCH   6  23
BRANCH   3  25
HETATM   25  N5  UNL     1      15.148   2.659  39.800  1.00  0.00    -0.049 N 
ATOM     26  H53 UNL     1      15.405   2.077  39.001  1.00  0.00     0.277 HD
ATOM     27  H52 UNL     1      14.148   2.746  39.612  1.00  0.00     0.277 HD
ATOM     28  H51 UNL     1      15.616   3.564  39.772  1.00  0.00     0.277 HD
ENDBRANCH   3  25
BRANCH   5  29
HETATM   29  N9  UNL     1      12.582   0.608  42.901  1.00  0.00    -0.350 N 
HETATM   30  C10 UNL     1      11.232   0.879  43.192  1.00  0.00     0.220 C 
HETATM   31  O4  UNL     1      10.503   1.499  42.384  1.00  0.00    -0.274 OA
ATOM     32  H9  UNL     1      13.140   0.097  43.585  1.00  0.00     0.163 HD
BRANCH  30  33
HETATM   33  C11 UNL     1      10.640   0.417  44.499  1.00  0.00     0.128 C 
BRANCH  33  34
HETATM   34  C12 UNL     1      11.224   1.219  45.622  1.00  0.00     0.173 C 
BRANCH  34  35
HETATM   35  O5  UNL     1      11.715   2.436  45.092  1.00  0.00    -0.400 OA
ATOM     36  H5  UNL     1      11.574   3.121  45.735  1.00  0.00     0.209 HD
ENDBRANCH  34  35
ENDBRANCH  33  34
ENDBRANCH  30  33
ENDBRANCH   5  29
BRANCH   4  37
HETATM   37  O2  UNL     1      14.862   1.437  43.214  1.00  0.00    -0.374 OA
ATOM     38  H2  UNL     1      14.300   0.704  43.435  1.00  0.00     0.211 HD
ENDBRANCH   4  37
BRANCH   4  39
HETATM   39  C8  UNL     1      13.824   3.338  42.391  1.00  0.00     0.276 C 
HETATM   40  O3  UNL     1      13.356   4.093  41.487  1.00  0.00    -0.268 OA
HETATM   41  N6  UNL     1      13.857   3.889  43.687  1.00  0.00    -0.252 N 
ATOM     42  H6  UNL     1      14.233   3.314  44.440  1.00  0.00     0.187 HD
BRANCH  41  43
HETATM   43  N7  UNL     1      13.407   5.171  44.004  1.00  0.00    -0.027 NA
BRANCH  43  44
HETATM   44  N8  UNL     1      12.292   5.156  44.836  1.00  0.00    -0.329 N 
ATOM     45  H82 UNL     1      11.721   4.323  44.981  1.00  0.00     0.174 HD
ATOM     46  H81 UNL     1      12.118   6.061  45.276  1.00  0.00     0.174 HD
ENDBRANCH  43  44
ENDBRANCH  41  43
ENDBRANCH   4  39
TORSDOF 12
ENDMDL
MODEL 2
REMARK VINA RESULT: -5.176655848      2.281      2.698
REMARK  12 active torsions:
REMARK  status: ('A' for Active; 'I' for Inactive)
REMARK    1  A    between atoms: N1_1  and  C1_4 
REMARK    2  A    between atoms: N4_12  and  C5_13 
REMARK    3  A    between atoms: C6_15  and  N5_16 
REMARK    4  A    between atoms: C7_20  and  O2_21 
REMARK    5  A    between atoms: C7_20  and  C8_23 
REMARK       I    between atoms: C8_23  and  N6_25 
REMARK    6  A    between atoms: N6_25  and  N7_27 
REMARK    7  A    between atoms: N7_27  and  N8_28 
REMARK    8  A    between atoms: C9_31  and  N9_32 
REMARK       I    between atoms: N9_32  and  C10_34 
REMARK    9  A    between atoms: C10_34  and  C11_36 
REMARK   10  A    between atoms: C11_36  and  C12_37 
REMARK   11  A    between atoms: C12_37  and  O5_38 
REMARK   12  A    between atoms: C13_40  and  O6_41 
ROOT
HETATM    1  C5  UNL     1      13.367  -0.487  39.731  1.00  0.00     0.264 C 
HETATM    2  O1  UNL     1      14.192   0.168  40.591  1.00  0.00    -0.328 OA
HETATM    3  C6  UNL     1      13.773   1.330  41.128  1.00  0.00     0.367 C 
HETATM    4  C7  UNL     1      12.294   1.445  41.304  1.00  0.00     0.214 C 
HETATM    5  C9  UNL     1      11.581   1.272  40.021  1.00  0.00     0.166 C 
HETATM    6  C13 UNL     1      12.298   0.311  39.099  1.00  0.00     0.193 C 
ENDROOT
BRANCH   1   7
HETATM    7  N4  UNL     1      14.209  -1.118  38.713  1.00  0.00    -0.297 N 
HETATM    8  C2  UNL     1      15.253  -0.498  38.127  1.00  0.00     0.156 A 
HETATM    9  N2  UNL     1      15.799   0.742  38.259  1.00  0.00    -0.174 N 
HETATM   10  C3  UNL     1      15.834  -1.359  37.216  1.00  0.00     0.120 A 
HETATM   11  C1  UNL     1      16.865   1.149  37.548  1.00  0.00     0.678 A 
ATOM     12  H2  UNL     1      15.381   1.390  38.927  1.00  0.00     0.186 HD
HETATM   13  N11 UNL     1      17.415   0.299  36.670  1.00  0.00    -0.177 N 
HETATM   14  C14 UNL     1      16.939  -0.941  36.477  1.00  0.00     0.162 A 
ATOM     15  H11 UNL     1      18.223   0.605  36.128  1.00  0.00     0.185 HD
HETATM   16  N10 UNL     1      17.506  -1.838  35.561  1.00  0.00    -0.080 NA
HETATM   17  N3  UNL     1      15.114  -2.478  37.287  1.00  0.00    -0.346 N 
HETATM   18  C4  UNL     1      14.131  -2.332  38.192  1.00  0.00     0.188 A 
ATOM     19  H3  UNL     1      15.284  -3.320  36.737  1.00  0.00     0.167 HD
BRANCH  11  20
HETATM   20  N1  UNL     1      17.354   2.359  37.714  1.00  0.00    -0.234 N 
ATOM     21  H12 UNL     1      17.997   2.564  38.479  1.00  0.00     0.174 HD
ATOM     22  H11 UNL     1      17.097   3.113  37.075  1.00  0.00     0.174 HD
ENDBRANCH  11  20
ENDBRANCH   1   7
BRANCH   6  23
HETATM   23  O6  UNL     1      12.688   0.970  37.936  1.00  0.00    -0.389 OA
ATOM     24  H6  UNL     1      11.967   1.234  37.377  1.00  0.00     0.210 HD
ENDBRANCH   6  23
BRANCH   3  25
HETATM   25  N5  UNL     1      14.433   2.437  40.523  1.00  0.00    -0.049 N 
ATOM     26  H53 UNL     1      13.796   3.222  40.376  1.00  0.00     0.277 HD
ATOM     27  H52 UNL     1      15.085   2.886  41.167  1.00  0.00     0.277 HD
ATOM     28  H51 UNL     1      14.892   2.158  39.656  1.00  0.00     0.277 HD
ENDBRANCH   3  25
BRANCH   5  29
HETATM   29  N9  UNL     1      10.253   0.730  40.369  1.00  0.00    -0.350 N 
HETATM   30  C10 UNL     1       9.078   1.157  39.723  1.00  0.00     0.220 C 
HETATM   31  O4  UNL     1       9.109   2.017  38.814  1.00  0.00    -0.274 OA
ATOM     32  H9  UNL     1      10.184   0.024  41.101  1.00  0.00     0.163 HD
BRANCH  30  33
HETATM   33  C11 UNL     1       7.748   0.570  40.124  1.00  0.00     0.128 C 
BRANCH  33  34
HETATM   34  C12 UNL     1       7.139   1.410  41.205  1.00  0.00     0.173 C 
BRANCH  34  35
HETATM   35  O5  UNL     1       8.003   2.500  41.463  1.00  0.00    -0.400 OA
ATOM     36  H5  UNL     1       7.572   3.298  41.179  1.00  0.00     0.209 HD
ENDBRANCH  34  35
ENDBRANCH  33  34
ENDBRANCH  30  33
ENDBRANCH   5  29
BRANCH   4  37
HETATM   37  O2  UNL     1      11.938   0.304  42.090  1.00  0.00    -0.374 OA
ATOM     38  H2  UNL     1      12.109  -0.438  41.524  1.00  0.00     0.211 HD
ENDBRANCH   4  37
BRANCH   4  39
HETATM   39  C8  UNL     1      11.898   2.621  42.094  1.00  0.00     0.276 C 
HETATM   40  O3  UNL     1      10.983   3.378  41.653  1.00  0.00    -0.268 OA
HETATM   41  N6  UNL     1      12.456   2.997  43.332  1.00  0.00    -0.252 N 
ATOM     42  H6  UNL     1      13.200   2.416  43.716  1.00  0.00     0.187 HD
BRANCH  41  43
HETATM   43  N7  UNL     1      12.053   4.114  44.064  1.00  0.00    -0.027 NA
BRANCH  43  44
HETATM   44  N8  UNL     1      13.112   4.964  44.369  1.00  0.00    -0.329 N 
ATOM     45  H82 UNL     1      13.741   5.340  43.659  1.00  0.00     0.174 HD
ATOM     46  H81 UNL     1      13.181   5.162  45.368  1.00  0.00     0.174 HD
ENDBRANCH  43  44
ENDBRANCH  41  43
ENDBRANCH   4  39
TORSDOF 12
ENDMDL
MODEL 3
REMARK VINA RESULT: -5.123908920      1.871      2.739
REMARK  12 active torsions:
REMARK  status: ('A' for Active; 'I' for Inactive)
REMARK    1  A    between atoms: N1_1  and  C1_4 
REMARK    2  A    between atoms: N4_12  and  C5_13 
REMARK    3  A    between atoms: C6_15  and  N5_16 
REMARK    4  A    between atoms: C7_20  and  O2_21 
REMARK    5  A    between atoms: C7_20  and  C8_23 
REMARK       I    between atoms: C8_23  and  N6_25 
REMARK    6  A    between atoms: N6_25  and  N7_27 
REMARK    7  A    between atoms: N7_27  and  N8_28 
REMARK    8  A    between atoms: C9_31  and  N9_32 
REMARK       I    between atoms: N9_32  and  C10_34 
REMARK    9  A    between atoms: C10_34  and  C11_36 
REMARK   10  A    between atoms: C11_36  and  C12_37 
REMARK   11  A    between atoms: C12_37  and  O5_38 
REMARK   12  A    between atoms: C13_40  and  O6_41 
ROOT
HETATM    1  C5  UNL     1      14.659   0.855  39.792  1.00  0.00     0.264 C 
HETATM    2  O1  UNL     1      15.385   1.056  40.923  1.00  0.00    -0.328 OA
HETATM    3  C6  UNL     1      14.841   1.784  41.918  1.00  0.00     0.367 C 
HETATM    4  C7  UNL     1      13.353   1.711  42.010  1.00  0.00     0.214 C 
HETATM    5  C9  UNL     1      12.711   2.141  40.750  1.00  0.00     0.166 C 
HETATM    6  C13 UNL     1      13.548   1.794  39.539  1.00  0.00     0.193 C 
ENDROOT
BRANCH   1   7
HETATM    7  N4  UNL     1      15.595   0.849  38.666  1.00  0.00    -0.297 N 
HETATM    8  C2  UNL     1      15.740  -0.198  37.830  1.00  0.00     0.156 A 
HETATM    9  N2  UNL     1      15.156  -1.425  37.757  1.00  0.00    -0.174 N 
HETATM   10  C3  UNL     1      16.697   0.113  36.882  1.00  0.00     0.120 A 
HETATM   11  C1  UNL     1      15.471  -2.329  36.812  1.00  0.00     0.678 A 
ATOM     12  H2  UNL     1      14.448  -1.671  38.449  1.00  0.00     0.186 HD
HETATM   13  N11 UNL     1      16.402  -2.009  35.902  1.00  0.00    -0.177 N 
HETATM   14  C14 UNL     1      17.027  -0.821  35.901  1.00  0.00     0.162 A 
ATOM     15  H11 UNL     1      16.644  -2.692  35.184  1.00  0.00     0.185 HD
HETATM   16  N10 UNL     1      18.002  -0.476  34.954  1.00  0.00    -0.080 NA
HETATM   17  N3  UNL     1      17.097   1.347  37.183  1.00  0.00    -0.346 N 
HETATM   18  C4  UNL     1      16.430   1.793  38.262  1.00  0.00     0.188 A 
ATOM     19  H3  UNL     1      17.803   1.876  36.670  1.00  0.00     0.167 HD
BRANCH  11  20
HETATM   20  N1  UNL     1      14.877  -3.502  36.787  1.00  0.00    -0.234 N 
ATOM     21  H12 UNL     1      14.981  -4.124  35.985  1.00  0.00     0.174 HD
ATOM     22  H11 UNL     1      14.303  -3.808  37.572  1.00  0.00     0.174 HD
ENDBRANCH  11  20
ENDBRANCH   1   7
BRANCH   6  23
HETATM   23  O6  UNL     1      13.923   2.958  38.872  1.00  0.00    -0.389 OA
ATOM     24  H6  UNL     1      13.256   3.633  38.861  1.00  0.00     0.210 HD
ENDBRANCH   6  23
BRANCH   3  25
HETATM   25  N5  UNL     1      15.422   3.083  41.975  1.00  0.00    -0.049 N 
ATOM     26  H53 UNL     1      15.451   3.523  41.055  1.00  0.00     0.277 HD
ATOM     27  H52 UNL     1      14.810   3.749  42.446  1.00  0.00     0.277 HD
ATOM     28  H51 UNL     1      16.346   3.050  42.406  1.00  0.00     0.277 HD
ENDBRANCH   3  25
BRANCH   5  29
HETATM   29  N9  UNL     1      11.424   1.420  40.687  1.00  0.00    -0.350 N 
HETATM   30  C10 UNL     1      10.204   2.038  41.018  1.00  0.00     0.220 C 
HETATM   31  O4  UNL     1      10.155   3.236  41.378  1.00  0.00    -0.274 OA
ATOM     32  H9  UNL     1      11.419   0.443  40.395  1.00  0.00     0.163 HD
BRANCH  30  33
HETATM   33  C11 UNL     1       8.920   1.250  40.939  1.00  0.00     0.128 C 
BRANCH  33  34
HETATM   34  C12 UNL     1       8.653   0.599  42.262  1.00  0.00     0.173 C 
BRANCH  34  35
HETATM   35  O5  UNL     1       9.726   0.903  43.134  1.00  0.00    -0.400 OA
ATOM     36  H5  UNL     1       9.517   1.703  43.600  1.00  0.00     0.209 HD
ENDBRANCH  34  35
ENDBRANCH  33  34
ENDBRANCH  30  33
ENDBRANCH   5  29
BRANCH   4  37
HETATM   37  O2  UNL     1      13.069   0.313  42.118  1.00  0.00    -0.374 OA
ATOM     38  H2  UNL     1      13.579   0.024  42.865  1.00  0.00     0.211 HD
ENDBRANCH   4  37
BRANCH   4  39
HETATM   39  C8  UNL     1      12.820   2.328  43.233  1.00  0.00     0.276 C 
HETATM   40  O3  UNL     1      12.707   1.623  44.280  1.00  0.00    -0.268 OA
HETATM   41  N6  UNL     1      12.410   3.670  43.357  1.00  0.00    -0.252 N 
ATOM     42  H6  UNL     1      12.479   4.268  42.534  1.00  0.00     0.187 HD
BRANCH  41  43
HETATM   43  N7  UNL     1      11.916   4.233  44.535  1.00  0.00    -0.027 NA
BRANCH  43  44
HETATM   44  N8  UNL     1      12.529   5.442  44.848  1.00  0.00    -0.329 N 
ATOM     45  H82 UNL     1      13.096   5.964  44.179  1.00  0.00     0.174 HD
ATOM     46  H81 UNL     1      12.347   5.738  45.807  1.00  0.00     0.174 HD
ENDBRANCH  43  44
ENDBRANCH  41  43
ENDBRANCH   4  39
TORSDOF 12
ENDMDL
MODEL 4
REMARK VINA RESULT: -5.118726020      2.109      3.484
REMARK  12 active torsions:
REMARK  status: ('A' for Active; 'I' for Inactive)
REMARK    1  A    between atoms: N1_1  and  C1_4 
REMARK    2  A    between atoms: N4_12  and  C5_13 
REMARK    3  A    between atoms: C6_15  and  N5_16 
REMARK    4  A    between atoms: C7_20  and  O2_21 
REMARK    5  A    between atoms: C7_20  and  C8_23 
REMARK       I    between atoms: C8_23  and  N6_25 
REMARK    6  A    between atoms: N6_25  and  N7_27 
REMARK    7  A    between atoms: N7_27  and  N8_28 
REMARK    8  A    between atoms: C9_31  and  N9_32 
REMARK       I    between atoms: N9_32  and  C10_34 
REMARK    9  A    between atoms: C10_34  and  C11_36 
REMARK   10  A    between atoms: C11_36  and  C12_37 
REMARK   11  A    between atoms: C12_37  and  O5_38 
REMARK   12  A    between atoms: C13_40  and  O6_41 
ROOT
HETATM    1  C5  UNL     1      14.879   1.596  38.925  1.00  0.00     0.264 C 
HETATM    2  O1  UNL     1      13.524   1.586  38.811  1.00  0.00    -0.328 OA
HETATM    3  C6  UNL     1      12.782   1.776  39.919  1.00  0.00     0.367 C 
HETATM    4  C7  UNL     1      13.420   2.630  40.965  1.00  0.00     0.214 C 
HETATM    5  C9  UNL     1      14.720   2.075  41.397  1.00  0.00     0.166 C 
HETATM    6  C13 UNL     1      15.433   1.359  40.272  1.00  0.00     0.193 C 
ENDROOT
BRANCH   1   7
HETATM    7  N4  UNL     1      15.406   0.617  37.972  1.00  0.00    -0.297 N 
HETATM    8  C2  UNL     1      16.367   0.905  37.071  1.00  0.00     0.156 A 
HETATM    9  N2  UNL     1      17.069   2.033  36.781  1.00  0.00    -0.174 N 
HETATM   10  C3  UNL     1      16.636  -0.227  36.325  1.00  0.00     0.120 A 
HETATM   11  C1  UNL     1      18.000   2.085  35.812  1.00  0.00     0.678 A 
ATOM     12  H2  UNL     1      16.882   2.877  37.322  1.00  0.00     0.186 HD
HETATM   13  N11 UNL     1      18.248   0.977  35.099  1.00  0.00    -0.177 N 
HETATM   14  C14 UNL     1      17.601  -0.178  35.319  1.00  0.00     0.162 A 
ATOM     15  H11 UNL     1      18.953   1.012  34.363  1.00  0.00     0.185 HD
HETATM   16  N10 UNL     1      17.851  -1.342  34.580  1.00  0.00    -0.080 NA
HETATM   17  N3  UNL     1      15.822  -1.164  36.808  1.00  0.00    -0.346 N 
HETATM   18  C4  UNL     1      15.077  -0.654  37.804  1.00  0.00     0.188 A 
ATOM     19  H3  UNL     1      15.772  -2.126  36.471  1.00  0.00     0.167 HD
BRANCH  11  20
HETATM   20  N1  UNL     1      18.652   3.202  35.571  1.00  0.00    -0.234 N 
ATOM     21  H12 UNL     1      18.181   4.105  35.626  1.00  0.00     0.174 HD
ATOM     22  H11 UNL     1      19.642   3.181  35.327  1.00  0.00     0.174 HD
ENDBRANCH  11  20
ENDBRANCH   1   7
BRANCH   6  23
HETATM   23  O6  UNL     1      15.599   0.014  40.595  1.00  0.00    -0.389 OA
ATOM     24  H6  UNL     1      15.332  -0.211  41.478  1.00  0.00     0.210 HD
ENDBRANCH   6  23
BRANCH   3  25
HETATM   25  N5  UNL     1      12.201   0.552  40.358  1.00  0.00    -0.049 N 
ATOM     26  H53 UNL     1      11.946  -0.047  39.573  1.00  0.00     0.277 HD
ATOM     27  H52 UNL     1      12.892  -0.056  40.798  1.00  0.00     0.277 HD
ATOM     28  H51 UNL     1      11.407   0.727  40.974  1.00  0.00     0.277 HD
ENDBRANCH   3  25
BRANCH   5  29
HETATM   29  N9  UNL     1      15.524   3.231  41.839  1.00  0.00    -0.350 N 
HETATM   30  C10 UNL     1      16.435   3.144  42.908  1.00  0.00     0.220 C 
HETATM   31  O4  UNL     1      16.609   2.072  43.531  1.00  0.00    -0.274 OA
ATOM     32  H9  UNL     1      15.415   4.122  41.355  1.00  0.00     0.163 HD
BRANCH  30  33
HETATM   33  C11 UNL     1      17.227   4.361  43.318  1.00  0.00     0.128 C 
BRANCH  33  34
HETATM   34  C12 UNL     1      16.646   4.931  44.576  1.00  0.00     0.173 C 
BRANCH  34  35
HETATM   35  O5  UNL     1      15.246   4.724  44.556  1.00  0.00    -0.400 OA
ATOM     36  H5  UNL     1      15.080   3.790  44.596  1.00  0.00     0.209 HD
ENDBRANCH  34  35
ENDBRANCH  33  34
ENDBRANCH  30  33
ENDBRANCH   5  29
BRANCH   4  37
HETATM   37  O2  UNL     1      13.738   3.849  40.287  1.00  0.00    -0.374 OA
ATOM     38  H2  UNL     1      14.558   3.668  39.844  1.00  0.00     0.211 HD
ENDBRANCH   4  37
BRANCH   4  39
HETATM   39  C8  UNL     1      12.498   2.998  42.050  1.00  0.00     0.276 C 
HETATM   40  O3  UNL     1      11.269   2.711  41.936  1.00  0.00    -0.268 OA
HETATM   41  N6  UNL     1      12.861   3.658  43.239  1.00  0.00    -0.252 N 
ATOM     42  H6  UNL     1      13.841   3.912  43.365  1.00  0.00     0.187 HD
BRANCH  41  43
HETATM   43  N7  UNL     1      11.965   3.987  44.257  1.00  0.00    -0.027 NA
BRANCH  43  44
HETATM   44  N8  UNL     1      12.271   5.200  44.868  1.00  0.00    -0.329 N 
ATOM     45  H82 UNL     1      13.137   5.357  45.384  1.00  0.00     0.174 HD
ATOM     46  H81 UNL     1      11.539   5.899  44.739  1.00  0.00     0.174 HD
ENDBRANCH  43  44
ENDBRANCH  41  43
ENDBRANCH   4  39
TORSDOF 12
ENDMDL
MODEL 5
REMARK VINA RESULT: -5.094654897      1.940      3.220
REMARK  12 active torsions:
REMARK  status: ('A' for Active; 'I' for Inactive)
REMARK    1  A    between atoms: N1_1  and  C1_4 
REMARK    2  A    between atoms: N4_12  and  C5_13 
REMARK    3  A    between atoms: C6_15  and  N5_16 
REMARK    4  A    between atoms: C7_20  and  O2_21 
REMARK    5  A    between atoms: C7_20  and  C8_23 
REMARK       I    between atoms: C8_23  and  N6_25 
REMARK    6  A    between atoms: N6_25  and  N7_27 
REMARK    7  A    between atoms: N7_27  and  N8_28 
REMARK    8  A    between atoms: C9_31  and  N9_32 
REMARK       I    between atoms: N9_32  and  C10_34 
REMARK    9  A    between atoms: C10_34  and  C11_36 
REMARK   10  A    between atoms: C11_36  and  C12_37 
REMARK   11  A    between atoms: C12_37  and  O5_38 
REMARK   12  A    between atoms: C13_40  and  O6_41 
ROOT
HETATM    1  C5  UNL     1      14.614   1.012  39.343  1.00  0.00     0.264 C 
HETATM    2  O1  UNL     1      13.269   1.140  39.195  1.00  0.00    -0.328 OA
HETATM    3  C6  UNL     1      12.542   1.571  40.245  1.00  0.00     0.367 C 
HETATM    4  C7  UNL     1      13.265   2.487  41.177  1.00  0.00     0.214 C 
HETATM    5  C9  UNL     1      14.487   1.856  41.717  1.00  0.00     0.166 C 
HETATM    6  C13 UNL     1      15.123   0.909  40.724  1.00  0.00     0.193 C 
ENDROOT
BRANCH   1   7
HETATM    7  N4  UNL     1      15.032  -0.147  38.551  1.00  0.00    -0.297 N 
HETATM    8  C2  UNL     1      16.228  -0.227  37.933  1.00  0.00     0.156 A 
HETATM    9  N2  UNL     1      17.294   0.614  37.843  1.00  0.00    -0.174 N 
HETATM   10  C3  UNL     1      16.312  -1.439  37.274  1.00  0.00     0.120 A 
HETATM   11  C1  UNL     1      18.405   0.313  37.150  1.00  0.00     0.678 A 
ATOM     12  H2  UNL     1      17.247   1.513  38.324  1.00  0.00     0.186 HD
HETATM   13  N11 UNL     1      18.468  -0.868  36.517  1.00  0.00    -0.177 N 
HETATM   14  C14 UNL     1      17.462  -1.756  36.553  1.00  0.00     0.162 A 
ATOM     15  H11 UNL     1      19.310  -1.099  35.989  1.00  0.00     0.185 HD
HETATM   16  N10 UNL     1      17.517  -2.992  35.895  1.00  0.00    -0.080 NA
HETATM   17  N3  UNL     1      15.155  -2.051  37.522  1.00  0.00    -0.346 N 
HETATM   18  C4  UNL     1      14.380  -1.269  38.295  1.00  0.00     0.188 A 
ATOM     19  H3  UNL     1      14.895  -2.975  37.177  1.00  0.00     0.167 HD
BRANCH  11  20
HETATM   20  N1  UNL     1      19.408   1.162  37.095  1.00  0.00    -0.234 N 
ATOM     21  H12 UNL     1      19.295   2.127  37.408  1.00  0.00     0.174 HD
ATOM     22  H11 UNL     1      20.317   0.867  36.737  1.00  0.00     0.174 HD
ENDBRANCH  11  20
ENDBRANCH   1   7
BRANCH   6  23
HETATM   23  O6  UNL     1      15.128  -0.386  41.237  1.00  0.00    -0.389 OA
ATOM     24  H6  UNL     1      15.275  -0.433  42.174  1.00  0.00     0.210 HD
ENDBRANCH   6  23
BRANCH   3  25
HETATM   25  N5  UNL     1      11.819   0.497  40.837  1.00  0.00    -0.049 N 
ATOM     26  H53 UNL     1      11.062   0.174  40.233  1.00  0.00     0.277 HD
ATOM     27  H52 UNL     1      12.371  -0.361  40.864  1.00  0.00     0.277 HD
ATOM     28  H51 UNL     1      11.478   0.754  41.763  1.00  0.00     0.277 HD
ENDBRANCH   3  25
BRANCH   5  29
HETATM   29  N9  UNL     1      15.415   2.964  42.013  1.00  0.00    -0.350 N 
HETATM   30  C10 UNL     1      16.289   2.934  43.116  1.00  0.00     0.220 C 
HETATM   31  O4  UNL     1      16.320   1.957  43.897  1.00  0.00    -0.274 OA
ATOM     32  H9  UNL     1      15.425   3.778  41.399  1.00  0.00     0.163 HD
BRANCH  30  33
HETATM   33  C11 UNL     1      17.213   4.099  43.371  1.00  0.00     0.128 C 
BRANCH  33  34
HETATM   34  C12 UNL     1      16.690   4.906  44.520  1.00  0.00     0.173 C 
BRANCH  34  35
HETATM   35  O5  UNL     1      15.281   4.782  44.549  1.00  0.00    -0.400 OA
ATOM     36  H5  UNL     1      15.004   4.719  45.455  1.00  0.00     0.209 HD
ENDBRANCH  34  35
ENDBRANCH  33  34
ENDBRANCH  30  33
ENDBRANCH   5  29
BRANCH   4  37
HETATM   37  O2  UNL     1      13.729   3.553  40.343  1.00  0.00    -0.374 OA
ATOM     38  H2  UNL     1      13.013   3.712  39.739  1.00  0.00     0.211 HD
ENDBRANCH   4  37
BRANCH   4  39
HETATM   39  C8  UNL     1      12.381   3.109  42.174  1.00  0.00     0.276 C 
HETATM   40  O3  UNL     1      11.135   3.155  41.949  1.00  0.00    -0.268 OA
HETATM   41  N6  UNL     1      12.800   3.676  43.394  1.00  0.00    -0.252 N 
ATOM     42  H6  UNL     1      13.797   3.664  43.608  1.00  0.00     0.187 HD
BRANCH  41  43
HETATM   43  N7  UNL     1      11.937   4.252  44.326  1.00  0.00    -0.027 NA
BRANCH  43  44
HETATM   44  N8  UNL     1      12.439   5.435  44.861  1.00  0.00    -0.329 N 
ATOM     45  H82 UNL     1      13.107   5.453  45.632  1.00  0.00     0.174 HD
ATOM     46  H81 UNL     1      12.067   6.264  44.397  1.00  0.00     0.174 HD
ENDBRANCH  43  44
ENDBRANCH  41  43
ENDBRANCH   4  39
TORSDOF 12
ENDMDL
