MODEL 1
REMARK VINA RESULT: -7.616545622      0.000      0.000
REMARK  6 active torsions:
REMARK  status: ('A' for Active; 'I' for Inactive)
REMARK    1  A    between atoms: O1_2  and  N1_3 
REMARK    2  A    between atoms: C2_5  and  O2_6 
REMARK    3  A    between atoms: C2_5  and  C3_8 
REMARK    4  A    between atoms: C3_8  and  C4_9 
REMARK    5  A    between atoms: C10_16  and  N2_17 
REMARK    6  A    between atoms: N2_17  and  C11_19 
ROOT
HETATM    1  C11 UNL     1     -13.083  12.148  -8.527  1.00  0.00     0.092 A 
HETATM    2  S1  UNL     1     -11.887  12.036  -9.795  1.00  0.00    -0.083 SA
HETATM    3  C12 UNL     1     -11.651  13.683 -10.108  1.00  0.00     0.053 A 
HETATM    4  C13 UNL     1     -12.499  14.286  -9.227  1.00  0.00     0.033 A 
HETATM    5  C14 UNL     1     -13.233  13.497  -8.416  1.00  0.00     0.078 A 
HETATM    6  C15 UNL     1     -14.150  14.107  -7.422  1.00  0.00     0.102 C 
HETATM    7  N3  UNL     1     -14.864  14.619  -6.635  1.00  0.00    -0.191 NA
ENDROOT
BRANCH   1   8
HETATM    8  N2  UNL     1     -13.663  11.037  -7.835  1.00  0.00    -0.357 N 
ATOM      9  H2  UNL     1     -13.046  10.234  -7.711  1.00  0.00     0.162 HD
BRANCH   8  10
HETATM   10  C10 UNL     1     -14.960  10.889  -7.302  1.00  0.00     0.221 C 
HETATM   11  O3  UNL     1     -15.012  11.574  -6.039  1.00  0.00    -0.361 OA
HETATM   12  C9  UNL     1     -16.049  11.071  -5.310  1.00  0.00     0.132 C 
HETATM   13  C8  UNL     1     -16.743  11.989  -4.375  1.00  0.00     0.033 C 
HETATM   14  C18 UNL     1     -15.636   9.756  -4.610  1.00  0.00    -0.013 C 
HETATM   15  C7  UNL     1     -17.907  11.270  -3.741  1.00  0.00     0.007 C 
HETATM   16  C5  UNL     1     -17.514   9.895  -3.174  1.00  0.00    -0.013 C 
HETATM   17  C4  UNL     1     -16.951   9.093  -4.273  1.00  0.00     0.007 C 
HETATM   18  C6  UNL     1     -18.689   9.397  -2.426  1.00  0.00     0.010 C 
HETATM   19  C17 UNL     1     -14.774   9.079  -5.608  1.00  0.00     0.016 C 
HETATM   20  C19 UNL     1     -14.796  10.038  -3.382  1.00  0.00     0.018 C 
HETATM   21  C16 UNL     1     -15.197   9.396  -7.026  1.00  0.00     0.054 C 
BRANCH  17  22
HETATM   22  C3  UNL     1     -16.752   7.650  -4.115  1.00  0.00     0.091 C 
BRANCH  22  23
HETATM   23  C2  UNL     1     -17.625   6.738  -4.857  1.00  0.00     0.135 C 
HETATM   24  N1  UNL     1     -17.552   6.706  -6.134  1.00  0.00    -0.249 N 
ATOM     25  H1  UNL     1     -16.879   7.323  -6.590  1.00  0.00     0.196 HD
BRANCH  24  26
HETATM   26  O1  UNL     1     -18.323   5.893  -6.931  1.00  0.00    -0.284 OA
HETATM   27  C1  UNL     1     -18.953   6.301  -8.107  1.00  0.00     0.237 C 
ENDBRANCH  24  26
BRANCH  23  28
HETATM   28  O2  UNL     1     -18.534   5.904  -4.246  1.00  0.00    -0.348 OA
ATOM     29  H2  UNL     1     -19.299   6.301  -3.847  1.00  0.00     0.219 HD
ENDBRANCH  23  28
ENDBRANCH  22  23
ENDBRANCH  17  22
ENDBRANCH   8  10
ENDBRANCH   1   8
TORSDOF 6
ENDMDL
MODEL 2
REMARK VINA RESULT: -7.592480174      1.157      1.866
REMARK  6 active torsions:
REMARK  status: ('A' for Active; 'I' for Inactive)
REMARK    1  A    between atoms: O1_2  and  N1_3 
REMARK    2  A    between atoms: C2_5  and  O2_6 
REMARK    3  A    between atoms: C2_5  and  C3_8 
REMARK    4  A    between atoms: C3_8  and  C4_9 
REMARK    5  A    between atoms: C10_16  and  N2_17 
REMARK    6  A    between atoms: N2_17  and  C11_19 
ROOT
HETATM    1  C11 UNL     1     -13.087  12.176  -8.638  1.00  0.00     0.092 A 
HETATM    2  S1  UNL     1     -13.235  13.777  -7.954  1.00  0.00    -0.083 SA
HETATM    3  C12 UNL     1     -12.262  14.639  -9.039  1.00  0.00     0.053 A 
HETATM    4  C13 UNL     1     -11.844  13.674  -9.907  1.00  0.00     0.033 A 
HETATM    5  C14 UNL     1     -12.268  12.411  -9.700  1.00  0.00     0.078 A 
HETATM    6  C15 UNL     1     -11.863  11.331 -10.633  1.00  0.00     0.102 C 
HETATM    7  N3  UNL     1     -11.532  10.494 -11.395  1.00  0.00    -0.191 NA
ENDROOT
BRANCH   1   8
HETATM    8  N2  UNL     1     -13.733  11.001  -8.137  1.00  0.00    -0.357 N 
ATOM      9  H2  UNL     1     -13.195  10.139  -8.226  1.00  0.00     0.162 HD
BRANCH   8  10
HETATM   10  C10 UNL     1     -15.004  10.860  -7.541  1.00  0.00     0.221 C 
HETATM   11  O3  UNL     1     -14.990  11.547  -6.279  1.00  0.00    -0.361 OA
HETATM   12  C9  UNL     1     -15.993  11.050  -5.499  1.00  0.00     0.132 C 
HETATM   13  C8  UNL     1     -16.637  11.973  -4.534  1.00  0.00     0.033 C 
HETATM   14  C18 UNL     1     -15.552   9.734  -4.817  1.00  0.00    -0.013 C 
HETATM   15  C7  UNL     1     -17.771  11.260  -3.841  1.00  0.00     0.007 C 
HETATM   16  C5  UNL     1     -17.357   9.884  -3.292  1.00  0.00    -0.013 C 
HETATM   17  C4  UNL     1     -16.852   9.078  -4.415  1.00  0.00     0.007 C 
HETATM   18  C6  UNL     1     -18.496   9.393  -2.487  1.00  0.00     0.010 C 
HETATM   19  C17 UNL     1     -14.742   9.052  -5.854  1.00  0.00     0.016 C 
HETATM   20  C19 UNL     1     -14.652  10.016  -3.632  1.00  0.00     0.018 C 
HETATM   21  C16 UNL     1     -15.233   9.368  -7.251  1.00  0.00     0.054 C 
BRANCH  17  22
HETATM   22  C3  UNL     1     -16.651   7.634  -4.264  1.00  0.00     0.091 C 
BRANCH  22  23
HETATM   23  C2  UNL     1     -17.561   6.725  -4.963  1.00  0.00     0.135 C 
HETATM   24  N1  UNL     1     -17.567   6.710  -6.243  1.00  0.00    -0.249 N 
ATOM     25  H1  UNL     1     -16.928   7.338  -6.731  1.00  0.00     0.196 HD
BRANCH  24  26
HETATM   26  O1  UNL     1     -18.378   5.900  -7.002  1.00  0.00    -0.284 OA
HETATM   27  C1  UNL     1     -19.004   6.291  -8.186  1.00  0.00     0.237 C 
ENDBRANCH  24  26
BRANCH  23  28
HETATM   28  O2  UNL     1     -18.425   5.875  -4.309  1.00  0.00    -0.348 OA
ATOM     29  H2  UNL     1     -18.468   5.933  -3.362  1.00  0.00     0.219 HD
ENDBRANCH  23  28
ENDBRANCH  22  23
ENDBRANCH  17  22
ENDBRANCH   8  10
ENDBRANCH   1   8
TORSDOF 6
ENDMDL
MODEL 3
REMARK VINA RESULT: -6.854656717      3.633      6.356
REMARK  6 active torsions:
REMARK  status: ('A' for Active; 'I' for Inactive)
REMARK    1  A    between atoms: O1_2  and  N1_3 
REMARK    2  A    between atoms: C2_5  and  O2_6 
REMARK    3  A    between atoms: C2_5  and  C3_8 
REMARK    4  A    between atoms: C3_8  and  C4_9 
REMARK    5  A    between atoms: C10_16  and  N2_17 
REMARK    6  A    between atoms: N2_17  and  C11_19 
ROOT
HETATM    1  C11 UNL     1     -15.524   8.765  -6.443  1.00  0.00     0.092 A 
HETATM    2  S1  UNL     1     -16.246   7.305  -7.074  1.00  0.00    -0.083 SA
HETATM    3  C12 UNL     1     -16.360   7.728  -8.709  1.00  0.00     0.053 A 
HETATM    4  C13 UNL     1     -15.838   8.988  -8.735  1.00  0.00     0.033 A 
HETATM    5  C14 UNL     1     -15.408   9.518  -7.572  1.00  0.00     0.078 A 
HETATM    6  C15 UNL     1     -14.807  10.874  -7.553  1.00  0.00     0.102 C 
HETATM    7  N3  UNL     1     -14.325  11.950  -7.570  1.00  0.00    -0.191 NA
ENDROOT
BRANCH   1   8
HETATM    8  N2  UNL     1     -15.163   8.985  -5.076  1.00  0.00    -0.357 N 
ATOM      9  H2  UNL     1     -14.265   8.590  -4.794  1.00  0.00     0.162 HD
BRANCH   8  10
HETATM   10  C10 UNL     1     -15.866   9.667  -4.060  1.00  0.00     0.221 C 
HETATM   11  O3  UNL     1     -16.859  10.502  -4.679  1.00  0.00    -0.361 OA
HETATM   12  C9  UNL     1     -17.213  11.485  -3.803  1.00  0.00     0.132 C 
HETATM   13  C8  UNL     1     -18.603  11.995  -3.864  1.00  0.00     0.033 C 
HETATM   14  C18 UNL     1     -16.184  12.639  -3.832  1.00  0.00    -0.013 C 
HETATM   15  C7  UNL     1     -18.815  13.002  -2.761  1.00  0.00     0.007 C 
HETATM   16  C5  UNL     1     -17.704  14.065  -2.709  1.00  0.00    -0.013 C 
HETATM   17  C4  UNL     1     -16.418  13.371  -2.532  1.00  0.00     0.007 C 
HETATM   18  C6  UNL     1     -18.137  15.077  -1.721  1.00  0.00     0.010 C 
HETATM   19  C17 UNL     1     -14.882  11.949  -3.995  1.00  0.00     0.016 C 
HETATM   20  C19 UNL     1     -16.399  13.522  -5.044  1.00  0.00     0.018 C 
HETATM   21  C16 UNL     1     -14.877  10.589  -3.330  1.00  0.00     0.054 C 
BRANCH  17  22
HETATM   22  C3  UNL     1     -15.214  14.120  -2.162  1.00  0.00     0.091 C 
BRANCH  22  23
HETATM   23  C2  UNL     1     -14.501  13.738  -0.941  1.00  0.00     0.135 C 
HETATM   24  N1  UNL     1     -13.700  14.575  -0.399  1.00  0.00    -0.249 N 
ATOM     25  H1  UNL     1     -13.589  15.487  -0.843  1.00  0.00     0.196 HD
BRANCH  24  26
HETATM   26  O1  UNL     1     -12.978  14.324   0.744  1.00  0.00    -0.284 OA
HETATM   27  C1  UNL     1     -13.348  14.742   2.023  1.00  0.00     0.237 C 
ENDBRANCH  24  26
BRANCH  23  28
HETATM   28  O2  UNL     1     -14.648  12.509  -0.338  1.00  0.00    -0.348 OA
ATOM     29  H2  UNL     1     -14.525  11.736  -0.876  1.00  0.00     0.219 HD
ENDBRANCH  23  28
ENDBRANCH  22  23
ENDBRANCH  17  22
ENDBRANCH   8  10
ENDBRANCH   1   8
TORSDOF 6
ENDMDL
MODEL 4
REMARK VINA RESULT: -6.837766439      4.283      7.143
REMARK  6 active torsions:
REMARK  status: ('A' for Active; 'I' for Inactive)
REMARK    1  A    between atoms: O1_2  and  N1_3 
REMARK    2  A    between atoms: C2_5  and  O2_6 
REMARK    3  A    between atoms: C2_5  and  C3_8 
REMARK    4  A    between atoms: C3_8  and  C4_9 
REMARK    5  A    between atoms: C10_16  and  N2_17 
REMARK    6  A    between atoms: N2_17  and  C11_19 
ROOT
HETATM    1  C11 UNL     1     -14.512  10.762   0.557  1.00  0.00     0.092 A 
HETATM    2  S1  UNL     1     -15.306   9.819   1.795  1.00  0.00    -0.083 SA
HETATM    3  C12 UNL     1     -15.087  10.850   3.120  1.00  0.00     0.053 A 
HETATM    4  C13 UNL     1     -14.407  11.901   2.580  1.00  0.00     0.033 A 
HETATM    5  C14 UNL     1     -14.113  11.855   1.264  1.00  0.00     0.078 A 
HETATM    6  C15 UNL     1     -13.399  12.987   0.624  1.00  0.00     0.102 C 
HETATM    7  N3  UNL     1     -12.838  13.905   0.141  1.00  0.00    -0.191 NA
ENDROOT
BRANCH   1   8
HETATM    8  N2  UNL     1     -14.400  10.391  -0.821  1.00  0.00    -0.357 N 
ATOM      9  H2  UNL     1     -14.534   9.398  -1.016  1.00  0.00     0.162 HD
BRANCH   8  10
HETATM   10  C10 UNL     1     -14.131  11.195  -1.949  1.00  0.00     0.221 C 
HETATM   11  O3  UNL     1     -15.211  12.129  -2.107  1.00  0.00    -0.361 OA
HETATM   12  C9  UNL     1     -15.220  12.574  -3.396  1.00  0.00     0.132 C 
HETATM   13  C8  UNL     1     -15.696  13.956  -3.645  1.00  0.00     0.033 C 
HETATM   14  C18 UNL     1     -15.929  11.556  -4.320  1.00  0.00    -0.013 C 
HETATM   15  C7  UNL     1     -15.540  14.282  -5.109  1.00  0.00     0.007 C 
HETATM   16  C5  UNL     1     -16.122  13.190  -6.023  1.00  0.00    -0.013 C 
HETATM   17  C4  UNL     1     -15.446  11.921  -5.705  1.00  0.00     0.007 C 
HETATM   18  C6  UNL     1     -16.071  13.725  -7.401  1.00  0.00     0.010 C 
HETATM   19  C17 UNL     1     -15.510  10.240  -3.784  1.00  0.00     0.016 C 
HETATM   20  C19 UNL     1     -17.433  11.660  -4.183  1.00  0.00     0.018 C 
HETATM   21  C16 UNL     1     -14.119  10.289  -3.190  1.00  0.00     0.054 C 
BRANCH  17  22
HETATM   22  C3  UNL     1     -15.577  10.765  -6.594  1.00  0.00     0.091 C 
BRANCH  22  23
HETATM   23  C2  UNL     1     -14.595  10.595  -7.668  1.00  0.00     0.135 C 
HETATM   24  N1  UNL     1     -13.541  11.322  -7.671  1.00  0.00    -0.249 N 
ATOM     25  H1  UNL     1     -13.425  11.998  -6.915  1.00  0.00     0.196 HD
BRANCH  24  26
HETATM   26  O1  UNL     1     -12.556  11.250  -8.627  1.00  0.00    -0.284 OA
HETATM   27  C1  UNL     1     -12.018  12.350  -9.295  1.00  0.00     0.237 C 
ENDBRANCH  24  26
BRANCH  23  28
HETATM   28  O2  UNL     1     -14.747   9.684  -8.689  1.00  0.00    -0.348 OA
ATOM     29  H2  UNL     1     -14.718  10.012  -9.580  1.00  0.00     0.219 HD
ENDBRANCH  23  28
ENDBRANCH  22  23
ENDBRANCH  17  22
ENDBRANCH   8  10
ENDBRANCH   1   8
TORSDOF 6
ENDMDL
MODEL 5
REMARK VINA RESULT: -6.821597515      3.267      4.947
REMARK  6 active torsions:
REMARK  status: ('A' for Active; 'I' for Inactive)
REMARK    1  A    between atoms: O1_2  and  N1_3 
REMARK    2  A    between atoms: C2_5  and  O2_6 
REMARK    3  A    between atoms: C2_5  and  C3_8 
REMARK    4  A    between atoms: C3_8  and  C4_9 
REMARK    5  A    between atoms: C10_16  and  N2_17 
REMARK    6  A    between atoms: N2_17  and  C11_19 
ROOT
HETATM    1  C11 UNL     1     -16.129  14.136  -3.334  1.00  0.00     0.092 A 
HETATM    2  S1  UNL     1     -14.841  13.409  -2.404  1.00  0.00    -0.083 SA
HETATM    3  C12 UNL     1     -14.829  14.454  -1.071  1.00  0.00     0.053 A 
HETATM    4  C13 UNL     1     -15.820  15.341  -1.371  1.00  0.00     0.033 A 
HETATM    5  C14 UNL     1     -16.487  15.176  -2.532  1.00  0.00     0.078 A 
HETATM    6  C15 UNL     1     -17.591  16.100  -2.889  1.00  0.00     0.102 C 
HETATM    7  N3  UNL     1     -18.470  16.843  -3.143  1.00  0.00    -0.191 NA
ENDROOT
BRANCH   1   8
HETATM    8  N2  UNL     1     -16.616  13.653  -4.590  1.00  0.00    -0.357 N 
ATOM      9  H2  UNL     1     -16.603  14.332  -5.351  1.00  0.00     0.162 HD
BRANCH   8  10
HETATM   10  C10 UNL     1     -17.111  12.376  -4.931  1.00  0.00     0.221 C 
HETATM   11  O3  UNL     1     -16.561  11.418  -4.012  1.00  0.00    -0.361 OA
HETATM   12  C9  UNL     1     -16.632  10.179  -4.577  1.00  0.00     0.132 C 
HETATM   13  C8  UNL     1     -16.813   9.018  -3.674  1.00  0.00     0.033 C 
HETATM   14  C18 UNL     1     -15.454   9.957  -5.555  1.00  0.00    -0.013 C 
HETATM   15  C7  UNL     1     -16.959   7.762  -4.495  1.00  0.00     0.007 C 
HETATM   16  C5  UNL     1     -15.861   7.624  -5.565  1.00  0.00    -0.013 C 
HETATM   17  C4  UNL     1     -15.915   8.814  -6.429  1.00  0.00     0.007 C 
HETATM   18  C6  UNL     1     -16.016   6.277  -6.155  1.00  0.00     0.010 C 
HETATM   19  C17 UNL     1     -15.280  11.278  -6.204  1.00  0.00     0.016 C 
HETATM   20  C19 UNL     1     -14.181   9.635  -4.801  1.00  0.00     0.018 C 
HETATM   21  C16 UNL     1     -16.592  12.021  -6.333  1.00  0.00     0.054 C 
BRANCH  17  22
HETATM   22  C3  UNL     1     -15.190   8.843  -7.702  1.00  0.00     0.091 C 
BRANCH  22  23
HETATM   23  C2  UNL     1     -15.811   8.221  -8.874  1.00  0.00     0.135 C 
HETATM   24  N1  UNL     1     -17.049   7.901  -8.828  1.00  0.00    -0.249 N 
ATOM     25  H1  UNL     1     -17.562   8.096  -7.967  1.00  0.00     0.196 HD
BRANCH  24  26
HETATM   26  O1  UNL     1     -17.734   7.312  -9.864  1.00  0.00    -0.284 OA
HETATM   27  C1  UNL     1     -18.097   5.965  -9.911  1.00  0.00     0.237 C 
ENDBRANCH  24  26
BRANCH  23  28
HETATM   28  O2  UNL     1     -15.124   7.956 -10.037  1.00  0.00    -0.348 OA
ATOM     29  H2  UNL     1     -15.602   8.018 -10.856  1.00  0.00     0.219 HD
ENDBRANCH  23  28
ENDBRANCH  22  23
ENDBRANCH  17  22
ENDBRANCH   8  10
ENDBRANCH   1   8
TORSDOF 6
ENDMDL
