MODEL 1
REMARK VINA RESULT: -8.541266221      0.000      0.000
REMARK  10 active torsions:
REMARK  status: ('A' for Active; 'I' for Inactive)
REMARK    1  A    between atoms: C2_2  and  O1_3 
REMARK    2  A    between atoms: O1_3  and  C3_4 
REMARK       I    between atoms: C3_4  and  N1_6 
REMARK    3  A    between atoms: C4_8  and  C6_10 
REMARK       I    between atoms: C6_10  and  N2_12 
REMARK    4  A    between atoms: N2_12  and  N3_14 
REMARK    5  A    between atoms: N3_14  and  N4_16 
REMARK    6  A    between atoms: N4_16  and  C7_18 
REMARK    7  A    between atoms: C9_20  and  C10_21 
REMARK    8  A    between atoms: C10_21  and  O4_22 
REMARK    9  A    between atoms: C10_21  and  N5_24 
REMARK   10  A    between atoms: C13_27  and  O5_28 
ROOT
HETATM    1  N4  UNL     1      26.181   1.139 -25.092  1.00  0.00    -0.271 N 
ATOM      2  H4  UNL     1      26.120   0.174 -25.418  1.00  0.00     0.190 HD
ENDROOT
BRANCH   1   3
HETATM    3  N3  UNL     1      25.107   1.773 -24.504  1.00  0.00    -0.238 N 
ATOM      4  H3  UNL     1      24.746   1.488 -23.594  1.00  0.00     0.208 HD
BRANCH   3   5
HETATM    5  N2  UNL     1      24.553   2.810 -25.211  1.00  0.00    -0.250 N 
HETATM    6  C6  UNL     1      23.335   3.462 -24.871  1.00  0.00     0.283 C 
HETATM    7  O3  UNL     1      22.736   3.052 -23.850  1.00  0.00    -0.265 OA
ATOM      8  H2  UNL     1      25.049   3.136 -26.041  1.00  0.00     0.192 HD
BRANCH   6   9
HETATM    9  C4  UNL     1      22.779   4.551 -25.640  1.00  0.00     0.079 C 
HETATM   10  N1  UNL     1      23.500   5.435 -26.239  1.00  0.00    -0.301 N 
HETATM   11  C3  UNL     1      22.904   6.486 -26.982  1.00  0.00     0.365 C 
ATOM     12  H1  UNL     1      24.517   5.379 -26.178  1.00  0.00     0.171 HD
HETATM   13  O2  UNL     1      23.314   7.690 -26.853  1.00  0.00    -0.238 OA
HETATM   14  C5  UNL     1      21.300   4.674 -25.755  1.00  0.00     0.074 C 
BRANCH  11  15
HETATM   15  O1  UNL     1      21.865   6.315 -27.879  1.00  0.00    -0.304 OA
BRANCH  15  16
HETATM   16  C2  UNL     1      21.723   7.159 -29.022  1.00  0.00     0.176 C 
HETATM   17  C1  UNL     1      20.429   7.952 -28.972  1.00  0.00     0.034 C 
ENDBRANCH  15  16
ENDBRANCH  11  15
ENDBRANCH   6   9
ENDBRANCH   3   5
ENDBRANCH   1   3
BRANCH   1  18
HETATM   18  C7  UNL     1      27.391   1.903 -25.222  1.00  0.00     0.126 A 
HETATM   19  C8  UNL     1      27.598   2.771 -26.264  1.00  0.00     0.064 A 
HETATM   20  C9  UNL     1      28.779   3.501 -26.368  1.00  0.00     0.042 A 
HETATM   21  C13 UNL     1      29.735   3.334 -25.399  1.00  0.00     0.145 A 
HETATM   22  C14 UNL     1      29.449   2.428 -24.364  1.00  0.00     0.282 A 
HETATM   23  O6  UNL     1      30.346   2.278 -23.465  1.00  0.00    -0.265 OA
HETATM   24  N6  UNL     1      28.320   1.732 -24.268  1.00  0.00    -0.301 N 
HETATM   25  C15 UNL     1      28.076   0.803 -23.170  1.00  0.00     0.161 C 
BRANCH  20  26
HETATM   26  C10 UNL     1      28.958   4.406 -27.518  1.00  0.00     0.393 C 
BRANCH  26  27
HETATM   27  O4  UNL     1      29.545   5.599 -27.163  1.00  0.00    -0.364 OA
ATOM     28  H4  UNL     1      30.457   5.647 -27.424  1.00  0.00     0.212 HD
ENDBRANCH  26  27
BRANCH  26  29
HETATM   29  N5  UNL     1      29.452   3.825 -28.710  1.00  0.00     0.113 N 
HETATM   30  C11 UNL     1      30.587   2.985 -28.641  1.00  0.00     0.313 C 
HETATM   31  C12 UNL     1      28.422   3.162 -29.482  1.00  0.00     0.313 C 
ENDBRANCH  26  29
ENDBRANCH  20  26
BRANCH  21  32
HETATM   32  O5  UNL     1      30.952   3.988 -25.365  1.00  0.00    -0.355 OA
ATOM     33  H5  UNL     1      31.742   3.649 -24.959  1.00  0.00     0.218 HD
ENDBRANCH  21  32
ENDBRANCH   1  18
TORSDOF 10
ENDMDL
MODEL 2
REMARK VINA RESULT: -8.197598057      1.581      1.826
REMARK  10 active torsions:
REMARK  status: ('A' for Active; 'I' for Inactive)
REMARK    1  A    between atoms: C2_2  and  O1_3 
REMARK    2  A    between atoms: O1_3  and  C3_4 
REMARK       I    between atoms: C3_4  and  N1_6 
REMARK    3  A    between atoms: C4_8  and  C6_10 
REMARK       I    between atoms: C6_10  and  N2_12 
REMARK    4  A    between atoms: N2_12  and  N3_14 
REMARK    5  A    between atoms: N3_14  and  N4_16 
REMARK    6  A    between atoms: N4_16  and  C7_18 
REMARK    7  A    between atoms: C9_20  and  C10_21 
REMARK    8  A    between atoms: C10_21  and  O4_22 
REMARK    9  A    between atoms: C10_21  and  N5_24 
REMARK   10  A    between atoms: C13_27  and  O5_28 
ROOT
HETATM    1  N4  UNL     1      26.407   1.864 -24.986  1.00  0.00    -0.271 N 
ATOM      2  H4  UNL     1      26.169   1.119 -25.641  1.00  0.00     0.190 HD
ENDROOT
BRANCH   1   3
HETATM    3  N3  UNL     1      25.434   2.591 -24.333  1.00  0.00    -0.238 N 
ATOM      4  H3  UNL     1      25.188   2.409 -23.360  1.00  0.00     0.208 HD
BRANCH   3   5
HETATM    5  N2  UNL     1      24.817   3.574 -25.065  1.00  0.00    -0.250 N 
HETATM    6  C6  UNL     1      23.420   3.839 -25.048  1.00  0.00     0.283 C 
HETATM    7  O3  UNL     1      22.712   3.116 -24.308  1.00  0.00    -0.265 OA
ATOM      8  H2  UNL     1      25.402   4.157 -25.664  1.00  0.00     0.192 HD
BRANCH   6   9
HETATM    9  C4  UNL     1      22.803   4.882 -25.834  1.00  0.00     0.079 C 
HETATM   10  N1  UNL     1      23.471   5.709 -26.563  1.00  0.00    -0.301 N 
HETATM   11  C3  UNL     1      22.817   6.717 -27.316  1.00  0.00     0.365 C 
ATOM     12  H1  UNL     1      24.488   5.638 -26.599  1.00  0.00     0.171 HD
HETATM   13  O2  UNL     1      23.252   7.919 -27.314  1.00  0.00    -0.238 OA
HETATM   14  C5  UNL     1      21.321   5.025 -25.811  1.00  0.00     0.074 C 
BRANCH  11  15
HETATM   15  O1  UNL     1      21.690   6.504 -28.091  1.00  0.00    -0.304 OA
BRANCH  15  16
HETATM   16  C2  UNL     1      21.447   7.266 -29.273  1.00  0.00     0.176 C 
HETATM   17  C1  UNL     1      20.429   8.365 -29.029  1.00  0.00     0.034 C 
ENDBRANCH  15  16
ENDBRANCH  11  15
ENDBRANCH   6   9
ENDBRANCH   3   5
ENDBRANCH   1   3
BRANCH   1  18
HETATM   18  C7  UNL     1      27.772   2.207 -24.698  1.00  0.00     0.126 A 
HETATM   19  C8  UNL     1      28.291   3.444 -24.983  1.00  0.00     0.064 A 
HETATM   20  C9  UNL     1      29.617   3.753 -24.694  1.00  0.00     0.042 A 
HETATM   21  C13 UNL     1      30.398   2.787 -24.113  1.00  0.00     0.145 A 
HETATM   22  C14 UNL     1      29.796   1.546 -23.852  1.00  0.00     0.282 A 
HETATM   23  O6  UNL     1      30.532   0.650 -23.311  1.00  0.00    -0.265 OA
HETATM   24  N6  UNL     1      28.528   1.254 -24.130  1.00  0.00    -0.301 N 
HETATM   25  C15 UNL     1      27.955  -0.056 -23.837  1.00  0.00     0.161 C 
BRANCH  20  26
HETATM   26  C10 UNL     1      30.128   5.093 -25.037  1.00  0.00     0.393 C 
BRANCH  26  27
HETATM   27  O4  UNL     1      31.031   5.564 -24.112  1.00  0.00    -0.364 OA
ATOM     28  H4  UNL     1      30.685   6.287 -23.602  1.00  0.00     0.212 HD
ENDBRANCH  26  27
BRANCH  26  29
HETATM   29  N5  UNL     1      30.486   5.306 -26.390  1.00  0.00     0.113 N 
HETATM   30  C11 UNL     1      29.561   5.942 -27.249  1.00  0.00     0.313 C 
HETATM   31  C12 UNL     1      31.779   5.943 -26.535  1.00  0.00     0.313 C 
ENDBRANCH  26  29
ENDBRANCH  20  26
BRANCH  21  32
HETATM   32  O5  UNL     1      31.727   2.945 -23.766  1.00  0.00    -0.355 OA
ATOM     33  H5  UNL     1      32.118   2.640 -22.955  1.00  0.00     0.218 HD
ENDBRANCH  21  32
ENDBRANCH   1  18
TORSDOF 10
ENDMDL
MODEL 3
REMARK VINA RESULT: -8.088556994      4.405      7.480
REMARK  10 active torsions:
REMARK  status: ('A' for Active; 'I' for Inactive)
REMARK    1  A    between atoms: C2_2  and  O1_3 
REMARK    2  A    between atoms: O1_3  and  C3_4 
REMARK       I    between atoms: C3_4  and  N1_6 
REMARK    3  A    between atoms: C4_8  and  C6_10 
REMARK       I    between atoms: C6_10  and  N2_12 
REMARK    4  A    between atoms: N2_12  and  N3_14 
REMARK    5  A    between atoms: N3_14  and  N4_16 
REMARK    6  A    between atoms: N4_16  and  C7_18 
REMARK    7  A    between atoms: C9_20  and  C10_21 
REMARK    8  A    between atoms: C10_21  and  O4_22 
REMARK    9  A    between atoms: C10_21  and  N5_24 
REMARK   10  A    between atoms: C13_27  and  O5_28 
ROOT
HETATM    1  N4  UNL     1      28.315   2.782 -29.928  1.00  0.00    -0.271 N 
ATOM      2  H4  UNL     1      28.007   3.717 -30.196  1.00  0.00     0.190 HD
ENDROOT
BRANCH   1   3
HETATM    3  N3  UNL     1      27.489   1.915 -29.244  1.00  0.00    -0.238 N 
ATOM      4  H3  UNL     1      26.692   1.464 -29.693  1.00  0.00     0.208 HD
BRANCH   3   5
HETATM    5  N2  UNL     1      27.798   1.695 -27.926  1.00  0.00    -0.250 N 
HETATM    6  C6  UNL     1      28.002   2.720 -26.960  1.00  0.00     0.283 C 
HETATM    7  O3  UNL     1      27.887   3.904 -27.354  1.00  0.00    -0.265 OA
ATOM      8  H2  UNL     1      27.889   0.728 -27.615  1.00  0.00     0.192 HD
BRANCH   6   9
HETATM    9  C4  UNL     1      28.328   2.452 -25.579  1.00  0.00     0.079 C 
HETATM   10  N1  UNL     1      28.385   1.263 -25.082  1.00  0.00    -0.301 N 
HETATM   11  C3  UNL     1      28.710   1.054 -23.718  1.00  0.00     0.365 C 
ATOM     12  H1  UNL     1      28.192   0.460 -25.680  1.00  0.00     0.171 HD
HETATM   13  O2  UNL     1      28.031   0.241 -23.003  1.00  0.00    -0.238 OA
HETATM   14  C5  UNL     1      28.615   3.594 -24.668  1.00  0.00     0.074 C 
BRANCH  11  15
HETATM   15  O1  UNL     1      29.749   1.685 -23.057  1.00  0.00    -0.304 OA
BRANCH  15  16
HETATM   16  C2  UNL     1      30.930   0.978 -22.682  1.00  0.00     0.176 C 
HETATM   17  C1  UNL     1      31.726   0.536 -23.897  1.00  0.00     0.034 C 
ENDBRANCH  15  16
ENDBRANCH  11  15
ENDBRANCH   6   9
ENDBRANCH   3   5
ENDBRANCH   1   3
BRANCH   1  18
HETATM   18  C7  UNL     1      29.632   2.303 -30.246  1.00  0.00     0.126 A 
HETATM   19  C8  UNL     1      30.719   2.575 -29.455  1.00  0.00     0.064 A 
HETATM   20  C9  UNL     1      31.986   2.100 -29.783  1.00  0.00     0.042 A 
HETATM   21  C13 UNL     1      32.123   1.347 -30.922  1.00  0.00     0.145 A 
HETATM   22  C14 UNL     1      30.964   1.111 -31.679  1.00  0.00     0.282 A 
HETATM   23  O6  UNL     1      31.101   0.409 -32.739  1.00  0.00    -0.265 OA
HETATM   24  N6  UNL     1      29.755   1.568 -31.362  1.00  0.00    -0.301 N 
HETATM   25  C15 UNL     1      28.584   1.292 -32.188  1.00  0.00     0.161 C 
BRANCH  20  26
HETATM   26  C10 UNL     1      33.123   2.436 -28.907  1.00  0.00     0.393 C 
BRANCH  26  27
HETATM   27  O4  UNL     1      33.960   1.365 -28.697  1.00  0.00    -0.364 OA
ATOM     28  H4  UNL     1      34.149   1.227 -27.776  1.00  0.00     0.212 HD
ENDBRANCH  26  27
BRANCH  26  29
HETATM   29  N5  UNL     1      33.775   3.667 -29.162  1.00  0.00     0.113 N 
HETATM   30  C11 UNL     1      33.899   4.604 -28.110  1.00  0.00     0.313 C 
HETATM   31  C12 UNL     1      35.064   3.500 -29.798  1.00  0.00     0.313 C 
ENDBRANCH  26  29
ENDBRANCH  20  26
BRANCH  21  32
HETATM   32  O5  UNL     1      33.310   0.805 -31.375  1.00  0.00    -0.355 OA
ATOM     33  H5  UNL     1      33.493   0.571 -32.278  1.00  0.00     0.218 HD
ENDBRANCH  21  32
ENDBRANCH   1  18
TORSDOF 10
ENDMDL
MODEL 4
REMARK VINA RESULT: -8.065707710      4.977      8.008
REMARK  10 active torsions:
REMARK  status: ('A' for Active; 'I' for Inactive)
REMARK    1  A    between atoms: C2_2  and  O1_3 
REMARK    2  A    between atoms: O1_3  and  C3_4 
REMARK       I    between atoms: C3_4  and  N1_6 
REMARK    3  A    between atoms: C4_8  and  C6_10 
REMARK       I    between atoms: C6_10  and  N2_12 
REMARK    4  A    between atoms: N2_12  and  N3_14 
REMARK    5  A    between atoms: N3_14  and  N4_16 
REMARK    6  A    between atoms: N4_16  and  C7_18 
REMARK    7  A    between atoms: C9_20  and  C10_21 
REMARK    8  A    between atoms: C10_21  and  O4_22 
REMARK    9  A    between atoms: C10_21  and  N5_24 
REMARK   10  A    between atoms: C13_27  and  O5_28 
ROOT
HETATM    1  N4  UNL     1      28.208   1.242 -28.984  1.00  0.00    -0.271 N 
ATOM      2  H4  UNL     1      27.475   0.579 -29.233  1.00  0.00     0.190 HD
ENDROOT
BRANCH   1   3
HETATM    3  N3  UNL     1      28.099   2.062 -27.880  1.00  0.00    -0.238 N 
ATOM      4  H3  UNL     1      27.559   2.926 -27.903  1.00  0.00     0.208 HD
BRANCH   3   5
HETATM    5  N2  UNL     1      28.759   1.648 -26.750  1.00  0.00    -0.250 N 
HETATM    6  C6  UNL     1      28.190   1.617 -25.447  1.00  0.00     0.283 C 
HETATM    7  O3  UNL     1      27.000   1.996 -25.336  1.00  0.00    -0.265 OA
ATOM      8  H2  UNL     1      29.726   1.342 -26.852  1.00  0.00     0.192 HD
BRANCH   6   9
HETATM    9  C4  UNL     1      28.914   1.176 -24.277  1.00  0.00     0.079 C 
HETATM   10  N1  UNL     1      30.196   1.042 -24.248  1.00  0.00    -0.301 N 
HETATM   11  C3  UNL     1      30.859   0.605 -23.073  1.00  0.00     0.365 C 
ATOM     12  H1  UNL     1      30.742   1.252 -25.083  1.00  0.00     0.171 HD
HETATM   13  O2  UNL     1      31.768  -0.293 -23.133  1.00  0.00    -0.238 OA
HETATM   14  C5  UNL     1      28.158   0.855 -23.036  1.00  0.00     0.074 C 
BRANCH  11  15
HETATM   15  O1  UNL     1      30.597   1.088 -21.803  1.00  0.00    -0.304 OA
BRANCH  15  16
HETATM   16  C2  UNL     1      31.623   1.177 -20.815  1.00  0.00     0.176 C 
HETATM   17  C1  UNL     1      31.049   1.140 -19.410  1.00  0.00     0.034 C 
ENDBRANCH  15  16
ENDBRANCH  11  15
ENDBRANCH   6   9
ENDBRANCH   3   5
ENDBRANCH   1   3
BRANCH   1  18
HETATM   18  C7  UNL     1      29.406   1.370 -29.767  1.00  0.00     0.126 A 
HETATM   19  C8  UNL     1      30.627   1.632 -29.198  1.00  0.00     0.064 A 
HETATM   20  C9  UNL     1      31.774   1.751 -29.978  1.00  0.00     0.042 A 
HETATM   21  C13 UNL     1      31.656   1.598 -31.336  1.00  0.00     0.145 A 
HETATM   22  C14 UNL     1      30.374   1.331 -31.843  1.00  0.00     0.282 A 
HETATM   23  O6  UNL     1      30.273   1.191 -33.110  1.00  0.00    -0.265 OA
HETATM   24  N6  UNL     1      29.280   1.219 -31.095  1.00  0.00    -0.301 N 
HETATM   25  C15 UNL     1      27.971   0.941 -31.677  1.00  0.00     0.161 C 
BRANCH  20  26
HETATM   26  C10 UNL     1      33.057   2.050 -29.317  1.00  0.00     0.393 C 
BRANCH  26  27
HETATM   27  O4  UNL     1      34.015   1.096 -29.570  1.00  0.00    -0.364 OA
ATOM     28  H4  UNL     1      34.503   1.273 -30.366  1.00  0.00     0.212 HD
ENDBRANCH  26  27
BRANCH  26  29
HETATM   29  N5  UNL     1      33.510   3.390 -29.391  1.00  0.00     0.113 N 
HETATM   30  C11 UNL     1      33.252   4.259 -28.307  1.00  0.00     0.313 C 
HETATM   31  C12 UNL     1      34.908   3.492 -29.754  1.00  0.00     0.313 C 
ENDBRANCH  26  29
ENDBRANCH  20  26
BRANCH  21  32
HETATM   32  O5  UNL     1      32.701   1.685 -32.237  1.00  0.00    -0.355 OA
ATOM     33  H5  UNL     1      32.686   2.191 -33.041  1.00  0.00     0.218 HD
ENDBRANCH  21  32
ENDBRANCH   1  18
TORSDOF 10
ENDMDL
MODEL 5
REMARK VINA RESULT: -7.979396831      3.453      5.867
REMARK  10 active torsions:
REMARK  status: ('A' for Active; 'I' for Inactive)
REMARK    1  A    between atoms: C2_2  and  O1_3 
REMARK    2  A    between atoms: O1_3  and  C3_4 
REMARK       I    between atoms: C3_4  and  N1_6 
REMARK    3  A    between atoms: C4_8  and  C6_10 
REMARK       I    between atoms: C6_10  and  N2_12 
REMARK    4  A    between atoms: N2_12  and  N3_14 
REMARK    5  A    between atoms: N3_14  and  N4_16 
REMARK    6  A    between atoms: N4_16  and  C7_18 
REMARK    7  A    between atoms: C9_20  and  C10_21 
REMARK    8  A    between atoms: C10_21  and  O4_22 
REMARK    9  A    between atoms: C10_21  and  N5_24 
REMARK   10  A    between atoms: C13_27  and  O5_28 
ROOT
HETATM    1  N4  UNL     1      29.777   3.307 -28.002  1.00  0.00    -0.271 N 
ATOM      2  H4  UNL     1      29.454   4.273 -27.959  1.00  0.00     0.190 HD
ENDROOT
BRANCH   1   3
HETATM    3  N3  UNL     1      29.703   2.470 -26.908  1.00  0.00    -0.238 N 
ATOM      4  H3  UNL     1      30.535   2.044 -26.499  1.00  0.00     0.208 HD
BRANCH   3   5
HETATM    5  N2  UNL     1      28.448   2.242 -26.402  1.00  0.00    -0.250 N 
HETATM    6  C6  UNL     1      27.719   3.164 -25.601  1.00  0.00     0.283 C 
HETATM    7  O3  UNL     1      28.273   4.260 -25.347  1.00  0.00    -0.265 OA
ATOM      8  H2  UNL     1      28.006   1.347 -26.614  1.00  0.00     0.192 HD
BRANCH   6   9
HETATM    9  C4  UNL     1      26.399   2.891 -25.082  1.00  0.00     0.079 C 
HETATM   10  N1  UNL     1      25.511   3.805 -24.887  1.00  0.00    -0.301 N 
HETATM   11  C3  UNL     1      24.229   3.484 -24.375  1.00  0.00     0.365 C 
ATOM     12  H1  UNL     1      25.735   4.776 -25.105  1.00  0.00     0.171 HD
HETATM   13  O2  UNL     1      23.707   4.181 -23.440  1.00  0.00    -0.238 OA
HETATM   14  C5  UNL     1      26.029   1.489 -24.748  1.00  0.00     0.074 C 
BRANCH  11  15
HETATM   15  O1  UNL     1      23.453   2.428 -24.820  1.00  0.00    -0.304 OA
BRANCH  15  16
HETATM   16  C2  UNL     1      22.096   2.619 -25.219  1.00  0.00     0.176 C 
HETATM   17  C1  UNL     1      21.909   3.937 -25.949  1.00  0.00     0.034 C 
ENDBRANCH  15  16
ENDBRANCH  11  15
ENDBRANCH   6   9
ENDBRANCH   3   5
ENDBRANCH   1   3
BRANCH   1  18
HETATM   18  C7  UNL     1      30.331   2.750 -29.204  1.00  0.00     0.126 A 
HETATM   19  C8  UNL     1      31.672   2.493 -29.341  1.00  0.00     0.064 A 
HETATM   20  C9  UNL     1      32.186   1.953 -30.516  1.00  0.00     0.042 A 
HETATM   21  C13 UNL     1      31.316   1.680 -31.541  1.00  0.00     0.145 A 
HETATM   22  C14 UNL     1      29.959   1.969 -31.326  1.00  0.00     0.282 A 
HETATM   23  O6  UNL     1      29.155   1.713 -32.287  1.00  0.00    -0.265 OA
HETATM   24  N6  UNL     1      29.471   2.486 -30.202  1.00  0.00    -0.301 N 
HETATM   25  C15 UNL     1      28.050   2.769 -30.034  1.00  0.00     0.161 C 
BRANCH  20  26
HETATM   26  C10 UNL     1      33.637   1.713 -30.615  1.00  0.00     0.393 C 
BRANCH  26  27
HETATM   27  O4  UNL     1      33.932   0.513 -31.220  1.00  0.00    -0.364 OA
ATOM     28  H4  UNL     1      34.842   0.263 -31.108  1.00  0.00     0.212 HD
ENDBRANCH  26  27
BRANCH  26  29
HETATM   29  N5  UNL     1      34.432   2.807 -31.034  1.00  0.00     0.113 N 
HETATM   30  C11 UNL     1      35.250   3.459 -30.083  1.00  0.00     0.313 C 
HETATM   31  C12 UNL     1      35.222   2.511 -32.211  1.00  0.00     0.313 C 
ENDBRANCH  26  29
ENDBRANCH  20  26
BRANCH  21  32
HETATM   32  O5  UNL     1      31.675   1.141 -32.762  1.00  0.00    -0.355 OA
ATOM     33  H5  UNL     1      31.281   0.371 -33.155  1.00  0.00     0.218 HD
ENDBRANCH  21  32
ENDBRANCH   1  18
TORSDOF 10
ENDMDL
