MODEL 1
REMARK VINA RESULT: -7.469503870      0.000      0.000
REMARK  10 active torsions:
REMARK  status: ('A' for Active; 'I' for Inactive)
REMARK    1  A    between atoms: C2_2  and  C3_3 
REMARK    2  A    between atoms: C3_3  and  C4_4 
REMARK    3  A    between atoms: C4_4  and  O1_5 
REMARK    4  A    between atoms: O1_5  and  C5_6 
REMARK    5  A    between atoms: C5_6  and  O3_8 
REMARK    6  A    between atoms: O3_8  and  N1_9 
REMARK    7  A    between atoms: N1_9  and  C6_11 
REMARK    8  A    between atoms: C6_11  and  C7_15 
REMARK    9  A    between atoms: C8_16  and  C9_17 
REMARK   10  A    between atoms: C14_24  and  N3_25 
ROOT
HETATM    1  C7  UNL     1     -18.729   1.751 -23.244  1.00  0.00     0.055 A 
HETATM    2  C8  UNL     1     -18.383   0.531 -23.708  1.00  0.00     0.004 A 
HETATM    3  C13 UNL     1     -19.440  -0.275 -24.150  1.00  0.00     0.065 A 
HETATM    4  S2  UNL     1     -20.807   0.654 -23.900  1.00  0.00    -0.083 SA
HETATM    5  C14 UNL     1     -20.084   2.058 -23.248  1.00  0.00     0.087 A 
ENDROOT
BRANCH   1   6
HETATM    6  C6  UNL     1     -17.756   2.849 -22.934  1.00  0.00     0.133 C 
HETATM    7  N2  UNL     1     -17.285   3.546 -23.905  1.00  0.00    -0.383 N 
ATOM      8  H22 UNL     1     -16.623   4.293 -23.693  1.00  0.00     0.157 HD
ATOM      9  H21 UNL     1     -17.678   3.348 -24.825  1.00  0.00     0.157 HD
BRANCH   6  10
HETATM   10  N1  UNL     1     -17.213   3.123 -21.664  1.00  0.00    -0.239 N 
ATOM     11  H1  UNL     1     -17.815   3.562 -20.967  1.00  0.00     0.196 HD
BRANCH  10  12
HETATM   12  O3  UNL     1     -15.913   2.831 -21.314  1.00  0.00    -0.173 OA
BRANCH  12  13
HETATM   13  C5  UNL     1     -15.005   3.903 -21.253  1.00  0.00     0.428 C 
HETATM   14  O2  UNL     1     -15.263   4.944 -21.912  1.00  0.00    -0.227 OA
BRANCH  13  15
HETATM   15  O1  UNL     1     -13.862   3.854 -20.509  1.00  0.00    -0.296 OA
BRANCH  15  16
HETATM   16  C4  UNL     1     -12.841   2.902 -20.648  1.00  0.00     0.185 C 
BRANCH  16  17
HETATM   17  C3  UNL     1     -12.456   2.596 -22.058  1.00  0.00     0.053 C 
BRANCH  17  18
HETATM   18  C2  UNL     1     -11.749   1.296 -22.113  1.00  0.00    -0.035 C 
HETATM   19  C1  UNL     1     -11.389   0.726 -23.239  1.00  0.00     0.007 C 
ENDBRANCH  17  18
ENDBRANCH  16  17
ENDBRANCH  15  16
ENDBRANCH  13  15
ENDBRANCH  12  13
ENDBRANCH  10  12
ENDBRANCH   6  10
ENDBRANCH   1   6
BRANCH   2  20
HETATM   20  C9  UNL     1     -17.061  -0.182 -23.629  1.00  0.00     0.016 A 
HETATM   21  C10 UNL     1     -15.792   0.299 -23.694  1.00  0.00     0.020 A 
HETATM   22  C11 UNL     1     -14.782  -0.554 -23.468  1.00  0.00     0.008 A 
HETATM   23  C12 UNL     1     -15.097  -1.852 -23.183  1.00  0.00     0.050 A 
HETATM   24  S1  UNL     1     -16.805  -1.828 -23.245  1.00  0.00    -0.101 SA
ENDBRANCH   2  20
BRANCH   5  25
HETATM   25  N3  UNL     1     -20.775   3.238 -22.822  1.00  0.00    -0.374 N 
HETATM   26  C15 UNL     1     -20.758   3.766 -21.484  1.00  0.00     0.124 C 
HETATM   27  C16 UNL     1     -22.203   3.981 -21.033  1.00  0.00     0.024 C 
HETATM   28  C17 UNL     1     -23.182   3.264 -21.963  1.00  0.00    -0.015 C 
HETATM   29  C18 UNL     1     -24.567   3.593 -21.403  1.00  0.00     0.010 C 
HETATM   30  C19 UNL     1     -23.074   3.794 -23.365  1.00  0.00     0.024 C 
HETATM   31  C20 UNL     1     -21.597   3.924 -23.793  1.00  0.00     0.124 C 
ENDBRANCH   5  25
TORSDOF 10
ENDMDL
MODEL 2
REMARK VINA RESULT: -7.435270471      0.865      1.137
REMARK  10 active torsions:
REMARK  status: ('A' for Active; 'I' for Inactive)
REMARK    1  A    between atoms: C2_2  and  C3_3 
REMARK    2  A    between atoms: C3_3  and  C4_4 
REMARK    3  A    between atoms: C4_4  and  O1_5 
REMARK    4  A    between atoms: O1_5  and  C5_6 
REMARK    5  A    between atoms: C5_6  and  O3_8 
REMARK    6  A    between atoms: O3_8  and  N1_9 
REMARK    7  A    between atoms: N1_9  and  C6_11 
REMARK    8  A    between atoms: C6_11  and  C7_15 
REMARK    9  A    between atoms: C8_16  and  C9_17 
REMARK   10  A    between atoms: C14_24  and  N3_25 
ROOT
HETATM    1  C7  UNL     1     -18.811   1.664 -23.233  1.00  0.00     0.055 A 
HETATM    2  C8  UNL     1     -18.398   0.454 -23.664  1.00  0.00     0.004 A 
HETATM    3  C13 UNL     1     -19.402  -0.399 -24.141  1.00  0.00     0.065 A 
HETATM    4  S2  UNL     1     -20.814   0.479 -23.965  1.00  0.00    -0.083 SA
HETATM    5  C14 UNL     1     -20.176   1.917 -23.301  1.00  0.00     0.087 A 
ENDROOT
BRANCH   1   6
HETATM    6  C6  UNL     1     -17.897   2.804 -22.896  1.00  0.00     0.133 C 
HETATM    7  N2  UNL     1     -17.670   3.066 -21.658  1.00  0.00    -0.383 N 
ATOM      8  H22 UNL     1     -17.048   3.841 -21.429  1.00  0.00     0.157 HD
ATOM      9  H21 UNL     1     -18.076   2.414 -20.986  1.00  0.00     0.157 HD
BRANCH   6  10
HETATM   10  N1  UNL     1     -17.337   3.702 -23.824  1.00  0.00    -0.239 N 
ATOM     11  H1  UNL     1     -17.966   4.323 -24.334  1.00  0.00     0.196 HD
BRANCH  10  12
HETATM   12  O3  UNL     1     -15.985   3.788 -24.078  1.00  0.00    -0.173 OA
BRANCH  12  13
HETATM   13  C5  UNL     1     -15.203   4.521 -23.167  1.00  0.00     0.428 C 
HETATM   14  O2  UNL     1     -15.685   5.575 -22.677  1.00  0.00    -0.227 OA
BRANCH  13  15
HETATM   15  O1  UNL     1     -13.949   4.129 -22.798  1.00  0.00    -0.296 OA
BRANCH  15  16
HETATM   16  C4  UNL     1     -13.530   3.871 -21.483  1.00  0.00     0.185 C 
BRANCH  16  17
HETATM   17  C3  UNL     1     -12.865   2.548 -21.286  1.00  0.00     0.053 C 
BRANCH  17  18
HETATM   18  C2  UNL     1     -11.918   2.294 -22.397  1.00  0.00    -0.035 C 
HETATM   19  C1  UNL     1     -11.422   1.107 -22.654  1.00  0.00     0.007 C 
ENDBRANCH  17  18
ENDBRANCH  16  17
ENDBRANCH  15  16
ENDBRANCH  13  15
ENDBRANCH  12  13
ENDBRANCH  10  12
ENDBRANCH   6  10
ENDBRANCH   1   6
BRANCH   2  20
HETATM   20  C9  UNL     1     -17.054  -0.206 -23.516  1.00  0.00     0.016 A 
HETATM   21  C10 UNL     1     -15.834   0.326 -23.242  1.00  0.00     0.020 A 
HETATM   22  C11 UNL     1     -14.810  -0.516 -23.041  1.00  0.00     0.008 A 
HETATM   23  C12 UNL     1     -15.062  -1.856 -23.122  1.00  0.00     0.050 A 
HETATM   24  S1  UNL     1     -16.734  -1.885 -23.480  1.00  0.00    -0.101 SA
ENDBRANCH   2  20
BRANCH   5  25
HETATM   25  N3  UNL     1     -20.931   3.075 -22.923  1.00  0.00    -0.374 N 
HETATM   26  C15 UNL     1     -21.098   3.546 -21.574  1.00  0.00     0.124 C 
HETATM   27  C16 UNL     1     -22.593   3.733 -21.312  1.00  0.00     0.024 C 
HETATM   28  C17 UNL     1     -23.431   3.051 -22.394  1.00  0.00    -0.015 C 
HETATM   29  C18 UNL     1     -24.881   3.348 -22.011  1.00  0.00     0.010 C 
HETATM   30  C19 UNL     1     -23.142   3.640 -23.745  1.00  0.00     0.024 C 
HETATM   31  C20 UNL     1     -21.623   3.797 -23.967  1.00  0.00     0.124 C 
ENDBRANCH   5  25
TORSDOF 10
ENDMDL
MODEL 3
REMARK VINA RESULT: -7.253158337      2.688      3.867
REMARK  10 active torsions:
REMARK  status: ('A' for Active; 'I' for Inactive)
REMARK    1  A    between atoms: C2_2  and  C3_3 
REMARK    2  A    between atoms: C3_3  and  C4_4 
REMARK    3  A    between atoms: C4_4  and  O1_5 
REMARK    4  A    between atoms: O1_5  and  C5_6 
REMARK    5  A    between atoms: C5_6  and  O3_8 
REMARK    6  A    between atoms: O3_8  and  N1_9 
REMARK    7  A    between atoms: N1_9  and  C6_11 
REMARK    8  A    between atoms: C6_11  and  C7_15 
REMARK    9  A    between atoms: C8_16  and  C9_17 
REMARK   10  A    between atoms: C14_24  and  N3_25 
ROOT
HETATM    1  C7  UNL     1     -17.587   3.624 -22.808  1.00  0.00     0.055 A 
HETATM    2  C8  UNL     1     -18.426   2.596 -23.054  1.00  0.00     0.004 A 
HETATM    3  C13 UNL     1     -19.762   2.798 -22.681  1.00  0.00     0.065 A 
HETATM    4  S2  UNL     1     -19.785   4.335 -22.024  1.00  0.00    -0.083 SA
HETATM    5  C14 UNL     1     -18.138   4.750 -22.208  1.00  0.00     0.087 A 
ENDROOT
BRANCH   1   6
HETATM    6  C6  UNL     1     -16.181   3.714 -23.322  1.00  0.00     0.133 C 
HETATM    7  N2  UNL     1     -15.989   3.704 -24.593  1.00  0.00    -0.383 N 
ATOM      8  H22 UNL     1     -15.032   3.765 -24.942  1.00  0.00     0.157 HD
ATOM      9  H21 UNL     1     -16.830   3.716 -25.169  1.00  0.00     0.157 HD
BRANCH   6  10
HETATM   10  N1  UNL     1     -15.020   3.698 -22.527  1.00  0.00    -0.239 N 
ATOM     11  H1  UNL     1     -14.166   4.104 -22.912  1.00  0.00     0.196 HD
BRANCH  10  12
HETATM   12  O3  UNL     1     -14.975   3.165 -21.258  1.00  0.00    -0.173 OA
BRANCH  12  13
HETATM   13  C5  UNL     1     -13.971   2.215 -20.993  1.00  0.00     0.428 C 
HETATM   14  O2  UNL     1     -13.150   2.453 -20.070  1.00  0.00    -0.227 OA
BRANCH  13  15
HETATM   15  O1  UNL     1     -13.860   1.052 -21.698  1.00  0.00    -0.296 OA
BRANCH  15  16
HETATM   16  C4  UNL     1     -12.825   0.737 -22.592  1.00  0.00     0.185 C 
BRANCH  16  17
HETATM   17  C3  UNL     1     -13.184  -0.268 -23.637  1.00  0.00     0.053 C 
BRANCH  17  18
HETATM   18  C2  UNL     1     -12.912  -1.633 -23.131  1.00  0.00    -0.035 C 
HETATM   19  C1  UNL     1     -13.769  -2.620 -23.245  1.00  0.00     0.007 C 
ENDBRANCH  17  18
ENDBRANCH  16  17
ENDBRANCH  15  16
ENDBRANCH  13  15
ENDBRANCH  12  13
ENDBRANCH  10  12
ENDBRANCH   6  10
ENDBRANCH   1   6
BRANCH   2  20
HETATM   20  C9  UNL     1     -18.114   1.185 -23.471  1.00  0.00     0.016 A 
HETATM   21  C10 UNL     1     -16.937   0.506 -23.478  1.00  0.00     0.020 A 
HETATM   22  C11 UNL     1     -16.964  -0.798 -23.787  1.00  0.00     0.008 A 
HETATM   23  C12 UNL     1     -18.176  -1.360 -24.073  1.00  0.00     0.050 A 
HETATM   24  S1  UNL     1     -19.236  -0.031 -23.898  1.00  0.00    -0.101 SA
ENDBRANCH   2  20
BRANCH   5  25
HETATM   25  N3  UNL     1     -17.534   5.986 -21.810  1.00  0.00    -0.374 N 
HETATM   26  C15 UNL     1     -16.784   6.185 -20.598  1.00  0.00     0.124 C 
HETATM   27  C16 UNL     1     -17.360   7.400 -19.871  1.00  0.00     0.024 C 
HETATM   28  C17 UNL     1     -18.721   7.793 -20.447  1.00  0.00    -0.015 C 
HETATM   29  C18 UNL     1     -19.146   9.023 -19.644  1.00  0.00     0.010 C 
HETATM   30  C19 UNL     1     -18.601   8.164 -21.898  1.00  0.00     0.024 C 
HETATM   31  C20 UNL     1     -17.736   7.138 -22.660  1.00  0.00     0.124 C 
ENDBRANCH   5  25
TORSDOF 10
ENDMDL
MODEL 4
REMARK VINA RESULT: -7.153996955      3.565      6.221
REMARK  10 active torsions:
REMARK  status: ('A' for Active; 'I' for Inactive)
REMARK    1  A    between atoms: C2_2  and  C3_3 
REMARK    2  A    between atoms: C3_3  and  C4_4 
REMARK    3  A    between atoms: C4_4  and  O1_5 
REMARK    4  A    between atoms: O1_5  and  C5_6 
REMARK    5  A    between atoms: C5_6  and  O3_8 
REMARK    6  A    between atoms: O3_8  and  N1_9 
REMARK    7  A    between atoms: N1_9  and  C6_11 
REMARK    8  A    between atoms: C6_11  and  C7_15 
REMARK    9  A    between atoms: C8_16  and  C9_17 
REMARK   10  A    between atoms: C14_24  and  N3_25 
ROOT
HETATM    1  C7  UNL     1     -15.862   4.105 -21.562  1.00  0.00     0.055 A 
HETATM    2  C8  UNL     1     -14.810   3.288 -21.347  1.00  0.00     0.004 A 
HETATM    3  C13 UNL     1     -13.737   3.849 -20.642  1.00  0.00     0.065 A 
HETATM    4  S2  UNL     1     -14.216   5.421 -20.334  1.00  0.00    -0.083 SA
HETATM    5  C14 UNL     1     -15.756   5.401 -21.073  1.00  0.00     0.087 A 
ENDROOT
BRANCH   1   6
HETATM    6  C6  UNL     1     -17.191   3.656 -22.091  1.00  0.00     0.133 C 
HETATM    7  N2  UNL     1     -17.406   3.725 -23.356  1.00  0.00    -0.383 N 
ATOM      8  H22 UNL     1     -18.310   3.419 -23.716  1.00  0.00     0.157 HD
ATOM      9  H21 UNL     1     -16.609   4.011 -23.926  1.00  0.00     0.157 HD
BRANCH   6  10
HETATM   10  N1  UNL     1     -18.291   3.261 -21.306  1.00  0.00    -0.239 N 
ATOM     11  H1  UNL     1     -18.196   2.424 -20.729  1.00  0.00     0.196 HD
BRANCH  10  12
HETATM   12  O3  UNL     1     -19.487   3.944 -21.274  1.00  0.00    -0.173 OA
BRANCH  12  13
HETATM   13  C5  UNL     1     -20.603   3.317 -21.857  1.00  0.00     0.428 C 
HETATM   14  O2  UNL     1     -21.692   3.325 -21.226  1.00  0.00    -0.227 OA
BRANCH  13  15
HETATM   15  O1  UNL     1     -20.545   2.706 -23.076  1.00  0.00    -0.296 OA
BRANCH  15  16
HETATM   16  C4  UNL     1     -20.498   1.320 -23.291  1.00  0.00     0.185 C 
BRANCH  16  17
HETATM   17  C3  UNL     1     -19.231   0.825 -23.909  1.00  0.00     0.053 C 
BRANCH  17  18
HETATM   18  C2  UNL     1     -19.254  -0.654 -23.979  1.00  0.00    -0.035 C 
HETATM   19  C1  UNL     1     -18.165  -1.385 -23.992  1.00  0.00     0.007 C 
ENDBRANCH  17  18
ENDBRANCH  16  17
ENDBRANCH  15  16
ENDBRANCH  13  15
ENDBRANCH  12  13
ENDBRANCH  10  12
ENDBRANCH   6  10
ENDBRANCH   1   6
BRANCH   2  20
HETATM   20  C9  UNL     1     -14.516   1.933 -21.931  1.00  0.00     0.016 A 
HETATM   21  C10 UNL     1     -15.354   0.922 -22.281  1.00  0.00     0.020 A 
HETATM   22  C11 UNL     1     -14.829  -0.145 -22.901  1.00  0.00     0.008 A 
HETATM   23  C12 UNL     1     -13.484  -0.143 -23.143  1.00  0.00     0.050 A 
HETATM   24  S1  UNL     1     -13.005   1.360 -22.487  1.00  0.00    -0.101 SA
ENDBRANCH   2  20
BRANCH   5  25
HETATM   25  N3  UNL     1     -16.670   6.502 -21.138  1.00  0.00    -0.374 N 
HETATM   26  C15 UNL     1     -17.300   6.980 -22.340  1.00  0.00     0.124 C 
HETATM   27  C16 UNL     1     -17.058   8.487 -22.442  1.00  0.00     0.024 C 
HETATM   28  C17 UNL     1     -15.968   8.937 -21.469  1.00  0.00    -0.015 C 
HETATM   29  C18 UNL     1     -15.865  10.449 -21.669  1.00  0.00     0.010 C 
HETATM   30  C19 UNL     1     -16.365   8.649 -20.050  1.00  0.00     0.024 C 
HETATM   31  C20 UNL     1     -16.943   7.224 -19.916  1.00  0.00     0.124 C 
ENDBRANCH   5  25
TORSDOF 10
ENDMDL
MODEL 5
REMARK VINA RESULT: -7.085839640      2.841      5.950
REMARK  10 active torsions:
REMARK  status: ('A' for Active; 'I' for Inactive)
REMARK    1  A    between atoms: C2_2  and  C3_3 
REMARK    2  A    between atoms: C3_3  and  C4_4 
REMARK    3  A    between atoms: C4_4  and  O1_5 
REMARK    4  A    between atoms: O1_5  and  C5_6 
REMARK    5  A    between atoms: C5_6  and  O3_8 
REMARK    6  A    between atoms: O3_8  and  N1_9 
REMARK    7  A    between atoms: N1_9  and  C6_11 
REMARK    8  A    between atoms: C6_11  and  C7_15 
REMARK    9  A    between atoms: C8_16  and  C9_17 
REMARK   10  A    between atoms: C14_24  and  N3_25 
ROOT
HETATM    1  C7  UNL     1     -16.765   4.123 -22.096  1.00  0.00     0.055 A 
HETATM    2  C8  UNL     1     -17.782   4.855 -21.594  1.00  0.00     0.004 A 
HETATM    3  C13 UNL     1     -19.041   4.239 -21.607  1.00  0.00     0.065 A 
HETATM    4  S2  UNL     1     -18.766   2.742 -22.297  1.00  0.00    -0.083 SA
HETATM    5  C14 UNL     1     -17.084   2.859 -22.574  1.00  0.00     0.087 A 
ENDROOT
BRANCH   1   6
HETATM    6  C6  UNL     1     -15.316   4.490 -21.977  1.00  0.00     0.133 C 
HETATM    7  N2  UNL     1     -14.644   4.697 -23.052  1.00  0.00    -0.383 N 
ATOM      8  H22 UNL     1     -13.658   4.947 -22.971  1.00  0.00     0.157 HD
ATOM      9  H21 UNL     1     -15.179   4.674 -23.921  1.00  0.00     0.157 HD
BRANCH   6  10
HETATM   10  N1  UNL     1     -14.578   4.522 -20.779  1.00  0.00    -0.239 N 
ATOM     11  H1  UNL     1     -15.082   4.679 -19.906  1.00  0.00     0.196 HD
BRANCH  10  12
HETATM   12  O3  UNL     1     -13.212   4.353 -20.723  1.00  0.00    -0.173 OA
BRANCH  12  13
HETATM   13  C5  UNL     1     -12.715   3.053 -20.923  1.00  0.00     0.428 C 
HETATM   14  O2  UNL     1     -12.767   2.238 -19.966  1.00  0.00    -0.227 OA
BRANCH  13  15
HETATM   15  O1  UNL     1     -12.181   2.648 -22.112  1.00  0.00    -0.296 OA
BRANCH  15  16
HETATM   16  C4  UNL     1     -11.408   1.493 -22.307  1.00  0.00     0.185 C 
BRANCH  16  17
HETATM   17  C3  UNL     1     -11.769   0.694 -23.516  1.00  0.00     0.053 C 
BRANCH  17  18
HETATM   18  C2  UNL     1     -12.297  -0.627 -23.102  1.00  0.00    -0.035 C 
HETATM   19  C1  UNL     1     -13.041  -1.374 -23.883  1.00  0.00     0.007 C 
ENDBRANCH  17  18
ENDBRANCH  16  17
ENDBRANCH  15  16
ENDBRANCH  13  15
ENDBRANCH  12  13
ENDBRANCH  10  12
ENDBRANCH   6  10
ENDBRANCH   1   6
BRANCH   2  20
HETATM   20  C9  UNL     1     -17.818   6.311 -21.216  1.00  0.00     0.016 A 
HETATM   21  C10 UNL     1     -17.219   6.973 -20.192  1.00  0.00     0.020 A 
HETATM   22  C11 UNL     1     -17.320   8.310 -20.160  1.00  0.00     0.008 A 
HETATM   23  C12 UNL     1     -18.016   8.919 -21.165  1.00  0.00     0.050 A 
HETATM   24  S1  UNL     1     -18.508   7.588 -22.119  1.00  0.00    -0.101 SA
ENDBRANCH   2  20
BRANCH   5  25
HETATM   25  N3  UNL     1     -16.259   1.850 -23.169  1.00  0.00    -0.374 N 
HETATM   26  C15 UNL     1     -16.275   1.486 -24.561  1.00  0.00     0.124 C 
HETATM   27  C16 UNL     1     -16.449  -0.030 -24.660  1.00  0.00     0.024 C 
HETATM   28  C17 UNL     1     -16.894  -0.621 -23.321  1.00  0.00    -0.015 C 
HETATM   29  C18 UNL     1     -16.995  -2.126 -23.573  1.00  0.00     0.010 C 
HETATM   30  C19 UNL     1     -15.867  -0.364 -22.255  1.00  0.00     0.024 C 
HETATM   31  C20 UNL     1     -15.381   1.100 -22.299  1.00  0.00     0.124 C 
ENDBRANCH   5  25
TORSDOF 10
ENDMDL
