MODEL 1
REMARK VINA RESULT: -7.762110372      0.000      0.000
REMARK  8 active torsions:
REMARK  status: ('A' for Active; 'I' for Inactive)
REMARK    1  A    between atoms: C3_3  and  C4_4 
REMARK    2  A    between atoms: C8_10  and  C9_11 
REMARK    3  A    between atoms: C9_11  and  S1_12 
REMARK    4  A    between atoms: C9_11  and  C12_21 
REMARK    5  A    between atoms: S1_12  and  C10_13 
REMARK    6  A    between atoms: C12_21  and  C14_24 
REMARK    7  A    between atoms: C14_24  and  O2_26 
REMARK    8  A    between atoms: O2_26  and  C15_27 
ROOT
HETATM    1  C12 UNL     1     -17.153   3.605 -21.354  1.00  0.00     0.212 C 
HETATM    2  C13 UNL     1     -18.720   3.655 -21.275  1.00  0.00     0.075 C 
HETATM    3  N4  UNL     1     -19.871   3.684 -21.182  1.00  0.00    -0.196 NA
ENDROOT
BRANCH   1   4
HETATM    4  C9  UNL     1     -16.909   2.281 -22.004  1.00  0.00     0.132 C 
BRANCH   4   5
HETATM    5  C8  UNL     1     -15.492   1.914 -22.269  1.00  0.00     0.032 A 
HETATM    6  C2  UNL     1     -15.051   0.840 -22.975  1.00  0.00    -0.026 A 
HETATM    7  C1  UNL     1     -15.871  -0.202 -23.661  1.00  0.00     0.051 C 
HETATM    8  C3  UNL     1     -13.655   0.880 -23.008  1.00  0.00    -0.011 A 
HETATM    9  C7  UNL     1     -13.322   2.027 -22.289  1.00  0.00     0.100 A 
HETATM   10  N1  UNL     1     -14.406   2.627 -21.858  1.00  0.00    -0.367 N 
ATOM     11  H1  UNL     1     -14.431   3.486 -21.307  1.00  0.00     0.165 HD
BRANCH   8  12
HETATM   12  C4  UNL     1     -12.680  -0.134 -23.483  1.00  0.00    -0.075 C 
HETATM   13  C5  UNL     1     -12.949  -1.535 -23.083  1.00  0.00     0.044 C 
HETATM   14  C6  UNL     1     -11.290   0.332 -23.683  1.00  0.00     0.044 C 
ENDBRANCH   8  12
ENDBRANCH   4   5
BRANCH   4  15
HETATM   15  S1  UNL     1     -17.806   2.350 -23.595  1.00  0.00    -0.090 SA
BRANCH  15  16
HETATM   16  C10 UNL     1     -19.168   1.227 -23.719  1.00  0.00     0.130 A 
HETATM   17  N2  UNL     1     -19.332  -0.069 -23.838  1.00  0.00    -0.287 N 
HETATM   18  N3  UNL     1     -20.490  -0.581 -24.000  1.00  0.00    -0.283 N 
ATOM     19  H2  UNL     1     -18.516  -0.681 -23.801  1.00  0.00     0.188 HD
HETATM   20  C11 UNL     1     -21.550   0.214 -24.053  1.00  0.00     0.159 A 
ATOM     21  H3  UNL     1     -20.598  -1.591 -24.089  1.00  0.00     0.188 HD
HETATM   22  S2  UNL     1     -23.139  -0.200 -24.270  1.00  0.00    -0.051 SA
HETATM   23  S3  UNL     1     -20.851   1.738 -23.857  1.00  0.00    -0.033 SA
ENDBRANCH  15  16
ENDBRANCH   4  15
ENDBRANCH   1   4
BRANCH   1  24
HETATM   24  C14 UNL     1     -16.959   4.824 -22.181  1.00  0.00     0.279 C 
HETATM   25  O1  UNL     1     -15.835   4.962 -22.791  1.00  0.00    -0.264 OA
BRANCH  24  26
HETATM   26  O2  UNL     1     -17.841   5.844 -22.404  1.00  0.00    -0.310 OA
BRANCH  26  27
HETATM   27  C15 UNL     1     -17.822   7.042 -21.628  1.00  0.00     0.060 C 
HETATM   28  C16 UNL     1     -19.259   7.338 -21.248  1.00  0.00     0.045 C 
HETATM   29  C17 UNL     1     -17.028   6.976 -20.371  1.00  0.00     0.045 C 
HETATM   30  C18 UNL     1     -17.361   8.216 -22.452  1.00  0.00     0.045 C 
ENDBRANCH  26  27
ENDBRANCH  24  26
ENDBRANCH   1  24
TORSDOF 8
ENDMDL
MODEL 2
REMARK VINA RESULT: -7.733917987      1.941      3.117
REMARK  8 active torsions:
REMARK  status: ('A' for Active; 'I' for Inactive)
REMARK    1  A    between atoms: C3_3  and  C4_4 
REMARK    2  A    between atoms: C8_10  and  C9_11 
REMARK    3  A    between atoms: C9_11  and  S1_12 
REMARK    4  A    between atoms: C9_11  and  C12_21 
REMARK    5  A    between atoms: S1_12  and  C10_13 
REMARK    6  A    between atoms: C12_21  and  C14_24 
REMARK    7  A    between atoms: C14_24  and  O2_26 
REMARK    8  A    between atoms: O2_26  and  C15_27 
ROOT
HETATM    1  C12 UNL     1     -16.985   4.414 -23.015  1.00  0.00     0.212 C 
HETATM    2  C13 UNL     1     -15.497   4.490 -23.507  1.00  0.00     0.075 C 
HETATM    3  N4  UNL     1     -14.412   4.528 -23.901  1.00  0.00    -0.196 NA
ENDROOT
BRANCH   1   4
HETATM    4  C9  UNL     1     -16.933   3.305 -22.013  1.00  0.00     0.132 C 
BRANCH   4   5
HETATM    5  C8  UNL     1     -16.506   1.971 -22.512  1.00  0.00     0.032 A 
HETATM    6  C2  UNL     1     -15.343   1.330 -22.219  1.00  0.00    -0.026 A 
HETATM    7  C1  UNL     1     -14.243   1.796 -21.325  1.00  0.00     0.051 C 
HETATM    8  C3  UNL     1     -15.348   0.094 -22.871  1.00  0.00    -0.011 A 
HETATM    9  C7  UNL     1     -16.567   0.060 -23.545  1.00  0.00     0.100 A 
HETATM   10  N1  UNL     1     -17.240   1.165 -23.330  1.00  0.00    -0.367 N 
ATOM     11  H1  UNL     1     -18.160   1.385 -23.712  1.00  0.00     0.165 HD
BRANCH   8  12
HETATM   12  C4  UNL     1     -14.262  -0.905 -23.034  1.00  0.00    -0.075 C 
HETATM   13  C5  UNL     1     -13.067  -0.452 -23.784  1.00  0.00     0.044 C 
HETATM   14  C6  UNL     1     -14.674  -2.325 -23.073  1.00  0.00     0.044 C 
ENDBRANCH   8  12
ENDBRANCH   4   5
BRANCH   4  15
HETATM   15  S1  UNL     1     -18.632   3.169 -21.352  1.00  0.00    -0.090 SA
BRANCH  15  16
HETATM   16  C10 UNL     1     -19.908   3.440 -22.549  1.00  0.00     0.130 A 
HETATM   17  N2  UNL     1     -20.534   4.472 -23.063  1.00  0.00    -0.287 N 
HETATM   18  N3  UNL     1     -21.509   4.321 -23.873  1.00  0.00    -0.283 N 
ATOM     19  H2  UNL     1     -20.236   5.414 -22.810  1.00  0.00     0.188 HD
HETATM   20  C11 UNL     1     -21.900   3.098 -24.200  1.00  0.00     0.159 A 
ATOM     21  H3  UNL     1     -21.983   5.136 -24.265  1.00  0.00     0.188 HD
HETATM   22  S2  UNL     1     -23.136   2.644 -25.205  1.00  0.00    -0.051 SA
HETATM   23  S3  UNL     1     -20.825   2.143 -23.316  1.00  0.00    -0.033 SA
ENDBRANCH  15  16
ENDBRANCH   4  15
ENDBRANCH   1   4
BRANCH   1  24
HETATM   24  C14 UNL     1     -17.091   5.803 -22.498  1.00  0.00     0.279 C 
HETATM   25  O1  UNL     1     -18.253   6.356 -22.499  1.00  0.00    -0.264 OA
BRANCH  24  26
HETATM   26  O2  UNL     1     -16.099   6.595 -21.993  1.00  0.00    -0.310 OA
BRANCH  26  27
HETATM   27  C15 UNL     1     -15.908   6.763 -20.588  1.00  0.00     0.060 C 
HETATM   28  C16 UNL     1     -14.777   5.837 -20.188  1.00  0.00     0.045 C 
HETATM   29  C17 UNL     1     -15.540   8.138 -20.153  1.00  0.00     0.045 C 
HETATM   30  C18 UNL     1     -17.116   6.299 -19.816  1.00  0.00     0.045 C 
ENDBRANCH  26  27
ENDBRANCH  24  26
ENDBRANCH   1  24
TORSDOF 8
ENDMDL
MODEL 3
REMARK VINA RESULT: -7.725775057      3.736      5.856
REMARK  8 active torsions:
REMARK  status: ('A' for Active; 'I' for Inactive)
REMARK    1  A    between atoms: C3_3  and  C4_4 
REMARK    2  A    between atoms: C8_10  and  C9_11 
REMARK    3  A    between atoms: C9_11  and  S1_12 
REMARK    4  A    between atoms: C9_11  and  C12_21 
REMARK    5  A    between atoms: S1_12  and  C10_13 
REMARK    6  A    between atoms: C12_21  and  C14_24 
REMARK    7  A    between atoms: C14_24  and  O2_26 
REMARK    8  A    between atoms: O2_26  and  C15_27 
ROOT
HETATM    1  C12 UNL     1     -16.985   7.050 -20.929  1.00  0.00     0.212 C 
HETATM    2  C13 UNL     1     -18.238   7.102 -21.875  1.00  0.00     0.075 C 
HETATM    3  N4  UNL     1     -19.179   7.126 -22.543  1.00  0.00    -0.196 NA
ENDROOT
BRANCH   1   4
HETATM    4  C9  UNL     1     -16.230   5.876 -21.467  1.00  0.00     0.132 C 
BRANCH   4   5
HETATM    5  C8  UNL     1     -17.002   4.624 -21.683  1.00  0.00     0.032 A 
HETATM    6  C2  UNL     1     -16.940   3.812 -22.771  1.00  0.00    -0.026 A 
HETATM    7  C1  UNL     1     -16.082   3.969 -23.982  1.00  0.00     0.051 C 
HETATM    8  C3  UNL     1     -17.803   2.733 -22.563  1.00  0.00    -0.011 A 
HETATM    9  C7  UNL     1     -18.357   2.967 -21.305  1.00  0.00     0.100 A 
HETATM   10  N1  UNL     1     -17.882   4.080 -20.797  1.00  0.00    -0.367 N 
ATOM     11  H1  UNL     1     -18.130   4.472 -19.888  1.00  0.00     0.165 HD
BRANCH   8  12
HETATM   12  C4  UNL     1     -18.247   1.668 -23.497  1.00  0.00    -0.075 C 
HETATM   13  C5  UNL     1     -19.708   1.436 -23.575  1.00  0.00     0.044 C 
HETATM   14  C6  UNL     1     -17.301   0.553 -23.721  1.00  0.00     0.044 C 
ENDBRANCH   8  12
ENDBRANCH   4   5
BRANCH   4  15
HETATM   15  S1  UNL     1     -14.910   5.550 -20.245  1.00  0.00    -0.090 SA
BRANCH  15  16
HETATM   16  C10 UNL     1     -13.981   4.074 -20.547  1.00  0.00     0.130 A 
HETATM   17  N2  UNL     1     -13.586   3.033 -19.852  1.00  0.00    -0.287 N 
HETATM   18  N3  UNL     1     -12.819   2.148 -20.360  1.00  0.00    -0.283 N 
ATOM     19  H2  UNL     1     -13.898   2.929 -18.886  1.00  0.00     0.188 HD
HETATM   20  C11 UNL     1     -12.411   2.283 -21.614  1.00  0.00     0.159 A 
ATOM     21  H3  UNL     1     -12.524   1.343 -19.806  1.00  0.00     0.188 HD
HETATM   22  S2  UNL     1     -11.411   1.291 -22.487  1.00  0.00    -0.051 SA
HETATM   23  S3  UNL     1     -13.160   3.726 -22.069  1.00  0.00    -0.033 SA
ENDBRANCH  15  16
ENDBRANCH   4  15
ENDBRANCH   1   4
BRANCH   1  24
HETATM   24  C14 UNL     1     -16.456   8.405 -21.230  1.00  0.00     0.279 C 
HETATM   25  O1  UNL     1     -15.994   8.620 -22.412  1.00  0.00    -0.264 OA
BRANCH  24  26
HETATM   26  O2  UNL     1     -16.403   9.494 -20.407  1.00  0.00    -0.310 OA
BRANCH  26  27
HETATM   27  C15 UNL     1     -15.175   9.957 -19.845  1.00  0.00     0.060 C 
HETATM   28  C16 UNL     1     -15.540  10.829 -18.660  1.00  0.00     0.045 C 
HETATM   29  C17 UNL     1     -14.256   8.893 -19.356  1.00  0.00     0.045 C 
HETATM   30  C18 UNL     1     -14.440  10.853 -20.807  1.00  0.00     0.045 C 
ENDBRANCH  26  27
ENDBRANCH  24  26
ENDBRANCH   1  24
TORSDOF 8
ENDMDL
MODEL 4
REMARK VINA RESULT: -7.696996975      3.729      5.803
REMARK  8 active torsions:
REMARK  status: ('A' for Active; 'I' for Inactive)
REMARK    1  A    between atoms: C3_3  and  C4_4 
REMARK    2  A    between atoms: C8_10  and  C9_11 
REMARK    3  A    between atoms: C9_11  and  S1_12 
REMARK    4  A    between atoms: C9_11  and  C12_21 
REMARK    5  A    between atoms: S1_12  and  C10_13 
REMARK    6  A    between atoms: C12_21  and  C14_24 
REMARK    7  A    between atoms: C14_24  and  O2_26 
REMARK    8  A    between atoms: O2_26  and  C15_27 
ROOT
HETATM    1  C12 UNL     1     -17.165   6.986 -20.836  1.00  0.00     0.212 C 
HETATM    2  C13 UNL     1     -18.231   7.231 -21.962  1.00  0.00     0.075 C 
HETATM    3  N4  UNL     1     -19.040   7.394 -22.770  1.00  0.00    -0.196 NA
ENDROOT
BRANCH   1   4
HETATM    4  C9  UNL     1     -16.348   5.872 -21.409  1.00  0.00     0.132 C 
BRANCH   4   5
HETATM    5  C8  UNL     1     -17.049   4.582 -21.652  1.00  0.00     0.032 A 
HETATM    6  C2  UNL     1     -16.937   3.794 -22.753  1.00  0.00    -0.026 A 
HETATM    7  C1  UNL     1     -16.083   4.019 -23.956  1.00  0.00     0.051 C 
HETATM    8  C3  UNL     1     -17.741   2.665 -22.567  1.00  0.00    -0.011 A 
HETATM    9  C7  UNL     1     -18.312   2.848 -21.309  1.00  0.00     0.100 A 
HETATM   10  N1  UNL     1     -17.902   3.975 -20.779  1.00  0.00    -0.367 N 
ATOM     11  H1  UNL     1     -18.176   4.338 -19.866  1.00  0.00     0.165 HD
BRANCH   8  12
HETATM   12  C4  UNL     1     -18.120   1.594 -23.522  1.00  0.00    -0.075 C 
HETATM   13  C5  UNL     1     -19.564   1.267 -23.596  1.00  0.00     0.044 C 
HETATM   14  C6  UNL     1     -17.105   0.549 -23.778  1.00  0.00     0.044 C 
ENDBRANCH   8  12
ENDBRANCH   4   5
BRANCH   4  15
HETATM   15  S1  UNL     1     -15.000   5.591 -20.207  1.00  0.00    -0.090 SA
BRANCH  15  16
HETATM   16  C10 UNL     1     -14.051   4.126 -20.499  1.00  0.00     0.130 A 
HETATM   17  N2  UNL     1     -13.614   3.112 -19.790  1.00  0.00    -0.287 N 
HETATM   18  N3  UNL     1     -12.845   2.229 -20.298  1.00  0.00    -0.283 N 
ATOM     19  H2  UNL     1     -13.895   3.028 -18.813  1.00  0.00     0.188 HD
HETATM   20  C11 UNL     1     -12.477   2.339 -21.567  1.00  0.00     0.159 A 
ATOM     21  H3  UNL     1     -12.518   1.445 -19.733  1.00  0.00     0.188 HD
HETATM   22  S2  UNL     1     -11.484   1.344 -22.443  1.00  0.00    -0.051 SA
HETATM   23  S3  UNL     1     -13.269   3.755 -22.035  1.00  0.00    -0.033 SA
ENDBRANCH  15  16
ENDBRANCH   4  15
ENDBRANCH   1   4
BRANCH   1  24
HETATM   24  C14 UNL     1     -16.567   8.346 -20.833  1.00  0.00     0.279 C 
HETATM   25  O1  UNL     1     -15.929   8.723 -21.885  1.00  0.00    -0.264 OA
BRANCH  24  26
HETATM   26  O2  UNL     1     -16.613   9.287 -19.844  1.00  0.00    -0.310 OA
BRANCH  26  27
HETATM   27  C15 UNL     1     -17.774  10.086 -19.615  1.00  0.00     0.060 C 
HETATM   28  C16 UNL     1     -17.379  11.151 -18.611  1.00  0.00     0.045 C 
HETATM   29  C17 UNL     1     -18.320  10.778 -20.815  1.00  0.00     0.045 C 
HETATM   30  C18 UNL     1     -18.866   9.283 -18.958  1.00  0.00     0.045 C 
ENDBRANCH  26  27
ENDBRANCH  24  26
ENDBRANCH   1  24
TORSDOF 8
ENDMDL
MODEL 5
REMARK VINA RESULT: -7.658546203      2.934      7.279
REMARK  8 active torsions:
REMARK  status: ('A' for Active; 'I' for Inactive)
REMARK    1  A    between atoms: C3_3  and  C4_4 
REMARK    2  A    between atoms: C8_10  and  C9_11 
REMARK    3  A    between atoms: C9_11  and  S1_12 
REMARK    4  A    between atoms: C9_11  and  C12_21 
REMARK    5  A    between atoms: S1_12  and  C10_13 
REMARK    6  A    between atoms: C12_21  and  C14_24 
REMARK    7  A    between atoms: C14_24  and  O2_26 
REMARK    8  A    between atoms: O2_26  and  C15_27 
ROOT
HETATM    1  C12 UNL     1     -15.469   1.251 -21.987  1.00  0.00     0.212 C 
HETATM    2  C13 UNL     1     -14.433   2.021 -21.094  1.00  0.00     0.075 C 
HETATM    3  N4  UNL     1     -13.682   2.568 -20.408  1.00  0.00    -0.196 NA
ENDROOT
BRANCH   1   4
HETATM    4  C9  UNL     1     -16.579   2.244 -22.115  1.00  0.00     0.132 C 
BRANCH   4   5
HETATM    5  C8  UNL     1     -17.801   1.795 -22.835  1.00  0.00     0.032 A 
HETATM    6  C2  UNL     1     -19.026   2.382 -22.797  1.00  0.00    -0.026 A 
HETATM    7  C1  UNL     1     -19.428   3.611 -22.051  1.00  0.00     0.051 C 
HETATM    8  C3  UNL     1     -19.884   1.662 -23.632  1.00  0.00    -0.011 A 
HETATM    9  C7  UNL     1     -19.090   0.640 -24.149  1.00  0.00     0.100 A 
HETATM   10  N1  UNL     1     -17.869   0.725 -23.675  1.00  0.00    -0.367 N 
ATOM     11  H1  UNL     1     -17.099   0.094 -23.899  1.00  0.00     0.165 HD
BRANCH   8  12
HETATM   12  C4  UNL     1     -21.354   1.764 -23.811  1.00  0.00    -0.075 C 
HETATM   13  C5  UNL     1     -22.083   0.483 -23.962  1.00  0.00     0.044 C 
HETATM   14  C6  UNL     1     -21.854   2.990 -24.471  1.00  0.00     0.044 C 
ENDBRANCH   8  12
ENDBRANCH   4   5
BRANCH   4  15
HETATM   15  S1  UNL     1     -15.857   3.664 -23.012  1.00  0.00    -0.090 SA
BRANCH  15  16
HETATM   16  C10 UNL     1     -15.693   5.136 -22.043  1.00  0.00     0.130 A 
HETATM   17  N2  UNL     1     -14.879   5.587 -21.119  1.00  0.00    -0.287 N 
HETATM   18  N3  UNL     1     -15.094   6.698 -20.529  1.00  0.00    -0.283 N 
ATOM     19  H2  UNL     1     -14.056   5.039 -20.867  1.00  0.00     0.188 HD
HETATM   20  C11 UNL     1     -16.164   7.410 -20.853  1.00  0.00     0.159 A 
ATOM     21  H3  UNL     1     -14.448   7.035 -19.814  1.00  0.00     0.188 HD
HETATM   22  S2  UNL     1     -16.668   8.859 -20.227  1.00  0.00    -0.051 SA
HETATM   23  S3  UNL     1     -16.873   6.448 -22.045  1.00  0.00    -0.033 SA
ENDBRANCH  15  16
ENDBRANCH   4  15
ENDBRANCH   1   4
BRANCH   1  24
HETATM   24  C14 UNL     1     -14.592   1.043 -23.168  1.00  0.00     0.279 C 
HETATM   25  O1  UNL     1     -15.109   0.491 -24.209  1.00  0.00    -0.264 OA
BRANCH  24  26
HETATM   26  O2  UNL     1     -13.276   1.379 -23.314  1.00  0.00    -0.310 OA
BRANCH  26  27
HETATM   27  C15 UNL     1     -12.240   0.396 -23.312  1.00  0.00     0.060 C 
HETATM   28  C16 UNL     1     -11.133   0.932 -22.426  1.00  0.00     0.045 C 
HETATM   29  C17 UNL     1     -12.630  -0.941 -22.788  1.00  0.00     0.045 C 
HETATM   30  C18 UNL     1     -11.635   0.242 -24.683  1.00  0.00     0.045 C 
ENDBRANCH  26  27
ENDBRANCH  24  26
ENDBRANCH   1  24
TORSDOF 8
ENDMDL
