MODEL 1
REMARK VINA RESULT: -7.354606041      0.000      0.000
REMARK  9 active torsions:
REMARK  status: ('A' for Active; 'I' for Inactive)
REMARK    1  A    between atoms: C2_2  and  C3_3 
REMARK    2  A    between atoms: C3_3  and  C4_4 
REMARK    3  A    between atoms: C4_4  and  C5_5 
REMARK    4  A    between atoms: C5_5  and  C6_6 
REMARK    5  A    between atoms: C6_6  and  C7_7 
REMARK    6  A    between atoms: C7_7  and  O2_9 
REMARK    7  A    between atoms: O2_9  and  N1_10 
REMARK    8  A    between atoms: C13_17  and  O3_18 
REMARK    9  A    between atoms: C14_21  and  O5_22 
ROOT
HETATM    1  N1  UNL     1     -21.333   1.362 -23.916  1.00  0.00    -0.265 N 
ATOM      2  H1  UNL     1     -20.717   2.167 -23.798  1.00  0.00     0.194 HD
HETATM    3  C8  UNL     1     -22.517   1.736 -24.043  1.00  0.00     0.020 C 
HETATM    4  C9  UNL     1     -22.734   3.237 -23.992  1.00  0.00     0.070 C 
HETATM    5  C10 UNL     1     -23.847   3.665 -24.921  1.00  0.00     0.005 C 
HETATM    6  C11 UNL     1     -25.039   4.191 -24.190  1.00  0.00     0.021 C 
HETATM    7  C12 UNL     1     -23.439   4.778 -25.827  1.00  0.00     0.028 A 
HETATM    8  C13 UNL     1     -22.709   5.941 -25.968  1.00  0.00     0.193 A 
HETATM    9  O4  UNL     1     -22.881   6.426 -27.166  1.00  0.00    -0.263 OA
HETATM   10  C14 UNL     1     -23.694   5.638 -27.834  1.00  0.00     0.200 A 
HETATM   11  C15 UNL     1     -24.079   4.568 -27.029  1.00  0.00     0.080 A 
HETATM   12  C16 UNL     1     -24.855   3.313 -26.914  1.00  0.00     0.171 C 
HETATM   13  O6  UNL     1     -25.880   3.064 -27.536  1.00  0.00    -0.292 OA
HETATM   14  C17 UNL     1     -24.040   2.586 -25.907  1.00  0.00     0.083 C 
HETATM   15  C18 UNL     1     -24.419   1.245 -25.526  1.00  0.00    -0.024 C 
HETATM   16  C19 UNL     1     -23.795   0.285 -26.571  1.00  0.00     0.016 C 
HETATM   17  C20 UNL     1     -25.857   0.866 -25.500  1.00  0.00     0.016 C 
HETATM   18  C21 UNL     1     -23.681   0.852 -24.224  1.00  0.00     0.001 C 
HETATM   19  C22 UNL     1     -23.291  -0.603 -24.277  1.00  0.00     0.022 C 
HETATM   20  C23 UNL     1     -24.646   0.971 -23.036  1.00  0.00     0.022 C 
ENDROOT
BRANCH   1  21
HETATM   21  O2  UNL     1     -20.643   0.253 -23.889  1.00  0.00    -0.200 OA
BRANCH  21  22
HETATM   22  C7  UNL     1     -19.268   0.091 -23.885  1.00  0.00     0.281 C 
HETATM   23  O1  UNL     1     -18.549   1.102 -23.827  1.00  0.00    -0.263 OA
BRANCH  22  24
HETATM   24  C6  UNL     1     -18.699  -1.284 -23.957  1.00  0.00     0.113 C 
BRANCH  24  25
HETATM   25  C5  UNL     1     -17.189  -1.145 -24.170  1.00  0.00     0.010 C 
BRANCH  25  26
HETATM   26  C4  UNL     1     -16.375  -1.844 -23.134  1.00  0.00     0.000 C 
BRANCH  26  27
HETATM   27  C3  UNL     1     -15.275  -0.972 -22.576  1.00  0.00    -0.000 C 
BRANCH  27  28
HETATM   28  C2  UNL     1     -13.971  -1.204 -23.338  1.00  0.00    -0.005 C 
HETATM   29  C1  UNL     1     -13.535  -2.644 -23.233  1.00  0.00     0.005 C 
ENDBRANCH  27  28
ENDBRANCH  26  27
ENDBRANCH  25  26
ENDBRANCH  24  25
ENDBRANCH  22  24
ENDBRANCH  21  22
ENDBRANCH   1  21
BRANCH   8  30
HETATM   30  O3  UNL     1     -21.926   6.487 -24.978  1.00  0.00    -0.340 OA
ATOM     31  H3  UNL     1     -21.348   7.231 -25.104  1.00  0.00     0.220 HD
ENDBRANCH   8  30
BRANCH  10  32
HETATM   32  O5  UNL     1     -24.152   5.782 -29.158  1.00  0.00    -0.340 OA
ATOM     33  H5  UNL     1     -23.934   5.251 -29.915  1.00  0.00     0.220 HD
ENDBRANCH  10  32
TORSDOF 9
ENDMDL
MODEL 2
REMARK VINA RESULT: -7.255239997      6.059      7.809
REMARK  9 active torsions:
REMARK  status: ('A' for Active; 'I' for Inactive)
REMARK    1  A    between atoms: C2_2  and  C3_3 
REMARK    2  A    between atoms: C3_3  and  C4_4 
REMARK    3  A    between atoms: C4_4  and  C5_5 
REMARK    4  A    between atoms: C5_5  and  C6_6 
REMARK    5  A    between atoms: C6_6  and  C7_7 
REMARK    6  A    between atoms: C7_7  and  O2_9 
REMARK    7  A    between atoms: O2_9  and  N1_10 
REMARK    8  A    between atoms: C13_17  and  O3_18 
REMARK    9  A    between atoms: C14_21  and  O5_22 
ROOT
HETATM    1  N1  UNL     1     -14.006   4.310 -21.804  1.00  0.00    -0.265 N 
ATOM      2  H1  UNL     1     -13.341   5.073 -21.676  1.00  0.00     0.194 HD
HETATM    3  C8  UNL     1     -15.129   4.634 -21.365  1.00  0.00     0.020 C 
HETATM    4  C9  UNL     1     -15.219   6.029 -20.774  1.00  0.00     0.070 C 
HETATM    5  C10 UNL     1     -16.566   6.657 -21.049  1.00  0.00     0.005 C 
HETATM    6  C11 UNL     1     -17.372   6.858 -19.807  1.00  0.00     0.021 C 
HETATM    7  C12 UNL     1     -16.450   8.018 -21.647  1.00  0.00     0.028 A 
HETATM    8  C13 UNL     1     -15.752   9.209 -21.677  1.00  0.00     0.193 A 
HETATM    9  O4  UNL     1     -16.322  10.032 -22.514  1.00  0.00    -0.263 OA
HETATM   10  C14 UNL     1     -17.370   9.443 -23.047  1.00  0.00     0.200 A 
HETATM   11  C15 UNL     1     -17.498   8.155 -22.532  1.00  0.00     0.080 A 
HETATM   12  C16 UNL     1     -18.254   6.883 -22.535  1.00  0.00     0.171 C 
HETATM   13  O6  UNL     1     -19.449   6.778 -22.782  1.00  0.00    -0.292 OA
HETATM   14  C17 UNL     1     -17.174   5.928 -22.178  1.00  0.00     0.083 C 
HETATM   15  C18 UNL     1     -17.469   4.515 -22.120  1.00  0.00    -0.024 C 
HETATM   16  C19 UNL     1     -17.331   3.966 -23.564  1.00  0.00     0.016 C 
HETATM   17  C20 UNL     1     -18.817   4.062 -21.688  1.00  0.00     0.016 C 
HETATM   18  C21 UNL     1     -16.330   3.781 -21.371  1.00  0.00     0.001 C 
HETATM   19  C22 UNL     1     -16.077   2.441 -22.012  1.00  0.00     0.022 C 
HETATM   20  C23 UNL     1     -16.784   3.468 -19.938  1.00  0.00     0.022 C 
ENDROOT
BRANCH   1  21
HETATM   21  O2  UNL     1     -13.424   3.291 -22.378  1.00  0.00    -0.200 OA
BRANCH  21  22
HETATM   22  C7  UNL     1     -12.696   2.269 -21.793  1.00  0.00     0.281 C 
HETATM   23  O1  UNL     1     -12.601   2.239 -20.555  1.00  0.00    -0.263 OA
BRANCH  22  24
HETATM   24  C6  UNL     1     -12.048   1.249 -22.664  1.00  0.00     0.113 C 
BRANCH  24  25
HETATM   25  C5  UNL     1     -13.158   0.363 -23.235  1.00  0.00     0.010 C 
BRANCH  25  26
HETATM   26  C4  UNL     1     -12.819  -1.090 -23.236  1.00  0.00     0.000 C 
BRANCH  26  27
HETATM   27  C3  UNL     1     -14.046  -1.971 -23.215  1.00  0.00    -0.000 C 
BRANCH  27  28
HETATM   28  C2  UNL     1     -15.244  -1.204 -22.657  1.00  0.00    -0.005 C 
HETATM   29  C1  UNL     1     -16.540  -1.855 -23.072  1.00  0.00     0.005 C 
ENDBRANCH  27  28
ENDBRANCH  26  27
ENDBRANCH  25  26
ENDBRANCH  24  25
ENDBRANCH  22  24
ENDBRANCH  21  22
ENDBRANCH   1  21
BRANCH   8  30
HETATM   30  O3  UNL     1     -14.630   9.466 -20.927  1.00  0.00    -0.340 OA
ATOM     31  H3  UNL     1     -13.892   9.984 -21.229  1.00  0.00     0.220 HD
ENDBRANCH   8  30
BRANCH  10  32
HETATM   32  O5  UNL     1     -18.271   9.963 -23.995  1.00  0.00    -0.340 OA
ATOM     33  H5  UNL     1     -19.221   9.925 -23.985  1.00  0.00     0.220 HD
ENDBRANCH  10  32
TORSDOF 9
ENDMDL
MODEL 3
REMARK VINA RESULT: -7.019902767      2.898      4.946
REMARK  9 active torsions:
REMARK  status: ('A' for Active; 'I' for Inactive)
REMARK    1  A    between atoms: C2_2  and  C3_3 
REMARK    2  A    between atoms: C3_3  and  C4_4 
REMARK    3  A    between atoms: C4_4  and  C5_5 
REMARK    4  A    between atoms: C5_5  and  C6_6 
REMARK    5  A    between atoms: C6_6  and  C7_7 
REMARK    6  A    between atoms: C7_7  and  O2_9 
REMARK    7  A    between atoms: O2_9  and  N1_10 
REMARK    8  A    between atoms: C13_17  and  O3_18 
REMARK    9  A    between atoms: C14_21  and  O5_22 
ROOT
HETATM    1  N1  UNL     1     -21.026   0.752 -23.403  1.00  0.00    -0.265 N 
ATOM      2  H1  UNL     1     -21.453  -0.173 -23.448  1.00  0.00     0.194 HD
HETATM    3  C8  UNL     1     -21.876   1.634 -23.639  1.00  0.00     0.020 C 
HETATM    4  C9  UNL     1     -23.279   1.128 -23.922  1.00  0.00     0.070 C 
HETATM    5  C10 UNL     1     -24.325   2.072 -23.377  1.00  0.00     0.005 C 
HETATM    6  C11 UNL     1     -25.122   2.733 -24.454  1.00  0.00     0.021 C 
HETATM    7  C12 UNL     1     -25.339   1.376 -22.532  1.00  0.00     0.028 A 
HETATM    8  C13 UNL     1     -26.092   0.235 -22.340  1.00  0.00     0.193 A 
HETATM    9  O4  UNL     1     -26.859   0.385 -21.296  1.00  0.00    -0.263 OA
HETATM   10  C14 UNL     1     -26.651   1.577 -20.780  1.00  0.00     0.200 A 
HETATM   11  C15 UNL     1     -25.689   2.251 -21.527  1.00  0.00     0.080 A 
HETATM   12  C16 UNL     1     -24.879   3.479 -21.696  1.00  0.00     0.171 C 
HETATM   13  O6  UNL     1     -25.224   4.600 -21.343  1.00  0.00    -0.292 OA
HETATM   14  C17 UNL     1     -23.674   2.916 -22.358  1.00  0.00     0.083 C 
HETATM   15  C18 UNL     1     -22.565   3.788 -22.666  1.00  0.00    -0.024 C 
HETATM   16  C19 UNL     1     -21.691   3.877 -21.388  1.00  0.00     0.016 C 
HETATM   17  C20 UNL     1     -22.823   5.208 -23.028  1.00  0.00     0.016 C 
HETATM   18  C21 UNL     1     -21.620   3.085 -23.671  1.00  0.00     0.001 C 
HETATM   19  C22 UNL     1     -20.188   3.420 -23.347  1.00  0.00     0.022 C 
HETATM   20  C23 UNL     1     -21.863   3.650 -25.078  1.00  0.00     0.022 C 
ENDROOT
BRANCH   1  21
HETATM   21  O2  UNL     1     -19.755   0.653 -23.116  1.00  0.00    -0.200 OA
BRANCH  21  22
HETATM   22  C7  UNL     1     -18.759  -0.005 -23.817  1.00  0.00     0.281 C 
HETATM   23  O1  UNL     1     -18.995  -1.140 -24.263  1.00  0.00    -0.263 OA
BRANCH  22  24
HETATM   24  C6  UNL     1     -17.442   0.665 -24.008  1.00  0.00     0.113 C 
BRANCH  24  25
HETATM   25  C5  UNL     1     -16.402  -0.431 -24.256  1.00  0.00     0.010 C 
BRANCH  25  26
HETATM   26  C4  UNL     1     -15.755  -0.931 -23.009  1.00  0.00     0.000 C 
BRANCH  26  27
HETATM   27  C3  UNL     1     -14.397  -0.314 -22.773  1.00  0.00    -0.000 C 
BRANCH  27  28
HETATM   28  C2  UNL     1     -13.308  -1.144 -23.452  1.00  0.00    -0.005 C 
HETATM   29  C1  UNL     1     -13.514  -2.615 -23.194  1.00  0.00     0.005 C 
ENDBRANCH  27  28
ENDBRANCH  26  27
ENDBRANCH  25  26
ENDBRANCH  24  25
ENDBRANCH  22  24
ENDBRANCH  21  22
ENDBRANCH   1  21
BRANCH   8  30
HETATM   30  O3  UNL     1     -26.028  -0.878 -23.144  1.00  0.00    -0.340 OA
ATOM     31  H3  UNL     1     -25.762  -0.864 -24.056  1.00  0.00     0.220 HD
ENDBRANCH   8  30
BRANCH  10  32
HETATM   32  O5  UNL     1     -27.263   2.154 -19.651  1.00  0.00    -0.340 OA
ATOM     33  H5  UNL     1     -27.589   3.041 -19.549  1.00  0.00     0.220 HD
ENDBRANCH  10  32
TORSDOF 9
ENDMDL
MODEL 4
REMARK VINA RESULT: -6.966757071      2.777      4.786
REMARK  9 active torsions:
REMARK  status: ('A' for Active; 'I' for Inactive)
REMARK    1  A    between atoms: C2_2  and  C3_3 
REMARK    2  A    between atoms: C3_3  and  C4_4 
REMARK    3  A    between atoms: C4_4  and  C5_5 
REMARK    4  A    between atoms: C5_5  and  C6_6 
REMARK    5  A    between atoms: C6_6  and  C7_7 
REMARK    6  A    between atoms: C7_7  and  O2_9 
REMARK    7  A    between atoms: O2_9  and  N1_10 
REMARK    8  A    between atoms: C13_17  and  O3_18 
REMARK    9  A    between atoms: C14_21  and  O5_22 
ROOT
HETATM    1  N1  UNL     1     -21.285   0.795 -23.539  1.00  0.00    -0.265 N 
ATOM      2  H1  UNL     1     -21.617  -0.155 -23.709  1.00  0.00     0.194 HD
HETATM    3  C8  UNL     1     -22.175   1.623 -23.822  1.00  0.00     0.020 C 
HETATM    4  C9  UNL     1     -23.478   1.032 -24.327  1.00  0.00     0.070 C 
HETATM    5  C10 UNL     1     -24.667   1.840 -23.859  1.00  0.00     0.005 C 
HETATM    6  C11 UNL     1     -25.376   2.524 -24.982  1.00  0.00     0.021 C 
HETATM    7  C12 UNL     1     -25.712   0.996 -23.212  1.00  0.00     0.028 A 
HETATM    8  C13 UNL     1     -26.378  -0.213 -23.207  1.00  0.00     0.193 A 
HETATM    9  O4  UNL     1     -27.282  -0.214 -22.267  1.00  0.00    -0.263 OA
HETATM   10  C14 UNL     1     -27.250   0.942 -21.641  1.00  0.00     0.200 A 
HETATM   11  C15 UNL     1     -26.265   1.752 -22.201  1.00  0.00     0.080 A 
HETATM   12  C16 UNL     1     -25.555   3.050 -22.169  1.00  0.00     0.171 C 
HETATM   13  O6  UNL     1     -26.042   4.106 -21.784  1.00  0.00    -0.292 OA
HETATM   14  C17 UNL     1     -24.230   2.644 -22.703  1.00  0.00     0.083 C 
HETATM   15  C18 UNL     1     -23.174   3.625 -22.794  1.00  0.00    -0.024 C 
HETATM   16  C19 UNL     1     -22.482   3.674 -21.407  1.00  0.00     0.016 C 
HETATM   17  C20 UNL     1     -23.510   5.045 -23.082  1.00  0.00     0.016 C 
HETATM   18  C21 UNL     1     -22.049   3.087 -23.712  1.00  0.00     0.001 C 
HETATM   19  C22 UNL     1     -20.705   3.507 -23.175  1.00  0.00     0.022 C 
HETATM   20  C23 UNL     1     -22.160   3.749 -25.093  1.00  0.00     0.022 C 
ENDROOT
BRANCH   1  21
HETATM   21  O2  UNL     1     -20.058   0.774 -23.092  1.00  0.00    -0.200 OA
BRANCH  21  22
HETATM   22  C7  UNL     1     -18.916   0.312 -23.724  1.00  0.00     0.281 C 
HETATM   23  O1  UNL     1     -18.047   1.133 -24.060  1.00  0.00    -0.263 OA
BRANCH  22  24
HETATM   24  C6  UNL     1     -18.770  -1.148 -23.983  1.00  0.00     0.113 C 
BRANCH  24  25
HETATM   25  C5  UNL     1     -17.298  -1.410 -24.312  1.00  0.00     0.010 C 
BRANCH  25  26
HETATM   26  C4  UNL     1     -16.527  -1.987 -23.172  1.00  0.00     0.000 C 
BRANCH  26  27
HETATM   27  C3  UNL     1     -15.442  -1.060 -22.679  1.00  0.00    -0.000 C 
BRANCH  27  28
HETATM   28  C2  UNL     1     -14.159  -1.263 -23.484  1.00  0.00    -0.005 C 
HETATM   29  C1  UNL     1     -13.584  -2.636 -23.241  1.00  0.00     0.005 C 
ENDBRANCH  27  28
ENDBRANCH  26  27
ENDBRANCH  25  26
ENDBRANCH  24  25
ENDBRANCH  22  24
ENDBRANCH  21  22
ENDBRANCH   1  21
BRANCH   8  30
HETATM   30  O3  UNL     1     -26.111  -1.246 -24.075  1.00  0.00    -0.340 OA
ATOM     31  H3  UNL     1     -26.756  -1.882 -24.363  1.00  0.00     0.220 HD
ENDBRANCH   8  30
BRANCH  10  32
HETATM   32  O5  UNL     1     -28.051   1.370 -20.565  1.00  0.00    -0.340 OA
ATOM     33  H5  UNL     1     -27.856   2.038 -19.918  1.00  0.00     0.220 HD
ENDBRANCH  10  32
TORSDOF 9
ENDMDL
MODEL 5
REMARK VINA RESULT: -6.912313812      2.799      3.752
REMARK  9 active torsions:
REMARK  status: ('A' for Active; 'I' for Inactive)
REMARK    1  A    between atoms: C2_2  and  C3_3 
REMARK    2  A    between atoms: C3_3  and  C4_4 
REMARK    3  A    between atoms: C4_4  and  C5_5 
REMARK    4  A    between atoms: C5_5  and  C6_6 
REMARK    5  A    between atoms: C6_6  and  C7_7 
REMARK    6  A    between atoms: C7_7  and  O2_9 
REMARK    7  A    between atoms: O2_9  and  N1_10 
REMARK    8  A    between atoms: C13_17  and  O3_18 
REMARK    9  A    between atoms: C14_21  and  O5_22 
ROOT
HETATM    1  N1  UNL     1     -19.439   5.555 -22.280  1.00  0.00    -0.265 N 
ATOM      2  H1  UNL     1     -19.351   6.531 -22.560  1.00  0.00     0.194 HD
HETATM    3  C8  UNL     1     -20.612   5.161 -22.438  1.00  0.00     0.020 C 
HETATM    4  C9  UNL     1     -21.577   6.195 -22.988  1.00  0.00     0.070 C 
HETATM    5  C10 UNL     1     -22.600   5.562 -23.904  1.00  0.00     0.005 C 
HETATM    6  C11 UNL     1     -23.985   5.617 -23.346  1.00  0.00     0.021 C 
HETATM    7  C12 UNL     1     -22.697   6.257 -25.220  1.00  0.00     0.028 A 
HETATM    8  C13 UNL     1     -22.659   7.462 -25.893  1.00  0.00     0.193 A 
HETATM    9  O4  UNL     1     -22.879   7.262 -27.164  1.00  0.00    -0.263 OA
HETATM   10  C14 UNL     1     -23.061   5.977 -27.370  1.00  0.00     0.200 A 
HETATM   11  C15 UNL     1     -22.952   5.287 -26.165  1.00  0.00     0.080 A 
HETATM   12  C16 UNL     1     -22.977   3.979 -25.473  1.00  0.00     0.171 C 
HETATM   13  O6  UNL     1     -23.623   3.005 -25.839  1.00  0.00    -0.292 OA
HETATM   14  C17 UNL     1     -22.062   4.259 -24.337  1.00  0.00     0.083 C 
HETATM   15  C18 UNL     1     -21.747   3.201 -23.405  1.00  0.00    -0.024 C 
HETATM   16  C19 UNL     1     -20.571   2.397 -24.017  1.00  0.00     0.016 C 
HETATM   17  C20 UNL     1     -22.769   2.168 -23.092  1.00  0.00     0.016 C 
HETATM   18  C21 UNL     1     -21.112   3.809 -22.131  1.00  0.00     0.001 C 
HETATM   19  C22 UNL     1     -20.025   2.901 -21.618  1.00  0.00     0.022 C 
HETATM   20  C23 UNL     1     -22.163   3.858 -21.013  1.00  0.00     0.022 C 
ENDROOT
BRANCH   1  21
HETATM   21  O2  UNL     1     -18.288   5.096 -21.864  1.00  0.00    -0.200 OA
BRANCH  21  22
HETATM   22  C7  UNL     1     -17.102   4.973 -22.567  1.00  0.00     0.281 C 
HETATM   23  O1  UNL     1     -16.281   5.903 -22.517  1.00  0.00    -0.263 OA
BRANCH  22  24
HETATM   24  C6  UNL     1     -16.854   3.737 -23.362  1.00  0.00     0.113 C 
BRANCH  24  25
HETATM   25  C5  UNL     1     -16.401   2.648 -22.385  1.00  0.00     0.010 C 
BRANCH  25  26
HETATM   26  C4  UNL     1     -16.032   1.366 -23.053  1.00  0.00     0.000 C 
BRANCH  26  27
HETATM   27  C3  UNL     1     -17.116   0.860 -23.974  1.00  0.00    -0.000 C 
BRANCH  27  28
HETATM   28  C2  UNL     1     -17.142  -0.668 -23.979  1.00  0.00    -0.005 C 
HETATM   29  C1  UNL     1     -18.560  -1.182 -23.961  1.00  0.00     0.005 C 
ENDBRANCH  27  28
ENDBRANCH  26  27
ENDBRANCH  25  26
ENDBRANCH  24  25
ENDBRANCH  22  24
ENDBRANCH  21  22
ENDBRANCH   1  21
BRANCH   8  30
HETATM   30  O3  UNL     1     -22.426   8.676 -25.293  1.00  0.00    -0.340 OA
ATOM     31  H3  UNL     1     -21.965   9.397 -25.707  1.00  0.00     0.220 HD
ENDBRANCH   8  30
BRANCH  10  32
HETATM   32  O5  UNL     1     -23.327   5.321 -28.587  1.00  0.00    -0.340 OA
ATOM     33  H5  UNL     1     -22.918   4.535 -28.932  1.00  0.00     0.220 HD
ENDBRANCH  10  32
TORSDOF 9
ENDMDL
