MODEL 1
REMARK VINA RESULT: -9.192225300      0.000      0.000
REMARK  9 active torsions:
REMARK  status: ('A' for Active; 'I' for Inactive)
REMARK    1  A    between atoms: N1_1  and  C1_4 
REMARK    2  A    between atoms: C2_9  and  C3_10 
REMARK    3  A    between atoms: C4_17  and  N8_18 
REMARK    4  A    between atoms: N9_20  and  N10_22 
REMARK       I    between atoms: N10_22  and  C5_24 
REMARK    5  A    between atoms: C5_24  and  C6_26 
REMARK    6  A    between atoms: C6_26  and  C7_34 
REMARK    7  A    between atoms: N11_27  and  N12_29 
REMARK    8  A    between atoms: N12_29  and  N13_31 
REMARK    9  A    between atoms: C9_40  and  O3_41 
ROOT
HETATM    1  N8  UNL     1       0.812 -34.802 -10.793  1.00  0.00    -0.269 N 
ATOM      2  H8  UNL     1       1.116 -34.028 -10.202  1.00  0.00     0.190 HD
HETATM    3  N9  UNL     1       0.243 -34.541 -11.870  1.00  0.00    -0.238 N 
ATOM      4  H9  UNL     1       0.111 -33.556 -12.101  1.00  0.00     0.208 HD
ENDROOT
BRANCH   3   5
HETATM    5  N10 UNL     1      -0.231 -35.478 -12.787  1.00  0.00    -0.250 N 
HETATM    6  C5  UNL     1       0.527 -35.771 -13.964  1.00  0.00     0.290 C 
HETATM    7  O2  UNL     1       1.602 -35.113 -14.051  1.00  0.00    -0.264 OA
ATOM      8  H10 UNL     1      -1.117 -35.955 -12.618  1.00  0.00     0.192 HD
BRANCH   6   9
HETATM    9  C6  UNL     1       0.139 -36.712 -14.972  1.00  0.00     0.136 C 
HETATM   10  N11 UNL     1       1.007 -37.535 -15.376  1.00  0.00    -0.281 N 
ATOM     11  H11 UNL     1       0.550 -38.113 -16.082  1.00  0.00     0.188 HD
BRANCH  10  12
HETATM   12  N12 UNL     1       2.223 -37.964 -15.286  1.00  0.00    -0.249 N 
ATOM     13  H12 UNL     1       2.885 -37.731 -16.026  1.00  0.00     0.207 HD
BRANCH  12  14
HETATM   14  N13 UNL     1       2.667 -38.753 -14.188  1.00  0.00    -0.331 N 
ATOM     15 2H13 UNL     1       1.960 -39.179 -13.590  1.00  0.00     0.178 HD
ATOM     16 1H13 UNL     1       3.657 -38.899 -13.991  1.00  0.00     0.178 HD
ENDBRANCH  12  14
ENDBRANCH  10  12
BRANCH   9  17
HETATM   17  C7  UNL     1      -1.231 -36.804 -15.596  1.00  0.00     0.082 A 
HETATM   18  C8  UNL     1      -1.325 -36.526 -16.978  1.00  0.00     0.120 A 
HETATM   19  N14 UNL     1      -0.279 -36.163 -17.890  1.00  0.00    -0.092 NA
HETATM   20  S1  UNL     1      -2.976 -36.730 -17.297  1.00  0.00     0.003 SA
HETATM   21  N15 UNL     1      -3.510 -37.137 -15.781  1.00  0.00    -0.305 N 
HETATM   22  C9  UNL     1      -2.396 -37.117 -15.015  1.00  0.00     0.161 A 
ATOM     23  H15 UNL     1      -4.463 -37.355 -15.492  1.00  0.00     0.176 HD
BRANCH  22  24
HETATM   24  O3  UNL     1      -2.584 -37.413 -13.761  1.00  0.00    -0.345 OA
ATOM     25  H3  UNL     1      -3.046 -38.169 -13.420  1.00  0.00     0.219 HD
ENDBRANCH  22  24
ENDBRANCH   9  17
ENDBRANCH   6   9
ENDBRANCH   3   5
BRANCH   1  26
HETATM   26  C4  UNL     1       1.057 -36.130 -10.348  1.00  0.00     0.156 A 
HETATM   27  C2  UNL     1       0.669 -36.709  -9.161  1.00  0.00     0.158 A 
HETATM   28  N3  UNL     1       1.091 -37.983  -9.110  1.00  0.00    -0.169 N 
HETATM   29  O1  UNL     1       1.132 -39.084  -8.416  1.00  0.00    -0.146 OA
HETATM   30  C10 UNL     1       1.750 -38.209 -10.277  1.00  0.00     0.183 A 
HETATM   31  N2  UNL     1       1.774 -40.013  -9.052  1.00  0.00    -0.222 N 
HETATM   32  C1  UNL     1       2.185 -39.520 -10.225  1.00  0.00     0.168 A 
ATOM     33  H2  UNL     1       1.939 -40.962  -8.714  1.00  0.00     0.198 HD
HETATM   34  N16 UNL     1       1.736 -37.090 -11.038  1.00  0.00    -0.320 N 
ATOM     35  H16 UNL     1       2.157 -36.983 -11.961  1.00  0.00     0.169 HD
BRANCH  27  36
HETATM   36  C3  UNL     1      -0.086 -36.055  -8.105  1.00  0.00     0.165 A 
HETATM   37  N4  UNL     1      -0.095 -34.750  -7.779  1.00  0.00    -0.268 N 
HETATM   38  N5  UNL     1      -0.911 -34.555  -6.760  1.00  0.00    -0.007 NA
ATOM     39  H4  UNL     1       0.445 -34.023  -8.248  1.00  0.00     0.185 HD
HETATM   40  N6  UNL     1      -1.441 -35.712  -6.407  1.00  0.00    -0.007 NA
HETATM   41  N7  UNL     1      -0.936 -36.617  -7.227  1.00  0.00    -0.268 N 
ATOM     42  H7  UNL     1      -1.161 -37.612  -7.198  1.00  0.00     0.185 HD
ENDBRANCH  27  36
BRANCH  32  43
HETATM   43  N1  UNL     1       2.858 -40.135 -11.145  1.00  0.00    -0.381 N 
ATOM     44  H12 UNL     1       3.454 -39.695 -11.846  1.00  0.00     0.157 HD
ATOM     45  H11 UNL     1       2.900 -41.140 -11.314  1.00  0.00     0.157 HD
ENDBRANCH  32  43
ENDBRANCH   1  26
TORSDOF 9
ENDMDL
MODEL 2
REMARK VINA RESULT: -8.595538795      6.570      9.241
REMARK  9 active torsions:
REMARK  status: ('A' for Active; 'I' for Inactive)
REMARK    1  A    between atoms: N1_1  and  C1_4 
REMARK    2  A    between atoms: C2_9  and  C3_10 
REMARK    3  A    between atoms: C4_17  and  N8_18 
REMARK    4  A    between atoms: N9_20  and  N10_22 
REMARK       I    between atoms: N10_22  and  C5_24 
REMARK    5  A    between atoms: C5_24  and  C6_26 
REMARK    6  A    between atoms: C6_26  and  C7_34 
REMARK    7  A    between atoms: N11_27  and  N12_29 
REMARK    8  A    between atoms: N12_29  and  N13_31 
REMARK    9  A    between atoms: C9_40  and  O3_41 
ROOT
HETATM    1  N8  UNL     1      -7.029 -33.121  -5.327  1.00  0.00    -0.269 N 
ATOM      2  H8  UNL     1      -7.706 -33.612  -4.744  1.00  0.00     0.190 HD
HETATM    3  N9  UNL     1      -7.381 -32.064  -5.887  1.00  0.00    -0.238 N 
ATOM      4  H9  UNL     1      -8.338 -31.749  -5.729  1.00  0.00     0.208 HD
ENDROOT
BRANCH   3   5
HETATM    5  N10 UNL     1      -6.579 -31.275  -6.712  1.00  0.00    -0.250 N 
HETATM    6  C5  UNL     1      -6.430 -31.611  -8.095  1.00  0.00     0.290 C 
HETATM    7  O2  UNL     1      -7.075 -32.641  -8.438  1.00  0.00    -0.264 OA
ATOM      8  H10 UNL     1      -6.099 -30.460  -6.329  1.00  0.00     0.192 HD
BRANCH   6   9
HETATM    9  C6  UNL     1      -5.635 -30.876  -9.032  1.00  0.00     0.136 C 
HETATM   10  N11 UNL     1      -6.201 -29.968  -9.702  1.00  0.00    -0.281 N 
ATOM     11  H11 UNL     1      -5.483 -29.565 -10.305  1.00  0.00     0.188 HD
BRANCH  10  12
HETATM   12  N12 UNL     1      -7.293 -29.327  -9.958  1.00  0.00    -0.249 N 
ATOM     13  H12 UNL     1      -7.879 -29.638 -10.733  1.00  0.00     0.207 HD
BRANCH  12  14
HETATM   14  N13 UNL     1      -7.705 -28.200  -9.193  1.00  0.00    -0.331 N 
ATOM     15 2H13 UNL     1      -6.999 -27.714  -8.640  1.00  0.00     0.178 HD
ATOM     16 1H13 UNL     1      -8.672 -27.875  -9.184  1.00  0.00     0.178 HD
ENDBRANCH  12  14
ENDBRANCH  10  12
BRANCH   9  17
HETATM   17  C7  UNL     1      -4.164 -31.097  -9.288  1.00  0.00     0.082 A 
HETATM   18  C8  UNL     1      -3.336 -29.952  -9.293  1.00  0.00     0.120 A 
HETATM   19  N14 UNL     1      -3.704 -28.581  -9.084  1.00  0.00    -0.092 NA
HETATM   20  S1  UNL     1      -1.800 -30.594  -9.605  1.00  0.00     0.003 SA
HETATM   21  N15 UNL     1      -2.183 -32.203  -9.722  1.00  0.00    -0.305 N 
HETATM   22  C9  UNL     1      -3.519 -32.247  -9.517  1.00  0.00     0.161 A 
ATOM     23  H15 UNL     1      -1.553 -32.984  -9.907  1.00  0.00     0.176 HD
BRANCH  22  24
HETATM   24  O3  UNL     1      -4.045 -33.437  -9.565  1.00  0.00    -0.345 OA
ATOM     25  H3  UNL     1      -4.954 -33.648  -9.737  1.00  0.00     0.219 HD
ENDBRANCH  22  24
ENDBRANCH   9  17
ENDBRANCH   6   9
ENDBRANCH   3   5
BRANCH   1  26
HETATM   26  C4  UNL     1      -5.725 -33.673  -5.465  1.00  0.00     0.156 A 
HETATM   27  C2  UNL     1      -4.748 -33.782  -4.501  1.00  0.00     0.158 A 
HETATM   28  N3  UNL     1      -3.653 -34.361  -5.020  1.00  0.00    -0.169 N 
HETATM   29  O1  UNL     1      -2.438 -34.776  -4.799  1.00  0.00    -0.146 OA
HETATM   30  C10 UNL     1      -3.944 -34.621  -6.322  1.00  0.00     0.183 A 
HETATM   31  N2  UNL     1      -1.917 -35.288  -5.869  1.00  0.00    -0.222 N 
HETATM   32  C1  UNL     1      -2.817 -35.217  -6.856  1.00  0.00     0.168 A 
ATOM     33  H2  UNL     1      -0.978 -35.679  -5.946  1.00  0.00     0.198 HD
HETATM   34  N16 UNL     1      -5.201 -34.207  -6.604  1.00  0.00    -0.320 N 
ATOM     35  H16 UNL     1      -5.672 -34.280  -7.506  1.00  0.00     0.169 HD
BRANCH  27  36
HETATM   36  C3  UNL     1      -4.864 -33.340  -3.121  1.00  0.00     0.165 A 
HETATM   37  N4  UNL     1      -4.779 -32.087  -2.642  1.00  0.00    -0.268 N 
HETATM   38  N5  UNL     1      -4.938 -32.103  -1.332  1.00  0.00    -0.007 NA
ATOM     39  H4  UNL     1      -4.616 -31.252  -3.205  1.00  0.00     0.185 HD
HETATM   40  N6  UNL     1      -5.128 -33.349  -0.939  1.00  0.00    -0.007 NA
HETATM   41  N7  UNL     1      -5.082 -34.094  -2.029  1.00  0.00    -0.268 N 
ATOM     42  H7  UNL     1      -5.196 -35.108  -2.040  1.00  0.00     0.185 HD
ENDBRANCH  27  36
BRANCH  32  43
HETATM   43  N1  UNL     1      -2.678 -35.622  -8.078  1.00  0.00    -0.381 N 
ATOM     44  H12 UNL     1      -2.569 -36.590  -8.379  1.00  0.00     0.157 HD
ATOM     45  H11 UNL     1      -2.656 -35.049  -8.921  1.00  0.00     0.157 HD
ENDBRANCH  32  43
ENDBRANCH   1  26
TORSDOF 9
ENDMDL
MODEL 3
REMARK VINA RESULT: -8.539018375      8.566     10.048
REMARK  9 active torsions:
REMARK  status: ('A' for Active; 'I' for Inactive)
REMARK    1  A    between atoms: N1_1  and  C1_4 
REMARK    2  A    between atoms: C2_9  and  C3_10 
REMARK    3  A    between atoms: C4_17  and  N8_18 
REMARK    4  A    between atoms: N9_20  and  N10_22 
REMARK       I    between atoms: N10_22  and  C5_24 
REMARK    5  A    between atoms: C5_24  and  C6_26 
REMARK    6  A    between atoms: C6_26  and  C7_34 
REMARK    7  A    between atoms: N11_27  and  N12_29 
REMARK    8  A    between atoms: N12_29  and  N13_31 
REMARK    9  A    between atoms: C9_40  and  O3_41 
ROOT
HETATM    1  N8  UNL     1      -3.908 -30.891 -10.290  1.00  0.00    -0.269 N 
ATOM      2  H8  UNL     1      -4.324 -31.577  -9.659  1.00  0.00     0.190 HD
HETATM    3  N9  UNL     1      -4.056 -31.046 -11.518  1.00  0.00    -0.238 N 
ATOM      4  H9  UNL     1      -4.590 -31.860 -11.824  1.00  0.00     0.208 HD
ENDROOT
BRANCH   3   5
HETATM    5  N10 UNL     1      -3.554 -30.203 -12.509  1.00  0.00    -0.250 N 
HETATM    6  C5  UNL     1      -4.420 -29.722 -13.541  1.00  0.00     0.290 C 
HETATM    7  O2  UNL     1      -5.609 -30.135 -13.438  1.00  0.00    -0.264 OA
ATOM      8  H10 UNL     1      -2.571 -29.931 -12.498  1.00  0.00     0.192 HD
BRANCH   6   9
HETATM    9  C6  UNL     1      -4.015 -28.855 -14.607  1.00  0.00     0.136 C 
HETATM   10  N11 UNL     1      -3.476 -29.379 -15.622  1.00  0.00    -0.281 N 
ATOM     11  H11 UNL     1      -3.261 -28.613 -16.261  1.00  0.00     0.188 HD
BRANCH  10  12
HETATM   12  N12 UNL     1      -3.078 -30.462 -16.203  1.00  0.00    -0.249 N 
ATOM     13  H12 UNL     1      -2.721 -31.227 -15.632  1.00  0.00     0.207 HD
BRANCH  12  14
HETATM   14  N13 UNL     1      -3.121 -30.620 -17.617  1.00  0.00    -0.331 N 
ATOM     15 2H13 UNL     1      -4.011 -30.882 -18.041  1.00  0.00     0.178 HD
ATOM     16 1H13 UNL     1      -2.299 -30.481 -18.204  1.00  0.00     0.178 HD
ENDBRANCH  12  14
ENDBRANCH  10  12
BRANCH   9  17
HETATM   17  C7  UNL     1      -4.179 -27.355 -14.619  1.00  0.00     0.082 A 
HETATM   18  C8  UNL     1      -3.069 -26.593 -15.048  1.00  0.00     0.120 A 
HETATM   19  N14 UNL     1      -1.782 -27.054 -15.483  1.00  0.00    -0.092 NA
HETATM   20  S1  UNL     1      -3.631 -25.000 -14.925  1.00  0.00     0.003 SA
HETATM   21  N15 UNL     1      -5.166 -25.282 -14.366  1.00  0.00    -0.305 N 
HETATM   22  C9  UNL     1      -5.248 -26.628 -14.274  1.00  0.00     0.161 A 
ATOM     23  H15 UNL     1      -5.886 -24.595 -14.144  1.00  0.00     0.176 HD
BRANCH  22  24
HETATM   24  O3  UNL     1      -6.391 -27.082 -13.846  1.00  0.00    -0.345 OA
ATOM     25  H3  UNL     1      -7.253 -26.829 -14.156  1.00  0.00     0.219 HD
ENDBRANCH  22  24
ENDBRANCH   9  17
ENDBRANCH   6   9
ENDBRANCH   3   5
BRANCH   1  26
HETATM   26  C4  UNL     1      -3.186 -29.803  -9.727  1.00  0.00     0.156 A 
HETATM   27  C2  UNL     1      -3.627 -28.517  -9.512  1.00  0.00     0.158 A 
HETATM   28  N3  UNL     1      -2.648 -27.780  -8.962  1.00  0.00    -0.169 N 
HETATM   29  O1  UNL     1      -2.296 -26.612  -8.506  1.00  0.00    -0.146 OA
HETATM   30  C10 UNL     1      -1.580 -28.611  -8.829  1.00  0.00     0.183 A 
HETATM   31  N2  UNL     1      -1.071 -26.625  -8.084  1.00  0.00    -0.222 N 
HETATM   32  C1  UNL     1      -0.572 -27.853  -8.262  1.00  0.00     0.168 A 
ATOM     33  H2  UNL     1      -0.571 -25.831  -7.684  1.00  0.00     0.198 HD
HETATM   34  N16 UNL     1      -1.895 -29.844  -9.290  1.00  0.00    -0.320 N 
ATOM     35  H16 UNL     1      -1.279 -30.656  -9.309  1.00  0.00     0.169 HD
BRANCH  27  36
HETATM   36  C3  UNL     1      -4.952 -28.011  -9.828  1.00  0.00     0.165 A 
HETATM   37  N4  UNL     1      -5.328 -27.276 -10.889  1.00  0.00    -0.268 N 
HETATM   38  N5  UNL     1      -6.620 -27.017 -10.812  1.00  0.00    -0.007 NA
ATOM     39  H4  UNL     1      -4.709 -26.967 -11.639  1.00  0.00     0.185 HD
HETATM   40  N6  UNL     1      -7.103 -27.570  -9.715  1.00  0.00    -0.007 NA
HETATM   41  N7  UNL     1      -6.086 -28.172  -9.123  1.00  0.00    -0.268 N 
ATOM     42  H7  UNL     1      -6.153 -28.689  -8.247  1.00  0.00     0.185 HD
ENDBRANCH  27  36
BRANCH  32  43
HETATM   43  N1  UNL     1       0.618 -28.270  -7.968  1.00  0.00    -0.381 N 
ATOM     44  H12 UNL     1       1.482 -27.739  -8.079  1.00  0.00     0.157 HD
ATOM     45  H11 UNL     1       0.879 -29.178  -7.585  1.00  0.00     0.157 HD
ENDBRANCH  32  43
ENDBRANCH   1  26
TORSDOF 9
ENDMDL
MODEL 4
REMARK VINA RESULT: -8.511895632      6.586      9.181
REMARK  9 active torsions:
REMARK  status: ('A' for Active; 'I' for Inactive)
REMARK    1  A    between atoms: N1_1  and  C1_4 
REMARK    2  A    between atoms: C2_9  and  C3_10 
REMARK    3  A    between atoms: C4_17  and  N8_18 
REMARK    4  A    between atoms: N9_20  and  N10_22 
REMARK       I    between atoms: N10_22  and  C5_24 
REMARK    5  A    between atoms: C5_24  and  C6_26 
REMARK    6  A    between atoms: C6_26  and  C7_34 
REMARK    7  A    between atoms: N11_27  and  N12_29 
REMARK    8  A    between atoms: N12_29  and  N13_31 
REMARK    9  A    between atoms: C9_40  and  O3_41 
ROOT
HETATM    1  N8  UNL     1      -3.326 -30.172  -9.599  1.00  0.00    -0.269 N 
ATOM      2  H8  UNL     1      -2.900 -29.554 -10.289  1.00  0.00     0.190 HD
HETATM    3  N9  UNL     1      -4.527 -30.005  -9.310  1.00  0.00    -0.238 N 
ATOM      4  H9  UNL     1      -5.019 -29.249  -9.786  1.00  0.00     0.208 HD
ENDROOT
BRANCH   3   5
HETATM    5  N10 UNL     1      -5.255 -30.761  -8.392  1.00  0.00    -0.250 N 
HETATM    6  C5  UNL     1      -5.828 -32.009  -8.792  1.00  0.00     0.290 C 
HETATM    7  O2  UNL     1      -5.601 -32.308  -9.998  1.00  0.00    -0.264 OA
ATOM      8  H10 UNL     1      -5.378 -30.424  -7.437  1.00  0.00     0.192 HD
BRANCH   6   9
HETATM    9  C6  UNL     1      -6.593 -32.866  -7.936  1.00  0.00     0.136 C 
HETATM   10  N11 UNL     1      -7.542 -33.521  -8.452  1.00  0.00    -0.281 N 
ATOM     11  H11 UNL     1      -7.961 -34.064  -7.697  1.00  0.00     0.188 HD
BRANCH  10  12
HETATM   12  N12 UNL     1      -8.213 -33.802  -9.520  1.00  0.00    -0.249 N 
ATOM     13  H12 UNL     1      -8.720 -34.686  -9.566  1.00  0.00     0.207 HD
BRANCH  12  14
HETATM   14  N13 UNL     1      -8.267 -32.919 -10.634  1.00  0.00    -0.331 N 
ATOM     15 2H13 UNL     1      -7.436 -32.368 -10.848  1.00  0.00     0.178 HD
ATOM     16 1H13 UNL     1      -9.103 -32.825 -11.212  1.00  0.00     0.178 HD
ENDBRANCH  12  14
ENDBRANCH  10  12
BRANCH   9  17
HETATM   17  C7  UNL     1      -6.359 -33.054  -6.457  1.00  0.00     0.082 A 
HETATM   18  C8  UNL     1      -5.562 -34.155  -6.070  1.00  0.00     0.120 A 
HETATM   19  N14 UNL     1      -4.930 -35.138  -6.903  1.00  0.00    -0.092 NA
HETATM   20  S1  UNL     1      -5.533 -34.028  -4.382  1.00  0.00     0.003 SA
HETATM   21  N15 UNL     1      -6.469 -32.675  -4.182  1.00  0.00    -0.305 N 
HETATM   22  C9  UNL     1      -6.810 -32.312  -5.439  1.00  0.00     0.161 A 
ATOM     23  H15 UNL     1      -6.728 -32.218  -3.308  1.00  0.00     0.176 HD
BRANCH  22  24
HETATM   24  O3  UNL     1      -7.559 -31.251  -5.522  1.00  0.00    -0.345 OA
ATOM     25  H3  UNL     1      -8.123 -30.900  -4.843  1.00  0.00     0.219 HD
ENDBRANCH  22  24
ENDBRANCH   9  17
ENDBRANCH   6   9
ENDBRANCH   3   5
BRANCH   1  26
HETATM   26  C4  UNL     1      -2.521 -31.186  -9.009  1.00  0.00     0.156 A 
HETATM   27  C2  UNL     1      -1.327 -31.035  -8.340  1.00  0.00     0.158 A 
HETATM   28  N3  UNL     1      -0.875 -32.231  -7.931  1.00  0.00    -0.169 N 
HETATM   29  O1  UNL     1       0.068 -32.878  -7.307  1.00  0.00    -0.146 OA
HETATM   30  C10 UNL     1      -1.793 -33.144  -8.345  1.00  0.00     0.183 A 
HETATM   31  N2  UNL     1      -0.173 -34.151  -7.287  1.00  0.00    -0.222 N 
HETATM   32  C1  UNL     1      -1.327 -34.376  -7.924  1.00  0.00     0.168 A 
ATOM     33  H2  UNL     1       0.419 -34.862  -6.858  1.00  0.00     0.198 HD
HETATM   34  N16 UNL     1      -2.799 -32.520  -9.002  1.00  0.00    -0.320 N 
ATOM     35  H16 UNL     1      -3.616 -32.968  -9.417  1.00  0.00     0.169 HD
BRANCH  27  36
HETATM   36  C3  UNL     1      -0.642 -29.776  -8.102  1.00  0.00     0.165 A 
HETATM   37  N4  UNL     1      -0.969 -28.555  -8.560  1.00  0.00    -0.268 N 
HETATM   38  N5  UNL     1      -0.094 -27.669  -8.121  1.00  0.00    -0.007 NA
ATOM     39  H4  UNL     1      -1.770 -28.345  -9.154  1.00  0.00     0.185 HD
HETATM   40  N6  UNL     1       0.807 -28.288  -7.380  1.00  0.00    -0.007 NA
HETATM   41  N7  UNL     1       0.468 -29.565  -7.373  1.00  0.00    -0.268 N 
ATOM     42  H7  UNL     1       0.982 -30.295  -6.879  1.00  0.00     0.185 HD
ENDBRANCH  27  36
BRANCH  32  43
HETATM   43  N1  UNL     1      -1.910 -35.515  -8.118  1.00  0.00    -0.381 N 
ATOM     44  H12 UNL     1      -1.936 -36.294  -7.460  1.00  0.00     0.157 HD
ATOM     45  H11 UNL     1      -2.429 -35.813  -8.944  1.00  0.00     0.157 HD
ENDBRANCH  32  43
ENDBRANCH   1  26
TORSDOF 9
ENDMDL
MODEL 5
REMARK VINA RESULT: -8.458361961      7.144     10.124
REMARK  9 active torsions:
REMARK  status: ('A' for Active; 'I' for Inactive)
REMARK    1  A    between atoms: N1_1  and  C1_4 
REMARK    2  A    between atoms: C2_9  and  C3_10 
REMARK    3  A    between atoms: C4_17  and  N8_18 
REMARK    4  A    between atoms: N9_20  and  N10_22 
REMARK       I    between atoms: N10_22  and  C5_24 
REMARK    5  A    between atoms: C5_24  and  C6_26 
REMARK    6  A    between atoms: C6_26  and  C7_34 
REMARK    7  A    between atoms: N11_27  and  N12_29 
REMARK    8  A    between atoms: N12_29  and  N13_31 
REMARK    9  A    between atoms: C9_40  and  O3_41 
ROOT
HETATM    1  N8  UNL     1      -3.926 -31.021 -10.622  1.00  0.00    -0.269 N 
ATOM      2  H8  UNL     1      -4.129 -30.842 -11.606  1.00  0.00     0.190 HD
HETATM    3  N9  UNL     1      -4.370 -32.062 -10.102  1.00  0.00    -0.238 N 
ATOM      4  H9  UNL     1      -4.920 -32.683 -10.697  1.00  0.00     0.208 HD
ENDROOT
BRANCH   3   5
HETATM    5  N10 UNL     1      -4.182 -32.453  -8.776  1.00  0.00    -0.250 N 
HETATM    6  C5  UNL     1      -4.191 -33.841  -8.433  1.00  0.00     0.290 C 
HETATM    7  O2  UNL     1      -4.378 -34.606  -9.422  1.00  0.00    -0.264 OA
ATOM      8  H10 UNL     1      -4.039 -31.748  -8.052  1.00  0.00     0.192 HD
BRANCH   6   9
HETATM    9  C6  UNL     1      -4.009 -34.356  -7.109  1.00  0.00     0.136 C 
HETATM   10  N11 UNL     1      -3.211 -35.322  -6.956  1.00  0.00    -0.281 N 
ATOM     11  H11 UNL     1      -3.215 -35.545  -5.961  1.00  0.00     0.188 HD
BRANCH  10  12
HETATM   12  N12 UNL     1      -2.390 -36.152  -7.511  1.00  0.00    -0.249 N 
ATOM     13  H12 UNL     1      -2.671 -36.624  -8.371  1.00  0.00     0.207 HD
BRANCH  12  14
HETATM   14  N13 UNL     1      -1.108 -36.431  -6.960  1.00  0.00    -0.331 N 
ATOM     15 2H13 UNL     1      -1.033 -36.521  -5.947  1.00  0.00     0.178 HD
ATOM     16 1H13 UNL     1      -0.279 -36.540  -7.544  1.00  0.00     0.178 HD
ENDBRANCH  12  14
ENDBRANCH  10  12
BRANCH   9  17
HETATM   17  C7  UNL     1      -4.697 -33.837  -5.871  1.00  0.00     0.082 A 
HETATM   18  C8  UNL     1      -4.012 -33.992  -4.645  1.00  0.00     0.120 A 
HETATM   19  N14 UNL     1      -2.727 -34.585  -4.407  1.00  0.00    -0.092 NA
HETATM   20  S1  UNL     1      -5.078 -33.304  -3.523  1.00  0.00     0.003 SA
HETATM   21  N15 UNL     1      -6.308 -32.853  -4.539  1.00  0.00    -0.305 N 
HETATM   22  C9  UNL     1      -5.890 -33.238  -5.766  1.00  0.00     0.161 A 
ATOM     23  H15 UNL     1      -7.182 -32.389  -4.294  1.00  0.00     0.176 HD
BRANCH  22  24
HETATM   24  O3  UNL     1      -6.717 -32.978  -6.737  1.00  0.00    -0.345 OA
ATOM     25  H3  UNL     1      -6.725 -32.199  -7.281  1.00  0.00     0.219 HD
ENDBRANCH  22  24
ENDBRANCH   9  17
ENDBRANCH   6   9
ENDBRANCH   3   5
BRANCH   1  26
HETATM   26  C4  UNL     1      -3.148 -30.069  -9.908  1.00  0.00     0.156 A 
HETATM   27  C2  UNL     1      -3.478 -28.768  -9.599  1.00  0.00     0.158 A 
HETATM   28  N3  UNL     1      -2.479 -28.190  -8.912  1.00  0.00    -0.169 N 
HETATM   29  O1  UNL     1      -2.053 -27.111  -8.321  1.00  0.00    -0.146 OA
HETATM   30  C10 UNL     1      -1.510 -29.136  -8.787  1.00  0.00     0.183 A 
HETATM   31  N2  UNL     1      -0.872 -27.289  -7.818  1.00  0.00    -0.222 N 
HETATM   32  C1  UNL     1      -0.482 -28.541  -8.080  1.00  0.00     0.168 A 
ATOM     33  H2  UNL     1      -0.330 -26.591  -7.308  1.00  0.00     0.198 HD
HETATM   34  N16 UNL     1      -1.906 -30.283  -9.388  1.00  0.00    -0.320 N 
ATOM     35  H16 UNL     1      -1.372 -31.149  -9.443  1.00  0.00     0.169 HD
BRANCH  27  36
HETATM   36  C3  UNL     1      -4.719 -28.101  -9.955  1.00  0.00     0.165 A 
HETATM   37  N4  UNL     1      -4.953 -27.289 -11.000  1.00  0.00    -0.268 N 
HETATM   38  N5  UNL     1      -6.209 -26.884 -10.973  1.00  0.00    -0.007 NA
ATOM     39  H4  UNL     1      -4.266 -27.026 -11.706  1.00  0.00     0.185 HD
HETATM   40  N6  UNL     1      -6.809 -27.417  -9.924  1.00  0.00    -0.007 NA
HETATM   41  N7  UNL     1      -5.899 -28.154  -9.311  1.00  0.00    -0.268 N 
ATOM     42  H7  UNL     1      -6.069 -28.693  -8.461  1.00  0.00     0.185 HD
ENDBRANCH  27  36
BRANCH  32  43
HETATM   43  N1  UNL     1       0.635 -29.104  -7.746  1.00  0.00    -0.381 N 
ATOM     44  H12 UNL     1       1.353 -28.700  -7.145  1.00  0.00     0.157 HD
ATOM     45  H11 UNL     1       0.973 -30.025  -8.025  1.00  0.00     0.157 HD
ENDBRANCH  32  43
ENDBRANCH   1  26
TORSDOF 9
ENDMDL
