MODEL 1
REMARK VINA RESULT: -10.245537312      0.000      0.000
REMARK  7 active torsions:
REMARK  status: ('A' for Active; 'I' for Inactive)
REMARK    1  A    between atoms: N1_2  and  C2_4 
REMARK    2  A    between atoms: C4_6  and  C5_7 
REMARK       I    between atoms: C5_7  and  N2_9 
REMARK    3  A    between atoms: N2_9  and  C6_11 
REMARK    4  A    between atoms: C7_14  and  C8_15 
REMARK    5  A    between atoms: C9_16  and  C10_17 
REMARK    6  A    between atoms: N4_25  and  C18_27 
REMARK    7  A    between atoms: C18_27  and  C19_28 
ROOT
HETATM    1  C6  UNL     1       3.326  -6.920 -24.398  1.00  0.00     0.687 A 
HETATM    2  N3  UNL     1       3.678  -8.176 -24.671  1.00  0.00    -0.183 N 
ATOM      3  H3  UNL     1       3.412  -8.589 -25.565  1.00  0.00     0.185 HD
HETATM    4  C7  UNL     1       4.373  -8.903 -23.794  1.00  0.00     0.106 A 
HETATM    5  C16 UNL     1       4.731  -8.330 -22.578  1.00  0.00     0.088 A 
HETATM    6  C17 UNL     1       4.361  -7.029 -22.307  1.00  0.00     0.119 A 
HETATM    7  N4  UNL     1       4.677  -6.461 -21.184  1.00  0.00    -0.370 N 
ATOM      8  H4  UNL     1       5.209  -7.006 -20.507  1.00  0.00     0.161 HD
HETATM    9  N6  UNL     1       3.665  -6.363 -23.236  1.00  0.00    -0.177 N 
ATOM     10  H6  UNL     1       3.385  -5.401 -23.048  1.00  0.00     0.186 HD
ENDROOT
BRANCH   1  11
HETATM   11  N2  UNL     1       2.660  -6.281 -25.285  1.00  0.00    -0.155 N 
HETATM   12  C5  UNL     1       1.970  -6.837 -26.368  1.00  0.00     0.270 C 
HETATM   13  O1  UNL     1       1.045  -7.668 -26.128  1.00  0.00    -0.267 OA
ATOM     14  H2  UNL     1       2.629  -5.265 -25.193  1.00  0.00     0.187 HD
BRANCH  12  15
HETATM   15  C4  UNL     1       2.243  -6.530 -27.761  1.00  0.00     0.037 A 
HETATM   16  C3  UNL     1       1.704  -7.208 -28.823  1.00  0.00     0.065 A 
HETATM   17  C2  UNL     1       1.986  -6.886 -30.138  1.00  0.00     0.101 A 
HETATM   18  N7  UNL     1       2.820  -5.868 -30.402  1.00  0.00    -0.353 N 
HETATM   19  C25 UNL     1       3.377  -5.171 -29.371  1.00  0.00     0.090 A 
ATOM     20  H7  UNL     1       3.036  -5.618 -31.367  1.00  0.00     0.166 HD
HETATM   21  C24 UNL     1       3.098  -5.489 -28.042  1.00  0.00     0.034 A 
BRANCH  17  22
HETATM   22  N1  UNL     1       1.468  -7.536 -31.116  1.00  0.00    -0.381 N 
HETATM   23  C1  UNL     1       0.988  -6.806 -32.300  1.00  0.00     0.147 C 
ATOM     24  H1  UNL     1       1.389  -8.552 -31.073  1.00  0.00     0.160 HD
ENDBRANCH  17  22
ENDBRANCH  12  15
ENDBRANCH   1  11
BRANCH   4  25
HETATM   25  C8  UNL     1       4.767 -10.263 -24.066  1.00  0.00    -0.043 C 
HETATM   26  C9  UNL     1       5.077 -11.405 -24.294  1.00  0.00    -0.060 C 
BRANCH  26  27
HETATM   27  C10 UNL     1       5.457 -12.766 -24.579  1.00  0.00     0.018 A 
HETATM   28  C11 UNL     1       4.504 -13.704 -24.925  1.00  0.00     0.020 A 
HETATM   29  C12 UNL     1       4.830 -15.015 -25.205  1.00  0.00     0.001 A 
HETATM   30  C13 UNL     1       6.157 -15.389 -25.134  1.00  0.00     0.000 A 
HETATM   31  C14 UNL     1       7.137 -14.484 -24.792  1.00  0.00     0.001 A 
HETATM   32  C15 UNL     1       6.776 -13.179 -24.518  1.00  0.00     0.020 A 
ENDBRANCH  26  27
ENDBRANCH   4  25
BRANCH   7  33
HETATM   33  C18 UNL     1       4.325  -5.112 -20.835  1.00  0.00     0.178 C 
BRANCH  33  34
HETATM   34  C19 UNL     1       3.556  -5.124 -19.552  1.00  0.00     0.026 A 
HETATM   35  C20 UNL     1       3.839  -6.073 -18.577  1.00  0.00     0.027 A 
HETATM   36  C21 UNL     1       3.156  -6.126 -17.377  1.00  0.00     0.003 A 
HETATM   37  C22 UNL     1       2.172  -5.188 -17.180  1.00  0.00     0.017 A 
HETATM   38  C23 UNL     1       1.902  -4.251 -18.156  1.00  0.00     0.088 A 
HETATM   39  N5  UNL     1       2.596  -4.231 -19.326  1.00  0.00    -0.368 N 
ATOM     40  H5  UNL     1       2.379  -3.529 -20.034  1.00  0.00     0.165 HD
ENDBRANCH  33  34
ENDBRANCH   7  33
TORSDOF 7
ENDMDL
MODEL 2
REMARK VINA RESULT: -9.891538026      0.585      1.284
REMARK  7 active torsions:
REMARK  status: ('A' for Active; 'I' for Inactive)
REMARK    1  A    between atoms: N1_2  and  C2_4 
REMARK    2  A    between atoms: C4_6  and  C5_7 
REMARK       I    between atoms: C5_7  and  N2_9 
REMARK    3  A    between atoms: N2_9  and  C6_11 
REMARK    4  A    between atoms: C7_14  and  C8_15 
REMARK    5  A    between atoms: C9_16  and  C10_17 
REMARK    6  A    between atoms: N4_25  and  C18_27 
REMARK    7  A    between atoms: C18_27  and  C19_28 
ROOT
HETATM    1  C6  UNL     1       3.464  -6.912 -24.466  1.00  0.00     0.687 A 
HETATM    2  N3  UNL     1       3.804  -8.173 -24.731  1.00  0.00    -0.183 N 
ATOM      3  H3  UNL     1       3.577  -8.573 -25.641  1.00  0.00     0.185 HD
HETATM    4  C7  UNL     1       4.436  -8.921 -23.824  1.00  0.00     0.106 A 
HETATM    5  C16 UNL     1       4.740  -8.365 -22.586  1.00  0.00     0.088 A 
HETATM    6  C17 UNL     1       4.383  -7.059 -22.323  1.00  0.00     0.119 A 
HETATM    7  N4  UNL     1       4.649  -6.505 -21.180  1.00  0.00    -0.370 N 
ATOM      8  H4  UNL     1       5.133  -7.067 -20.480  1.00  0.00     0.161 HD
HETATM    9  N6  UNL     1       3.752  -6.371 -23.282  1.00  0.00    -0.177 N 
ATOM     10  H6  UNL     1       3.483  -5.404 -23.102  1.00  0.00     0.186 HD
ENDROOT
BRANCH   1  11
HETATM   11  N2  UNL     1       2.860  -6.252 -25.381  1.00  0.00    -0.155 N 
HETATM   12  C5  UNL     1       2.018  -6.778 -26.367  1.00  0.00     0.270 C 
HETATM   13  O1  UNL     1       0.983  -7.408 -25.999  1.00  0.00    -0.267 OA
ATOM     14  H2  UNL     1       3.008  -5.243 -25.394  1.00  0.00     0.187 HD
BRANCH  12  15
HETATM   15  C4  UNL     1       2.249  -6.655 -27.796  1.00  0.00     0.037 A 
HETATM   16  C3  UNL     1       2.960  -5.640 -28.380  1.00  0.00     0.065 A 
HETATM   17  C2  UNL     1       3.161  -5.556 -29.745  1.00  0.00     0.101 A 
HETATM   18  N7  UNL     1       2.645  -6.500 -30.546  1.00  0.00    -0.353 N 
HETATM   19  C25 UNL     1       1.930  -7.526 -30.002  1.00  0.00     0.090 A 
ATOM     20  H7  UNL     1       2.787  -6.452 -31.555  1.00  0.00     0.166 HD
HETATM   21  C24 UNL     1       1.723  -7.619 -28.625  1.00  0.00     0.034 A 
BRANCH  17  22
HETATM   22  N1  UNL     1       3.832  -4.594 -30.269  1.00  0.00    -0.381 N 
HETATM   23  C1  UNL     1       4.422  -4.765 -31.606  1.00  0.00     0.147 C 
ATOM     24  H1  UNL     1       3.956  -3.718 -29.761  1.00  0.00     0.160 HD
ENDBRANCH  17  22
ENDBRANCH  12  15
ENDBRANCH   1  11
BRANCH   4  25
HETATM   25  C8  UNL     1       4.815 -10.288 -24.086  1.00  0.00    -0.043 C 
HETATM   26  C9  UNL     1       5.114 -11.433 -24.310  1.00  0.00    -0.060 C 
BRANCH  26  27
HETATM   27  C10 UNL     1       5.482 -12.798 -24.587  1.00  0.00     0.018 A 
HETATM   28  C11 UNL     1       4.524 -13.726 -24.948  1.00  0.00     0.020 A 
HETATM   29  C12 UNL     1       4.840 -15.041 -25.222  1.00  0.00     0.001 A 
HETATM   30  C13 UNL     1       6.161 -15.430 -25.129  1.00  0.00     0.000 A 
HETATM   31  C14 UNL     1       7.146 -14.536 -24.774  1.00  0.00     0.001 A 
HETATM   32  C15 UNL     1       6.795 -13.227 -24.506  1.00  0.00     0.020 A 
ENDBRANCH  26  27
ENDBRANCH   4  25
BRANCH   7  33
HETATM   33  C18 UNL     1       4.308  -5.152 -20.839  1.00  0.00     0.178 C 
BRANCH  33  34
HETATM   34  C19 UNL     1       3.546  -5.150 -19.552  1.00  0.00     0.026 A 
HETATM   35  C20 UNL     1       3.860  -6.064 -18.553  1.00  0.00     0.027 A 
HETATM   36  C21 UNL     1       3.185  -6.102 -17.348  1.00  0.00     0.003 A 
HETATM   37  C22 UNL     1       2.176  -5.188 -17.172  1.00  0.00     0.017 A 
HETATM   38  C23 UNL     1       1.875  -4.286 -18.171  1.00  0.00     0.088 A 
HETATM   39  N5  UNL     1       2.562  -4.279 -19.345  1.00  0.00    -0.368 N 
ATOM     40  H5  UNL     1       2.322  -3.603 -20.071  1.00  0.00     0.165 HD
ENDBRANCH  33  34
ENDBRANCH   7  33
TORSDOF 7
ENDMDL
MODEL 3
REMARK VINA RESULT: -9.541238387      3.758      6.306
REMARK  7 active torsions:
REMARK  status: ('A' for Active; 'I' for Inactive)
REMARK    1  A    between atoms: N1_2  and  C2_4 
REMARK    2  A    between atoms: C4_6  and  C5_7 
REMARK       I    between atoms: C5_7  and  N2_9 
REMARK    3  A    between atoms: N2_9  and  C6_11 
REMARK    4  A    between atoms: C7_14  and  C8_15 
REMARK    5  A    between atoms: C9_16  and  C10_17 
REMARK    6  A    between atoms: N4_25  and  C18_27 
REMARK    7  A    between atoms: C18_27  and  C19_28 
ROOT
HETATM    1  C6  UNL     1       3.954 -11.131 -23.337  1.00  0.00     0.687 A 
HETATM    2  N3  UNL     1       5.007 -11.798 -23.811  1.00  0.00    -0.183 N 
ATOM      3  H3  UNL     1       5.003 -12.818 -23.795  1.00  0.00     0.185 HD
HETATM    4  C7  UNL     1       6.064 -11.153 -24.308  1.00  0.00     0.106 A 
HETATM    5  C16 UNL     1       6.057  -9.762 -24.327  1.00  0.00     0.088 A 
HETATM    6  C17 UNL     1       4.964  -9.083 -23.833  1.00  0.00     0.119 A 
HETATM    7  N4  UNL     1       4.921  -7.786 -23.833  1.00  0.00    -0.370 N 
ATOM      8  H4  UNL     1       5.723  -7.283 -24.212  1.00  0.00     0.161 HD
HETATM    9  N6  UNL     1       3.940  -9.798 -23.351  1.00  0.00    -0.177 N 
ATOM     10  H6  UNL     1       3.125  -9.309 -22.984  1.00  0.00     0.186 HD
ENDROOT
BRANCH   1  11
HETATM   11  N2  UNL     1       2.975 -11.812 -22.876  1.00  0.00    -0.155 N 
HETATM   12  C5  UNL     1       2.142 -12.669 -23.604  1.00  0.00     0.270 C 
HETATM   13  O1  UNL     1       2.670 -13.649 -24.208  1.00  0.00    -0.267 OA
ATOM     14  H2  UNL     1       2.781 -11.722 -21.878  1.00  0.00     0.187 HD
BRANCH  12  15
HETATM   15  C4  UNL     1       0.702 -12.513 -23.721  1.00  0.00     0.037 A 
HETATM   16  C3  UNL     1       0.070 -11.956 -24.801  1.00  0.00     0.065 A 
HETATM   17  C2  UNL     1      -1.305 -11.825 -24.879  1.00  0.00     0.101 A 
HETATM   18  N7  UNL     1      -2.065 -12.256 -23.861  1.00  0.00    -0.353 N 
HETATM   19  C25 UNL     1      -1.471 -12.815 -22.768  1.00  0.00     0.090 A 
ATOM     20  H7  UNL     1      -3.080 -12.168 -23.905  1.00  0.00     0.166 HD
HETATM   21  C24 UNL     1      -0.086 -12.952 -22.683  1.00  0.00     0.034 A 
BRANCH  17  22
HETATM   22  N1  UNL     1      -1.874 -11.299 -25.903  1.00  0.00    -0.381 N 
HETATM   23  C1  UNL     1      -1.053 -10.842 -27.035  1.00  0.00     0.147 C 
ATOM     24  H1  UNL     1      -2.889 -11.200 -25.930  1.00  0.00     0.160 HD
ENDBRANCH  17  22
ENDBRANCH  12  15
ENDBRANCH   1  11
BRANCH   4  25
HETATM   25  C8  UNL     1       7.214 -11.852 -24.829  1.00  0.00    -0.043 C 
HETATM   26  C9  UNL     1       8.170 -12.450 -25.251  1.00  0.00    -0.060 C 
BRANCH  26  27
HETATM   27  C10 UNL     1       9.309 -13.164 -25.772  1.00  0.00     0.018 A 
HETATM   28  C11 UNL     1      10.118 -12.590 -26.733  1.00  0.00     0.020 A 
HETATM   29  C12 UNL     1      11.217 -13.243 -27.255  1.00  0.00     0.001 A 
HETATM   30  C13 UNL     1      11.506 -14.510 -26.792  1.00  0.00     0.000 A 
HETATM   31  C14 UNL     1      10.724 -15.117 -25.834  1.00  0.00     0.001 A 
HETATM   32  C15 UNL     1       9.631 -14.435 -25.333  1.00  0.00     0.020 A 
ENDBRANCH  26  27
ENDBRANCH   4  25
BRANCH   7  33
HETATM   33  C18 UNL     1       3.816  -7.014 -23.336  1.00  0.00     0.178 C 
BRANCH  33  34
HETATM   34  C19 UNL     1       2.736  -6.983 -24.370  1.00  0.00     0.026 A 
HETATM   35  C20 UNL     1       1.452  -7.413 -24.053  1.00  0.00     0.027 A 
HETATM   36  C21 UNL     1       0.422  -7.404 -24.973  1.00  0.00     0.003 A 
HETATM   37  C22 UNL     1       0.718  -6.945 -26.233  1.00  0.00     0.017 A 
HETATM   38  C23 UNL     1       1.995  -6.521 -26.534  1.00  0.00     0.088 A 
HETATM   39  N5  UNL     1       2.985  -6.545 -25.601  1.00  0.00    -0.368 N 
ATOM     40  H5  UNL     1       3.923  -6.226 -25.846  1.00  0.00     0.165 HD
ENDBRANCH  33  34
ENDBRANCH   7  33
TORSDOF 7
ENDMDL
MODEL 4
REMARK VINA RESULT: -9.328810397      2.020      2.833
REMARK  7 active torsions:
REMARK  status: ('A' for Active; 'I' for Inactive)
REMARK    1  A    between atoms: N1_2  and  C2_4 
REMARK    2  A    between atoms: C4_6  and  C5_7 
REMARK       I    between atoms: C5_7  and  N2_9 
REMARK    3  A    between atoms: N2_9  and  C6_11 
REMARK    4  A    between atoms: C7_14  and  C8_15 
REMARK    5  A    between atoms: C9_16  and  C10_17 
REMARK    6  A    between atoms: N4_25  and  C18_27 
REMARK    7  A    between atoms: C18_27  and  C19_28 
ROOT
HETATM    1  C6  UNL     1       2.975  -8.102 -23.602  1.00  0.00     0.687 A 
HETATM    2  N3  UNL     1       3.782  -9.098 -23.970  1.00  0.00    -0.183 N 
ATOM      3  H3  UNL     1       3.440  -9.809 -24.616  1.00  0.00     0.185 HD
HETATM    4  C7  UNL     1       5.030  -9.180 -23.505  1.00  0.00     0.106 A 
HETATM    5  C16 UNL     1       5.487  -8.205 -22.625  1.00  0.00     0.088 A 
HETATM    6  C17 UNL     1       4.643  -7.180 -22.252  1.00  0.00     0.119 A 
HETATM    7  N4  UNL     1       5.033  -6.252 -21.433  1.00  0.00    -0.370 N 
ATOM      8  H4  UNL     1       5.986  -6.304 -21.072  1.00  0.00     0.161 HD
HETATM    9  N6  UNL     1       3.405  -7.164 -22.759  1.00  0.00    -0.177 N 
ATOM     10  H6  UNL     1       2.771  -6.411 -22.493  1.00  0.00     0.186 HD
ENDROOT
BRANCH   1  11
HETATM   11  N2  UNL     1       1.791  -8.085 -24.086  1.00  0.00    -0.155 N 
HETATM   12  C5  UNL     1       1.080  -9.183 -24.583  1.00  0.00     0.270 C 
HETATM   13  O1  UNL     1       0.855 -10.155 -23.804  1.00  0.00    -0.267 OA
ATOM     14  H2  UNL     1       1.319  -7.181 -24.112  1.00  0.00     0.187 HD
BRANCH  12  15
HETATM   15  C4  UNL     1       0.578  -9.289 -25.943  1.00  0.00     0.037 A 
HETATM   16  C3  UNL     1       0.989  -8.498 -26.983  1.00  0.00     0.065 A 
HETATM   17  C2  UNL     1       0.490  -8.628 -28.266  1.00  0.00     0.101 A 
HETATM   18  N7  UNL     1      -0.435  -9.566 -28.519  1.00  0.00    -0.353 N 
HETATM   19  C25 UNL     1      -0.870 -10.372 -27.510  1.00  0.00     0.090 A 
ATOM     20  H7  UNL     1      -0.811  -9.675 -29.461  1.00  0.00     0.166 HD
HETATM   21  C24 UNL     1      -0.371 -10.247 -26.213  1.00  0.00     0.034 A 
BRANCH  17  22
HETATM   22  N1  UNL     1       0.892  -7.874 -29.225  1.00  0.00    -0.381 N 
HETATM   23  C1  UNL     1       2.334  -7.671 -29.433  1.00  0.00     0.147 C 
ATOM     24  H1  UNL     1       0.215  -7.420 -29.838  1.00  0.00     0.160 HD
ENDBRANCH  17  22
ENDBRANCH  12  15
ENDBRANCH   1  11
BRANCH   4  25
HETATM   25  C8  UNL     1       5.923 -10.247 -23.888  1.00  0.00    -0.043 C 
HETATM   26  C9  UNL     1       6.654 -11.145 -24.218  1.00  0.00    -0.060 C 
BRANCH  26  27
HETATM   27  C10 UNL     1       7.540 -12.210 -24.618  1.00  0.00     0.018 A 
HETATM   28  C11 UNL     1       8.704 -11.934 -25.308  1.00  0.00     0.020 A 
HETATM   29  C12 UNL     1       9.576 -12.926 -25.707  1.00  0.00     0.001 A 
HETATM   30  C13 UNL     1       9.263 -14.235 -25.399  1.00  0.00     0.000 A 
HETATM   31  C14 UNL     1       8.112 -14.552 -24.713  1.00  0.00     0.001 A 
HETATM   32  C15 UNL     1       7.261 -13.533 -24.328  1.00  0.00     0.020 A 
ENDBRANCH  26  27
ENDBRANCH   4  25
BRANCH   7  33
HETATM   33  C18 UNL     1       4.210  -5.157 -21.002  1.00  0.00     0.178 C 
BRANCH  33  34
HETATM   34  C19 UNL     1       3.447  -5.568 -19.783  1.00  0.00     0.026 A 
HETATM   35  C20 UNL     1       4.081  -6.273 -18.767  1.00  0.00     0.027 A 
HETATM   36  C21 UNL     1       3.420  -6.676 -17.623  1.00  0.00     0.003 A 
HETATM   37  C22 UNL     1       2.090  -6.347 -17.525  1.00  0.00     0.017 A 
HETATM   38  C23 UNL     1       1.473  -5.647 -18.541  1.00  0.00     0.088 A 
HETATM   39  N5  UNL     1       2.158  -5.268 -19.654  1.00  0.00    -0.368 N 
ATOM     40  H5  UNL     1       1.681  -4.750 -20.392  1.00  0.00     0.165 HD
ENDBRANCH  33  34
ENDBRANCH   7  33
TORSDOF 7
ENDMDL
MODEL 5
REMARK VINA RESULT: -9.274510306      2.254      3.058
REMARK  7 active torsions:
REMARK  status: ('A' for Active; 'I' for Inactive)
REMARK    1  A    between atoms: N1_2  and  C2_4 
REMARK    2  A    between atoms: C4_6  and  C5_7 
REMARK       I    between atoms: C5_7  and  N2_9 
REMARK    3  A    between atoms: N2_9  and  C6_11 
REMARK    4  A    between atoms: C7_14  and  C8_15 
REMARK    5  A    between atoms: C9_16  and  C10_17 
REMARK    6  A    between atoms: N4_25  and  C18_27 
REMARK    7  A    between atoms: C18_27  and  C19_28 
ROOT
HETATM    1  C6  UNL     1       3.650  -7.386 -24.239  1.00  0.00     0.687 A 
HETATM    2  N3  UNL     1       4.377  -8.460 -24.546  1.00  0.00    -0.183 N 
ATOM      3  H3  UNL     1       4.184  -8.967 -25.410  1.00  0.00     0.185 HD
HETATM    4  C7  UNL     1       5.354  -8.884 -23.741  1.00  0.00     0.106 A 
HETATM    5  C16 UNL     1       5.609  -8.185 -22.566  1.00  0.00     0.088 A 
HETATM    6  C17 UNL     1       4.850  -7.075 -22.259  1.00  0.00     0.119 A 
HETATM    7  N4  UNL     1       5.058  -6.398 -21.172  1.00  0.00    -0.370 N 
ATOM      8  H4  UNL     1       5.803  -6.711 -20.550  1.00  0.00     0.161 HD
HETATM    9  N6  UNL     1       3.888  -6.711 -23.115  1.00  0.00    -0.177 N 
ATOM     10  H6  UNL     1       3.320  -5.892 -22.901  1.00  0.00     0.186 HD
ENDROOT
BRANCH   1  11
HETATM   11  N2  UNL     1       2.730  -7.036 -25.056  1.00  0.00    -0.155 N 
HETATM   12  C5  UNL     1       1.389  -7.436 -25.019  1.00  0.00     0.270 C 
HETATM   13  O1  UNL     1       0.710  -7.168 -23.985  1.00  0.00    -0.267 OA
ATOM     14  H2  UNL     1       3.000  -6.402 -25.808  1.00  0.00     0.187 HD
BRANCH  12  15
HETATM   15  C4  UNL     1       0.714  -8.145 -26.093  1.00  0.00     0.037 A 
HETATM   16  C3  UNL     1       0.114  -9.368 -25.954  1.00  0.00     0.065 A 
HETATM   17  C2  UNL     1      -0.522 -10.014 -26.999  1.00  0.00     0.101 A 
HETATM   18  N7  UNL     1      -0.561  -9.430 -28.206  1.00  0.00    -0.353 N 
HETATM   19  C25 UNL     1       0.026  -8.212 -28.384  1.00  0.00     0.090 A 
ATOM     20  H7  UNL     1      -1.028  -9.893 -28.986  1.00  0.00     0.166 HD
HETATM   21  C24 UNL     1       0.669  -7.555 -27.335  1.00  0.00     0.034 A 
BRANCH  17  22
HETATM   22  N1  UNL     1      -1.078 -11.161 -26.843  1.00  0.00    -0.381 N 
HETATM   23  C1  UNL     1      -1.390 -11.638 -25.487  1.00  0.00     0.147 C 
ATOM     24  H1  UNL     1      -1.302 -11.737 -27.655  1.00  0.00     0.160 HD
ENDBRANCH  17  22
ENDBRANCH  12  15
ENDBRANCH   1  11
BRANCH   4  25
HETATM   25  C8  UNL     1       6.156 -10.042 -24.051  1.00  0.00    -0.043 C 
HETATM   26  C9  UNL     1       6.811 -11.015 -24.322  1.00  0.00    -0.060 C 
BRANCH  26  27
HETATM   27  C10 UNL     1       7.609 -12.170 -24.650  1.00  0.00     0.018 A 
HETATM   28  C11 UNL     1       8.763 -12.039 -25.398  1.00  0.00     0.020 A 
HETATM   29  C12 UNL     1       9.551 -13.122 -25.730  1.00  0.00     0.001 A 
HETATM   30  C13 UNL     1       9.163 -14.373 -25.295  1.00  0.00     0.000 A 
HETATM   31  C14 UNL     1       8.019 -14.546 -24.548  1.00  0.00     0.001 A 
HETATM   32  C15 UNL     1       7.253 -13.440 -24.232  1.00  0.00     0.020 A 
ENDBRANCH  26  27
ENDBRANCH   4  25
BRANCH   7  33
HETATM   33  C18 UNL     1       4.307  -5.234 -20.789  1.00  0.00     0.178 C 
BRANCH  33  34
HETATM   34  C19 UNL     1       3.445  -5.572 -19.615  1.00  0.00     0.026 A 
HETATM   35  C20 UNL     1       3.983  -6.247 -18.525  1.00  0.00     0.027 A 
HETATM   36  C21 UNL     1       3.228  -6.583 -17.418  1.00  0.00     0.003 A 
HETATM   37  C22 UNL     1       1.904  -6.218 -17.435  1.00  0.00     0.017 A 
HETATM   38  C23 UNL     1       1.383  -5.548 -18.522  1.00  0.00     0.088 A 
HETATM   39  N5  UNL     1       2.159  -5.235 -19.596  1.00  0.00    -0.368 N 
ATOM     40  H5  UNL     1       1.752  -4.739 -20.389  1.00  0.00     0.165 HD
ENDBRANCH  33  34
ENDBRANCH   7  33
TORSDOF 7
ENDMDL
