MODEL 1
REMARK VINA RESULT: -8.341420148      0.000      0.000
REMARK  5 active torsions:
REMARK  status: ('A' for Active; 'I' for Inactive)
REMARK    1  A    between atoms: C3_3  and  O1_4 
REMARK    2  A    between atoms: C8_10  and  C9_11 
REMARK    3  A    between atoms: C15_18  and  C16_19 
REMARK    4  A    between atoms: C17_20  and  C18_21 
REMARK    5  A    between atoms: C21_24  and  O2_25 
ROOT
HETATM    1  C1  UNL     1       5.344 -15.199 -25.202  1.00  0.00     0.015 C 
HETATM    2  C2  UNL     1       6.122 -14.327 -24.908  1.00  0.00    -0.079 C 
HETATM    3  C3  UNL     1       7.072 -13.311 -24.562  1.00  0.00     0.124 C 
HETATM    4  C4  UNL     1       7.555 -12.474 -25.726  1.00  0.00     0.052 C 
HETATM    5  C5  UNL     1       8.003 -11.147 -25.103  1.00  0.00     0.009 C 
HETATM    6  C6  UNL     1       7.769 -11.302 -23.632  1.00  0.00    -0.001 C 
HETATM    7  C7  UNL     1       6.567 -12.273 -23.622  1.00  0.00     0.045 C 
HETATM    8  C8  UNL     1       5.501 -11.365 -24.174  1.00  0.00     0.025 C 
HETATM    9  C12 UNL     1       5.754 -10.101 -23.361  1.00  0.00    -0.031 A 
HETATM   10  C13 UNL     1       4.869 -10.186 -22.123  1.00  0.00     0.016 C 
HETATM   11  C14 UNL     1       5.487  -8.859 -24.145  1.00  0.00     0.027 A 
HETATM   12  C15 UNL     1       6.760  -8.058 -24.181  1.00  0.00     0.066 A 
HETATM   13  C25 UNL     1       7.799  -8.807 -23.421  1.00  0.00     0.023 A 
HETATM   14  C26 UNL     1       7.190 -10.106 -22.961  1.00  0.00     0.000 A 
ENDROOT
BRANCH   3  15
HETATM   15  O1  UNL     1       8.228 -13.859 -23.969  1.00  0.00    -0.377 OA
ATOM     16  H1  UNL     1       8.610 -13.268 -23.331  1.00  0.00     0.211 HD
ENDBRANCH   3  15
BRANCH   8  17
HETATM   17  C9  UNL     1       4.132 -11.878 -23.880  1.00  0.00    -0.010 C 
HETATM   18  C10 UNL     1       3.088 -11.335 -24.484  1.00  0.00     0.090 C 
HETATM   19  C11 UNL     1       1.763 -11.815 -24.214  1.00  0.00     0.087 C 
HETATM   20  N1  UNL     1       0.693 -12.195 -23.988  1.00  0.00    -0.192 NA
ENDBRANCH   8  17
BRANCH  12  21
HETATM   21  C16 UNL     1       6.494  -6.727 -23.619  1.00  0.00    -0.096 C 
HETATM   22  C17 UNL     1       6.255  -5.631 -23.157  1.00  0.00    -0.067 C 
BRANCH  22  23
HETATM   23  C18 UNL     1       5.961  -4.341 -22.595  1.00  0.00     0.018 A 
HETATM   24  C19 UNL     1       6.904  -3.340 -22.496  1.00  0.00     0.023 A 
HETATM   25  C20 UNL     1       6.635  -2.106 -21.962  1.00  0.00     0.038 A 
HETATM   26  C21 UNL     1       5.366  -1.834 -21.496  1.00  0.00     0.068 A 
HETATM   27  C23 UNL     1       4.423  -2.829 -21.593  1.00  0.00     0.038 A 
HETATM   28  C24 UNL     1       4.693  -4.071 -22.130  1.00  0.00     0.023 A 
BRANCH  26  29
HETATM   29  O2  UNL     1       5.086  -0.587 -20.953  1.00  0.00    -0.356 OA
HETATM   30  C22 UNL     1       3.854  -0.300 -20.319  1.00  0.00     0.210 C 
ENDBRANCH  26  29
ENDBRANCH  22  23
ENDBRANCH  12  21
TORSDOF 5
ENDMDL
MODEL 2
REMARK VINA RESULT: -8.032154339      0.789      1.200
REMARK  5 active torsions:
REMARK  status: ('A' for Active; 'I' for Inactive)
REMARK    1  A    between atoms: C3_3  and  O1_4 
REMARK    2  A    between atoms: C8_10  and  C9_11 
REMARK    3  A    between atoms: C15_18  and  C16_19 
REMARK    4  A    between atoms: C17_20  and  C18_21 
REMARK    5  A    between atoms: C21_24  and  O2_25 
ROOT
HETATM    1  C1  UNL     1       5.834 -15.272 -25.874  1.00  0.00     0.015 C 
HETATM    2  C2  UNL     1       6.480 -14.428 -25.309  1.00  0.00    -0.079 C 
HETATM    3  C3  UNL     1       7.273 -13.443 -24.633  1.00  0.00     0.124 C 
HETATM    4  C4  UNL     1       8.069 -12.537 -25.547  1.00  0.00     0.052 C 
HETATM    5  C5  UNL     1       8.297 -11.256 -24.736  1.00  0.00     0.009 C 
HETATM    6  C6  UNL     1       7.639 -11.503 -23.414  1.00  0.00    -0.001 C 
HETATM    7  C7  UNL     1       6.500 -12.463 -23.822  1.00  0.00     0.045 C 
HETATM    8  C8  UNL     1       5.635 -11.513 -24.607  1.00  0.00     0.025 C 
HETATM    9  C12 UNL     1       5.622 -10.305 -23.677  1.00  0.00    -0.031 A 
HETATM   10  C13 UNL     1       4.411 -10.463 -22.765  1.00  0.00     0.016 C 
HETATM   11  C14 UNL     1       5.584  -9.014 -24.425  1.00  0.00     0.027 A 
HETATM   12  C15 UNL     1       6.801  -8.222 -24.032  1.00  0.00     0.066 A 
HETATM   13  C25 UNL     1       7.577  -9.026 -23.047  1.00  0.00     0.023 A 
HETATM   14  C26 UNL     1       6.875 -10.347 -22.870  1.00  0.00     0.000 A 
ENDROOT
BRANCH   3  15
HETATM   15  O1  UNL     1       8.208 -14.036 -23.761  1.00  0.00    -0.377 OA
ATOM     16  H1  UNL     1       8.758 -13.386 -23.340  1.00  0.00     0.211 HD
ENDBRANCH   3  15
BRANCH   8  17
HETATM   17  C9  UNL     1       4.247 -12.033 -24.764  1.00  0.00    -0.010 C 
HETATM   18  C10 UNL     1       3.833 -13.030 -23.999  1.00  0.00     0.090 C 
HETATM   19  C11 UNL     1       2.500 -13.543 -24.136  1.00  0.00     0.087 C 
HETATM   20  N1  UNL     1       1.428 -13.966 -24.254  1.00  0.00    -0.192 NA
ENDBRANCH   8  17
BRANCH  12  21
HETATM   21  C16 UNL     1       6.366  -6.927 -23.491  1.00  0.00    -0.096 C 
HETATM   22  C17 UNL     1       5.992  -5.857 -23.058  1.00  0.00    -0.067 C 
BRANCH  22  23
HETATM   23  C18 UNL     1       5.531  -4.597 -22.543  1.00  0.00     0.018 A 
HETATM   24  C19 UNL     1       4.285  -4.437 -21.972  1.00  0.00     0.023 A 
HETATM   25  C20 UNL     1       3.836  -3.240 -21.478  1.00  0.00     0.038 A 
HETATM   26  C21 UNL     1       4.653  -2.131 -21.545  1.00  0.00     0.068 A 
HETATM   27  C23 UNL     1       5.896  -2.287 -22.113  1.00  0.00     0.038 A 
HETATM   28  C24 UNL     1       6.348  -3.491 -22.611  1.00  0.00     0.023 A 
BRANCH  26  29
HETATM   29  O2  UNL     1       4.205  -0.915 -21.047  1.00  0.00    -0.356 OA
HETATM   30  C22 UNL     1       3.185  -0.830 -20.070  1.00  0.00     0.210 C 
ENDBRANCH  26  29
ENDBRANCH  22  23
ENDBRANCH  12  21
TORSDOF 5
ENDMDL
MODEL 3
REMARK VINA RESULT: -7.570216543      1.234      1.473
REMARK  5 active torsions:
REMARK  status: ('A' for Active; 'I' for Inactive)
REMARK    1  A    between atoms: C3_3  and  O1_4 
REMARK    2  A    between atoms: C8_10  and  C9_11 
REMARK    3  A    between atoms: C15_18  and  C16_19 
REMARK    4  A    between atoms: C17_20  and  C18_21 
REMARK    5  A    between atoms: C21_24  and  O2_25 
ROOT
HETATM    1  C1  UNL     1       4.290 -14.706 -25.167  1.00  0.00     0.015 C 
HETATM    2  C2  UNL     1       5.265 -14.045 -24.916  1.00  0.00    -0.079 C 
HETATM    3  C3  UNL     1       6.444 -13.283 -24.622  1.00  0.00     0.124 C 
HETATM    4  C4  UNL     1       7.025 -12.537 -25.802  1.00  0.00     0.052 C 
HETATM    5  C5  UNL     1       7.806 -11.369 -25.189  1.00  0.00     0.009 C 
HETATM    6  C6  UNL     1       7.643 -11.519 -23.708  1.00  0.00    -0.001 C 
HETATM    7  C7  UNL     1       6.255 -12.191 -23.628  1.00  0.00     0.045 C 
HETATM    8  C8  UNL     1       5.390 -11.046 -24.083  1.00  0.00     0.025 C 
HETATM    9  C12 UNL     1       5.980  -9.901 -23.267  1.00  0.00    -0.031 A 
HETATM   10  C13 UNL     1       5.185  -9.827 -21.970  1.00  0.00     0.016 C 
HETATM   11  C14 UNL     1       5.952  -8.604 -24.006  1.00  0.00     0.027 A 
HETATM   12  C15 UNL     1       7.369  -8.113 -24.121  1.00  0.00     0.066 A 
HETATM   13  C25 UNL     1       8.258  -9.105 -23.454  1.00  0.00     0.023 A 
HETATM   14  C26 UNL     1       7.401 -10.247 -22.974  1.00  0.00     0.000 A 
ENDROOT
BRANCH   3  15
HETATM   15  O1  UNL     1       7.481 -14.099 -24.127  1.00  0.00    -0.377 OA
ATOM     16  H1  UNL     1       7.712 -13.872 -23.234  1.00  0.00     0.211 HD
ENDBRANCH   3  15
BRANCH   8  17
HETATM   17  C9  UNL     1       3.963 -11.244 -23.698  1.00  0.00    -0.010 C 
HETATM   18  C10 UNL     1       3.018 -11.133 -24.617  1.00  0.00     0.090 C 
HETATM   19  C11 UNL     1       1.639 -11.321 -24.265  1.00  0.00     0.087 C 
HETATM   20  N1  UNL     1       0.526 -11.462 -23.980  1.00  0.00    -0.192 NA
ENDBRANCH   8  17
BRANCH  12  21
HETATM   21  C16 UNL     1       7.454  -6.777 -23.516  1.00  0.00    -0.096 C 
HETATM   22  C17 UNL     1       7.544  -5.671 -23.025  1.00  0.00    -0.067 C 
BRANCH  22  23
HETATM   23  C18 UNL     1       7.653  -4.353 -22.461  1.00  0.00     0.018 A 
HETATM   24  C19 UNL     1       8.835  -3.857 -21.953  1.00  0.00     0.023 A 
HETATM   25  C20 UNL     1       8.951  -2.602 -21.413  1.00  0.00     0.038 A 
HETATM   26  C21 UNL     1       7.843  -1.783 -21.365  1.00  0.00     0.068 A 
HETATM   27  C23 UNL     1       6.662  -2.274 -21.870  1.00  0.00     0.038 A 
HETATM   28  C24 UNL     1       6.546  -3.536 -22.414  1.00  0.00     0.023 A 
BRANCH  26  29
HETATM   29  O2  UNL     1       7.951  -0.511 -20.818  1.00  0.00    -0.356 OA
HETATM   30  C22 UNL     1       7.873  -0.279 -19.425  1.00  0.00     0.210 C 
ENDBRANCH  26  29
ENDBRANCH  22  23
ENDBRANCH  12  21
TORSDOF 5
ENDMDL
MODEL 4
REMARK VINA RESULT: -7.122720590      2.531      9.567
REMARK  5 active torsions:
REMARK  status: ('A' for Active; 'I' for Inactive)
REMARK    1  A    between atoms: C3_3  and  O1_4 
REMARK    2  A    between atoms: C8_10  and  C9_11 
REMARK    3  A    between atoms: C15_18  and  C16_19 
REMARK    4  A    between atoms: C17_20  and  C18_21 
REMARK    5  A    between atoms: C21_24  and  O2_25 
ROOT
HETATM    1  C1  UNL     1       3.127  -0.867 -20.244  1.00  0.00     0.015 C 
HETATM    2  C2  UNL     1       3.627  -1.421 -21.189  1.00  0.00    -0.079 C 
HETATM    3  C3  UNL     1       4.225  -2.053 -22.329  1.00  0.00     0.124 C 
HETATM    4  C4  UNL     1       5.713  -2.296 -22.208  1.00  0.00     0.052 C 
HETATM    5  C5  UNL     1       6.004  -3.467 -23.153  1.00  0.00     0.009 C 
HETATM    6  C6  UNL     1       4.683  -3.816 -23.767  1.00  0.00    -0.001 C 
HETATM    7  C7  UNL     1       3.713  -3.416 -22.634  1.00  0.00     0.045 C 
HETATM    8  C8  UNL     1       4.054  -4.476 -21.620  1.00  0.00     0.025 C 
HETATM    9  C12 UNL     1       4.081  -5.718 -22.504  1.00  0.00    -0.031 A 
HETATM   10  C13 UNL     1       2.678  -6.312 -22.474  1.00  0.00     0.016 C 
HETATM   11  C14 UNL     1       5.108  -6.707 -22.063  1.00  0.00     0.027 A 
HETATM   12  C15 UNL     1       6.058  -6.921 -23.209  1.00  0.00     0.066 A 
HETATM   13  C25 UNL     1       5.611  -6.068 -24.346  1.00  0.00     0.023 A 
HETATM   14  C26 UNL     1       4.415  -5.275 -23.888  1.00  0.00     0.000 A 
ENDROOT
BRANCH   3  15
HETATM   15  O1  UNL     1       4.049  -1.288 -23.500  1.00  0.00    -0.377 OA
ATOM     16  H1  UNL     1       3.160  -1.348 -23.829  1.00  0.00     0.211 HD
ENDBRANCH   3  15
BRANCH   8  17
HETATM   17  C9  UNL     1       2.984  -4.623 -20.593  1.00  0.00    -0.010 C 
HETATM   18  C10 UNL     1       3.302  -4.589 -19.309  1.00  0.00     0.090 C 
HETATM   19  C11 UNL     1       2.286  -4.727 -18.306  1.00  0.00     0.087 C 
HETATM   20  N1  UNL     1       1.468  -4.850 -17.495  1.00  0.00    -0.192 NA
ENDBRANCH   8  17
BRANCH  12  21
HETATM   21  C16 UNL     1       6.075  -8.351 -23.545  1.00  0.00    -0.096 C 
HETATM   22  C17 UNL     1       6.108  -9.534 -23.812  1.00  0.00    -0.067 C 
BRANCH  22  23
HETATM   23  C18 UNL     1       6.147 -10.940 -24.110  1.00  0.00     0.018 A 
HETATM   24  C19 UNL     1       5.010 -11.682 -24.350  1.00  0.00     0.023 A 
HETATM   25  C20 UNL     1       5.035 -13.023 -24.635  1.00  0.00     0.038 A 
HETATM   26  C21 UNL     1       6.247 -13.679 -24.688  1.00  0.00     0.068 A 
HETATM   27  C23 UNL     1       7.384 -12.943 -24.450  1.00  0.00     0.038 A 
HETATM   28  C24 UNL     1       7.358 -11.594 -24.164  1.00  0.00     0.023 A 
BRANCH  26  29
HETATM   29  O2  UNL     1       6.282 -15.037 -24.976  1.00  0.00    -0.356 OA
HETATM   30  C22 UNL     1       5.337 -15.651 -25.832  1.00  0.00     0.210 C 
ENDBRANCH  26  29
ENDBRANCH  22  23
ENDBRANCH  12  21
TORSDOF 5
ENDMDL
MODEL 5
REMARK VINA RESULT: -7.082491444      6.070     10.099
REMARK  5 active torsions:
REMARK  status: ('A' for Active; 'I' for Inactive)
REMARK    1  A    between atoms: C3_3  and  O1_4 
REMARK    2  A    between atoms: C8_10  and  C9_11 
REMARK    3  A    between atoms: C15_18  and  C16_19 
REMARK    4  A    between atoms: C17_20  and  C18_21 
REMARK    5  A    between atoms: C21_24  and  O2_25 
ROOT
HETATM    1  C1  UNL     1       4.950  -1.868 -29.734  1.00  0.00     0.015 C 
HETATM    2  C2  UNL     1       4.446  -2.934 -29.977  1.00  0.00    -0.079 C 
HETATM    3  C3  UNL     1       3.850  -4.199 -30.297  1.00  0.00     0.124 C 
HETATM    4  C4  UNL     1       4.802  -5.374 -30.254  1.00  0.00     0.052 C 
HETATM    5  C5  UNL     1       3.913  -6.596 -29.994  1.00  0.00     0.009 C 
HETATM    6  C6  UNL     1       2.516  -6.060 -29.919  1.00  0.00    -0.001 C 
HETATM    7  C7  UNL     1       2.772  -4.638 -29.370  1.00  0.00     0.045 C 
HETATM    8  C8  UNL     1       3.220  -4.981 -27.974  1.00  0.00     0.025 C 
HETATM    9  C12 UNL     1       2.170  -6.015 -27.583  1.00  0.00    -0.031 A 
HETATM   10  C13 UNL     1       1.036  -5.258 -26.903  1.00  0.00     0.016 C 
HETATM   11  C14 UNL     1       2.726  -7.083 -26.701  1.00  0.00     0.027 A 
HETATM   12  C15 UNL     1       2.524  -8.401 -27.396  1.00  0.00     0.066 A 
HETATM   13  C25 UNL     1       1.845  -8.139 -28.696  1.00  0.00     0.023 A 
HETATM   14  C26 UNL     1       1.678  -6.649 -28.840  1.00  0.00     0.000 A 
ENDROOT
BRANCH   3  15
HETATM   15  O1  UNL     1       3.290  -4.198 -31.591  1.00  0.00    -0.377 OA
ATOM     16  H1  UNL     1       3.494  -4.997 -32.063  1.00  0.00     0.211 HD
ENDBRANCH   3  15
BRANCH   8  17
HETATM   17  C9  UNL     1       3.123  -3.807 -27.060  1.00  0.00    -0.010 C 
HETATM   18  C10 UNL     1       4.171  -3.459 -26.330  1.00  0.00     0.090 C 
HETATM   19  C11 UNL     1       4.097  -2.332 -25.446  1.00  0.00     0.087 C 
HETATM   20  N1  UNL     1       4.034  -1.429 -24.723  1.00  0.00    -0.192 NA
ENDBRANCH   8  17
BRANCH  12  21
HETATM   21  C16 UNL     1       1.744  -9.282 -26.516  1.00  0.00    -0.096 C 
HETATM   22  C17 UNL     1       1.106 -10.026 -25.801  1.00  0.00    -0.067 C 
BRANCH  22  23
HETATM   23  C18 UNL     1       0.364 -10.918 -24.952  1.00  0.00     0.018 A 
HETATM   24  C19 UNL     1       0.974 -11.764 -24.048  1.00  0.00     0.023 A 
HETATM   25  C20 UNL     1       0.277 -12.618 -23.233  1.00  0.00     0.038 A 
HETATM   26  C21 UNL     1      -1.100 -12.648 -23.306  1.00  0.00     0.068 A 
HETATM   27  C23 UNL     1      -1.711 -11.806 -24.205  1.00  0.00     0.038 A 
HETATM   28  C24 UNL     1      -1.010 -10.947 -25.025  1.00  0.00     0.023 A 
BRANCH  26  29
HETATM   29  O2  UNL     1      -1.813 -13.511 -22.484  1.00  0.00    -0.356 OA
HETATM   30  C22 UNL     1      -1.382 -13.836 -21.177  1.00  0.00     0.210 C 
ENDBRANCH  26  29
ENDBRANCH  22  23
ENDBRANCH  12  21
TORSDOF 5
ENDMDL
