MODEL 1
REMARK VINA RESULT: -10.622626536      0.000      0.000
REMARK  2 active torsions:
REMARK  status: ('A' for Active; 'I' for Inactive)
REMARK    1  A    between atoms: C2_2  and  C4_4 
REMARK    2  A    between atoms: C7_7  and  N1_8 
REMARK       I    between atoms: N1_8  and  C8_10 
REMARK       I    between atoms: C8_10  and  N2_12 
ROOT
HETATM    1  N1  UNL     1       9.232 -12.840 -25.909  1.00  0.00    -0.308 N 
ATOM      2  H1  UNL     1       8.509 -13.409 -26.350  1.00  0.00     0.170 HD
HETATM    3  C8  UNL     1       8.833 -12.055 -24.827  1.00  0.00     0.341 C 
HETATM    4  O1  UNL     1       9.713 -11.306 -24.271  1.00  0.00    -0.245 OA
HETATM    5  N2  UNL     1       7.564 -11.997 -24.293  1.00  0.00    -0.185 N 
HETATM    6  C9  UNL     1       6.553 -12.950 -24.506  1.00  0.00     0.066 A 
HETATM    7  C10 UNL     1       6.917 -14.282 -24.657  1.00  0.00     0.032 A 
HETATM    8  C11 UNL     1       6.025 -15.283 -24.957  1.00  0.00     0.002 A 
HETATM    9  C12 UNL     1       4.724 -14.914 -25.105  1.00  0.00     0.001 A 
HETATM   10  C13 UNL     1       4.299 -13.585 -24.960  1.00  0.00     0.014 A 
HETATM   11  C14 UNL     1       5.210 -12.588 -24.655  1.00  0.00     0.004 A 
HETATM   12  C15 UNL     1       4.706 -11.261 -24.347  1.00  0.00    -0.000 A 
HETATM   13  C16 UNL     1       3.381 -10.921 -24.619  1.00  0.00     0.014 A 
HETATM   14  C17 UNL     1       2.886  -9.637 -24.417  1.00  0.00     0.001 A 
HETATM   15  C18 UNL     1       3.692  -8.643 -23.934  1.00  0.00     0.002 A 
HETATM   16  C19 UNL     1       5.001  -8.961 -23.659  1.00  0.00     0.026 A 
HETATM   17  C20 UNL     1       5.472 -10.224 -23.861  1.00  0.00     0.091 A 
HETATM   18  S1  UNL     1       7.125 -10.575 -23.380  1.00  0.00     0.274 S 
HETATM   19  O2  UNL     1       7.250 -10.880 -21.935  1.00  0.00    -0.200 OA
HETATM   20  O3  UNL     1       7.973  -9.398 -23.773  1.00  0.00    -0.200 OA
ENDROOT
BRANCH   1  21
HETATM   21  C7  UNL     1      10.548 -12.933 -26.467  1.00  0.00     0.036 A 
HETATM   22  C6  UNL     1      10.932 -12.463 -27.686  1.00  0.00     0.030 A 
HETATM   23  C5  UNL     1      12.236 -12.641 -28.133  1.00  0.00     0.010 A 
HETATM   24  C4  UNL     1      13.173 -13.284 -27.379  1.00  0.00    -0.055 A 
HETATM   25  C22 UNL     1      12.801 -13.761 -26.153  1.00  0.00     0.010 A 
HETATM   26  C21 UNL     1      11.512 -13.594 -25.691  1.00  0.00     0.030 A 
BRANCH  24  27
HETATM   27  C2  UNL     1      14.542 -13.463 -27.867  1.00  0.00     0.010 C 
HETATM   28  C1  UNL     1      15.342 -14.124 -26.752  1.00  0.00     0.015 C 
HETATM   29  C3  UNL     1      15.151 -12.125 -28.243  1.00  0.00     0.015 C 
ENDBRANCH  24  27
ENDBRANCH   1  21
TORSDOF 2
ENDMDL
MODEL 2
REMARK VINA RESULT: -9.923744084      2.357      3.978
REMARK  2 active torsions:
REMARK  status: ('A' for Active; 'I' for Inactive)
REMARK    1  A    between atoms: C2_2  and  C4_4 
REMARK    2  A    between atoms: C7_7  and  N1_8 
REMARK       I    between atoms: N1_8  and  C8_10 
REMARK       I    between atoms: C8_10  and  N2_12 
ROOT
HETATM    1  N1  UNL     1       6.263 -11.113 -24.749  1.00  0.00    -0.308 N 
ATOM      2  H1  UNL     1       5.462 -11.609 -25.140  1.00  0.00     0.170 HD
HETATM    3  C8  UNL     1       5.980  -9.987 -23.975  1.00  0.00     0.341 C 
HETATM    4  O1  UNL     1       6.968  -9.325 -23.494  1.00  0.00    -0.245 OA
HETATM    5  N2  UNL     1       4.725  -9.504 -23.676  1.00  0.00    -0.185 N 
HETATM    6  C9  UNL     1       3.529 -10.232 -23.798  1.00  0.00     0.066 A 
HETATM    7  C10 UNL     1       3.555 -11.598 -23.551  1.00  0.00     0.032 A 
HETATM    8  C11 UNL     1       2.468 -12.421 -23.725  1.00  0.00     0.002 A 
HETATM    9  C12 UNL     1       1.322 -11.832 -24.161  1.00  0.00     0.001 A 
HETATM   10  C13 UNL     1       1.237 -10.456 -24.422  1.00  0.00     0.014 A 
HETATM   11  C14 UNL     1       2.341  -9.640 -24.240  1.00  0.00     0.004 A 
HETATM   12  C15 UNL     1       2.164  -8.203 -24.357  1.00  0.00    -0.000 A 
HETATM   13  C16 UNL     1       0.999  -7.670 -24.908  1.00  0.00     0.014 A 
HETATM   14  C17 UNL     1       0.830  -6.305 -25.114  1.00  0.00     0.001 A 
HETATM   15  C18 UNL     1       1.816  -5.418 -24.777  1.00  0.00     0.002 A 
HETATM   16  C19 UNL     1       2.971  -5.926 -24.231  1.00  0.00     0.026 A 
HETATM   17  C20 UNL     1       3.122  -7.266 -24.033  1.00  0.00     0.091 A 
HETATM   18  S1  UNL     1       4.581  -7.822 -23.229  1.00  0.00     0.274 S 
HETATM   19  O2  UNL     1       4.494  -7.728 -21.752  1.00  0.00    -0.200 OA
HETATM   20  O3  UNL     1       5.732  -7.020 -23.768  1.00  0.00    -0.200 OA
ENDROOT
BRANCH   1  21
HETATM   21  C7  UNL     1       7.557 -11.646 -25.054  1.00  0.00     0.036 A 
HETATM   22  C6  UNL     1       8.737 -11.224 -24.523  1.00  0.00     0.030 A 
HETATM   23  C5  UNL     1       9.938 -11.801 -24.921  1.00  0.00     0.010 A 
HETATM   24  C4  UNL     1       9.982 -12.801 -25.848  1.00  0.00    -0.055 A 
HETATM   25  C22 UNL     1       8.803 -13.235 -26.389  1.00  0.00     0.010 A 
HETATM   26  C21 UNL     1       7.602 -12.674 -26.006  1.00  0.00     0.030 A 
BRANCH  24  27
HETATM   27  C2  UNL     1      11.256 -13.397 -26.255  1.00  0.00     0.010 C 
HETATM   28  C1  UNL     1      11.098 -14.911 -26.179  1.00  0.00     0.015 C 
HETATM   29  C3  UNL     1      12.377 -12.929 -25.346  1.00  0.00     0.015 C 
ENDBRANCH  24  27
ENDBRANCH   1  21
TORSDOF 2
ENDMDL
MODEL 3
REMARK VINA RESULT: -9.696303017      2.087      3.867
REMARK  2 active torsions:
REMARK  status: ('A' for Active; 'I' for Inactive)
REMARK    1  A    between atoms: C2_2  and  C4_4 
REMARK    2  A    between atoms: C7_7  and  N1_8 
REMARK       I    between atoms: N1_8  and  C8_10 
REMARK       I    between atoms: C8_10  and  N2_12 
ROOT
HETATM    1  N1  UNL     1       6.010 -11.812 -24.857  1.00  0.00    -0.308 N 
ATOM      2  H1  UNL     1       5.131 -12.105 -25.283  1.00  0.00     0.170 HD
HETATM    3  C8  UNL     1       5.939 -10.761 -23.942  1.00  0.00     0.341 C 
HETATM    4  O1  UNL     1       7.033 -10.352 -23.413  1.00  0.00    -0.245 OA
HETATM    5  N2  UNL     1       4.794 -10.103 -23.552  1.00  0.00    -0.185 N 
HETATM    6  C9  UNL     1       3.485 -10.585 -23.728  1.00  0.00     0.066 A 
HETATM    7  C10 UNL     1       3.266 -11.954 -23.652  1.00  0.00     0.032 A 
HETATM    8  C11 UNL     1       2.048 -12.542 -23.894  1.00  0.00     0.002 A 
HETATM    9  C12 UNL     1       1.024 -11.708 -24.223  1.00  0.00     0.001 A 
HETATM   10  C13 UNL     1       1.187 -10.317 -24.311  1.00  0.00     0.014 A 
HETATM   11  C14 UNL     1       2.421  -9.740 -24.061  1.00  0.00     0.004 A 
HETATM   12  C15 UNL     1       2.506  -8.292 -23.995  1.00  0.00    -0.000 A 
HETATM   13  C16 UNL     1       1.453  -7.495 -24.444  1.00  0.00     0.014 A 
HETATM   14  C17 UNL     1       1.532  -6.106 -24.476  1.00  0.00     0.001 A 
HETATM   15  C18 UNL     1       2.663  -5.459 -24.060  1.00  0.00     0.002 A 
HETATM   16  C19 UNL     1       3.710  -6.229 -23.613  1.00  0.00     0.026 A 
HETATM   17  C20 UNL     1       3.619  -7.589 -23.586  1.00  0.00     0.091 A 
HETATM   18  S1  UNL     1       4.958  -8.493 -22.898  1.00  0.00     0.274 S 
HETATM   19  O2  UNL     1       4.897  -8.572 -21.419  1.00  0.00    -0.200 OA
HETATM   20  O3  UNL     1       6.232  -7.847 -23.367  1.00  0.00    -0.200 OA
ENDROOT
BRANCH   1  21
HETATM   21  C7  UNL     1       7.185 -12.525 -25.261  1.00  0.00     0.036 A 
HETATM   22  C6  UNL     1       7.601 -13.722 -24.762  1.00  0.00     0.030 A 
HETATM   23  C5  UNL     1       8.781 -14.304 -25.214  1.00  0.00     0.010 A 
HETATM   24  C4  UNL     1       9.558 -13.708 -26.163  1.00  0.00    -0.055 A 
HETATM   25  C22 UNL     1       9.152 -12.506 -26.672  1.00  0.00     0.010 A 
HETATM   26  C21 UNL     1       7.984 -11.913 -26.237  1.00  0.00     0.030 A 
BRANCH  24  27
HETATM   27  C2  UNL     1      10.797 -14.336 -26.626  1.00  0.00     0.010 C 
HETATM   28  C1  UNL     1      11.248 -15.311 -25.545  1.00  0.00     0.015 C 
HETATM   29  C3  UNL     1      11.863 -13.286 -26.878  1.00  0.00     0.015 C 
ENDBRANCH  24  27
ENDBRANCH   1  21
TORSDOF 2
ENDMDL
MODEL 4
REMARK VINA RESULT: -9.625477445      4.071      7.388
REMARK  2 active torsions:
REMARK  status: ('A' for Active; 'I' for Inactive)
REMARK    1  A    between atoms: C2_2  and  C4_4 
REMARK    2  A    between atoms: C7_7  and  N1_8 
REMARK       I    between atoms: N1_8  and  C8_10 
REMARK       I    between atoms: C8_10  and  N2_12 
ROOT
HETATM    1  N1  UNL     1       3.949  -9.348 -24.476  1.00  0.00    -0.308 N 
ATOM      2  H1  UNL     1       3.444  -9.153 -25.340  1.00  0.00     0.170 HD
HETATM    3  C8  UNL     1       3.793  -8.425 -23.442  1.00  0.00     0.341 C 
HETATM    4  O1  UNL     1       4.440  -8.628 -22.353  1.00  0.00    -0.245 OA
HETATM    5  N2  UNL     1       3.007  -7.294 -23.478  1.00  0.00    -0.185 N 
HETATM    6  C9  UNL     1       1.976  -7.056 -24.403  1.00  0.00     0.066 A 
HETATM    7  C10 UNL     1       1.232  -8.135 -24.860  1.00  0.00     0.032 A 
HETATM    8  C11 UNL     1       0.261  -8.032 -25.828  1.00  0.00     0.002 A 
HETATM    9  C12 UNL     1       0.043  -6.791 -26.341  1.00  0.00     0.001 A 
HETATM   10  C13 UNL     1       0.762  -5.664 -25.914  1.00  0.00     0.014 A 
HETATM   11  C14 UNL     1       1.735  -5.785 -24.936  1.00  0.00     0.004 A 
HETATM   12  C15 UNL     1       2.333  -4.573 -24.403  1.00  0.00    -0.000 A 
HETATM   13  C16 UNL     1       2.148  -3.347 -25.041  1.00  0.00     0.014 A 
HETATM   14  C17 UNL     1       2.773  -2.181 -24.609  1.00  0.00     0.001 A 
HETATM   15  C18 UNL     1       3.606  -2.194 -23.524  1.00  0.00     0.002 A 
HETATM   16  C19 UNL     1       3.799  -3.395 -22.882  1.00  0.00     0.026 A 
HETATM   17  C20 UNL     1       3.179  -4.528 -23.315  1.00  0.00     0.091 A 
HETATM   18  S1  UNL     1       3.391  -5.996 -22.375  1.00  0.00     0.274 S 
HETATM   19  O2  UNL     1       2.472  -6.072 -21.214  1.00  0.00    -0.200 OA
HETATM   20  O3  UNL     1       4.830  -6.059 -21.947  1.00  0.00    -0.200 OA
ENDROOT
BRANCH   1  21
HETATM   21  C7  UNL     1       4.742 -10.541 -24.454  1.00  0.00     0.036 A 
HETATM   22  C6  UNL     1       6.103 -10.593 -24.434  1.00  0.00     0.030 A 
HETATM   23  C5  UNL     1       6.764 -11.816 -24.445  1.00  0.00     0.010 A 
HETATM   24  C4  UNL     1       6.086 -12.999 -24.476  1.00  0.00    -0.055 A 
HETATM   25  C22 UNL     1       4.719 -12.961 -24.496  1.00  0.00     0.010 A 
HETATM   26  C21 UNL     1       4.045 -11.758 -24.486  1.00  0.00     0.030 A 
BRANCH  24  27
HETATM   27  C2  UNL     1       6.798 -14.277 -24.488  1.00  0.00     0.010 C 
HETATM   28  C1  UNL     1       8.150 -14.041 -25.151  1.00  0.00     0.015 C 
HETATM   29  C3  UNL     1       6.004 -15.322 -25.248  1.00  0.00     0.015 C 
ENDBRANCH  24  27
ENDBRANCH   1  21
TORSDOF 2
ENDMDL
MODEL 5
REMARK VINA RESULT: -9.416564708      4.899      9.318
REMARK  2 active torsions:
REMARK  status: ('A' for Active; 'I' for Inactive)
REMARK    1  A    between atoms: C2_2  and  C4_4 
REMARK    2  A    between atoms: C7_7  and  N1_8 
REMARK       I    between atoms: N1_8  and  C8_10 
REMARK       I    between atoms: C8_10  and  N2_12 
ROOT
HETATM    1  N1  UNL     1       3.787  -7.936 -24.368  1.00  0.00    -0.308 N 
ATOM      2  H1  UNL     1       4.806  -7.905 -24.383  1.00  0.00     0.170 HD
HETATM    3  C8  UNL     1       3.206  -9.149 -23.998  1.00  0.00     0.341 C 
HETATM    4  O1  UNL     1       1.926  -9.227 -23.998  1.00  0.00    -0.245 OA
HETATM    5  N2  UNL     1       3.882 -10.292 -23.633  1.00  0.00    -0.185 N 
HETATM    6  C9  UNL     1       5.231 -10.343 -23.238  1.00  0.00     0.066 A 
HETATM    7  C10 UNL     1       5.758  -9.266 -22.539  1.00  0.00     0.032 A 
HETATM    8  C11 UNL     1       7.081  -9.169 -22.181  1.00  0.00     0.002 A 
HETATM    9  C12 UNL     1       7.888 -10.202 -22.547  1.00  0.00     0.001 A 
HETATM   10  C13 UNL     1       7.409 -11.317 -23.251  1.00  0.00     0.014 A 
HETATM   11  C14 UNL     1       6.071 -11.401 -23.602  1.00  0.00     0.004 A 
HETATM   12  C15 UNL     1       5.585 -12.642 -24.176  1.00  0.00    -0.000 A 
HETATM   13  C16 UNL     1       6.474 -13.618 -24.624  1.00  0.00     0.014 A 
HETATM   14  C17 UNL     1       6.048 -14.782 -25.256  1.00  0.00     0.001 A 
HETATM   15  C18 UNL     1       4.716 -15.017 -25.466  1.00  0.00     0.002 A 
HETATM   16  C19 UNL     1       3.824 -14.065 -25.030  1.00  0.00     0.026 A 
HETATM   17  C20 UNL     1       4.257 -12.931 -24.410  1.00  0.00     0.091 A 
HETATM   18  S1  UNL     1       3.049 -11.819 -23.786  1.00  0.00     0.274 S 
HETATM   19  O2  UNL     1       2.538 -12.217 -22.453  1.00  0.00    -0.200 OA
HETATM   20  O3  UNL     1       1.944 -11.732 -24.800  1.00  0.00    -0.200 OA
ENDROOT
BRANCH   1  21
HETATM   21  C7  UNL     1       3.105  -6.729 -24.729  1.00  0.00     0.036 A 
HETATM   22  C6  UNL     1       2.520  -6.474 -25.932  1.00  0.00     0.030 A 
HETATM   23  C5  UNL     1       1.912  -5.248 -26.176  1.00  0.00     0.010 A 
HETATM   24  C4  UNL     1       1.877  -4.263 -25.233  1.00  0.00    -0.055 A 
HETATM   25  C22 UNL     1       2.460  -4.506 -24.021  1.00  0.00     0.010 A 
HETATM   26  C21 UNL     1       3.068  -5.716 -23.759  1.00  0.00     0.030 A 
BRANCH  24  27
HETATM   27  C2  UNL     1       1.232  -2.977 -25.508  1.00  0.00     0.010 C 
HETATM   28  C1  UNL     1       1.188  -2.198 -24.199  1.00  0.00     0.015 C 
HETATM   29  C3  UNL     1      -0.168  -3.190 -26.052  1.00  0.00     0.015 C 
ENDBRANCH  24  27
ENDBRANCH   1  21
TORSDOF 2
ENDMDL
