MODEL 1
REMARK VINA RESULT: -7.293955672      0.000      0.000
REMARK  4 active torsions:
REMARK  status: ('A' for Active; 'I' for Inactive)
REMARK    1  A    between atoms: C2_2  and  O2_4 
REMARK    2  A    between atoms: O2_4  and  C3_5 
REMARK    3  A    between atoms: C5_8  and  O4_9 
REMARK    4  A    between atoms: C8_13  and  O5_14 
ROOT
HETATM    1  C3  UNL     1     -20.291  -1.972  13.430  1.00  0.00     0.310 C 
HETATM    2  O3  UNL     1     -19.816  -3.288  13.342  1.00  0.00    -0.311 OA
HETATM    3  C4  UNL     1     -19.654  -3.901  12.105  1.00  0.00     0.142 A 
HETATM    4  C5  UNL     1     -19.401  -5.251  12.087  1.00  0.00     0.110 A 
HETATM    5  C6  UNL     1     -19.241  -5.856  10.852  1.00  0.00     0.000 A 
HETATM    6  C7  UNL     1     -19.319  -5.186   9.660  1.00  0.00     0.056 A 
HETATM    7  C8  UNL     1     -19.579  -3.813   9.724  1.00  0.00     0.116 A 
HETATM    8  C9  UNL     1     -19.743  -3.182  10.919  1.00  0.00     0.140 A 
HETATM    9  O6  UNL     1     -20.002  -1.816  11.038  1.00  0.00    -0.330 OA
HETATM   10  C10 UNL     1     -19.660  -1.205  12.261  1.00  0.00     0.111 C 
HETATM   11  C11 UNL     1     -20.127   0.210  12.366  1.00  0.00     0.051 C 
HETATM   12  C12 UNL     1     -18.172  -1.236  12.466  1.00  0.00     0.051 C 
HETATM   13  C13 UNL     1     -19.104  -6.112   8.554  1.00  0.00     0.168 A 
HETATM   14  O7  UNL     1     -19.140  -5.815   7.353  1.00  0.00    -0.292 OA
HETATM   15  C14 UNL     1     -18.838  -7.454   9.118  1.00  0.00     0.078 A 
HETATM   16  C15 UNL     1     -18.964  -7.276  10.566  1.00  0.00     0.043 A 
HETATM   17  C16 UNL     1     -17.633  -7.573   9.972  1.00  0.00    -0.028 A 
HETATM   18  C17 UNL     1     -17.088  -8.953  10.312  1.00  0.00     0.016 C 
HETATM   19  C18 UNL     1     -16.590  -6.512   9.815  1.00  0.00     0.016 C 
ENDROOT
BRANCH   1  20
HETATM   20  O2  UNL     1     -19.881  -1.318  14.618  1.00  0.00    -0.286 OA
BRANCH  20  21
HETATM   21  C2  UNL     1     -20.740  -1.033  15.663  1.00  0.00     0.257 C 
HETATM   22  C1  UNL     1     -20.980  -1.971  16.797  1.00  0.00     0.126 C 
HETATM   23  O1  UNL     1     -21.337   0.093  15.623  1.00  0.00    -0.266 OA
ENDBRANCH  20  21
ENDBRANCH   1  20
BRANCH   4  24
HETATM   24  O4  UNL     1     -19.315  -5.955  13.273  1.00  0.00    -0.357 OA
ATOM     25  H4  UNL     1     -18.838  -6.776  13.305  1.00  0.00     0.217 HD
ENDBRANCH   4  24
BRANCH   7  26
HETATM   26  O5  UNL     1     -19.665  -3.109   8.550  1.00  0.00    -0.357 OA
ATOM     27  H5  UNL     1     -19.184  -2.293   8.475  1.00  0.00     0.217 HD
ENDBRANCH   7  26
TORSDOF 4
ENDMDL
MODEL 2
REMARK VINA RESULT: -7.230457020      1.238      1.366
REMARK  4 active torsions:
REMARK  status: ('A' for Active; 'I' for Inactive)
REMARK    1  A    between atoms: C2_2  and  O2_4 
REMARK    2  A    between atoms: O2_4  and  C3_5 
REMARK    3  A    between atoms: C5_8  and  O4_9 
REMARK    4  A    between atoms: C8_13  and  O5_14 
ROOT
HETATM    1  C3  UNL     1     -20.576  -3.377  13.868  1.00  0.00     0.310 C 
HETATM    2  O3  UNL     1     -20.026  -4.569  13.374  1.00  0.00    -0.311 OA
HETATM    3  C4  UNL     1     -19.795  -4.731  12.013  1.00  0.00     0.142 A 
HETATM    4  C5  UNL     1     -19.468  -5.987  11.564  1.00  0.00     0.110 A 
HETATM    5  C6  UNL     1     -19.238  -6.143  10.207  1.00  0.00     0.000 A 
HETATM    6  C7  UNL     1     -19.318  -5.121   9.300  1.00  0.00     0.056 A 
HETATM    7  C8  UNL     1     -19.654  -3.858   9.799  1.00  0.00     0.116 A 
HETATM    8  C9  UNL     1     -19.888  -3.665  11.126  1.00  0.00     0.140 A 
HETATM    9  O6  UNL     1     -20.226  -2.427  11.675  1.00  0.00    -0.330 OA
HETATM   10  C10 UNL     1     -19.953  -2.241  13.046  1.00  0.00     0.111 C 
HETATM   11  C11 UNL     1     -20.501  -0.961  13.588  1.00  0.00     0.051 C 
HETATM   12  C12 UNL     1     -18.473  -2.275  13.297  1.00  0.00     0.051 C 
HETATM   13  C13 UNL     1     -19.020  -5.619   7.962  1.00  0.00     0.168 A 
HETATM   14  O7  UNL     1     -19.036  -4.943   6.925  1.00  0.00    -0.292 OA
HETATM   15  C14 UNL     1     -18.697  -7.060   8.065  1.00  0.00     0.078 A 
HETATM   16  C15 UNL     1     -18.875  -7.375   9.484  1.00  0.00     0.043 A 
HETATM   17  C16 UNL     1     -17.513  -7.403   8.887  1.00  0.00    -0.028 A 
HETATM   18  C17 UNL     1     -16.904  -8.794   8.779  1.00  0.00     0.016 C 
HETATM   19  C18 UNL     1     -16.526  -6.307   9.135  1.00  0.00     0.016 C 
ENDROOT
BRANCH   1  20
HETATM   20  O2  UNL     1     -20.237  -3.135  15.221  1.00  0.00    -0.286 OA
BRANCH  20  21
HETATM   21  C2  UNL     1     -21.158  -3.174  16.253  1.00  0.00     0.257 C 
HETATM   22  C1  UNL     1     -22.006  -4.366  16.541  1.00  0.00     0.126 C 
HETATM   23  O1  UNL     1     -21.259  -2.124  16.970  1.00  0.00    -0.266 OA
ENDBRANCH  20  21
ENDBRANCH   1  20
BRANCH   4  24
HETATM   24  O4  UNL     1     -19.378  -7.039  12.455  1.00  0.00    -0.357 OA
ATOM     25  H4  UNL     1     -18.612  -7.601  12.453  1.00  0.00     0.217 HD
ENDBRANCH   4  24
BRANCH   7  26
HETATM   26  O5  UNL     1     -19.744  -2.810   8.919  1.00  0.00    -0.357 OA
ATOM     27  H5  UNL     1     -20.049  -1.971   9.244  1.00  0.00     0.217 HD
ENDBRANCH   7  26
TORSDOF 4
ENDMDL
MODEL 3
REMARK VINA RESULT: -7.143177589      1.726      2.159
REMARK  4 active torsions:
REMARK  status: ('A' for Active; 'I' for Inactive)
REMARK    1  A    between atoms: C2_2  and  O2_4 
REMARK    2  A    between atoms: O2_4  and  C3_5 
REMARK    3  A    between atoms: C5_8  and  O4_9 
REMARK    4  A    between atoms: C8_13  and  O5_14 
ROOT
HETATM    1  C3  UNL     1     -21.045  -3.974  14.004  1.00  0.00     0.310 C 
HETATM    2  O3  UNL     1     -20.809  -5.210  13.383  1.00  0.00    -0.311 OA
HETATM    3  C4  UNL     1     -20.377  -5.268  12.064  1.00  0.00     0.142 A 
HETATM    4  C5  UNL     1     -20.377  -6.493  11.443  1.00  0.00     0.110 A 
HETATM    5  C6  UNL     1     -19.944  -6.546  10.129  1.00  0.00     0.000 A 
HETATM    6  C7  UNL     1     -19.521  -5.452   9.423  1.00  0.00     0.056 A 
HETATM    7  C8  UNL     1     -19.537  -4.223  10.093  1.00  0.00     0.116 A 
HETATM    8  C9  UNL     1     -19.955  -4.131  11.384  1.00  0.00     0.140 A 
HETATM    9  O6  UNL     1     -19.991  -2.932  12.097  1.00  0.00    -0.330 OA
HETATM   10  C10 UNL     1     -19.950  -3.023  13.503  1.00  0.00     0.111 C 
HETATM   11  C11 UNL     1     -20.166  -1.713  14.187  1.00  0.00     0.051 C 
HETATM   12  C12 UNL     1     -18.635  -3.590  13.955  1.00  0.00     0.051 C 
HETATM   13  C13 UNL     1     -19.135  -5.849   8.074  1.00  0.00     0.168 A 
HETATM   14  O7  UNL     1     -18.736  -5.083   7.188  1.00  0.00    -0.292 OA
HETATM   15  C14 UNL     1     -19.306  -7.315   7.956  1.00  0.00     0.078 A 
HETATM   16  C15 UNL     1     -19.850  -7.727   9.251  1.00  0.00     0.043 A 
HETATM   17  C16 UNL     1     -18.474  -8.140   8.862  1.00  0.00    -0.028 A 
HETATM   18  C17 UNL     1     -18.321  -9.630   8.589  1.00  0.00     0.016 C 
HETATM   19  C18 UNL     1     -17.264  -7.485   9.448  1.00  0.00     0.016 C 
ENDROOT
BRANCH   1  20
HETATM   20  O2  UNL     1     -20.922  -4.035  15.413  1.00  0.00    -0.286 OA
BRANCH  20  21
HETATM   21  C2  UNL     1     -22.006  -4.138  16.266  1.00  0.00     0.257 C 
HETATM   22  C1  UNL     1     -22.472  -3.014  17.128  1.00  0.00     0.126 C 
HETATM   23  O1  UNL     1     -22.611  -5.260  16.290  1.00  0.00    -0.266 OA
ENDBRANCH  20  21
ENDBRANCH   1  20
BRANCH   4  24
HETATM   24  O4  UNL     1     -20.797  -7.617  12.130  1.00  0.00    -0.357 OA
ATOM     25  H4  UNL     1     -20.995  -7.561  13.057  1.00  0.00     0.217 HD
ENDBRANCH   4  24
BRANCH   7  26
HETATM   26  O5  UNL     1     -19.120  -3.105   9.416  1.00  0.00    -0.357 OA
ATOM     27  H5  UNL     1     -19.458  -2.260   9.688  1.00  0.00     0.217 HD
ENDBRANCH   7  26
TORSDOF 4
ENDMDL
MODEL 4
REMARK VINA RESULT: -7.109295133      1.996      2.422
REMARK  4 active torsions:
REMARK  status: ('A' for Active; 'I' for Inactive)
REMARK    1  A    between atoms: C2_2  and  O2_4 
REMARK    2  A    between atoms: O2_4  and  C3_5 
REMARK    3  A    between atoms: C5_8  and  O4_9 
REMARK    4  A    between atoms: C8_13  and  O5_14 
ROOT
HETATM    1  C3  UNL     1     -20.993  -3.919  14.309  1.00  0.00     0.310 C 
HETATM    2  O3  UNL     1     -20.925  -5.289  14.017  1.00  0.00    -0.311 OA
HETATM    3  C4  UNL     1     -20.625  -5.724  12.732  1.00  0.00     0.142 A 
HETATM    4  C5  UNL     1     -20.790  -7.060  12.453  1.00  0.00     0.110 A 
HETATM    5  C6  UNL     1     -20.489  -7.488  11.171  1.00  0.00     0.000 A 
HETATM    6  C7  UNL     1     -20.041  -6.660  10.178  1.00  0.00     0.056 A 
HETATM    7  C8  UNL     1     -19.887  -5.308  10.504  1.00  0.00     0.116 A 
HETATM    8  C9  UNL     1     -20.172  -4.849  11.753  1.00  0.00     0.140 A 
HETATM    9  O6  UNL     1     -20.036  -3.511  12.130  1.00  0.00    -0.330 OA
HETATM   10  C10 UNL     1     -19.871  -3.250  13.505  1.00  0.00     0.111 C 
HETATM   11  C11 UNL     1     -19.906  -1.794  13.837  1.00  0.00     0.051 C 
HETATM   12  C12 UNL     1     -18.573  -3.823  13.998  1.00  0.00     0.051 C 
HETATM   13  C13 UNL     1     -19.820  -7.424   8.956  1.00  0.00     0.168 A 
HETATM   14  O7  UNL     1     -19.440  -6.955   7.875  1.00  0.00    -0.292 OA
HETATM   15  C14 UNL     1     -20.127  -8.845   9.235  1.00  0.00     0.078 A 
HETATM   16  C15 UNL     1     -20.581  -8.856  10.627  1.00  0.00     0.043 A 
HETATM   17  C16 UNL     1     -19.289  -9.501  10.266  1.00  0.00    -0.028 A 
HETATM   18  C17 UNL     1     -19.293 -11.018  10.380  1.00  0.00     0.016 C 
HETATM   19  C18 UNL     1     -17.977  -8.854  10.577  1.00  0.00     0.016 C 
ENDROOT
BRANCH   1  20
HETATM   20  O2  UNL     1     -20.743  -3.635  15.674  1.00  0.00    -0.286 OA
BRANCH  20  21
HETATM   21  C2  UNL     1     -21.747  -3.425  16.601  1.00  0.00     0.257 C 
HETATM   22  C1  UNL     1     -22.106  -2.073  17.119  1.00  0.00     0.126 C 
HETATM   23  O1  UNL     1     -22.375  -4.458  17.009  1.00  0.00    -0.266 OA
ENDBRANCH  20  21
ENDBRANCH   1  20
BRANCH   4  24
HETATM   24  O4  UNL     1     -21.241  -7.921  13.436  1.00  0.00    -0.357 OA
ATOM     25  H4  UNL     1     -21.098  -8.857  13.350  1.00  0.00     0.217 HD
ENDBRANCH   4  24
BRANCH   7  26
HETATM   26  O5  UNL     1     -19.439  -4.449   9.533  1.00  0.00    -0.357 OA
ATOM     27  H5  UNL     1     -18.765  -3.821   9.761  1.00  0.00     0.217 HD
ENDBRANCH   7  26
TORSDOF 4
ENDMDL
MODEL 5
REMARK VINA RESULT: -6.993444528      2.334      3.040
REMARK  4 active torsions:
REMARK  status: ('A' for Active; 'I' for Inactive)
REMARK    1  A    between atoms: C2_2  and  O2_4 
REMARK    2  A    between atoms: O2_4  and  C3_5 
REMARK    3  A    between atoms: C5_8  and  O4_9 
REMARK    4  A    between atoms: C8_13  and  O5_14 
ROOT
HETATM    1  C3  UNL     1     -19.749  -0.952  13.242  1.00  0.00     0.310 C 
HETATM    2  O3  UNL     1     -20.090  -2.136  13.914  1.00  0.00    -0.311 OA
HETATM    3  C4  UNL     1     -20.261  -3.323  13.212  1.00  0.00     0.142 A 
HETATM    4  C5  UNL     1     -20.807  -4.390  13.882  1.00  0.00     0.110 A 
HETATM    5  C6  UNL     1     -20.975  -5.571  13.178  1.00  0.00     0.000 A 
HETATM    6  C7  UNL     1     -20.628  -5.729  11.864  1.00  0.00     0.056 A 
HETATM    7  C8  UNL     1     -20.075  -4.617  11.219  1.00  0.00     0.116 A 
HETATM    8  C9  UNL     1     -19.895  -3.440  11.876  1.00  0.00     0.140 A 
HETATM    9  O6  UNL     1     -19.348  -2.301  11.280  1.00  0.00    -0.330 OA
HETATM   10  C10 UNL     1     -18.760  -1.351  12.139  1.00  0.00     0.111 C 
HETATM   11  C11 UNL     1     -18.358  -0.093  11.440  1.00  0.00     0.051 C 
HETATM   12  C12 UNL     1     -17.553  -1.931  12.818  1.00  0.00     0.051 C 
HETATM   13  C13 UNL     1     -20.933  -7.087  11.428  1.00  0.00     0.168 A 
HETATM   14  O7  UNL     1     -20.760  -7.529  10.286  1.00  0.00    -0.292 OA
HETATM   15  C14 UNL     1     -21.483  -7.832  12.584  1.00  0.00     0.078 A 
HETATM   16  C15 UNL     1     -21.532  -6.846  13.666  1.00  0.00     0.043 A 
HETATM   17  C16 UNL     1     -20.578  -7.985  13.747  1.00  0.00    -0.028 A 
HETATM   18  C17 UNL     1     -20.911  -9.006  14.825  1.00  0.00     0.016 C 
HETATM   19  C18 UNL     1     -19.116  -7.802  13.490  1.00  0.00     0.016 C 
ENDROOT
BRANCH   1  20
HETATM   20  O2  UNL     1     -19.080  -0.022  14.074  1.00  0.00    -0.286 OA
BRANCH  20  21
HETATM   21  C2  UNL     1     -19.704   1.074  14.643  1.00  0.00     0.257 C 
HETATM   22  C1  UNL     1     -19.061   2.416  14.737  1.00  0.00     0.126 C 
HETATM   23  O1  UNL     1     -20.882   0.891  15.095  1.00  0.00    -0.266 OA
ENDBRANCH  20  21
ENDBRANCH   1  20
BRANCH   4  24
HETATM   24  O4  UNL     1     -21.167  -4.263  15.211  1.00  0.00    -0.357 OA
ATOM     25  H4  UNL     1     -21.656  -3.501  15.500  1.00  0.00     0.217 HD
ENDBRANCH   4  24
BRANCH   7  26
HETATM   26  O5  UNL     1     -19.716  -4.738   9.900  1.00  0.00    -0.357 OA
ATOM     27  H5  UNL     1     -18.817  -4.551   9.657  1.00  0.00     0.217 HD
ENDBRANCH   7  26
TORSDOF 4
ENDMDL
