MODEL 1
REMARK VINA RESULT: -6.780379411      0.000      0.000
REMARK  3 active torsions:
REMARK  status: ('A' for Active; 'I' for Inactive)
REMARK    1  A    between atoms: C2_2  and  C3_4 
REMARK    2  A    between atoms: C3_4  and  O2_5 
REMARK    3  A    between atoms: C6_11  and  O5_12 
ROOT
HETATM    1  C3  UNL     1     -18.141  -3.358  10.606  1.00  0.00     0.234 C 
HETATM    2  O3  UNL     1     -19.024  -2.940  11.592  1.00  0.00    -0.311 OA
HETATM    3  C4  UNL     1     -18.435  -2.690  12.817  1.00  0.00     0.176 C 
HETATM    4  C5  UNL     1     -17.860  -3.851  13.552  1.00  0.00     0.080 C 
HETATM    5  O4  UNL     1     -17.552  -1.601  12.642  1.00  0.00    -0.316 OA
HETATM    6  C6  UNL     1     -18.517  -0.696  12.987  1.00  0.00     0.200 C 
HETATM    7  C7  UNL     1     -19.454  -0.314  11.878  1.00  0.00     0.119 C 
HETATM    8  C8  UNL     1     -20.768  -0.934  12.113  1.00  0.00     0.018 C 
HETATM    9  C9  UNL     1     -20.676  -1.665  13.460  1.00  0.00     0.016 C 
HETATM   10  C10 UNL     1     -19.221  -1.803  13.740  1.00  0.00     0.112 C 
HETATM   11  C11 UNL     1     -18.847  -0.542  10.557  1.00  0.00     0.137 C 
HETATM   12  O6  UNL     1     -17.816   0.118  10.341  1.00  0.00    -0.297 OA
HETATM   13  C12 UNL     1     -19.292  -1.423   9.495  1.00  0.00     0.093 C 
HETATM   14  C13 UNL     1     -18.467  -2.691   9.315  1.00  0.00     0.023 C 
HETATM   15  C14 UNL     1     -19.274  -3.581   8.393  1.00  0.00     0.021 C 
HETATM   16  C15 UNL     1     -17.234  -2.334   8.500  1.00  0.00     0.021 C 
ENDROOT
BRANCH   1  17
HETATM   17  C2  UNL     1     -18.321  -4.832  10.492  1.00  0.00     0.185 C 
HETATM   18  C1  UNL     1     -19.618  -5.525  10.800  1.00  0.00     0.097 C 
HETATM   19  O1  UNL     1     -17.423  -5.597  10.137  1.00  0.00    -0.292 OA
ENDBRANCH   1  17
BRANCH   1  20
HETATM   20  O2  UNL     1     -16.801  -3.183  10.971  1.00  0.00    -0.359 OA
ATOM     21  H2  UNL     1     -16.455  -2.557  10.346  1.00  0.00     0.213 HD
ENDBRANCH   1  20
BRANCH   6  22
HETATM   22  O5  UNL     1     -18.057   0.338  13.797  1.00  0.00    -0.267 OA
HETATM   23  S1  UNL     1     -19.225   1.536  14.101  1.00  0.00     0.096 SA
ENDBRANCH   6  22
TORSDOF 3
ENDMDL
MODEL 2
REMARK VINA RESULT: -6.386461602      1.680      3.430
REMARK  3 active torsions:
REMARK  status: ('A' for Active; 'I' for Inactive)
REMARK    1  A    between atoms: C2_2  and  C3_4 
REMARK    2  A    between atoms: C3_4  and  O2_5 
REMARK    3  A    between atoms: C6_11  and  O5_12 
ROOT
HETATM    1  C3  UNL     1     -19.388  -3.195  10.265  1.00  0.00     0.234 C 
HETATM    2  O3  UNL     1     -18.729  -2.183  10.951  1.00  0.00    -0.311 OA
HETATM    3  C4  UNL     1     -19.438  -1.000  11.040  1.00  0.00     0.176 C 
HETATM    4  C5  UNL     1     -19.684  -0.250   9.778  1.00  0.00     0.080 C 
HETATM    5  O4  UNL     1     -20.593  -1.262  11.811  1.00  0.00    -0.316 OA
HETATM    6  C6  UNL     1     -19.963  -0.904  12.971  1.00  0.00     0.200 C 
HETATM    7  C7  UNL     1     -19.118  -1.979  13.590  1.00  0.00     0.119 C 
HETATM    8  C8  UNL     1     -17.695  -1.655  13.397  1.00  0.00     0.018 C 
HETATM    9  C9  UNL     1     -17.645  -0.287  12.703  1.00  0.00     0.016 C 
HETATM   10  C10 UNL     1     -19.007  -0.074  12.142  1.00  0.00     0.112 C 
HETATM   11  C11 UNL     1     -19.549  -3.319  13.162  1.00  0.00     0.137 C 
HETATM   12  O6  UNL     1     -20.715  -3.612  13.478  1.00  0.00    -0.297 OA
HETATM   13  C12 UNL     1     -18.800  -4.323  12.431  1.00  0.00     0.093 C 
HETATM   14  C13 UNL     1     -19.199  -4.493  10.971  1.00  0.00     0.023 C 
HETATM   15  C14 UNL     1     -18.110  -5.338  10.342  1.00  0.00     0.021 C 
HETATM   16  C15 UNL     1     -20.431  -5.382  10.924  1.00  0.00     0.021 C 
ENDROOT
BRANCH   1  17
HETATM   17  C2  UNL     1     -18.772  -3.242   8.911  1.00  0.00     0.185 C 
HETATM   18  C1  UNL     1     -17.369  -2.781   8.633  1.00  0.00     0.097 C 
HETATM   19  O1  UNL     1     -19.361  -3.661   7.914  1.00  0.00    -0.292 OA
ENDBRANCH   1  17
BRANCH   1  20
HETATM   20  O2  UNL     1     -20.738  -2.905  10.040  1.00  0.00    -0.359 OA
ATOM     21  H2  UNL     1     -20.940  -3.300   9.201  1.00  0.00     0.213 HD
ENDBRANCH   1  20
BRANCH   6  22
HETATM   22  O5  UNL     1     -20.756  -0.159  13.838  1.00  0.00    -0.267 OA
HETATM   23  S1  UNL     1     -20.551  -0.573  15.475  1.00  0.00     0.096 SA
ENDBRANCH   6  22
TORSDOF 3
ENDMDL
MODEL 3
REMARK VINA RESULT: -6.343651554      2.663      4.695
REMARK  3 active torsions:
REMARK  status: ('A' for Active; 'I' for Inactive)
REMARK    1  A    between atoms: C2_2  and  C3_4 
REMARK    2  A    between atoms: C3_4  and  O2_5 
REMARK    3  A    between atoms: C6_11  and  O5_12 
ROOT
HETATM    1  C3  UNL     1     -19.515  -0.488  12.753  1.00  0.00     0.234 C 
HETATM    2  O3  UNL     1     -18.958  -1.653  13.264  1.00  0.00    -0.311 OA
HETATM    3  C4  UNL     1     -19.793  -2.365  14.102  1.00  0.00     0.176 C 
HETATM    4  C5  UNL     1     -20.157  -1.739  15.403  1.00  0.00     0.080 C 
HETATM    5  O4  UNL     1     -20.890  -2.803  13.326  1.00  0.00    -0.316 OA
HETATM    6  C6  UNL     1     -20.274  -3.987  13.030  1.00  0.00     0.200 C 
HETATM    7  C7  UNL     1     -19.296  -3.926  11.893  1.00  0.00     0.119 C 
HETATM    8  C8  UNL     1     -17.925  -4.011  12.422  1.00  0.00     0.018 C 
HETATM    9  C9  UNL     1     -18.049  -4.214  13.938  1.00  0.00     0.016 C 
HETATM   10  C10 UNL     1     -19.442  -3.815  14.281  1.00  0.00     0.112 C 
HETATM   11  C11 UNL     1     -19.584  -2.797  10.994  1.00  0.00     0.137 C 
HETATM   12  O6  UNL     1     -20.700  -2.842  10.449  1.00  0.00    -0.297 OA
HETATM   13  C12 UNL     1     -18.745  -1.659  10.670  1.00  0.00     0.093 C 
HETATM   14  C13 UNL     1     -19.161  -0.343  11.314  1.00  0.00     0.023 C 
HETATM   15  C14 UNL     1     -18.000   0.606  11.099  1.00  0.00     0.021 C 
HETATM   16  C15 UNL     1     -20.285   0.250  10.481  1.00  0.00     0.021 C 
ENDROOT
BRANCH   1  17
HETATM   17  C2  UNL     1     -18.934   0.628  13.549  1.00  0.00     0.185 C 
HETATM   18  C1  UNL     1     -19.774   1.650  14.262  1.00  0.00     0.097 C 
HETATM   19  O1  UNL     1     -17.722   0.802  13.686  1.00  0.00    -0.292 OA
ENDBRANCH   1  17
BRANCH   1  20
HETATM   20  O2  UNL     1     -20.895  -0.409  12.971  1.00  0.00    -0.359 OA
ATOM     21  H2  UNL     1     -21.005  -0.525  13.907  1.00  0.00     0.213 HD
ENDBRANCH   1  20
BRANCH   6  22
HETATM   22  O5  UNL     1     -21.124  -5.089  13.061  1.00  0.00    -0.267 OA
HETATM   23  S1  UNL     1     -20.834  -6.208  11.814  1.00  0.00     0.096 SA
ENDBRANCH   6  22
TORSDOF 3
ENDMDL
MODEL 4
REMARK VINA RESULT: -6.108142814      2.278      4.292
REMARK  3 active torsions:
REMARK  status: ('A' for Active; 'I' for Inactive)
REMARK    1  A    between atoms: C2_2  and  C3_4 
REMARK    2  A    between atoms: C3_4  and  O2_5 
REMARK    3  A    between atoms: C6_11  and  O5_12 
ROOT
HETATM    1  C3  UNL     1     -20.372  -5.672  11.785  1.00  0.00     0.234 C 
HETATM    2  O3  UNL     1     -19.280  -4.817  11.714  1.00  0.00    -0.311 OA
HETATM    3  C4  UNL     1     -19.476  -3.705  10.918  1.00  0.00     0.176 C 
HETATM    4  C5  UNL     1     -19.642  -3.928   9.455  1.00  0.00     0.080 C 
HETATM    5  O4  UNL     1     -20.495  -2.934  11.521  1.00  0.00    -0.316 OA
HETATM    6  C6  UNL     1     -19.589  -2.195  12.230  1.00  0.00     0.200 C 
HETATM    7  C7  UNL     1     -19.105  -2.832  13.500  1.00  0.00     0.119 C 
HETATM    8  C8  UNL     1     -17.719  -3.293  13.319  1.00  0.00     0.018 C 
HETATM    9  C9  UNL     1     -17.289  -2.857  11.912  1.00  0.00     0.016 C 
HETATM   10  C10 UNL     1     -18.552  -2.551  11.186  1.00  0.00     0.112 C 
HETATM   11  C11 UNL     1     -20.067  -3.825  14.005  1.00  0.00     0.137 C 
HETATM   12  O6  UNL     1     -21.185  -3.363  14.288  1.00  0.00    -0.297 OA
HETATM   13  C12 UNL     1     -19.877  -5.248  14.210  1.00  0.00     0.093 C 
HETATM   14  C13 UNL     1     -20.556  -6.147  13.185  1.00  0.00     0.023 C 
HETATM   15  C14 UNL     1     -19.980  -7.531  13.404  1.00  0.00     0.021 C 
HETATM   16  C15 UNL     1     -22.017  -6.286  13.579  1.00  0.00     0.021 C 
ENDROOT
BRANCH   1  17
HETATM   17  C2  UNL     1     -20.059  -6.814  10.882  1.00  0.00     0.185 C 
HETATM   18  C1  UNL     1     -18.655  -7.234  10.550  1.00  0.00     0.097 C 
HETATM   19  O1  UNL     1     -20.924  -7.502  10.338  1.00  0.00    -0.292 OA
ENDBRANCH   1  17
BRANCH   1  20
HETATM   20  O2  UNL     1     -21.538  -5.102  11.260  1.00  0.00    -0.359 OA
ATOM     21  H2  UNL     1     -21.562  -5.382  10.353  1.00  0.00     0.213 HD
ENDBRANCH   1  20
BRANCH   6  22
HETATM   22  O5  UNL     1     -19.890  -0.838  12.290  1.00  0.00    -0.267 OA
HETATM   23  S1  UNL     1     -19.598  -0.141  13.813  1.00  0.00     0.096 SA
ENDBRANCH   6  22
TORSDOF 3
ENDMDL
MODEL 5
REMARK VINA RESULT: -6.047900169      2.453      4.280
REMARK  3 active torsions:
REMARK  status: ('A' for Active; 'I' for Inactive)
REMARK    1  A    between atoms: C2_2  and  C3_4 
REMARK    2  A    between atoms: C3_4  and  O2_5 
REMARK    3  A    between atoms: C6_11  and  O5_12 
ROOT
HETATM    1  C3  UNL     1     -19.035  -2.659  10.119  1.00  0.00     0.234 C 
HETATM    2  O3  UNL     1     -18.988  -2.682  11.506  1.00  0.00    -0.311 OA
HETATM    3  C4  UNL     1     -20.221  -2.572  12.121  1.00  0.00     0.176 C 
HETATM    4  C5  UNL     1     -20.949  -1.282  11.974  1.00  0.00     0.080 C 
HETATM    5  O4  UNL     1     -20.967  -3.719  11.769  1.00  0.00    -0.316 OA
HETATM    6  C6  UNL     1     -20.541  -4.400  12.875  1.00  0.00     0.200 C 
HETATM    7  C7  UNL     1     -19.193  -5.047  12.742  1.00  0.00     0.119 C 
HETATM    8  C8  UNL     1     -18.209  -4.295  13.538  1.00  0.00     0.018 C 
HETATM    9  C9  UNL     1     -18.983  -3.185  14.261  1.00  0.00     0.016 C 
HETATM   10  C10 UNL     1     -20.279  -3.066  13.539  1.00  0.00     0.112 C 
HETATM   11  C11 UNL     1     -18.849  -5.290  11.332  1.00  0.00     0.137 C 
HETATM   12  O6  UNL     1     -19.627  -6.054  10.735  1.00  0.00    -0.297 OA
HETATM   13  C12 UNL     1     -17.737  -4.761  10.565  1.00  0.00     0.093 C 
HETATM   14  C13 UNL     1     -18.101  -3.676   9.561  1.00  0.00     0.023 C 
HETATM   15  C14 UNL     1     -16.786  -3.068   9.117  1.00  0.00     0.021 C 
HETATM   16  C15 UNL     1     -18.637  -4.355   8.312  1.00  0.00     0.021 C 
ENDROOT
BRANCH   1  17
HETATM   17  C2  UNL     1     -18.616  -1.288   9.717  1.00  0.00     0.185 C 
HETATM   18  C1  UNL     1     -17.979  -0.314  10.668  1.00  0.00     0.097 C 
HETATM   19  O1  UNL     1     -18.758  -0.844   8.577  1.00  0.00    -0.292 OA
ENDBRANCH   1  17
BRANCH   1  20
HETATM   20  O2  UNL     1     -20.335  -2.802   9.620  1.00  0.00    -0.359 OA
ATOM     21  H2  UNL     1     -20.709  -3.525  10.110  1.00  0.00     0.213 HD
ENDBRANCH   1  20
BRANCH   6  22
HETATM   22  O5  UNL     1     -21.535  -5.154  13.492  1.00  0.00    -0.267 OA
HETATM   23  S1  UNL     1     -21.071  -6.758  13.816  1.00  0.00     0.096 SA
ENDBRANCH   6  22
TORSDOF 3
ENDMDL
