MODEL 1
REMARK VINA RESULT: -6.589417360      0.000      0.000
REMARK  7 active torsions:
REMARK  status: ('A' for Active; 'I' for Inactive)
REMARK    1  A    between atoms: C2_3  and  O1_4 
REMARK    2  A    between atoms: C3_6  and  O2_7 
REMARK    3  A    between atoms: C6_12  and  C7_13 
REMARK    4  A    between atoms: C7_13  and  O3_14 
REMARK    5  A    between atoms: C7_13  and  O4_16 
REMARK    6  A    between atoms: O4_16  and  C8_17 
REMARK       I    between atoms: C8_17  and  N3_19 
REMARK    7  A    between atoms: C12_23  and  C13_24 
ROOT
HETATM    1  C1  UNL     1      11.345 -33.103  16.758  1.00  0.00     0.158 C 
HETATM    2  N1  UNL     1      11.280 -34.267  15.901  1.00  0.00    -0.328 N 
HETATM    3  C2  UNL     1      10.433 -35.289  16.118  1.00  0.00     0.178 A 
HETATM    4  C3  UNL     1      10.622 -36.248  15.115  1.00  0.00     0.140 A 
HETATM    5  C4  UNL     1      11.608 -35.767  14.296  1.00  0.00     0.109 A 
HETATM    6  C5  UNL     1      12.170 -36.382  13.112  1.00  0.00     0.104 C 
HETATM    7  N2  UNL     1      12.635 -36.878  12.175  1.00  0.00    -0.191 NA
HETATM    8  C6  UNL     1      12.002 -34.528  14.806  1.00  0.00     0.092 A 
ENDROOT
BRANCH   4   9
HETATM    9  O2  UNL     1       9.947 -37.450  14.976  1.00  0.00    -0.355 OA
ATOM     10  H2  UNL     1       9.167 -37.609  14.458  1.00  0.00     0.218 HD
ENDBRANCH   4   9
BRANCH   8  11
HETATM   11  C7  UNL     1      13.035 -33.654  14.244  1.00  0.00     0.321 C 
BRANCH  11  12
HETATM   12  O3  UNL     1      14.257 -34.315  14.205  1.00  0.00    -0.365 OA
ATOM     13  H3  UNL     1      14.895 -33.799  13.728  1.00  0.00     0.213 HD
ENDBRANCH  11  12
BRANCH  11  14
HETATM   14  O4  UNL     1      12.740 -33.196  12.947  1.00  0.00    -0.267 OA
BRANCH  14  15
HETATM   15  C8  UNL     1      13.572 -32.355  12.215  1.00  0.00     0.366 C 
HETATM   16  O5  UNL     1      13.971 -31.331  12.828  1.00  0.00    -0.238 OA
HETATM   17  N3  UNL     1      13.948 -32.627  10.873  1.00  0.00    -0.318 N 
HETATM   18  C9  UNL     1      14.811 -31.754  10.105  1.00  0.00     0.129 C 
HETATM   19  C12 UNL     1      13.577 -33.743  10.050  1.00  0.00     0.135 C 
HETATM   20  C10 UNL     1      15.085 -32.459   8.817  1.00  0.00     0.022 C 
HETATM   21  C11 UNL     1      13.831 -33.278   8.609  1.00  0.00     0.033 C 
BRANCH  19  22
HETATM   22  C13 UNL     1      14.458 -34.937  10.256  1.00  0.00     0.009 C 
HETATM   23  N4  UNL     1      15.236 -35.213  11.228  1.00  0.00    -0.374 N 
HETATM   24  C14 UNL     1      15.921 -36.432  11.094  1.00  0.00     0.061 C 
ATOM     25  H4  UNL     1      15.350 -34.600  12.036  1.00  0.00     0.164 HD
HETATM   26  C15 UNL     1      15.828 -36.747   9.620  1.00  0.00     0.050 C 
HETATM   27  C16 UNL     1      14.539 -36.039   9.255  1.00  0.00     0.059 C 
ENDBRANCH  19  22
ENDBRANCH  14  15
ENDBRANCH  11  14
ENDBRANCH   8  11
BRANCH   3  28
HETATM   28  O1  UNL     1       9.495 -35.462  17.127  1.00  0.00    -0.344 OA
ATOM     29  H1  UNL     1       9.370 -36.195  17.717  1.00  0.00     0.219 HD
ENDBRANCH   3  28
TORSDOF 7
ENDMDL
MODEL 2
REMARK VINA RESULT: -6.558827407      1.027      2.375
REMARK  7 active torsions:
REMARK  status: ('A' for Active; 'I' for Inactive)
REMARK    1  A    between atoms: C2_3  and  O1_4 
REMARK    2  A    between atoms: C3_6  and  O2_7 
REMARK    3  A    between atoms: C6_12  and  C7_13 
REMARK    4  A    between atoms: C7_13  and  O3_14 
REMARK    5  A    between atoms: C7_13  and  O4_16 
REMARK    6  A    between atoms: O4_16  and  C8_17 
REMARK       I    between atoms: C8_17  and  N3_19 
REMARK    7  A    between atoms: C12_23  and  C13_24 
ROOT
HETATM    1  C1  UNL     1      12.252 -36.992  13.016  1.00  0.00     0.158 C 
HETATM    2  N1  UNL     1      11.714 -36.216  14.113  1.00  0.00    -0.328 N 
HETATM    3  C2  UNL     1      10.722 -36.660  14.906  1.00  0.00     0.178 A 
HETATM    4  C3  UNL     1      10.439 -35.677  15.861  1.00  0.00     0.140 A 
HETATM    5  C4  UNL     1      11.291 -34.634  15.613  1.00  0.00     0.109 A 
HETATM    6  C5  UNL     1      11.399 -33.376  16.322  1.00  0.00     0.104 C 
HETATM    7  N2  UNL     1      11.477 -32.361  16.873  1.00  0.00    -0.191 NA
HETATM    8  C6  UNL     1      12.078 -34.994  14.518  1.00  0.00     0.092 A 
ENDROOT
BRANCH   4   9
HETATM    9  O2  UNL     1       9.484 -35.741  16.863  1.00  0.00    -0.355 OA
ATOM     10  H2  UNL     1       8.549 -35.596  16.770  1.00  0.00     0.218 HD
ENDBRANCH   4   9
BRANCH   8  11
HETATM   11  C7  UNL     1      13.129 -34.178  13.905  1.00  0.00     0.321 C 
BRANCH  11  12
HETATM   12  O3  UNL     1      14.304 -34.911  13.793  1.00  0.00    -0.365 OA
ATOM     13  H3  UNL     1      14.204 -35.597  13.144  1.00  0.00     0.213 HD
ENDBRANCH  11  12
BRANCH  11  14
HETATM   14  O4  UNL     1      12.790 -33.690  12.630  1.00  0.00    -0.267 OA
BRANCH  14  15
HETATM   15  C8  UNL     1      13.680 -33.019  11.796  1.00  0.00     0.366 C 
HETATM   16  O5  UNL     1      14.228 -32.006  12.302  1.00  0.00    -0.238 OA
HETATM   17  N3  UNL     1      13.954 -33.443  10.469  1.00  0.00    -0.318 N 
HETATM   18  C9  UNL     1      14.876 -32.749   9.595  1.00  0.00     0.129 C 
HETATM   19  C12 UNL     1      13.412 -34.568   9.760  1.00  0.00     0.135 C 
HETATM   20  C10 UNL     1      15.001 -33.583   8.363  1.00  0.00     0.022 C 
HETATM   21  C11 UNL     1      13.649 -34.256   8.275  1.00  0.00     0.033 C 
BRANCH  19  22
HETATM   22  C13 UNL     1      14.154 -35.841  10.034  1.00  0.00     0.009 C 
HETATM   23  N4  UNL     1      15.050 -36.086  10.907  1.00  0.00    -0.374 N 
HETATM   24  C14 UNL     1      15.536 -37.404  10.885  1.00  0.00     0.061 C 
ATOM     25  H4  UNL     1      15.386 -35.384  11.567  1.00  0.00     0.164 HD
HETATM   26  C15 UNL     1      15.142 -37.919   9.522  1.00  0.00     0.050 C 
HETATM   27  C16 UNL     1      13.911 -37.081   9.242  1.00  0.00     0.059 C 
ENDBRANCH  19  22
ENDBRANCH  14  15
ENDBRANCH  11  14
ENDBRANCH   8  11
BRANCH   3  28
HETATM   28  O1  UNL     1      10.033 -37.864  14.870  1.00  0.00    -0.344 OA
ATOM     29  H1  UNL     1       9.644 -38.317  14.132  1.00  0.00     0.219 HD
ENDBRANCH   3  28
TORSDOF 7
ENDMDL
MODEL 3
REMARK VINA RESULT: -6.284814394      2.940      4.771
REMARK  7 active torsions:
REMARK  status: ('A' for Active; 'I' for Inactive)
REMARK    1  A    between atoms: C2_3  and  O1_4 
REMARK    2  A    between atoms: C3_6  and  O2_7 
REMARK    3  A    between atoms: C6_12  and  C7_13 
REMARK    4  A    between atoms: C7_13  and  O3_14 
REMARK    5  A    between atoms: C7_13  and  O4_16 
REMARK    6  A    between atoms: O4_16  and  C8_17 
REMARK       I    between atoms: C8_17  and  N3_19 
REMARK    7  A    between atoms: C12_23  and  C13_24 
ROOT
HETATM    1  C1  UNL     1      10.945 -37.368  14.643  1.00  0.00     0.158 C 
HETATM    2  N1  UNL     1      11.208 -35.978  14.952  1.00  0.00    -0.328 N 
HETATM    3  C2  UNL     1      10.581 -35.318  15.941  1.00  0.00     0.178 A 
HETATM    4  C3  UNL     1      11.059 -34.003  15.975  1.00  0.00     0.140 A 
HETATM    5  C4  UNL     1      11.989 -33.899  14.975  1.00  0.00     0.109 A 
HETATM    6  C5  UNL     1      12.774 -32.743  14.596  1.00  0.00     0.104 C 
HETATM    7  N2  UNL     1      13.391 -31.817  14.277  1.00  0.00    -0.191 NA
HETATM    8  C6  UNL     1      12.065 -35.146  14.351  1.00  0.00     0.092 A 
ENDROOT
BRANCH   4   9
HETATM    9  O2  UNL     1      10.670 -32.998  16.846  1.00  0.00    -0.355 OA
ATOM     10  H2  UNL     1      10.519 -32.085  16.633  1.00  0.00     0.218 HD
ENDBRANCH   4   9
BRANCH   8  11
HETATM   11  C7  UNL     1      12.934 -35.494  13.224  1.00  0.00     0.321 C 
BRANCH  11  12
HETATM   12  O3  UNL     1      13.945 -36.352  13.643  1.00  0.00    -0.365 OA
ATOM     13  H3  UNL     1      14.795 -35.992  13.421  1.00  0.00     0.213 HD
ENDBRANCH  11  12
BRANCH  11  14
HETATM   14  O4  UNL     1      12.253 -36.105  12.155  1.00  0.00    -0.267 OA
BRANCH  14  15
HETATM   15  C8  UNL     1      12.887 -36.641  11.039  1.00  0.00     0.366 C 
HETATM   16  O5  UNL     1      13.647 -35.850  10.422  1.00  0.00    -0.238 OA
HETATM   17  N3  UNL     1      12.693 -37.984  10.620  1.00  0.00    -0.318 N 
HETATM   18  C9  UNL     1      13.347 -38.548   9.457  1.00  0.00     0.129 C 
HETATM   19  C12 UNL     1      11.866 -38.995  11.215  1.00  0.00     0.135 C 
HETATM   20  C10 UNL     1      13.009 -40.002   9.447  1.00  0.00     0.022 C 
HETATM   21  C11 UNL     1      11.648 -40.035  10.106  1.00  0.00     0.033 C 
BRANCH  19  22
HETATM   22  C13 UNL     1      12.550 -39.725  12.331  1.00  0.00     0.009 C 
HETATM   23  N4  UNL     1      13.571 -39.386  13.016  1.00  0.00    -0.374 N 
HETATM   24  C14 UNL     1      13.946 -40.319  13.996  1.00  0.00     0.061 C 
ATOM     25  H4  UNL     1      14.072 -38.510  12.865  1.00  0.00     0.164 HD
HETATM   26  C15 UNL     1      13.272 -41.599  13.565  1.00  0.00     0.050 C 
HETATM   27  C16 UNL     1      12.075 -41.054  12.811  1.00  0.00     0.059 C 
ENDBRANCH  19  22
ENDBRANCH  14  15
ENDBRANCH  11  14
ENDBRANCH   8  11
BRANCH   3  28
HETATM   28  O1  UNL     1       9.615 -35.767  16.831  1.00  0.00    -0.344 OA
ATOM     29  H1  UNL     1       9.323 -35.386  17.651  1.00  0.00     0.219 HD
ENDBRANCH   3  28
TORSDOF 7
ENDMDL
MODEL 4
REMARK VINA RESULT: -6.281320249      1.598      3.184
REMARK  7 active torsions:
REMARK  status: ('A' for Active; 'I' for Inactive)
REMARK    1  A    between atoms: C2_3  and  O1_4 
REMARK    2  A    between atoms: C3_6  and  O2_7 
REMARK    3  A    between atoms: C6_12  and  C7_13 
REMARK    4  A    between atoms: C7_13  and  O3_14 
REMARK    5  A    between atoms: C7_13  and  O4_16 
REMARK    6  A    between atoms: O4_16  and  C8_17 
REMARK       I    between atoms: C8_17  and  N3_19 
REMARK    7  A    between atoms: C12_23  and  C13_24 
ROOT
HETATM    1  C1  UNL     1      12.243 -31.809  15.982  1.00  0.00     0.158 C 
HETATM    2  N1  UNL     1      11.747 -33.162  15.841  1.00  0.00    -0.328 N 
HETATM    3  C2  UNL     1      10.741 -33.654  16.585  1.00  0.00     0.178 A 
HETATM    4  C3  UNL     1      10.509 -34.980  16.203  1.00  0.00     0.140 A 
HETATM    5  C4  UNL     1      11.408 -35.264  15.211  1.00  0.00     0.109 A 
HETATM    6  C5  UNL     1      11.578 -36.503  14.482  1.00  0.00     0.104 C 
HETATM    7  N2  UNL     1      11.731 -37.498  13.908  1.00  0.00    -0.191 NA
HETATM    8  C6  UNL     1      12.170 -34.113  15.001  1.00  0.00     0.092 A 
ENDROOT
BRANCH   4   9
HETATM    9  O2  UNL     1       9.558 -35.842  16.725  1.00  0.00    -0.355 OA
ATOM     10  H2  UNL     1       9.297 -35.919  17.635  1.00  0.00     0.218 HD
ENDBRANCH   4   9
BRANCH   8  11
HETATM   11  C7  UNL     1      13.254 -33.962  14.028  1.00  0.00     0.321 C 
BRANCH  11  12
HETATM   12  O3  UNL     1      13.842 -35.194  13.766  1.00  0.00    -0.365 OA
ATOM     13  H3  UNL     1      14.729 -35.075  13.451  1.00  0.00     0.213 HD
ENDBRANCH  11  12
BRANCH  11  14
HETATM   14  O4  UNL     1      12.840 -33.403  12.805  1.00  0.00    -0.267 OA
BRANCH  14  15
HETATM   15  C8  UNL     1      12.833 -34.097  11.599  1.00  0.00     0.366 C 
HETATM   16  O5  UNL     1      11.959 -34.998  11.504  1.00  0.00    -0.238 OA
HETATM   17  N3  UNL     1      13.744 -33.814  10.547  1.00  0.00    -0.318 N 
HETATM   18  C9  UNL     1      13.744 -34.533   9.291  1.00  0.00     0.129 C 
HETATM   19  C12 UNL     1      14.785 -32.826  10.509  1.00  0.00     0.135 C 
HETATM   20  C10 UNL     1      14.732 -33.844   8.409  1.00  0.00     0.022 C 
HETATM   21  C11 UNL     1      15.736 -33.292   9.397  1.00  0.00     0.033 C 
BRANCH  19  22
HETATM   22  C13 UNL     1      14.291 -31.476  10.085  1.00  0.00     0.009 C 
HETATM   23  N4  UNL     1      13.134 -30.957  10.217  1.00  0.00    -0.374 N 
HETATM   24  C14 UNL     1      13.020 -29.656   9.699  1.00  0.00     0.061 C 
ATOM     25  H4  UNL     1      12.356 -31.446  10.662  1.00  0.00     0.164 HD
HETATM   26  C15 UNL     1      14.194 -29.529   8.760  1.00  0.00     0.050 C 
HETATM   27  C16 UNL     1      15.175 -30.495   9.393  1.00  0.00     0.059 C 
ENDBRANCH  19  22
ENDBRANCH  14  15
ENDBRANCH  11  14
ENDBRANCH   8  11
BRANCH   3  28
HETATM   28  O1  UNL     1       9.995 -33.039  17.582  1.00  0.00    -0.344 OA
ATOM     29  H1  UNL     1      10.285 -32.515  18.319  1.00  0.00     0.219 HD
ENDBRANCH   3  28
TORSDOF 7
ENDMDL
MODEL 5
REMARK VINA RESULT: -6.265281181      2.331      5.899
REMARK  7 active torsions:
REMARK  status: ('A' for Active; 'I' for Inactive)
REMARK    1  A    between atoms: C2_3  and  O1_4 
REMARK    2  A    between atoms: C3_6  and  O2_7 
REMARK    3  A    between atoms: C6_12  and  C7_13 
REMARK    4  A    between atoms: C7_13  and  O3_14 
REMARK    5  A    between atoms: C7_13  and  O4_16 
REMARK    6  A    between atoms: O4_16  and  C8_17 
REMARK       I    between atoms: C8_17  and  N3_19 
REMARK    7  A    between atoms: C12_23  and  C13_24 
ROOT
HETATM    1  C1  UNL     1      14.616 -33.126  11.079  1.00  0.00     0.158 C 
HETATM    2  N1  UNL     1      13.892 -32.519  12.176  1.00  0.00    -0.328 N 
HETATM    3  C2  UNL     1      13.638 -31.200  12.243  1.00  0.00     0.178 A 
HETATM    4  C3  UNL     1      12.925 -30.941  13.420  1.00  0.00     0.140 A 
HETATM    5  C4  UNL     1      12.764 -32.145  14.052  1.00  0.00     0.109 A 
HETATM    6  C5  UNL     1      12.094 -32.417  15.306  1.00  0.00     0.104 C 
HETATM    7  N2  UNL     1      11.575 -32.638  16.317  1.00  0.00    -0.191 NA
HETATM    8  C6  UNL     1      13.374 -33.115  13.255  1.00  0.00     0.092 A 
ENDROOT
BRANCH   4   9
HETATM    9  O2  UNL     1      12.472 -29.709  13.864  1.00  0.00    -0.355 OA
ATOM     10  H2  UNL     1      11.623 -29.518  14.246  1.00  0.00     0.218 HD
ENDBRANCH   4   9
BRANCH   8  11
HETATM   11  C7  UNL     1      13.444 -34.550  13.545  1.00  0.00     0.321 C 
BRANCH  11  12
HETATM   12  O3  UNL     1      13.623 -34.758  14.907  1.00  0.00    -0.365 OA
ATOM     13  H3  UNL     1      14.320 -34.204  15.236  1.00  0.00     0.213 HD
ENDBRANCH  11  12
BRANCH  11  14
HETATM   14  O4  UNL     1      12.303 -35.263  13.136  1.00  0.00    -0.267 OA
BRANCH  14  15
HETATM   15  C8  UNL     1      11.561 -36.086  13.978  1.00  0.00     0.366 C 
HETATM   16  O5  UNL     1      10.637 -35.511  14.611  1.00  0.00    -0.238 OA
HETATM   17  N3  UNL     1      11.823 -37.474  14.117  1.00  0.00    -0.318 N 
HETATM   18  C9  UNL     1      11.056 -38.336  14.993  1.00  0.00     0.129 C 
HETATM   19  C12 UNL     1      12.831 -38.263  13.467  1.00  0.00     0.135 C 
HETATM   20  C10 UNL     1      11.535 -39.728  14.741  1.00  0.00     0.022 C 
HETATM   21  C11 UNL     1      12.979 -39.519  14.339  1.00  0.00     0.033 C 
BRANCH  19  22
HETATM   22  C13 UNL     1      12.408 -38.751  12.115  1.00  0.00     0.009 C 
HETATM   23  N4  UNL     1      11.994 -39.905  11.763  1.00  0.00    -0.374 N 
HETATM   24  C14 UNL     1      11.679 -40.014  10.398  1.00  0.00     0.061 C 
ATOM     25  H4  UNL     1      11.899 -40.682  12.416  1.00  0.00     0.164 HD
HETATM   26  C15 UNL     1      12.390 -38.846   9.760  1.00  0.00     0.050 C 
HETATM   27  C16 UNL     1      12.427 -37.866  10.916  1.00  0.00     0.059 C 
ENDBRANCH  19  22
ENDBRANCH  14  15
ENDBRANCH  11  14
ENDBRANCH   8  11
BRANCH   3  28
HETATM   28  O1  UNL     1      13.977 -30.187  11.356  1.00  0.00    -0.344 OA
ATOM     29  H1  UNL     1      14.725 -29.602  11.363  1.00  0.00     0.219 HD
ENDBRANCH   3  28
TORSDOF 7
ENDMDL
