MODEL 1
REMARK VINA RESULT: -7.241619290      0.000      0.000
REMARK  5 active torsions:
REMARK  status: ('A' for Active; 'I' for Inactive)
REMARK    1  A    between atoms: C2_2  and  C3_3 
REMARK    2  A    between atoms: C3_3  and  S1_4 
REMARK    3  A    between atoms: S1_4  and  O2_6 
REMARK    4  A    between atoms: O2_6  and  C4_7 
REMARK    5  A    between atoms: C7_10  and  O3_11 
ROOT
HETATM    1  C4  UNL     1     -14.987 -11.521 -27.352  1.00  0.00     0.196 C 
HETATM    2  C5  UNL     1     -14.072 -12.190 -26.684  1.00  0.00     0.077 C 
HETATM    3  C6  UNL     1     -13.448 -11.609 -25.468  1.00  0.00     0.015 C 
HETATM    4  C7  UNL     1     -13.103 -12.453 -24.524  1.00  0.00     0.155 C 
HETATM    5  C8  UNL     1     -12.491 -12.136 -23.289  1.00  0.00     0.125 C 
HETATM    6  N1  UNL     1     -11.961 -11.901 -22.261  1.00  0.00    -0.189 NA
HETATM    7  C9  UNL     1     -13.278 -10.133 -25.435  1.00  0.00     0.124 C 
HETATM    8  C10 UNL     1     -14.272  -9.419 -26.347  1.00  0.00     0.207 C 
HETATM    9  O4  UNL     1     -15.295 -10.263 -26.822  1.00  0.00    -0.328 OA
HETATM   10  C11 UNL     1     -13.548  -9.607 -24.087  1.00  0.00     0.279 C 
HETATM   11  O5  UNL     1     -14.550  -9.940 -23.428  1.00  0.00    -0.264 OA
HETATM   12  O6  UNL     1     -12.649  -8.691 -23.516  1.00  0.00    -0.319 OA
HETATM   13  C12 UNL     1     -12.089  -7.735 -24.404  1.00  0.00     0.191 C 
HETATM   14  C13 UNL     1     -11.353  -8.454 -25.503  1.00  0.00     0.063 A 
HETATM   15  C14 UNL     1      -9.929  -8.465 -25.082  1.00  0.00    -0.015 A 
HETATM   16  C15 UNL     1      -9.121  -9.494 -25.072  1.00  0.00    -0.003 A 
HETATM   17  C16 UNL     1      -9.723 -10.749 -25.530  1.00  0.00     0.000 A 
HETATM   18  C17 UNL     1     -10.957 -10.846 -25.913  1.00  0.00     0.005 A 
HETATM   19  C18 UNL     1     -11.900  -9.721 -25.931  1.00  0.00    -0.045 A 
ENDROOT
BRANCH   4  20
HETATM   20  O3  UNL     1     -13.348 -13.825 -24.729  1.00  0.00    -0.351 OA
ATOM     21  H3  UNL     1     -12.825 -14.455 -24.247  1.00  0.00     0.218 HD
ENDBRANCH   4  20
BRANCH   1  22
HETATM   22  O2  UNL     1     -15.587 -12.040 -28.491  1.00  0.00    -0.228 OA
BRANCH  22  23
HETATM   23  S1  UNL     1     -17.227 -11.891 -28.823  1.00  0.00     0.159 S 
HETATM   24  O1  UNL     1     -17.451 -10.392 -29.590  1.00  0.00    -0.228 OA
BRANCH  23  25
HETATM   25  C3  UNL     1     -17.801 -13.128 -29.959  1.00  0.00     0.140 C 
BRANCH  25  26
HETATM   26  C2  UNL     1     -18.760 -12.551 -30.968  1.00  0.00     0.010 C 
HETATM   27  C1  UNL     1     -19.080 -13.518 -32.076  1.00  0.00     0.006 C 
ENDBRANCH  25  26
ENDBRANCH  23  25
ENDBRANCH  22  23
ENDBRANCH   1  22
TORSDOF 5
ENDMDL
MODEL 2
REMARK VINA RESULT: -6.842143514      2.480      3.636
REMARK  5 active torsions:
REMARK  status: ('A' for Active; 'I' for Inactive)
REMARK    1  A    between atoms: C2_2  and  C3_3 
REMARK    2  A    between atoms: C3_3  and  S1_4 
REMARK    3  A    between atoms: S1_4  and  O2_6 
REMARK    4  A    between atoms: O2_6  and  C4_7 
REMARK    5  A    between atoms: C7_10  and  O3_11 
ROOT
HETATM    1  C4  UNL     1     -13.793 -12.121 -26.321  1.00  0.00     0.196 C 
HETATM    2  C5  UNL     1     -12.668 -11.441 -26.401  1.00  0.00     0.077 C 
HETATM    3  C6  UNL     1     -11.966 -10.994 -25.171  1.00  0.00     0.015 C 
HETATM    4  C7  UNL     1     -10.656 -10.945 -25.229  1.00  0.00     0.155 C 
HETATM    5  C8  UNL     1      -9.779 -10.546 -24.193  1.00  0.00     0.125 C 
HETATM    6  N1  UNL     1      -9.026 -10.198 -23.352  1.00  0.00    -0.189 NA
HETATM    7  C9  UNL     1     -12.809 -10.652 -23.998  1.00  0.00     0.124 C 
HETATM    8  C10 UNL     1     -14.164 -11.355 -24.037  1.00  0.00     0.207 C 
HETATM    9  O4  UNL     1     -14.236 -12.366 -25.017  1.00  0.00    -0.328 OA
HETATM   10  C11 UNL     1     -12.177 -11.108 -22.749  1.00  0.00     0.279 C 
HETATM   11  O5  UNL     1     -11.702 -12.251 -22.619  1.00  0.00    -0.264 OA
HETATM   12  O6  UNL     1     -12.104 -10.228 -21.656  1.00  0.00    -0.319 OA
HETATM   13  C12 UNL     1     -13.235  -9.393 -21.455  1.00  0.00     0.191 C 
HETATM   14  C13 UNL     1     -13.455  -8.556 -22.687  1.00  0.00     0.063 A 
HETATM   15  C14 UNL     1     -12.807  -7.252 -22.396  1.00  0.00    -0.015 A 
HETATM   16  C15 UNL     1     -11.983  -6.595 -23.173  1.00  0.00    -0.003 A 
HETATM   17  C16 UNL     1     -11.694  -7.250 -24.452  1.00  0.00     0.000 A 
HETATM   18  C17 UNL     1     -12.204  -8.389 -24.797  1.00  0.00     0.005 A 
HETATM   19  C18 UNL     1     -13.124  -9.164 -23.955  1.00  0.00    -0.045 A 
ENDROOT
BRANCH   4  20
HETATM   20  O3  UNL     1     -10.022 -11.314 -26.432  1.00  0.00    -0.351 OA
ATOM     21  H3  UNL     1      -9.161 -11.712 -26.386  1.00  0.00     0.218 HD
ENDBRANCH   4  20
BRANCH   1  22
HETATM   22  O2  UNL     1     -14.470 -12.551 -27.454  1.00  0.00    -0.228 OA
BRANCH  22  23
HETATM   23  S1  UNL     1     -15.507 -11.570 -28.339  1.00  0.00     0.159 S 
HETATM   24  O1  UNL     1     -16.897 -12.486 -28.679  1.00  0.00    -0.228 OA
BRANCH  23  25
HETATM   25  C3  UNL     1     -16.050 -10.155 -27.418  1.00  0.00     0.140 C 
BRANCH  25  26
HETATM   26  C2  UNL     1     -15.114  -8.987 -27.593  1.00  0.00     0.010 C 
HETATM   27  C1  UNL     1     -15.385  -7.881 -26.609  1.00  0.00     0.006 C 
ENDBRANCH  25  26
ENDBRANCH  23  25
ENDBRANCH  22  23
ENDBRANCH   1  22
TORSDOF 5
ENDMDL
MODEL 3
REMARK VINA RESULT: -6.744273068      1.590      1.921
REMARK  5 active torsions:
REMARK  status: ('A' for Active; 'I' for Inactive)
REMARK    1  A    between atoms: C2_2  and  C3_3 
REMARK    2  A    between atoms: C3_3  and  S1_4 
REMARK    3  A    between atoms: S1_4  and  O2_6 
REMARK    4  A    between atoms: O2_6  and  C4_7 
REMARK    5  A    between atoms: C7_10  and  O3_11 
ROOT
HETATM    1  C4  UNL     1     -15.292  -9.150 -27.186  1.00  0.00     0.196 C 
HETATM    2  C5  UNL     1     -14.554 -10.239 -27.217  1.00  0.00     0.077 C 
HETATM    3  C6  UNL     1     -13.855 -10.713 -25.995  1.00  0.00     0.015 C 
HETATM    4  C7  UNL     1     -13.718 -12.012 -25.863  1.00  0.00     0.155 C 
HETATM    5  C8  UNL     1     -13.086 -12.691 -24.796  1.00  0.00     0.125 C 
HETATM    6  N1  UNL     1     -12.546 -13.280 -23.927  1.00  0.00    -0.189 NA
HETATM    7  C9  UNL     1     -13.382  -9.676 -25.042  1.00  0.00     0.124 C 
HETATM    8  C10 UNL     1     -14.181  -8.381 -25.158  1.00  0.00     0.207 C 
HETATM    9  O4  UNL     1     -15.345  -8.514 -25.940  1.00  0.00    -0.328 OA
HETATM   10  C11 UNL     1     -13.572 -10.121 -23.651  1.00  0.00     0.279 C 
HETATM   11  O5  UNL     1     -14.638 -10.621 -23.249  1.00  0.00    -0.264 OA
HETATM   12  O6  UNL     1     -12.516  -9.974 -22.735  1.00  0.00    -0.319 OA
HETATM   13  C12 UNL     1     -11.747  -8.788 -22.858  1.00  0.00     0.191 C 
HETATM   14  C13 UNL     1     -11.148  -8.730 -24.239  1.00  0.00     0.063 A 
HETATM   15  C14 UNL     1      -9.770  -9.261 -24.093  1.00  0.00    -0.015 A 
HETATM   16  C15 UNL     1      -9.194 -10.168 -24.842  1.00  0.00    -0.003 A 
HETATM   17  C16 UNL     1     -10.033 -10.689 -25.925  1.00  0.00     0.000 A 
HETATM   18  C17 UNL     1     -11.249 -10.295 -26.132  1.00  0.00     0.005 A 
HETATM   19  C18 UNL     1     -11.936  -9.289 -25.313  1.00  0.00    -0.045 A 
ENDROOT
BRANCH   4  20
HETATM   20  O3  UNL     1     -14.238 -12.847 -26.871  1.00  0.00    -0.351 OA
ATOM     21  H3  UNL     1     -15.018 -12.565 -27.334  1.00  0.00     0.218 HD
ENDBRANCH   4  20
BRANCH   1  22
HETATM   22  O2  UNL     1     -15.957  -8.685 -28.312  1.00  0.00    -0.228 OA
BRANCH  22  23
HETATM   23  S1  UNL     1     -17.579  -8.989 -28.620  1.00  0.00     0.159 S 
HETATM   24  O1  UNL     1     -18.193  -7.645 -29.459  1.00  0.00    -0.228 OA
BRANCH  23  25
HETATM   25  C3  UNL     1     -17.814 -10.392 -29.681  1.00  0.00     0.140 C 
BRANCH  25  26
HETATM   26  C2  UNL     1     -17.436 -11.678 -28.992  1.00  0.00     0.010 C 
HETATM   27  C1  UNL     1     -17.797 -12.893 -29.803  1.00  0.00     0.006 C 
ENDBRANCH  25  26
ENDBRANCH  23  25
ENDBRANCH  22  23
ENDBRANCH   1  22
TORSDOF 5
ENDMDL
MODEL 4
REMARK VINA RESULT: -6.711974512      2.459      3.030
REMARK  5 active torsions:
REMARK  status: ('A' for Active; 'I' for Inactive)
REMARK    1  A    between atoms: C2_2  and  C3_3 
REMARK    2  A    between atoms: C3_3  and  S1_4 
REMARK    3  A    between atoms: S1_4  and  O2_6 
REMARK    4  A    between atoms: O2_6  and  C4_7 
REMARK    5  A    between atoms: C7_10  and  O3_11 
ROOT
HETATM    1  C4  UNL     1     -15.174  -9.153 -27.438  1.00  0.00     0.196 C 
HETATM    2  C5  UNL     1     -14.457 -10.257 -27.431  1.00  0.00     0.077 C 
HETATM    3  C6  UNL     1     -13.858 -10.760 -26.168  1.00  0.00     0.015 C 
HETATM    4  C7  UNL     1     -13.757 -12.062 -26.044  1.00  0.00     0.155 C 
HETATM    5  C8  UNL     1     -13.217 -12.768 -24.943  1.00  0.00     0.125 C 
HETATM    6  N1  UNL     1     -12.753 -13.379 -24.046  1.00  0.00    -0.189 NA
HETATM    7  C9  UNL     1     -13.435  -9.745 -25.170  1.00  0.00     0.124 C 
HETATM    8  C10 UNL     1     -14.197  -8.432 -25.325  1.00  0.00     0.207 C 
HETATM    9  O4  UNL     1     -15.304  -8.531 -26.191  1.00  0.00    -0.328 OA
HETATM   10  C11 UNL     1     -13.733 -10.202 -23.802  1.00  0.00     0.279 C 
HETATM   11  O5  UNL     1     -14.835 -10.685 -23.485  1.00  0.00    -0.264 OA
HETATM   12  O6  UNL     1     -12.744 -10.089 -22.810  1.00  0.00    -0.319 OA
HETATM   13  C12 UNL     1     -11.944  -8.918 -22.862  1.00  0.00     0.191 C 
HETATM   14  C13 UNL     1     -11.246  -8.856 -24.195  1.00  0.00     0.063 A 
HETATM   15  C14 UNL     1      -9.892  -9.417 -23.957  1.00  0.00    -0.015 A 
HETATM   16  C15 UNL     1      -9.282 -10.327 -24.675  1.00  0.00    -0.003 A 
HETATM   17  C16 UNL     1     -10.051 -10.817 -25.822  1.00  0.00     0.000 A 
HETATM   18  C17 UNL     1     -11.240 -10.395 -26.112  1.00  0.00     0.005 A 
HETATM   19  C18 UNL     1     -11.965  -9.385 -25.331  1.00  0.00    -0.045 A 
ENDROOT
BRANCH   4  20
HETATM   20  O3  UNL     1     -14.219 -12.874 -27.099  1.00  0.00    -0.351 OA
ATOM     21  H3  UNL     1     -13.953 -13.786 -27.118  1.00  0.00     0.218 HD
ENDBRANCH   4  20
BRANCH   1  22
HETATM   22  O2  UNL     1     -15.746  -8.660 -28.603  1.00  0.00    -0.228 OA
BRANCH  22  23
HETATM   23  S1  UNL     1     -17.348  -8.924 -29.030  1.00  0.00     0.159 S 
HETATM   24  O1  UNL     1     -17.938 -10.164 -28.029  1.00  0.00    -0.228 OA
BRANCH  23  25
HETATM   25  C3  UNL     1     -18.371  -7.505 -28.726  1.00  0.00     0.140 C 
BRANCH  25  26
HETATM   26  C2  UNL     1     -17.986  -6.808 -27.447  1.00  0.00     0.010 C 
HETATM   27  C1  UNL     1     -18.943  -5.705 -27.083  1.00  0.00     0.006 C 
ENDBRANCH  25  26
ENDBRANCH  23  25
ENDBRANCH  22  23
ENDBRANCH   1  22
TORSDOF 5
ENDMDL
MODEL 5
REMARK VINA RESULT: -6.695892217      1.840      2.848
REMARK  5 active torsions:
REMARK  status: ('A' for Active; 'I' for Inactive)
REMARK    1  A    between atoms: C2_2  and  C3_3 
REMARK    2  A    between atoms: C3_3  and  S1_4 
REMARK    3  A    between atoms: S1_4  and  O2_6 
REMARK    4  A    between atoms: O2_6  and  C4_7 
REMARK    5  A    between atoms: C7_10  and  O3_11 
ROOT
HETATM    1  C4  UNL     1     -13.966 -11.996 -26.576  1.00  0.00     0.196 C 
HETATM    2  C5  UNL     1     -12.856 -11.292 -26.661  1.00  0.00     0.077 C 
HETATM    3  C6  UNL     1     -12.101 -10.921 -25.438  1.00  0.00     0.015 C 
HETATM    4  C7  UNL     1     -10.796 -10.844 -25.553  1.00  0.00     0.155 C 
HETATM    5  C8  UNL     1      -9.876 -10.504 -24.535  1.00  0.00     0.125 C 
HETATM    6  N1  UNL     1      -9.089 -10.202 -23.708  1.00  0.00    -0.189 NA
HETATM    7  C9  UNL     1     -12.892 -10.677 -24.204  1.00  0.00     0.124 C 
HETATM    8  C10 UNL     1     -14.236 -11.400 -24.229  1.00  0.00     0.207 C 
HETATM    9  O4  UNL     1     -14.341 -12.340 -25.273  1.00  0.00    -0.328 OA
HETATM   10  C11 UNL     1     -12.192 -11.208 -23.022  1.00  0.00     0.279 C 
HETATM   11  O5  UNL     1     -11.696 -12.348 -22.997  1.00  0.00    -0.264 OA
HETATM   12  O6  UNL     1     -12.080 -10.406 -21.874  1.00  0.00    -0.319 OA
HETATM   13  C12 UNL     1     -13.211  -9.608 -21.561  1.00  0.00     0.191 C 
HETATM   14  C13 UNL     1     -13.503  -8.690 -22.718  1.00  0.00     0.063 A 
HETATM   15  C14 UNL     1     -12.861  -7.398 -22.367  1.00  0.00    -0.015 A 
HETATM   16  C15 UNL     1     -12.085  -6.673 -23.133  1.00  0.00    -0.003 A 
HETATM   17  C16 UNL     1     -11.849  -7.232 -24.468  1.00  0.00     0.000 A 
HETATM   18  C17 UNL     1     -12.359  -8.353 -24.868  1.00  0.00     0.005 A 
HETATM   19  C18 UNL     1     -13.226  -9.201 -24.040  1.00  0.00    -0.045 A 
ENDROOT
BRANCH   4  20
HETATM   20  O3  UNL     1     -10.217 -11.117 -26.808  1.00  0.00    -0.351 OA
ATOM     21  H3  UNL     1      -9.815 -11.967 -26.946  1.00  0.00     0.218 HD
ENDBRANCH   4  20
BRANCH   1  22
HETATM   22  O2  UNL     1     -14.691 -12.358 -27.703  1.00  0.00    -0.228 OA
BRANCH  22  23
HETATM   23  S1  UNL     1     -16.241 -11.797 -28.025  1.00  0.00     0.159 S 
HETATM   24  O1  UNL     1     -16.084 -10.252 -28.714  1.00  0.00    -0.228 OA
BRANCH  23  25
HETATM   25  C3  UNL     1     -17.087 -12.797 -29.222  1.00  0.00     0.140 C 
BRANCH  25  26
HETATM   26  C2  UNL     1     -18.044 -11.980 -30.050  1.00  0.00     0.010 C 
HETATM   27  C1  UNL     1     -18.792 -12.814 -31.054  1.00  0.00     0.006 C 
ENDBRANCH  25  26
ENDBRANCH  23  25
ENDBRANCH  22  23
ENDBRANCH   1  22
TORSDOF 5
ENDMDL
