MODEL 1
REMARK VINA RESULT: -7.117317864      0.000      0.000
REMARK  5 active torsions:
REMARK  status: ('A' for Active; 'I' for Inactive)
REMARK    1  A    between atoms: C2_2  and  O2_4 
REMARK    2  A    between atoms: O2_4  and  C3_5 
REMARK    3  A    between atoms: C13_17  and  C14_18 
REMARK    4  A    between atoms: C14_18  and  C16_20 
REMARK    5  A    between atoms: C16_20  and  O5_21 
ROOT
HETATM    1  C3  UNL     1     -12.092  -9.614 -23.707  1.00  0.00     0.173 C 
HETATM    2  C4  UNL     1     -11.053 -10.666 -23.778  1.00  0.00     0.019 C 
HETATM    3  C5  UNL     1      -9.786 -10.090 -23.126  1.00  0.00     0.013 C 
HETATM    4  C6  UNL     1     -10.686 -11.211 -25.085  1.00  0.00    -0.002 A 
HETATM    5  C7  UNL     1     -10.799 -10.452 -26.367  1.00  0.00     0.012 A 
HETATM    6  C8  UNL     1     -11.638 -11.631 -26.070  1.00  0.00     0.015 A 
HETATM    7  C9  UNL     1     -13.105 -11.586 -25.815  1.00  0.00     0.099 C 
HETATM    8  C10 UNL     1     -13.775 -12.330 -26.913  1.00  0.00     0.002 C 
HETATM    9  C11 UNL     1     -14.726 -12.310 -27.796  1.00  0.00     0.079 C 
HETATM   10  C12 UNL     1     -15.722 -11.287 -28.093  1.00  0.00     0.284 C 
HETATM   11  O3  UNL     1     -16.508 -11.682 -29.014  1.00  0.00    -0.260 OA
HETATM   12  O4  UNL     1     -16.003 -10.011 -27.609  1.00  0.00    -0.286 OA
HETATM   13  C13 UNL     1     -15.192  -9.196 -26.738  1.00  0.00     0.276 C 
HETATM   14  O6  UNL     1     -14.978 -10.032 -25.616  1.00  0.00    -0.350 OA
HETATM   15  C17 UNL     1     -13.665 -10.301 -25.416  1.00  0.00     0.184 C 
HETATM   16  C18 UNL     1     -13.433 -10.281 -23.901  1.00  0.00     0.121 C 
HETATM   17  C19 UNL     1     -14.542  -9.707 -23.115  1.00  0.00     0.052 C 
HETATM   18  O7  UNL     1     -13.319 -11.649 -23.514  1.00  0.00    -0.304 OA
HETATM   19  C20 UNL     1     -13.335 -12.463 -24.605  1.00  0.00     0.275 C 
HETATM   20  O8  UNL     1     -13.512 -13.705 -24.557  1.00  0.00    -0.264 OA
ENDROOT
BRANCH  13  21
HETATM   21  C14 UNL     1     -16.009  -7.986 -26.450  1.00  0.00     0.061 C 
HETATM   22  C15 UNL     1     -15.198  -6.781 -26.035  1.00  0.00     0.017 C 
BRANCH  21  23
HETATM   23  C16 UNL     1     -17.045  -7.654 -27.498  1.00  0.00     0.173 C 
BRANCH  23  24
HETATM   24  O5  UNL     1     -17.787  -6.578 -27.002  1.00  0.00    -0.400 OA
ATOM     25  H5  UNL     1     -17.756  -5.897 -27.663  1.00  0.00     0.209 HD
ENDBRANCH  23  24
ENDBRANCH  21  23
ENDBRANCH  13  21
BRANCH   1  26
HETATM   26  O2  UNL     1     -12.036  -8.837 -22.543  1.00  0.00    -0.313 OA
BRANCH  26  27
HETATM   27  C2  UNL     1     -12.016  -7.462 -22.507  1.00  0.00     0.255 C 
HETATM   28  C1  UNL     1     -11.939  -6.749 -23.818  1.00  0.00     0.126 C 
HETATM   29  O1  UNL     1     -12.062  -6.887 -21.411  1.00  0.00    -0.266 OA
ENDBRANCH  26  27
ENDBRANCH   1  26
TORSDOF 5
ENDMDL
MODEL 2
REMARK VINA RESULT: -6.928107623      0.933      1.261
REMARK  5 active torsions:
REMARK  status: ('A' for Active; 'I' for Inactive)
REMARK    1  A    between atoms: C2_2  and  O2_4 
REMARK    2  A    between atoms: O2_4  and  C3_5 
REMARK    3  A    between atoms: C13_17  and  C14_18 
REMARK    4  A    between atoms: C14_18  and  C16_20 
REMARK    5  A    between atoms: C16_20  and  O5_21 
ROOT
HETATM    1  C3  UNL     1     -11.978  -9.438 -23.922  1.00  0.00     0.173 C 
HETATM    2  C4  UNL     1     -11.034 -10.575 -23.856  1.00  0.00     0.019 C 
HETATM    3  C5  UNL     1      -9.729 -10.039 -23.243  1.00  0.00     0.013 C 
HETATM    4  C6  UNL     1     -10.699 -11.290 -25.087  1.00  0.00    -0.002 A 
HETATM    5  C7  UNL     1     -10.731 -10.671 -26.446  1.00  0.00     0.012 A 
HETATM    6  C8  UNL     1     -11.672 -11.736 -26.040  1.00  0.00     0.015 A 
HETATM    7  C9  UNL     1     -13.132 -11.539 -25.823  1.00  0.00     0.099 C 
HETATM    8  C10 UNL     1     -13.851 -12.341 -26.847  1.00  0.00     0.002 C 
HETATM    9  C11 UNL     1     -14.785 -12.339 -27.747  1.00  0.00     0.079 C 
HETATM   10  C12 UNL     1     -15.686 -11.275 -28.175  1.00  0.00     0.284 C 
HETATM   11  O3  UNL     1     -16.492 -11.701 -29.065  1.00  0.00    -0.260 OA
HETATM   12  O4  UNL     1     -15.862  -9.933 -27.841  1.00  0.00    -0.286 OA
HETATM   13  C13 UNL     1     -14.994  -9.098 -27.046  1.00  0.00     0.276 C 
HETATM   14  O6  UNL     1     -14.867  -9.820 -25.836  1.00  0.00    -0.350 OA
HETATM   15  C17 UNL     1     -13.584 -10.175 -25.579  1.00  0.00     0.184 C 
HETATM   16  C18 UNL     1     -13.370 -10.007 -24.070  1.00  0.00     0.121 C 
HETATM   17  C19 UNL     1     -14.435  -9.258 -23.376  1.00  0.00     0.052 C 
HETATM   18  O7  UNL     1     -13.379 -11.328 -23.534  1.00  0.00    -0.304 OA
HETATM   19  C20 UNL     1     -13.452 -12.253 -24.530  1.00  0.00     0.275 C 
HETATM   20  O8  UNL     1     -13.735 -13.463 -24.350  1.00  0.00    -0.264 OA
ENDROOT
BRANCH  13  21
HETATM   21  C14 UNL     1     -15.707  -7.799 -26.911  1.00  0.00     0.061 C 
HETATM   22  C15 UNL     1     -17.210  -7.926 -26.852  1.00  0.00     0.017 C 
BRANCH  21  23
HETATM   23  C16 UNL     1     -15.160  -6.882 -25.843  1.00  0.00     0.173 C 
BRANCH  23  24
HETATM   24  O5  UNL     1     -13.774  -6.832 -26.028  1.00  0.00    -0.400 OA
ATOM     25  H5  UNL     1     -13.380  -7.156 -25.227  1.00  0.00     0.209 HD
ENDBRANCH  23  24
ENDBRANCH  21  23
ENDBRANCH  13  21
BRANCH   1  26
HETATM   26  O2  UNL     1     -11.869  -8.544 -22.849  1.00  0.00    -0.313 OA
BRANCH  26  27
HETATM   27  C2  UNL     1     -11.673  -7.187 -22.963  1.00  0.00     0.255 C 
HETATM   28  C1  UNL     1     -11.468  -6.422 -21.695  1.00  0.00     0.126 C 
HETATM   29  O1  UNL     1     -11.674  -6.671 -24.088  1.00  0.00    -0.266 OA
ENDBRANCH  26  27
ENDBRANCH   1  26
TORSDOF 5
ENDMDL
MODEL 3
REMARK VINA RESULT: -6.297247838      1.311      1.525
REMARK  5 active torsions:
REMARK  status: ('A' for Active; 'I' for Inactive)
REMARK    1  A    between atoms: C2_2  and  O2_4 
REMARK    2  A    between atoms: O2_4  and  C3_5 
REMARK    3  A    between atoms: C13_17  and  C14_18 
REMARK    4  A    between atoms: C14_18  and  C16_20 
REMARK    5  A    between atoms: C16_20  and  O5_21 
ROOT
HETATM    1  C3  UNL     1     -12.489  -8.553 -22.956  1.00  0.00     0.173 C 
HETATM    2  C4  UNL     1     -11.151  -9.163 -22.790  1.00  0.00     0.019 C 
HETATM    3  C5  UNL     1     -10.294  -8.156 -22.004  1.00  0.00     0.013 C 
HETATM    4  C6  UNL     1     -10.404  -9.565 -23.981  1.00  0.00    -0.002 A 
HETATM    5  C7  UNL     1     -10.561  -8.923 -25.321  1.00  0.00     0.012 A 
HETATM    6  C8  UNL     1     -10.969 -10.319 -25.060  1.00  0.00     0.015 A 
HETATM    7  C9  UNL     1     -12.379 -10.799 -25.030  1.00  0.00     0.099 C 
HETATM    8  C10 UNL     1     -12.552 -11.756 -26.153  1.00  0.00     0.002 C 
HETATM    9  C11 UNL     1     -13.288 -12.097 -27.166  1.00  0.00     0.079 C 
HETATM   10  C12 UNL     1     -14.516 -11.506 -27.687  1.00  0.00     0.284 C 
HETATM   11  O3  UNL     1     -14.947 -12.175 -28.681  1.00  0.00    -0.260 OA
HETATM   12  O4  UNL     1     -15.303 -10.407 -27.353  1.00  0.00    -0.286 OA
HETATM   13  C13 UNL     1     -14.988  -9.337 -26.437  1.00  0.00     0.276 C 
HETATM   14  O6  UNL     1     -14.684 -10.018 -25.234  1.00  0.00    -0.350 OA
HETATM   15  C17 UNL     1     -13.412  -9.793 -24.821  1.00  0.00     0.184 C 
HETATM   16  C18 UNL     1     -13.458  -9.661 -23.294  1.00  0.00     0.121 C 
HETATM   17  C19 UNL     1     -14.813  -9.508 -22.729  1.00  0.00     0.052 C 
HETATM   18  O7  UNL     1     -12.938 -10.889 -22.788  1.00  0.00    -0.304 OA
HETATM   19  C20 UNL     1     -12.485 -11.675 -23.803  1.00  0.00     0.275 C 
HETATM   20  O8  UNL     1     -12.220 -12.897 -23.684  1.00  0.00    -0.264 OA
ENDROOT
BRANCH  13  21
HETATM   21  C14 UNL     1     -16.213  -8.496 -26.370  1.00  0.00     0.061 C 
HETATM   22  C15 UNL     1     -15.936  -7.014 -26.268  1.00  0.00     0.017 C 
BRANCH  21  23
HETATM   23  C16 UNL     1     -17.264  -8.820 -27.404  1.00  0.00     0.173 C 
BRANCH  23  24
HETATM   24  O5  UNL     1     -16.750  -8.413 -28.640  1.00  0.00    -0.400 OA
ATOM     25  H5  UNL     1     -16.118  -9.071 -28.902  1.00  0.00     0.209 HD
ENDBRANCH  23  24
ENDBRANCH  21  23
ENDBRANCH  13  21
BRANCH   1  26
HETATM   26  O2  UNL     1     -12.904  -7.784 -21.861  1.00  0.00    -0.313 OA
BRANCH  26  27
HETATM   27  C2  UNL     1     -13.545  -6.569 -21.942  1.00  0.00     0.255 C 
HETATM   28  C1  UNL     1     -13.626  -5.932 -23.292  1.00  0.00     0.126 C 
HETATM   29  O1  UNL     1     -14.016  -6.067 -20.913  1.00  0.00    -0.266 OA
ENDBRANCH  26  27
ENDBRANCH   1  26
TORSDOF 5
ENDMDL
MODEL 4
REMARK VINA RESULT: -6.071547285      1.716      4.669
REMARK  5 active torsions:
REMARK  status: ('A' for Active; 'I' for Inactive)
REMARK    1  A    between atoms: C2_2  and  O2_4 
REMARK    2  A    between atoms: O2_4  and  C3_5 
REMARK    3  A    between atoms: C13_17  and  C14_18 
REMARK    4  A    between atoms: C14_18  and  C16_20 
REMARK    5  A    between atoms: C16_20  and  O5_21 
ROOT
HETATM    1  C3  UNL     1     -11.378  -9.321 -22.764  1.00  0.00     0.173 C 
HETATM    2  C4  UNL     1     -11.310  -7.955 -22.200  1.00  0.00     0.019 C 
HETATM    3  C5  UNL     1     -10.732  -8.084 -20.780  1.00  0.00     0.013 C 
HETATM    4  C6  UNL     1     -12.535  -7.159 -22.123  1.00  0.00    -0.002 A 
HETATM    5  C7  UNL     1     -13.904  -7.745 -22.001  1.00  0.00     0.012 A 
HETATM    6  C8  UNL     1     -13.461  -7.014 -23.206  1.00  0.00     0.015 A 
HETATM    7  C9  UNL     1     -13.219  -7.640 -24.536  1.00  0.00     0.099 C 
HETATM    8  C10 UNL     1     -14.215  -7.078 -25.485  1.00  0.00     0.002 C 
HETATM    9  C11 UNL     1     -15.096  -7.349 -26.398  1.00  0.00     0.079 C 
HETATM   10  C12 UNL     1     -15.526  -8.628 -26.951  1.00  0.00     0.284 C 
HETATM   11  O3  UNL     1     -16.392  -8.452 -27.868  1.00  0.00    -0.260 OA
HETATM   12  O4  UNL     1     -15.211  -9.964 -26.710  1.00  0.00    -0.286 OA
HETATM   13  C13 UNL     1     -14.448 -10.512 -25.615  1.00  0.00     0.276 C 
HETATM   14  O6  UNL     1     -13.228  -9.797 -25.680  1.00  0.00    -0.350 OA
HETATM   15  C17 UNL     1     -12.990  -9.079 -24.555  1.00  0.00     0.184 C 
HETATM   16  C18 UNL     1     -11.489  -9.192 -24.265  1.00  0.00     0.121 C 
HETATM   17  C19 UNL     1     -10.787 -10.232 -25.041  1.00  0.00     0.052 C 
HETATM   18  O7  UNL     1     -10.929  -7.939 -24.654  1.00  0.00    -0.304 OA
HETATM   19  C20 UNL     1     -11.908  -7.067 -25.023  1.00  0.00     0.275 C 
HETATM   20  O8  UNL     1     -11.702  -5.999 -25.650  1.00  0.00    -0.264 OA
ENDROOT
BRANCH  13  21
HETATM   21  C14 UNL     1     -14.321 -11.965 -25.905  1.00  0.00     0.061 C 
HETATM   22  C15 UNL     1     -13.827 -12.274 -27.298  1.00  0.00     0.017 C 
BRANCH  21  23
HETATM   23  C16 UNL     1     -13.602 -12.765 -24.844  1.00  0.00     0.173 C 
BRANCH  23  24
HETATM   24  O5  UNL     1     -13.955 -12.204 -23.612  1.00  0.00    -0.400 OA
ATOM     25  H5  UNL     1     -14.287 -12.913 -23.075  1.00  0.00     0.209 HD
ENDBRANCH  23  24
ENDBRANCH  21  23
ENDBRANCH  13  21
BRANCH   1  26
HETATM   26  O2  UNL     1     -10.322 -10.153 -22.368  1.00  0.00    -0.313 OA
BRANCH  26  27
HETATM   27  C2  UNL     1     -10.464 -11.383 -21.766  1.00  0.00     0.255 C 
HETATM   28  C1  UNL     1      -9.371 -11.817 -20.844  1.00  0.00     0.126 C 
HETATM   29  O1  UNL     1     -11.470 -12.061 -22.011  1.00  0.00    -0.266 OA
ENDBRANCH  26  27
ENDBRANCH   1  26
TORSDOF 5
ENDMDL
MODEL 5
REMARK VINA RESULT: -6.035453328      2.045      5.586
REMARK  5 active torsions:
REMARK  status: ('A' for Active; 'I' for Inactive)
REMARK    1  A    between atoms: C2_2  and  O2_4 
REMARK    2  A    between atoms: O2_4  and  C3_5 
REMARK    3  A    between atoms: C13_17  and  C14_18 
REMARK    4  A    between atoms: C14_18  and  C16_20 
REMARK    5  A    between atoms: C16_20  and  O5_21 
ROOT
HETATM    1  C3  UNL     1     -14.003  -9.474 -25.777  1.00  0.00     0.173 C 
HETATM    2  C4  UNL     1     -13.467 -10.605 -26.566  1.00  0.00     0.019 C 
HETATM    3  C5  UNL     1     -14.384 -10.774 -27.789  1.00  0.00     0.013 C 
HETATM    4  C6  UNL     1     -13.321 -11.911 -25.923  1.00  0.00    -0.002 A 
HETATM    5  C7  UNL     1     -14.165 -12.377 -24.782  1.00  0.00     0.012 A 
HETATM    6  C8  UNL     1     -12.721 -12.103 -24.636  1.00  0.00     0.015 A 
HETATM    7  C9  UNL     1     -12.148 -10.968 -23.859  1.00  0.00     0.099 C 
HETATM    8  C10 UNL     1     -11.382 -11.543 -22.723  1.00  0.00     0.002 C 
HETATM    9  C11 UNL     1     -11.165 -11.497 -21.444  1.00  0.00     0.079 C 
HETATM   10  C12 UNL     1     -11.749 -10.645 -20.414  1.00  0.00     0.284 C 
HETATM   11  O3  UNL     1     -11.228 -10.893 -19.279  1.00  0.00    -0.260 OA
HETATM   12  O4  UNL     1     -12.721  -9.647 -20.391  1.00  0.00    -0.286 OA
HETATM   13  C13 UNL     1     -13.642  -9.282 -21.441  1.00  0.00     0.276 C 
HETATM   14  O6  UNL     1     -12.792  -9.016 -22.541  1.00  0.00    -0.350 OA
HETATM   15  C17 UNL     1     -13.031  -9.841 -23.590  1.00  0.00     0.184 C 
HETATM   16  C18 UNL     1     -12.903  -8.993 -24.860  1.00  0.00     0.121 C 
HETATM   17  C19 UNL     1     -12.866  -7.536 -24.629  1.00  0.00     0.052 C 
HETATM   18  O7  UNL     1     -11.647  -9.351 -25.433  1.00  0.00    -0.304 OA
HETATM   19  C20 UNL     1     -11.074 -10.372 -24.740  1.00  0.00     0.275 C 
HETATM   20  O8  UNL     1      -9.870 -10.714 -24.852  1.00  0.00    -0.264 OA
ENDROOT
BRANCH  13  21
HETATM   21  C14 UNL     1     -14.375  -8.091 -20.933  1.00  0.00     0.061 C 
HETATM   22  C15 UNL     1     -14.944  -8.266 -19.545  1.00  0.00     0.017 C 
BRANCH  21  23
HETATM   23  C16 UNL     1     -13.648  -6.778 -21.102  1.00  0.00     0.173 C 
BRANCH  23  24
HETATM   24  O5  UNL     1     -12.395  -6.933 -20.500  1.00  0.00    -0.400 OA
ATOM     25  H5  UNL     1     -12.197  -7.862 -20.519  1.00  0.00     0.209 HD
ENDBRANCH  23  24
ENDBRANCH  21  23
ENDBRANCH  13  21
BRANCH   1  26
HETATM   26  O2  UNL     1     -14.547  -8.444 -26.556  1.00  0.00    -0.313 OA
BRANCH  26  27
HETATM   27  C2  UNL     1     -15.835  -7.968 -26.455  1.00  0.00     0.255 C 
HETATM   28  C1  UNL     1     -16.002  -6.491 -26.301  1.00  0.00     0.126 C 
HETATM   29  O1  UNL     1     -16.778  -8.769 -26.494  1.00  0.00    -0.266 OA
ENDBRANCH  26  27
ENDBRANCH   1  26
TORSDOF 5
ENDMDL
