MODEL 1
REMARK VINA RESULT: -8.287174383      0.000      0.000
REMARK  14 active torsions:
REMARK  status: ('A' for Active; 'I' for Inactive)
REMARK    1  A    between atoms: C2_2  and  C3_3 
REMARK    2  A    between atoms: C3_3  and  C4_4 
REMARK    3  A    between atoms: C4_4  and  C5_5 
REMARK    4  A    between atoms: C5_5  and  C6_6 
REMARK    5  A    between atoms: C5_5  and  C7_12 
REMARK    6  A    between atoms: C6_6  and  N1_7 
REMARK       I    between atoms: C7_12  and  N3_14 
REMARK    7  A    between atoms: N3_14  and  C8_16 
REMARK    8  A    between atoms: C8_16  and  C9_17 
REMARK    9  A    between atoms: C8_16  and  C25_42 
REMARK   10  A    between atoms: C9_17  and  S1_18 
REMARK   11  A    between atoms: S1_18  and  C10_20 
REMARK       I    between atoms: C10_20  and  N4_22 
REMARK   12  A    between atoms: N4_22  and  C11_24 
REMARK   13  A    between atoms: C14_29  and  C15_30 
REMARK   14  A    between atoms: C16_31  and  C17_32 
ROOT
HETATM    1  S1  UNL     1      13.522   7.035  26.197  1.00  0.00     0.110 S 
HETATM    2  O2  UNL     1      11.985   6.382  26.092  1.00  0.00    -0.248 OA
ENDROOT
BRANCH   1   3
HETATM    3  C9  UNL     1      13.490   8.786  26.129  1.00  0.00     0.153 C 
BRANCH   3   4
HETATM    4  C8  UNL     1      14.030   9.327  24.821  1.00  0.00     0.185 C 
BRANCH   4   5
HETATM    5  N3  UNL     1      15.392   8.857  24.634  1.00  0.00    -0.347 N 
HETATM    6  C7  UNL     1      15.806   8.170  23.477  1.00  0.00     0.224 C 
HETATM    7  O1  UNL     1      14.926   7.966  22.577  1.00  0.00    -0.273 OA
ATOM      8  H3  UNL     1      16.076   9.033  25.370  1.00  0.00     0.163 HD
BRANCH   6   9
HETATM    9  C5  UNL     1      17.200   7.710  23.319  1.00  0.00     0.097 C 
BRANCH   9  10
HETATM   10  C4  UNL     1      17.870   7.791  24.681  1.00  0.00     0.019 C 
BRANCH  10  11
HETATM   11  C3  UNL     1      18.361   6.428  25.125  1.00  0.00     0.027 C 
BRANCH  11  12
HETATM   12  C2  UNL     1      19.664   6.497  25.829  1.00  0.00    -0.037 C 
HETATM   13  C1  UNL     1      20.300   5.406  26.216  1.00  0.00     0.007 C 
ENDBRANCH  11  12
ENDBRANCH  10  11
ENDBRANCH   9  10
BRANCH   9  14
HETATM   14  C6  UNL     1      17.195   6.303  22.811  1.00  0.00     0.152 C 
BRANCH  14  15
HETATM   15  N1  UNL     1      17.016   6.334  21.390  1.00  0.00    -0.342 N 
HETATM   16  N2  UNL     1      16.023   5.850  20.828  1.00  0.00    -0.349 N 
ATOM     17  H22 UNL     1      15.313   5.414  21.416  1.00  0.00     0.176 HD
ATOM     18  H21 UNL     1      15.896   5.872  19.816  1.00  0.00     0.176 HD
ATOM     19  H1  UNL     1      17.737   6.774  20.817  1.00  0.00     0.179 HD
ENDBRANCH  14  15
ENDBRANCH   9  14
ENDBRANCH   6   9
ENDBRANCH   4   5
BRANCH   4  20
HETATM   20  C25 UNL     1      14.041  10.802  24.855  1.00  0.00     0.254 C 
HETATM   21  N7  UNL     1      14.019  11.586  23.653  1.00  0.00    -0.060 NA
HETATM   22  O4  UNL     1      14.068  11.391  25.965  1.00  0.00    -0.275 OA
ENDBRANCH   4  20
ENDBRANCH   3   4
ENDBRANCH   1   3
BRANCH   1  23
HETATM   23  C10 UNL     1      14.286   6.531  27.674  1.00  0.00     0.327 C 
HETATM   24  O3  UNL     1      14.005   7.116  28.751  1.00  0.00    -0.257 OA
HETATM   25  N4  UNL     1      15.209   5.478  27.670  1.00  0.00    -0.148 N 
ATOM     26  H4  UNL     1      14.994   4.656  27.107  1.00  0.00     0.188 HD
BRANCH  25  27
HETATM   27  C11 UNL     1      16.316   5.482  28.335  1.00  0.00     0.686 A 
HETATM   28  N5  UNL     1      16.894   4.495  29.052  1.00  0.00    -0.193 N 
HETATM   29  C12 UNL     1      18.046   4.989  29.553  1.00  0.00     0.058 A 
ATOM     30  H5  UNL     1      16.528   3.553  29.188  1.00  0.00     0.184 HD
HETATM   31  C13 UNL     1      19.001   4.232  30.408  1.00  0.00     0.072 C 
HETATM   32  C14 UNL     1      18.197   6.314  29.143  1.00  0.00     0.126 A 
HETATM   33  N6  UNL     1      17.116   6.582  28.397  1.00  0.00    -0.182 N 
ATOM     34  H6  UNL     1      16.922   7.475  27.944  1.00  0.00     0.185 HD
BRANCH  32  35
HETATM   35  C15 UNL     1      19.306   7.178  29.477  1.00  0.00    -0.041 C 
HETATM   36  C16 UNL     1      20.250   7.897  29.751  1.00  0.00    -0.059 C 
BRANCH  36  37
HETATM   37  C17 UNL     1      21.370   8.754  30.050  1.00  0.00     0.030 A 
HETATM   38  C18 UNL     1      22.262   9.109  29.046  1.00  0.00    -0.043 A 
HETATM   39  C19 UNL     1      22.043   8.593  27.663  1.00  0.00     0.049 C 
HETATM   40  C20 UNL     1      23.342   9.937  29.335  1.00  0.00     0.008 A 
HETATM   41  C21 UNL     1      23.549  10.416  30.609  1.00  0.00     0.001 A 
HETATM   42  C22 UNL     1      22.670  10.068  31.610  1.00  0.00     0.008 A 
HETATM   43  C23 UNL     1      21.585   9.238  31.325  1.00  0.00    -0.043 A 
HETATM   44  C24 UNL     1      20.631   8.854  32.387  1.00  0.00     0.049 C 
ENDBRANCH  36  37
ENDBRANCH  32  35
ENDBRANCH  25  27
ENDBRANCH   1  23
TORSDOF 14
ENDMDL
MODEL 2
REMARK VINA RESULT: -8.031415130      4.203      6.308
REMARK  14 active torsions:
REMARK  status: ('A' for Active; 'I' for Inactive)
REMARK    1  A    between atoms: C2_2  and  C3_3 
REMARK    2  A    between atoms: C3_3  and  C4_4 
REMARK    3  A    between atoms: C4_4  and  C5_5 
REMARK    4  A    between atoms: C5_5  and  C6_6 
REMARK    5  A    between atoms: C5_5  and  C7_12 
REMARK    6  A    between atoms: C6_6  and  N1_7 
REMARK       I    between atoms: C7_12  and  N3_14 
REMARK    7  A    between atoms: N3_14  and  C8_16 
REMARK    8  A    between atoms: C8_16  and  C9_17 
REMARK    9  A    between atoms: C8_16  and  C25_42 
REMARK   10  A    between atoms: C9_17  and  S1_18 
REMARK   11  A    between atoms: S1_18  and  C10_20 
REMARK       I    between atoms: C10_20  and  N4_22 
REMARK   12  A    between atoms: N4_22  and  C11_24 
REMARK   13  A    between atoms: C14_29  and  C15_30 
REMARK   14  A    between atoms: C16_31  and  C17_32 
ROOT
HETATM    1  S1  UNL     1      16.367   5.380  21.167  1.00  0.00     0.110 S 
HETATM    2  O2  UNL     1      15.190   6.358  20.492  1.00  0.00    -0.248 OA
ENDROOT
BRANCH   1   3
HETATM    3  C9  UNL     1      17.589   4.932  19.994  1.00  0.00     0.153 C 
BRANCH   3   4
HETATM    4  C8  UNL     1      17.894   3.447  20.010  1.00  0.00     0.185 C 
BRANCH   4   5
HETATM    5  N3  UNL     1      19.321   3.248  19.830  1.00  0.00    -0.347 N 
HETATM    6  C7  UNL     1      20.201   3.048  20.910  1.00  0.00     0.224 C 
HETATM    7  O1  UNL     1      19.695   3.049  22.080  1.00  0.00    -0.273 OA
ATOM      8  H3  UNL     1      19.700   3.254  18.883  1.00  0.00     0.163 HD
BRANCH   6   9
HETATM    9  C5  UNL     1      21.648   2.845  20.689  1.00  0.00     0.097 C 
BRANCH   9  10
HETATM   10  C4  UNL     1      22.276   2.507  22.030  1.00  0.00     0.019 C 
BRANCH  10  11
HETATM   11  C3  UNL     1      23.129   3.654  22.534  1.00  0.00     0.027 C 
BRANCH  11  12
HETATM   12  C2  UNL     1      24.169   4.057  21.557  1.00  0.00    -0.037 C 
HETATM   13  C1  UNL     1      25.377   4.423  21.945  1.00  0.00     0.007 C 
ENDBRANCH  11  12
ENDBRANCH  10  11
ENDBRANCH   9  10
BRANCH   9  14
HETATM   14  C6  UNL     1      21.840   1.728  19.713  1.00  0.00     0.152 C 
BRANCH  14  15
HETATM   15  N1  UNL     1      22.688   2.190  18.655  1.00  0.00    -0.342 N 
HETATM   16  N2  UNL     1      22.338   2.190  17.465  1.00  0.00    -0.349 N 
ATOM     17  H22 UNL     1      21.404   1.842  17.248  1.00  0.00     0.176 HD
ATOM     18  H21 UNL     1      22.942   2.519  16.712  1.00  0.00     0.176 HD
ATOM     19  H1  UNL     1      23.619   2.535  18.890  1.00  0.00     0.179 HD
ENDBRANCH  14  15
ENDBRANCH   9  14
ENDBRANCH   6   9
ENDBRANCH   4   5
BRANCH   4  20
HETATM   20  C25 UNL     1      17.181   2.778  18.904  1.00  0.00     0.254 C 
HETATM   21  N7  UNL     1      17.643   1.539  18.348  1.00  0.00    -0.060 NA
HETATM   22  O4  UNL     1      16.140   3.305  18.435  1.00  0.00    -0.275 OA
ENDBRANCH   4  20
ENDBRANCH   3   4
ENDBRANCH   1   3
BRANCH   1  23
HETATM   23  C10 UNL     1      17.123   6.191  22.505  1.00  0.00     0.327 C 
HETATM   24  O3  UNL     1      17.618   7.335  22.340  1.00  0.00    -0.257 OA
HETATM   25  N4  UNL     1      17.182   5.578  23.763  1.00  0.00    -0.148 N 
ATOM     26  H4  UNL     1      16.352   5.087  24.094  1.00  0.00     0.188 HD
BRANCH  25  27
HETATM   27  C11 UNL     1      18.222   5.595  24.529  1.00  0.00     0.686 A 
HETATM   28  N5  UNL     1      19.290   4.771  24.549  1.00  0.00    -0.193 N 
HETATM   29  C12 UNL     1      20.110   5.207  25.529  1.00  0.00     0.058 A 
ATOM     30  H5  UNL     1      19.448   3.970  23.939  1.00  0.00     0.184 HD
HETATM   31  C13 UNL     1      21.411   4.583  25.896  1.00  0.00     0.072 C 
HETATM   32  C14 UNL     1      19.547   6.329  26.137  1.00  0.00     0.126 A 
HETATM   33  N6  UNL     1      18.387   6.537  25.497  1.00  0.00    -0.182 N 
ATOM     34  H6  UNL     1      17.730   7.289  25.704  1.00  0.00     0.185 HD
BRANCH  32  35
HETATM   35  C15 UNL     1      20.129   7.077  27.227  1.00  0.00    -0.041 C 
HETATM   36  C16 UNL     1      20.608   7.705  28.155  1.00  0.00    -0.059 C 
BRANCH  36  37
HETATM   37  C17 UNL     1      21.176   8.426  29.267  1.00  0.00     0.030 A 
HETATM   38  C18 UNL     1      20.565   8.377  30.513  1.00  0.00    -0.043 A 
HETATM   39  C19 UNL     1      19.321   7.570  30.681  1.00  0.00     0.049 C 
HETATM   40  C20 UNL     1      21.114   9.072  31.586  1.00  0.00     0.008 A 
HETATM   41  C21 UNL     1      22.262   9.819  31.436  1.00  0.00     0.001 A 
HETATM   42  C22 UNL     1      22.873   9.873  30.204  1.00  0.00     0.008 A 
HETATM   43  C23 UNL     1      22.326   9.177  29.125  1.00  0.00    -0.043 A 
HETATM   44  C24 UNL     1      22.968   9.225  27.794  1.00  0.00     0.049 C 
ENDBRANCH  36  37
ENDBRANCH  32  35
ENDBRANCH  25  27
ENDBRANCH   1  23
TORSDOF 14
ENDMDL
MODEL 3
REMARK VINA RESULT: -7.962546728      4.249      6.247
REMARK  14 active torsions:
REMARK  status: ('A' for Active; 'I' for Inactive)
REMARK    1  A    between atoms: C2_2  and  C3_3 
REMARK    2  A    between atoms: C3_3  and  C4_4 
REMARK    3  A    between atoms: C4_4  and  C5_5 
REMARK    4  A    between atoms: C5_5  and  C6_6 
REMARK    5  A    between atoms: C5_5  and  C7_12 
REMARK    6  A    between atoms: C6_6  and  N1_7 
REMARK       I    between atoms: C7_12  and  N3_14 
REMARK    7  A    between atoms: N3_14  and  C8_16 
REMARK    8  A    between atoms: C8_16  and  C9_17 
REMARK    9  A    between atoms: C8_16  and  C25_42 
REMARK   10  A    between atoms: C9_17  and  S1_18 
REMARK   11  A    between atoms: S1_18  and  C10_20 
REMARK       I    between atoms: C10_20  and  N4_22 
REMARK   12  A    between atoms: N4_22  and  C11_24 
REMARK   13  A    between atoms: C14_29  and  C15_30 
REMARK   14  A    between atoms: C16_31  and  C17_32 
ROOT
HETATM    1  S1  UNL     1      16.449   5.253  21.155  1.00  0.00     0.110 S 
HETATM    2  O2  UNL     1      15.241   6.200  20.491  1.00  0.00    -0.248 OA
ENDROOT
BRANCH   1   3
HETATM    3  C9  UNL     1      17.647   4.797  19.961  1.00  0.00     0.153 C 
BRANCH   3   4
HETATM    4  C8  UNL     1      17.939   3.310  19.967  1.00  0.00     0.185 C 
BRANCH   4   5
HETATM    5  N3  UNL     1      19.366   3.100  19.799  1.00  0.00    -0.347 N 
HETATM    6  C7  UNL     1      20.253   3.006  20.888  1.00  0.00     0.224 C 
HETATM    7  O1  UNL     1      19.752   3.116  22.055  1.00  0.00    -0.273 OA
ATOM      8  H3  UNL     1      19.740   3.018  18.854  1.00  0.00     0.163 HD
BRANCH   6   9
HETATM    9  C5  UNL     1      21.698   2.789  20.679  1.00  0.00     0.097 C 
BRANCH   9  10
HETATM   10  C4  UNL     1      22.303   2.392  22.016  1.00  0.00     0.019 C 
BRANCH  10  11
HETATM   11  C3  UNL     1      23.185   3.498  22.561  1.00  0.00     0.027 C 
BRANCH  11  12
HETATM   12  C2  UNL     1      24.126   4.024  21.545  1.00  0.00    -0.037 C 
HETATM   13  C1  UNL     1      25.296   4.534  21.885  1.00  0.00     0.007 C 
ENDBRANCH  11  12
ENDBRANCH  10  11
ENDBRANCH   9  10
BRANCH   9  14
HETATM   14  C6  UNL     1      21.888   1.705  19.665  1.00  0.00     0.152 C 
BRANCH  14  15
HETATM   15  N1  UNL     1      22.693   2.218  18.597  1.00  0.00    -0.342 N 
HETATM   16  N2  UNL     1      22.325   2.204  17.413  1.00  0.00    -0.349 N 
ATOM     17  H22 UNL     1      21.408   1.806  17.208  1.00  0.00     0.176 HD
ATOM     18  H21 UNL     1      22.898   2.569  16.653  1.00  0.00     0.176 HD
ATOM     19  H1  UNL     1      23.607   2.611  18.820  1.00  0.00     0.179 HD
ENDBRANCH  14  15
ENDBRANCH   9  14
ENDBRANCH   6   9
ENDBRANCH   4   5
BRANCH   4  20
HETATM   20  C25 UNL     1      17.231   2.657  18.850  1.00  0.00     0.254 C 
HETATM   21  N7  UNL     1      17.746   1.477  18.216  1.00  0.00    -0.060 NA
HETATM   22  O4  UNL     1      16.146   3.142  18.440  1.00  0.00    -0.275 OA
ENDBRANCH   4  20
ENDBRANCH   3   4
ENDBRANCH   1   3
BRANCH   1  23
HETATM   23  C10 UNL     1      17.228   6.102  22.456  1.00  0.00     0.327 C 
HETATM   24  O3  UNL     1      17.786   7.206  22.233  1.00  0.00    -0.257 OA
HETATM   25  N4  UNL     1      17.234   5.564  23.749  1.00  0.00    -0.148 N 
ATOM     26  H4  UNL     1      16.374   5.139  24.094  1.00  0.00     0.188 HD
BRANCH  25  27
HETATM   27  C11 UNL     1      18.261   5.573  24.533  1.00  0.00     0.686 A 
HETATM   28  N5  UNL     1      19.317   4.734  24.576  1.00  0.00    -0.193 N 
HETATM   29  C12 UNL     1      20.128   5.166  25.566  1.00  0.00     0.058 A 
ATOM     30  H5  UNL     1      19.474   3.926  23.974  1.00  0.00     0.184 HD
HETATM   31  C13 UNL     1      21.413   4.527  25.959  1.00  0.00     0.072 C 
HETATM   32  C14 UNL     1      19.570   6.300  26.156  1.00  0.00     0.126 A 
HETATM   33  N6  UNL     1      18.425   6.520  25.496  1.00  0.00    -0.182 N 
ATOM     34  H6  UNL     1      17.774   7.282  25.686  1.00  0.00     0.185 HD
BRANCH  32  35
HETATM   35  C15 UNL     1      20.146   7.049  27.250  1.00  0.00    -0.041 C 
HETATM   36  C16 UNL     1      20.617   7.681  28.178  1.00  0.00    -0.059 C 
BRANCH  36  37
HETATM   37  C17 UNL     1      21.166   8.412  29.293  1.00  0.00     0.030 A 
HETATM   38  C18 UNL     1      22.337   9.142  29.138  1.00  0.00    -0.043 A 
HETATM   39  C19 UNL     1      23.012   9.157  27.807  1.00  0.00     0.049 C 
HETATM   40  C20 UNL     1      22.866   9.847  30.214  1.00  0.00     0.008 A 
HETATM   41  C21 UNL     1      22.247   9.835  31.444  1.00  0.00     0.001 A 
HETATM   42  C22 UNL     1      21.086   9.114  31.607  1.00  0.00     0.008 A 
HETATM   43  C23 UNL     1      20.551   8.405  30.530  1.00  0.00    -0.043 A 
HETATM   44  C24 UNL     1      19.306   7.625  30.686  1.00  0.00     0.049 C 
ENDBRANCH  36  37
ENDBRANCH  32  35
ENDBRANCH  25  27
ENDBRANCH   1  23
TORSDOF 14
ENDMDL
MODEL 4
REMARK VINA RESULT: -7.936405783      2.921      5.002
REMARK  14 active torsions:
REMARK  status: ('A' for Active; 'I' for Inactive)
REMARK    1  A    between atoms: C2_2  and  C3_3 
REMARK    2  A    between atoms: C3_3  and  C4_4 
REMARK    3  A    between atoms: C4_4  and  C5_5 
REMARK    4  A    between atoms: C5_5  and  C6_6 
REMARK    5  A    between atoms: C5_5  and  C7_12 
REMARK    6  A    between atoms: C6_6  and  N1_7 
REMARK       I    between atoms: C7_12  and  N3_14 
REMARK    7  A    between atoms: N3_14  and  C8_16 
REMARK    8  A    between atoms: C8_16  and  C9_17 
REMARK    9  A    between atoms: C8_16  and  C25_42 
REMARK   10  A    between atoms: C9_17  and  S1_18 
REMARK   11  A    between atoms: S1_18  and  C10_20 
REMARK       I    between atoms: C10_20  and  N4_22 
REMARK   12  A    between atoms: N4_22  and  C11_24 
REMARK   13  A    between atoms: C14_29  and  C15_30 
REMARK   14  A    between atoms: C16_31  and  C17_32 
ROOT
HETATM    1  S1  UNL     1      18.295   3.157  21.613  1.00  0.00     0.110 S 
HETATM    2  O2  UNL     1      18.401   1.536  21.217  1.00  0.00    -0.248 OA
ENDROOT
BRANCH   1   3
HETATM    3  C9  UNL     1      16.674   3.779  21.376  1.00  0.00     0.153 C 
BRANCH   3   4
HETATM    4  C8  UNL     1      16.667   5.223  20.915  1.00  0.00     0.185 C 
BRANCH   4   5
HETATM    5  N3  UNL     1      15.772   5.992  21.762  1.00  0.00    -0.347 N 
HETATM    6  C7  UNL     1      16.229   7.000  22.632  1.00  0.00     0.224 C 
HETATM    7  O1  UNL     1      17.485   7.221  22.655  1.00  0.00    -0.273 OA
ATOM      8  H3  UNL     1      14.772   5.794  21.725  1.00  0.00     0.163 HD
BRANCH   6   9
HETATM    9  C5  UNL     1      15.290   7.764  23.476  1.00  0.00     0.097 C 
BRANCH   9  10
HETATM   10  C4  UNL     1      14.856   6.861  24.619  1.00  0.00     0.019 C 
BRANCH  10  11
HETATM   11  C3  UNL     1      13.989   7.615  25.607  1.00  0.00     0.027 C 
BRANCH  11  12
HETATM   12  C2  UNL     1      13.058   6.724  26.339  1.00  0.00    -0.037 C 
HETATM   13  C1  UNL     1      13.412   5.505  26.705  1.00  0.00     0.007 C 
ENDBRANCH  11  12
ENDBRANCH  10  11
ENDBRANCH   9  10
BRANCH   9  14
HETATM   14  C6  UNL     1      15.983   8.985  23.996  1.00  0.00     0.152 C 
BRANCH  14  15
HETATM   15  N1  UNL     1      15.890  10.016  23.005  1.00  0.00    -0.342 N 
HETATM   16  N2  UNL     1      14.829  10.301  22.431  1.00  0.00    -0.349 N 
ATOM     17  H22 UNL     1      13.996   9.771  22.687  1.00  0.00     0.176 HD
ATOM     18  H21 UNL     1      14.763  11.035  21.727  1.00  0.00     0.176 HD
ATOM     19  H1  UNL     1      16.733  10.536  22.762  1.00  0.00     0.179 HD
ENDBRANCH  14  15
ENDBRANCH   9  14
ENDBRANCH   6   9
ENDBRANCH   4   5
BRANCH   4  20
HETATM   20  C25 UNL     1      16.184   5.302  19.524  1.00  0.00     0.254 C 
HETATM   21  N7  UNL     1      16.719   4.464  18.489  1.00  0.00    -0.060 NA
HETATM   22  O4  UNL     1      15.279   6.125  19.232  1.00  0.00    -0.275 OA
ENDBRANCH   4  20
ENDBRANCH   3   4
ENDBRANCH   1   3
BRANCH   1  23
HETATM   23  C10 UNL     1      18.768   3.401  23.267  1.00  0.00     0.327 C 
HETATM   24  O3  UNL     1      18.554   2.498  24.116  1.00  0.00    -0.257 OA
HETATM   25  N4  UNL     1      19.387   4.595  23.658  1.00  0.00    -0.148 N 
ATOM     26  H4  UNL     1      20.101   4.986  23.043  1.00  0.00     0.188 HD
BRANCH  25  27
HETATM   27  C11 UNL     1      19.111   5.232  24.747  1.00  0.00     0.686 A 
HETATM   28  N5  UNL     1      17.920   5.425  25.352  1.00  0.00    -0.193 N 
HETATM   29  C12 UNL     1      18.153   6.150  26.467  1.00  0.00     0.058 A 
ATOM     30  H5  UNL     1      17.014   5.087  25.028  1.00  0.00     0.184 HD
HETATM   31  C13 UNL     1      17.112   6.590  27.435  1.00  0.00     0.072 C 
HETATM   32  C14 UNL     1      19.519   6.417  26.566  1.00  0.00     0.126 A 
HETATM   33  N6  UNL     1      20.075   5.838  25.492  1.00  0.00    -0.182 N 
ATOM     34  H6  UNL     1      21.069   5.849  25.267  1.00  0.00     0.185 HD
BRANCH  32  35
HETATM   35  C15 UNL     1      20.156   7.166  27.625  1.00  0.00    -0.041 C 
HETATM   36  C16 UNL     1      20.706   7.798  28.509  1.00  0.00    -0.059 C 
BRANCH  36  37
HETATM   37  C17 UNL     1      21.358   8.567  29.539  1.00  0.00     0.030 A 
HETATM   38  C18 UNL     1      22.460   9.353  29.228  1.00  0.00    -0.043 A 
HETATM   39  C19 UNL     1      22.953   9.389  27.820  1.00  0.00     0.049 C 
HETATM   40  C20 UNL     1      23.089  10.096  30.222  1.00  0.00     0.008 A 
HETATM   41  C21 UNL     1      22.638  10.066  31.523  1.00  0.00     0.001 A 
HETATM   42  C22 UNL     1      21.547   9.289  31.840  1.00  0.00     0.008 A 
HETATM   43  C23 UNL     1      20.913   8.543  30.845  1.00  0.00    -0.043 A 
HETATM   44  C24 UNL     1      19.740   7.702  31.167  1.00  0.00     0.049 C 
ENDBRANCH  36  37
ENDBRANCH  32  35
ENDBRANCH  25  27
ENDBRANCH   1  23
TORSDOF 14
ENDMDL
MODEL 5
REMARK VINA RESULT: -7.856657248      4.492      6.467
REMARK  14 active torsions:
REMARK  status: ('A' for Active; 'I' for Inactive)
REMARK    1  A    between atoms: C2_2  and  C3_3 
REMARK    2  A    between atoms: C3_3  and  C4_4 
REMARK    3  A    between atoms: C4_4  and  C5_5 
REMARK    4  A    between atoms: C5_5  and  C6_6 
REMARK    5  A    between atoms: C5_5  and  C7_12 
REMARK    6  A    between atoms: C6_6  and  N1_7 
REMARK       I    between atoms: C7_12  and  N3_14 
REMARK    7  A    between atoms: N3_14  and  C8_16 
REMARK    8  A    between atoms: C8_16  and  C9_17 
REMARK    9  A    between atoms: C8_16  and  C25_42 
REMARK   10  A    between atoms: C9_17  and  S1_18 
REMARK   11  A    between atoms: S1_18  and  C10_20 
REMARK       I    between atoms: C10_20  and  N4_22 
REMARK   12  A    between atoms: N4_22  and  C11_24 
REMARK   13  A    between atoms: C14_29  and  C15_30 
REMARK   14  A    between atoms: C16_31  and  C17_32 
ROOT
HETATM    1  S1  UNL     1      16.130   5.348  21.513  1.00  0.00     0.110 S 
HETATM    2  O2  UNL     1      15.159   6.379  20.624  1.00  0.00    -0.248 OA
ENDROOT
BRANCH   1   3
HETATM    3  C9  UNL     1      17.202   4.418  20.485  1.00  0.00     0.153 C 
BRANCH   3   4
HETATM    4  C8  UNL     1      17.993   3.382  21.256  1.00  0.00     0.185 C 
BRANCH   4   5
HETATM    5  N3  UNL     1      18.518   2.392  20.331  1.00  0.00    -0.347 N 
HETATM    6  C7  UNL     1      19.811   2.477  19.781  1.00  0.00     0.224 C 
HETATM    7  O1  UNL     1      20.524   3.476  20.127  1.00  0.00    -0.273 OA
ATOM      8  H3  UNL     1      17.925   1.604  20.070  1.00  0.00     0.163 HD
BRANCH   6   9
HETATM    9  C5  UNL     1      20.312   1.451  18.846  1.00  0.00     0.097 C 
BRANCH   9  10
HETATM   10  C4  UNL     1      19.182   0.468  18.589  1.00  0.00     0.019 C 
BRANCH  10  11
HETATM   11  C3  UNL     1      18.445   0.812  17.310  1.00  0.00     0.027 C 
BRANCH  11  12
HETATM   12  C2  UNL     1      17.049   0.315  17.310  1.00  0.00    -0.037 C 
HETATM   13  C1  UNL     1      16.117   0.871  18.062  1.00  0.00     0.007 C 
ENDBRANCH  11  12
ENDBRANCH  10  11
ENDBRANCH   9  10
BRANCH   9  14
HETATM   14  C6  UNL     1      20.740   2.116  17.575  1.00  0.00     0.152 C 
BRANCH  14  15
HETATM   15  N1  UNL     1      22.168   2.226  17.578  1.00  0.00    -0.342 N 
HETATM   16  N2  UNL     1      22.859   1.964  18.574  1.00  0.00    -0.349 N 
ATOM     17  H22 UNL     1      22.375   1.658  19.418  1.00  0.00     0.176 HD
ATOM     18  H21 UNL     1      23.876   2.042  18.576  1.00  0.00     0.176 HD
ATOM     19  H1  UNL     1      22.635   2.534  16.725  1.00  0.00     0.179 HD
ENDBRANCH  14  15
ENDBRANCH   9  14
ENDBRANCH   6   9
ENDBRANCH   4   5
BRANCH   4  20
HETATM   20  C25 UNL     1      17.115   2.701  22.227  1.00  0.00     0.254 C 
HETATM   21  N7  UNL     1      15.988   1.918  21.807  1.00  0.00    -0.060 NA
HETATM   22  O4  UNL     1      17.358   2.805  23.456  1.00  0.00    -0.275 OA
ENDBRANCH   4  20
ENDBRANCH   3   4
ENDBRANCH   1   3
BRANCH   1  23
HETATM   23  C10 UNL     1      17.075   6.253  22.657  1.00  0.00     0.327 C 
HETATM   24  O3  UNL     1      17.780   7.215  22.259  1.00  0.00    -0.257 OA
HETATM   25  N4  UNL     1      17.052   5.918  24.017  1.00  0.00    -0.148 N 
ATOM     26  H4  UNL     1      16.152   5.683  24.436  1.00  0.00     0.188 HD
BRANCH  25  27
HETATM   27  C11 UNL     1      18.098   5.888  24.773  1.00  0.00     0.686 A 
HETATM   28  N5  UNL     1      19.128   5.016  24.782  1.00  0.00    -0.193 N 
HETATM   29  C12 UNL     1      19.977   5.414  25.754  1.00  0.00     0.058 A 
ATOM     30  H5  UNL     1      19.244   4.209  24.170  1.00  0.00     0.184 HD
HETATM   31  C13 UNL     1      21.252   4.731  26.109  1.00  0.00     0.072 C 
HETATM   32  C14 UNL     1      19.471   6.559  26.368  1.00  0.00     0.126 A 
HETATM   33  N6  UNL     1      18.316   6.821  25.739  1.00  0.00    -0.182 N 
ATOM     34  H6  UNL     1      17.695   7.601  25.953  1.00  0.00     0.185 HD
BRANCH  32  35
HETATM   35  C15 UNL     1      20.097   7.280  27.453  1.00  0.00    -0.041 C 
HETATM   36  C16 UNL     1      20.635   7.876  28.369  1.00  0.00    -0.059 C 
BRANCH  36  37
HETATM   37  C17 UNL     1      21.294   8.583  29.439  1.00  0.00     0.030 A 
HETATM   38  C18 UNL     1      22.448   9.313  29.184  1.00  0.00    -0.043 A 
HETATM   39  C19 UNL     1      22.991   9.352  27.795  1.00  0.00     0.049 C 
HETATM   40  C20 UNL     1      23.083   9.995  30.217  1.00  0.00     0.008 A 
HETATM   41  C21 UNL     1      22.586   9.962  31.501  1.00  0.00     0.001 A 
HETATM   42  C22 UNL     1      21.443   9.241  31.762  1.00  0.00     0.008 A 
HETATM   43  C23 UNL     1      20.802   8.555  30.729  1.00  0.00    -0.043 A 
HETATM   44  C24 UNL     1      19.574   7.775  30.990  1.00  0.00     0.049 C 
ENDBRANCH  36  37
ENDBRANCH  32  35
ENDBRANCH  25  27
ENDBRANCH   1  23
TORSDOF 14
ENDMDL
