MODEL 1
REMARK VINA RESULT: -8.916046653      0.000      0.000
REMARK  5 active torsions:
REMARK  status: ('A' for Active; 'I' for Inactive)
REMARK    1  A    between atoms: C2_2  and  O2_4 
REMARK    2  A    between atoms: O2_4  and  C3_5 
REMARK    3  A    between atoms: C3_5  and  C4_6 
REMARK    4  A    between atoms: C16_19  and  O3_20 
REMARK    5  A    between atoms: O3_20  and  C17_21 
ROOT
HETATM    1  C4  UNL     1     -16.272  14.524 -15.822  1.00  0.00     0.050 C 
HETATM    2  C5  UNL     1     -15.687  13.319 -15.112  1.00  0.00     0.020 C 
HETATM    3  C6  UNL     1     -14.352  13.835 -14.620  1.00  0.00     0.002 C 
HETATM    4  C7  UNL     1     -14.705  15.203 -14.140  1.00  0.00     0.011 C 
HETATM    5  C8  UNL     1     -15.652  15.738 -15.209  1.00  0.00    -0.023 C 
HETATM    6  C9  UNL     1     -14.829  16.559 -16.141  1.00  0.00     0.017 C 
HETATM    7  C10 UNL     1     -16.750  16.501 -14.523  1.00  0.00     0.007 C 
HETATM    8  C11 UNL     1     -16.663  17.977 -14.641  1.00  0.00     0.007 C 
HETATM    9  C12 UNL     1     -17.938  18.570 -14.078  1.00  0.00     0.012 C 
HETATM   10  C13 UNL     1     -19.178  18.069 -14.717  1.00  0.00    -0.015 C 
HETATM   11  C14 UNL     1     -19.300  18.653 -16.117  1.00  0.00     0.017 C 
HETATM   12  C15 UNL     1     -20.376  18.382 -13.875  1.00  0.00     0.126 C 
HETATM   13 CL1  UNL     1     -21.558  19.360 -14.804  1.00  0.00    -0.121 Cl
HETATM   14  C16 UNL     1     -21.012  17.065 -13.479  1.00  0.00     0.223 C 
HETATM   15  C19 UNL     1     -19.807  16.111 -13.595  1.00  0.00     0.276 C 
HETATM   16  F1  UNL     1     -19.072  16.303 -12.480  1.00  0.00    -0.203 F 
HETATM   17  F2  UNL     1     -20.327  14.846 -13.580  1.00  0.00    -0.203 F 
HETATM   18  C20 UNL     1     -19.236  16.561 -14.866  1.00  0.00     0.082 C 
HETATM   19  C21 UNL     1     -17.956  16.084 -15.338  1.00  0.00     0.072 C 
HETATM   20  C22 UNL     1     -17.745  14.660 -15.540  1.00  0.00     0.143 C 
HETATM   21  O5  UNL     1     -18.484  13.691 -15.520  1.00  0.00    -0.297 OA
ENDROOT
BRANCH   1  22
HETATM   22  C3  UNL     1     -15.991  14.353 -17.280  1.00  0.00     0.196 C 
BRANCH  22  23
HETATM   23  O2  UNL     1     -15.901  13.034 -17.707  1.00  0.00    -0.321 OA
BRANCH  23  24
HETATM   24  C2  UNL     1     -14.909  12.617 -18.537  1.00  0.00     0.254 C 
HETATM   25  C1  UNL     1     -13.506  13.062 -18.220  1.00  0.00     0.126 C 
HETATM   26  O1  UNL     1     -15.134  11.885 -19.541  1.00  0.00    -0.266 OA
ENDBRANCH  23  24
ENDBRANCH  22  23
ENDBRANCH   1  22
BRANCH  14  27
HETATM   27  O3  UNL     1     -21.405  17.199 -12.118  1.00  0.00    -0.309 OA
BRANCH  27  28
HETATM   28  C17 UNL     1     -22.639  16.813 -11.642  1.00  0.00     0.255 C 
HETATM   29  C18 UNL     1     -23.303  17.449 -10.474  1.00  0.00     0.126 C 
HETATM   30  O4  UNL     1     -23.230  15.871 -12.231  1.00  0.00    -0.266 OA
ENDBRANCH  27  28
ENDBRANCH  14  27
TORSDOF 5
ENDMDL
MODEL 2
REMARK VINA RESULT: -8.130530607      2.671      3.827
REMARK  5 active torsions:
REMARK  status: ('A' for Active; 'I' for Inactive)
REMARK    1  A    between atoms: C2_2  and  O2_4 
REMARK    2  A    between atoms: O2_4  and  C3_5 
REMARK    3  A    between atoms: C3_5  and  C4_6 
REMARK    4  A    between atoms: C16_19  and  O3_20 
REMARK    5  A    between atoms: O3_20  and  C17_21 
ROOT
HETATM    1  C4  UNL     1     -15.471  15.688 -15.283  1.00  0.00     0.050 C 
HETATM    2  C5  UNL     1     -14.686  16.054 -16.528  1.00  0.00     0.020 C 
HETATM    3  C6  UNL     1     -14.805  14.807 -17.377  1.00  0.00     0.002 C 
HETATM    4  C7  UNL     1     -16.234  14.427 -17.173  1.00  0.00     0.011 C 
HETATM    5  C8  UNL     1     -16.466  14.646 -15.682  1.00  0.00    -0.023 C 
HETATM    6  C9  UNL     1     -16.288  13.324 -15.019  1.00  0.00     0.017 C 
HETATM    7  C10 UNL     1     -17.833  15.245 -15.504  1.00  0.00     0.007 C 
HETATM    8  C11 UNL     1     -18.862  14.321 -14.969  1.00  0.00     0.007 C 
HETATM    9  C12 UNL     1     -20.106  15.130 -14.663  1.00  0.00     0.012 C 
HETATM   10  C13 UNL     1     -19.886  16.259 -13.730  1.00  0.00    -0.015 C 
HETATM   11  C14 UNL     1     -19.660  15.721 -12.325  1.00  0.00     0.017 C 
HETATM   12  C15 UNL     1     -21.029  17.225 -13.781  1.00  0.00     0.126 C 
HETATM   13 CL1  UNL     1     -21.763  17.415 -12.156  1.00  0.00    -0.121 Cl
HETATM   14  C16 UNL     1     -20.480  18.558 -14.245  1.00  0.00     0.223 C 
HETATM   15  C19 UNL     1     -19.219  18.107 -15.006  1.00  0.00     0.276 C 
HETATM   16  F1  UNL     1     -19.648  17.657 -16.204  1.00  0.00    -0.203 F 
HETATM   17  F2  UNL     1     -18.468  19.236 -15.191  1.00  0.00    -0.203 F 
HETATM   18  C20 UNL     1     -18.684  17.119 -14.067  1.00  0.00     0.082 C 
HETATM   19  C21 UNL     1     -17.573  16.262 -14.413  1.00  0.00     0.072 C 
HETATM   20  C22 UNL     1     -16.300  16.849 -14.801  1.00  0.00     0.143 C 
HETATM   21  O5  UNL     1     -15.864  17.987 -14.794  1.00  0.00    -0.297 OA
ENDROOT
BRANCH   1  22
HETATM   22  C3  UNL     1     -14.481  15.240 -14.257  1.00  0.00     0.196 C 
BRANCH  22  23
HETATM   23  O2  UNL     1     -13.246  15.873 -14.321  1.00  0.00    -0.321 OA
BRANCH  23  24
HETATM   24  C2  UNL     1     -12.195  15.327 -14.989  1.00  0.00     0.254 C 
HETATM   25  C1  UNL     1     -11.451  16.212 -15.952  1.00  0.00     0.126 C 
HETATM   26  O1  UNL     1     -11.842  14.127 -14.823  1.00  0.00    -0.266 OA
ENDBRANCH  23  24
ENDBRANCH  22  23
ENDBRANCH   1  22
BRANCH  14  27
HETATM   27  O3  UNL     1     -21.436  19.095 -15.151  1.00  0.00    -0.309 OA
BRANCH  27  28
HETATM   28  C17 UNL     1     -22.227  20.186 -14.863  1.00  0.00     0.255 C 
HETATM   29  C18 UNL     1     -22.598  21.219 -15.867  1.00  0.00     0.126 C 
HETATM   30  O4  UNL     1     -22.656  20.310 -13.687  1.00  0.00    -0.266 OA
ENDBRANCH  27  28
ENDBRANCH  14  27
TORSDOF 5
ENDMDL
MODEL 3
REMARK VINA RESULT: -7.017221591      2.682      7.514
REMARK  5 active torsions:
REMARK  status: ('A' for Active; 'I' for Inactive)
REMARK    1  A    between atoms: C2_2  and  O2_4 
REMARK    2  A    between atoms: O2_4  and  C3_5 
REMARK    3  A    between atoms: C3_5  and  C4_6 
REMARK    4  A    between atoms: C16_19  and  O3_20 
REMARK    5  A    between atoms: O3_20  and  C17_21 
ROOT
HETATM    1  C4  UNL     1     -19.356  16.098 -14.613  1.00  0.00     0.050 C 
HETATM    2  C5  UNL     1     -20.553  16.222 -15.535  1.00  0.00     0.020 C 
HETATM    3  C6  UNL     1     -20.691  17.720 -15.706  1.00  0.00     0.002 C 
HETATM    4  C7  UNL     1     -19.269  18.148 -15.852  1.00  0.00     0.011 C 
HETATM    5  C8  UNL     1     -18.524  17.325 -14.806  1.00  0.00    -0.023 C 
HETATM    6  C9  UNL     1     -18.390  18.186 -13.597  1.00  0.00     0.017 C 
HETATM    7  C10 UNL     1     -17.215  16.887 -15.399  1.00  0.00     0.007 C 
HETATM    8  C11 UNL     1     -16.020  17.602 -14.890  1.00  0.00     0.007 C 
HETATM    9  C12 UNL     1     -14.789  16.906 -15.431  1.00  0.00     0.012 C 
HETATM   10  C13 UNL     1     -14.710  15.463 -15.104  1.00  0.00    -0.015 C 
HETATM   11  C14 UNL     1     -14.388  15.293 -13.626  1.00  0.00     0.017 C 
HETATM   12  C15 UNL     1     -13.708  14.771 -15.976  1.00  0.00     0.126 C 
HETATM   13 CL1  UNL     1     -12.447  13.979 -14.977  1.00  0.00    -0.121 Cl
HETATM   14  C16 UNL     1     -14.449  13.721 -16.778  1.00  0.00     0.223 C 
HETATM   15  C19 UNL     1     -15.878  14.299 -16.768  1.00  0.00     0.276 C 
HETATM   16  F1  UNL     1     -15.890  15.280 -17.694  1.00  0.00    -0.203 F 
HETATM   17  F2  UNL     1     -16.697  13.282 -17.177  1.00  0.00    -0.203 F 
HETATM   18  C20 UNL     1     -15.992  14.695 -15.363  1.00  0.00     0.082 C 
HETATM   19  C21 UNL     1     -17.111  15.469 -14.877  1.00  0.00     0.072 C 
HETATM   20  C22 UNL     1     -18.464  14.958 -15.029  1.00  0.00     0.143 C 
HETATM   21  O5  UNL     1     -18.921  13.889 -15.394  1.00  0.00    -0.297 OA
ENDROOT
BRANCH   1  22
HETATM   22  C3  UNL     1     -19.887  15.920 -13.227  1.00  0.00     0.196 C 
BRANCH  22  23
HETATM   23  O2  UNL     1     -21.252  15.673 -13.152  1.00  0.00    -0.321 OA
BRANCH  23  24
HETATM   24  C2  UNL     1     -22.064  16.384 -12.325  1.00  0.00     0.254 C 
HETATM   25  C1  UNL     1     -21.505  17.646 -11.723  1.00  0.00     0.126 C 
HETATM   26  O1  UNL     1     -23.242  16.019 -12.060  1.00  0.00    -0.266 OA
ENDBRANCH  23  24
ENDBRANCH  22  23
ENDBRANCH   1  22
BRANCH  14  27
HETATM   27  O3  UNL     1     -13.911  13.764 -18.094  1.00  0.00    -0.309 OA
BRANCH  27  28
HETATM   28  C17 UNL     1     -13.353  12.671 -18.722  1.00  0.00     0.255 C 
HETATM   29  C18 UNL     1     -11.915  12.308 -18.613  1.00  0.00     0.126 C 
HETATM   30  O4  UNL     1     -14.105  11.947 -19.425  1.00  0.00    -0.266 OA
ENDBRANCH  27  28
ENDBRANCH  14  27
TORSDOF 5
ENDMDL
MODEL 4
REMARK VINA RESULT: -7.007875142      2.986      7.772
REMARK  5 active torsions:
REMARK  status: ('A' for Active; 'I' for Inactive)
REMARK    1  A    between atoms: C2_2  and  O2_4 
REMARK    2  A    between atoms: O2_4  and  C3_5 
REMARK    3  A    between atoms: C3_5  and  C4_6 
REMARK    4  A    between atoms: C16_19  and  O3_20 
REMARK    5  A    between atoms: O3_20  and  C17_21 
ROOT
HETATM    1  C4  UNL     1     -22.012  19.153 -13.037  1.00  0.00     0.050 C 
HETATM    2  C5  UNL     1     -21.885  20.470 -12.296  1.00  0.00     0.020 C 
HETATM    3  C6  UNL     1     -22.256  20.094 -10.878  1.00  0.00     0.002 C 
HETATM    4  C7  UNL     1     -21.561  18.784 -10.712  1.00  0.00     0.011 C 
HETATM    5  C8  UNL     1     -21.807  18.064 -12.033  1.00  0.00    -0.023 C 
HETATM    6  C9  UNL     1     -22.983  17.173 -11.827  1.00  0.00     0.017 C 
HETATM    7  C10 UNL     1     -20.546  17.340 -12.413  1.00  0.00     0.007 C 
HETATM    8  C11 UNL     1     -20.583  15.868 -12.236  1.00  0.00     0.007 C 
HETATM    9  C12 UNL     1     -19.327  15.287 -12.850  1.00  0.00     0.012 C 
HETATM   10  C13 UNL     1     -19.129  15.633 -14.277  1.00  0.00    -0.015 C 
HETATM   11  C14 UNL     1     -20.129  14.866 -15.130  1.00  0.00     0.017 C 
HETATM   12  C15 UNL     1     -17.717  15.370 -14.699  1.00  0.00     0.126 C 
HETATM   13 CL1  UNL     1     -17.677  14.218 -16.073  1.00  0.00    -0.121 Cl
HETATM   14  C16 UNL     1     -17.117  16.692 -15.133  1.00  0.00     0.223 C 
HETATM   15  C19 UNL     1     -18.001  17.685 -14.354  1.00  0.00     0.276 C 
HETATM   16  F1  UNL     1     -17.540  17.680 -13.086  1.00  0.00    -0.203 F 
HETATM   17  F2  UNL     1     -17.770  18.912 -14.913  1.00  0.00    -0.203 F 
HETATM   18  C20 UNL     1     -19.323  17.104 -14.593  1.00  0.00     0.082 C 
HETATM   19  C21 UNL     1     -20.502  17.582 -13.907  1.00  0.00     0.072 C 
HETATM   20  C22 UNL     1     -20.894  18.977 -14.031  1.00  0.00     0.143 C 
HETATM   21  O5  UNL     1     -20.505  19.900 -14.726  1.00  0.00    -0.297 OA
ENDROOT
BRANCH   1  22
HETATM   22  C3  UNL     1     -23.355  19.146 -13.693  1.00  0.00     0.196 C 
BRANCH  22  23
HETATM   23  O2  UNL     1     -23.886  20.404 -13.949  1.00  0.00    -0.321 OA
BRANCH  23  24
HETATM   24  C2  UNL     1     -23.506  21.135 -15.030  1.00  0.00     0.254 C 
HETATM   25  C1  UNL     1     -23.989  20.678 -16.381  1.00  0.00     0.126 C 
HETATM   26  O1  UNL     1     -22.777  22.160 -14.928  1.00  0.00    -0.266 OA
ENDBRANCH  23  24
ENDBRANCH  22  23
ENDBRANCH   1  22
BRANCH  14  27
HETATM   27  O3  UNL     1     -15.787  16.717 -14.627  1.00  0.00    -0.309 OA
BRANCH  27  28
HETATM   28  C17 UNL     1     -14.863  15.723 -14.870  1.00  0.00     0.255 C 
HETATM   29  C18 UNL     1     -14.331  15.411 -16.224  1.00  0.00     0.126 C 
HETATM   30  O4  UNL     1     -14.452  15.048 -13.892  1.00  0.00    -0.266 OA
ENDBRANCH  27  28
ENDBRANCH  14  27
TORSDOF 5
ENDMDL
MODEL 5
REMARK VINA RESULT: -6.676164350      5.340     10.431
REMARK  5 active torsions:
REMARK  status: ('A' for Active; 'I' for Inactive)
REMARK    1  A    between atoms: C2_2  and  O2_4 
REMARK    2  A    between atoms: O2_4  and  C3_5 
REMARK    3  A    between atoms: C3_5  and  C4_6 
REMARK    4  A    between atoms: C16_19  and  O3_20 
REMARK    5  A    between atoms: O3_20  and  C17_21 
ROOT
HETATM    1  C4  UNL     1     -14.862  13.330 -17.723  1.00  0.00     0.050 C 
HETATM    2  C5  UNL     1     -15.216  14.748 -18.126  1.00  0.00     0.020 C 
HETATM    3  C6  UNL     1     -14.085  15.558 -17.530  1.00  0.00     0.002 C 
HETATM    4  C7  UNL     1     -12.899  14.702 -17.827  1.00  0.00     0.011 C 
HETATM    5  C8  UNL     1     -13.380  13.286 -17.528  1.00  0.00    -0.023 C 
HETATM    6  C9  UNL     1     -12.941  12.966 -16.141  1.00  0.00     0.017 C 
HETATM    7  C10 UNL     1     -12.820  12.370 -18.579  1.00  0.00     0.007 C 
HETATM    8  C11 UNL     1     -11.708  11.498 -18.129  1.00  0.00     0.007 C 
HETATM    9  C12 UNL     1     -11.406  10.510 -19.237  1.00  0.00     0.012 C 
HETATM   10  C13 UNL     1     -12.568   9.693 -19.660  1.00  0.00    -0.015 C 
HETATM   11  C14 UNL     1     -12.892   8.672 -18.579  1.00  0.00     0.017 C 
HETATM   12  C15 UNL     1     -12.310   9.043 -20.984  1.00  0.00     0.126 C 
HETATM   13 CL1  UNL     1     -12.459   7.261 -20.846  1.00  0.00    -0.121 Cl
HETATM   14  C16 UNL     1     -13.349   9.562 -21.957  1.00  0.00     0.223 C 
HETATM   15  C19 UNL     1     -13.721  10.906 -21.300  1.00  0.00     0.276 C 
HETATM   16  F1  UNL     1     -12.727  11.762 -21.616  1.00  0.00    -0.203 F 
HETATM   17  F2  UNL     1     -14.878  11.313 -21.907  1.00  0.00    -0.203 F 
HETATM   18  C20 UNL     1     -13.835  10.492 -19.900  1.00  0.00     0.082 C 
HETATM   19  C21 UNL     1     -13.997  11.452 -18.833  1.00  0.00     0.072 C 
HETATM   20  C22 UNL     1     -15.132  12.361 -18.844  1.00  0.00     0.143 C 
HETATM   21  O5  UNL     1     -16.134  12.444 -19.533  1.00  0.00    -0.297 OA
ENDROOT
BRANCH   1  22
HETATM   22  C3  UNL     1     -15.658  13.010 -16.499  1.00  0.00     0.196 C 
BRANCH  22  23
HETATM   23  O2  UNL     1     -16.840  13.727 -16.368  1.00  0.00    -0.321 OA
BRANCH  23  24
HETATM   24  C2  UNL     1     -17.219  14.271 -15.181  1.00  0.00     0.254 C 
HETATM   25  C1  UNL     1     -16.204  15.106 -14.446  1.00  0.00     0.126 C 
HETATM   26  O1  UNL     1     -18.371  14.097 -14.697  1.00  0.00    -0.266 OA
ENDBRANCH  23  24
ENDBRANCH  22  23
ENDBRANCH   1  22
BRANCH  14  27
HETATM   27  O3  UNL     1     -12.672   9.786 -23.188  1.00  0.00    -0.309 OA
BRANCH  27  28
HETATM   28  C17 UNL     1     -12.104   8.779 -23.938  1.00  0.00     0.255 C 
HETATM   29  C18 UNL     1     -10.660   8.731 -24.288  1.00  0.00     0.126 C 
HETATM   30  O4  UNL     1     -12.853   7.854 -24.345  1.00  0.00    -0.266 OA
ENDBRANCH  27  28
ENDBRANCH  14  27
TORSDOF 5
ENDMDL
