MODEL 1
REMARK VINA RESULT: -7.599834569      0.000      0.000
REMARK  9 active torsions:
REMARK  status: ('A' for Active; 'I' for Inactive)
REMARK    1  A    between atoms: C2_2  and  N1_3 
REMARK       I    between atoms: N1_3  and  C3_5 
REMARK       I    between atoms: C3_5  and  N3_9 
REMARK    2  A    between atoms: N3_9  and  C4_11 
REMARK    3  A    between atoms: C4_11  and  C5_12 
REMARK    4  A    between atoms: C5_12  and  C6_13 
REMARK    5  A    between atoms: C6_13  and  C7_14 
REMARK       I    between atoms: C7_14  and  N4_16 
REMARK       I    between atoms: N5_19  and  C10_20 
REMARK    6  A    between atoms: C10_20  and  C11_22 
REMARK    7  A    between atoms: C11_22  and  N6_23 
REMARK    8  A    between atoms: N7_26  and  C14_27 
REMARK    9  A    between atoms: C14_27  and  C15_28 
ROOT
HETATM    1  C7  UNL     1      16.470   5.619  22.059  1.00  0.00     0.221 C 
HETATM    2  O1  UNL     1      17.014   6.769  22.028  1.00  0.00    -0.273 OA
HETATM    3  N4  UNL     1      16.483   4.860  20.868  1.00  0.00    -0.334 N 
HETATM    4  C8  UNL     1      17.070   5.279  19.611  1.00  0.00     0.147 C 
HETATM    5  C9  UNL     1      17.492   3.972  19.003  1.00  0.00     0.147 C 
HETATM    6  N5  UNL     1      16.694   2.973  19.636  1.00  0.00    -0.330 N 
HETATM    7  C10 UNL     1      16.693   1.582  19.237  1.00  0.00     0.268 C 
HETATM    8  O2  UNL     1      15.939   0.813  19.879  1.00  0.00    -0.267 OA
HETATM    9  C22 UNL     1      15.924   3.547  20.697  1.00  0.00     0.255 C 
ENDROOT
BRANCH   7  10
HETATM   10  C11 UNL     1      17.546   1.119  18.128  1.00  0.00     0.279 C 
BRANCH  10  11
HETATM   11  N6  UNL     1      18.644   0.377  18.602  1.00  0.00    -0.011 N 
HETATM   12  C12 UNL     1      18.401  -1.021  18.766  1.00  0.00     0.273 C 
HETATM   13  C13 UNL     1      19.411  -1.449  19.846  1.00  0.00     0.268 C 
HETATM   14  N7  UNL     1      20.082  -0.204  20.160  1.00  0.00    -0.034 N 
HETATM   15  C18 UNL     1      20.909   0.164  19.057  1.00  0.00     0.273 C 
HETATM   16  C21 UNL     1      18.981   0.732  20.006  1.00  0.00     0.479 C 
HETATM   17  C19 UNL     1      19.906   0.615  17.984  1.00  0.00     0.220 C 
HETATM   18  C20 UNL     1      20.179   2.077  17.725  1.00  0.00     0.043 C 
BRANCH  14  19
HETATM   19  C14 UNL     1      20.693  -0.182  21.438  1.00  0.00     0.297 C 
BRANCH  19  20
HETATM   20  C15 UNL     1      21.791   0.806  21.565  1.00  0.00     0.053 A 
HETATM   21  C16 UNL     1      23.134   0.508  21.511  1.00  0.00     0.117 A 
HETATM   22  N8  UNL     1      23.861   1.628  21.664  1.00  0.00    -0.341 N 
HETATM   23  C17 UNL     1      22.971   2.630  21.812  1.00  0.00     0.176 A 
ATOM     24  H8  UNL     1      24.878   1.703  21.666  1.00  0.00     0.167 HD
HETATM   25  S1  UNL     1      23.439   4.199  22.031  1.00  0.00    -0.041 SA
HETATM   26  N9  UNL     1      21.742   2.135  21.754  1.00  0.00    -0.334 N 
ATOM     27  H9  UNL     1      20.886   2.683  21.840  1.00  0.00     0.168 HD
ENDBRANCH  19  20
ENDBRANCH  14  19
ENDBRANCH  10  11
ENDBRANCH   7  10
BRANCH   1  28
HETATM   28  C6  UNL     1      15.844   5.072  23.281  1.00  0.00     0.105 C 
BRANCH  28  29
HETATM   29  C5  UNL     1      15.898   5.959  24.476  1.00  0.00     0.029 C 
BRANCH  29  30
HETATM   30  C4  UNL     1      14.790   6.978  24.491  1.00  0.00     0.138 C 
BRANCH  30  31
HETATM   31  N3  UNL     1      15.276   8.262  24.984  1.00  0.00    -0.227 N 
HETATM   32  C3  UNL     1      15.393   9.318  24.046  1.00  0.00     0.667 C 
HETATM   33  N1  UNL     1      14.548  10.475  24.119  1.00  0.00    -0.227 N 
HETATM   34  N2  UNL     1      16.271   9.248  23.107  1.00  0.00    -0.235 N 
ATOM     35  H1  UNL     1      14.409  11.049  23.287  1.00  0.00     0.177 HD
ATOM     36  H22 UNL     1      16.355  10.008  22.432  1.00  0.00     0.174 HD
ATOM     37  H21 UNL     1      16.872   8.425  23.055  1.00  0.00     0.174 HD
ATOM     38  H3  UNL     1      15.522   8.394  25.964  1.00  0.00     0.177 HD
BRANCH  33  39
HETATM   39  C2  UNL     1      13.889  10.841  25.355  1.00  0.00     0.133 C 
HETATM   40  C1  UNL     1      13.716  12.348  25.400  1.00  0.00     0.027 C 
ENDBRANCH  33  39
ENDBRANCH  30  31
ENDBRANCH  29  30
ENDBRANCH  28  29
ENDBRANCH   1  28
TORSDOF 9
ENDMDL
MODEL 2
REMARK VINA RESULT: -7.498958471      1.661      1.921
REMARK  9 active torsions:
REMARK  status: ('A' for Active; 'I' for Inactive)
REMARK    1  A    between atoms: C2_2  and  N1_3 
REMARK       I    between atoms: N1_3  and  C3_5 
REMARK       I    between atoms: C3_5  and  N3_9 
REMARK    2  A    between atoms: N3_9  and  C4_11 
REMARK    3  A    between atoms: C4_11  and  C5_12 
REMARK    4  A    between atoms: C5_12  and  C6_13 
REMARK    5  A    between atoms: C6_13  and  C7_14 
REMARK       I    between atoms: C7_14  and  N4_16 
REMARK       I    between atoms: N5_19  and  C10_20 
REMARK    6  A    between atoms: C10_20  and  C11_22 
REMARK    7  A    between atoms: C11_22  and  N6_23 
REMARK    8  A    between atoms: N7_26  and  C14_27 
REMARK    9  A    between atoms: C14_27  and  C15_28 
ROOT
HETATM    1  C7  UNL     1      15.589   5.293  21.347  1.00  0.00     0.221 C 
HETATM    2  O1  UNL     1      15.106   6.287  20.717  1.00  0.00    -0.273 OA
HETATM    3  N4  UNL     1      15.751   4.086  20.632  1.00  0.00    -0.334 N 
HETATM    4  C8  UNL     1      15.421   3.885  19.236  1.00  0.00     0.147 C 
HETATM    5  C9  UNL     1      16.416   2.841  18.817  1.00  0.00     0.147 C 
HETATM    6  N5  UNL     1      16.825   2.190  20.019  1.00  0.00    -0.330 N 
HETATM    7  C10 UNL     1      17.681   1.024  20.042  1.00  0.00     0.268 C 
HETATM    8  O2  UNL     1      17.956   0.550  21.170  1.00  0.00    -0.267 OA
HETATM    9  C22 UNL     1      16.274   2.855  21.160  1.00  0.00     0.255 C 
ENDROOT
BRANCH   7  10
HETATM   10  C11 UNL     1      18.189   0.440  18.788  1.00  0.00     0.279 C 
BRANCH  10  11
HETATM   11  N6  UNL     1      19.591   0.537  18.709  1.00  0.00    -0.011 N 
HETATM   12  C12 UNL     1      20.300  -0.631  19.122  1.00  0.00     0.273 C 
HETATM   13  C13 UNL     1      21.670  -0.094  19.572  1.00  0.00     0.268 C 
HETATM   14  N7  UNL     1      21.533   1.333  19.364  1.00  0.00    -0.034 N 
HETATM   15  C18 UNL     1      21.517   1.594  17.961  1.00  0.00     0.273 C 
HETATM   16  C21 UNL     1      20.129   1.510  19.696  1.00  0.00     0.479 C 
HETATM   17  C19 UNL     1      20.139   1.081  17.511  1.00  0.00     0.220 C 
HETATM   18  C20 UNL     1      19.380   2.279  16.995  1.00  0.00     0.043 C 
BRANCH  14  19
HETATM   19  C14 UNL     1      22.421   2.119  20.139  1.00  0.00     0.297 C 
BRANCH  19  20
HETATM   20  C15 UNL     1      21.806   2.698  21.358  1.00  0.00     0.053 A 
HETATM   21  C16 UNL     1      21.972   2.210  22.634  1.00  0.00     0.117 A 
HETATM   22  N8  UNL     1      21.278   2.960  23.508  1.00  0.00    -0.341 N 
HETATM   23  C17 UNL     1      20.678   3.921  22.776  1.00  0.00     0.176 A 
ATOM     24  H8  UNL     1      21.219   2.830  24.517  1.00  0.00     0.167 HD
HETATM   25  S1  UNL     1      19.713   5.075  23.458  1.00  0.00    -0.041 SA
HETATM   26  N9  UNL     1      20.995   3.758  21.499  1.00  0.00    -0.334 N 
ATOM     27  H9  UNL     1      20.670   4.352  20.735  1.00  0.00     0.168 HD
ENDBRANCH  19  20
ENDBRANCH  14  19
ENDBRANCH  10  11
ENDBRANCH   7  10
BRANCH   1  28
HETATM   28  C6  UNL     1      15.975   5.370  22.772  1.00  0.00     0.105 C 
BRANCH  28  29
HETATM   29  C5  UNL     1      15.683   6.667  23.442  1.00  0.00     0.029 C 
BRANCH  29  30
HETATM   30  C4  UNL     1      16.856   7.611  23.411  1.00  0.00     0.138 C 
BRANCH  30  31
HETATM   31  N3  UNL     1      16.530   8.863  24.085  1.00  0.00    -0.227 N 
HETATM   32  C3  UNL     1      15.650   9.752  23.418  1.00  0.00     0.667 C 
HETATM   33  N1  UNL     1      14.337  10.022  23.929  1.00  0.00    -0.227 N 
HETATM   34  N2  UNL     1      16.027  10.334  22.333  1.00  0.00    -0.235 N 
ATOM     35  H1  UNL     1      13.618  10.380  23.301  1.00  0.00     0.177 HD
ATOM     36  H22 UNL     1      15.394  10.974  21.853  1.00  0.00     0.174 HD
ATOM     37  H21 UNL     1      16.961  10.142  21.970  1.00  0.00     0.174 HD
ATOM     38  H3  UNL     1      16.919   9.089  25.000  1.00  0.00     0.177 HD
BRANCH  33  39
HETATM   39  C2  UNL     1      14.017   9.795  25.322  1.00  0.00     0.133 C 
HETATM   40  C1  UNL     1      13.497  11.084  25.931  1.00  0.00     0.027 C 
ENDBRANCH  33  39
ENDBRANCH  30  31
ENDBRANCH  29  30
ENDBRANCH  28  29
ENDBRANCH   1  28
TORSDOF 9
ENDMDL
MODEL 3
REMARK VINA RESULT: -7.459225632      2.256      4.022
REMARK  9 active torsions:
REMARK  status: ('A' for Active; 'I' for Inactive)
REMARK    1  A    between atoms: C2_2  and  N1_3 
REMARK       I    between atoms: N1_3  and  C3_5 
REMARK       I    between atoms: C3_5  and  N3_9 
REMARK    2  A    between atoms: N3_9  and  C4_11 
REMARK    3  A    between atoms: C4_11  and  C5_12 
REMARK    4  A    between atoms: C5_12  and  C6_13 
REMARK    5  A    between atoms: C6_13  and  C7_14 
REMARK       I    between atoms: C7_14  and  N4_16 
REMARK       I    between atoms: N5_19  and  C10_20 
REMARK    6  A    between atoms: C10_20  and  C11_22 
REMARK    7  A    between atoms: C11_22  and  N6_23 
REMARK    8  A    between atoms: N7_26  and  C14_27 
REMARK    9  A    between atoms: C14_27  and  C15_28 
ROOT
HETATM    1  C7  UNL     1      14.362   4.830  26.319  1.00  0.00     0.221 C 
HETATM    2  O1  UNL     1      14.569   4.214  27.413  1.00  0.00    -0.273 OA
HETATM    3  N4  UNL     1      15.463   5.003  25.451  1.00  0.00    -0.334 N 
HETATM    4  C8  UNL     1      16.810   4.532  25.697  1.00  0.00     0.147 C 
HETATM    5  C9  UNL     1      17.320   4.272  24.308  1.00  0.00     0.147 C 
HETATM    6  N5  UNL     1      16.506   5.063  23.443  1.00  0.00    -0.330 N 
HETATM    7  C10 UNL     1      16.755   5.206  22.025  1.00  0.00     0.268 C 
HETATM    8  O2  UNL     1      15.963   5.937  21.385  1.00  0.00    -0.267 OA
HETATM    9  C22 UNL     1      15.437   5.669  24.177  1.00  0.00     0.255 C 
ENDROOT
BRANCH   7  10
HETATM   10  C11 UNL     1      17.892   4.516  21.390  1.00  0.00     0.279 C 
BRANCH  10  11
HETATM   11  N6  UNL     1      17.454   3.567  20.448  1.00  0.00    -0.011 N 
HETATM   12  C12 UNL     1      16.327   2.789  20.855  1.00  0.00     0.273 C 
HETATM   13  C13 UNL     1      16.464   1.486  20.048  1.00  0.00     0.268 C 
HETATM   14  N7  UNL     1      17.683   1.708  19.296  1.00  0.00    -0.034 N 
HETATM   15  C18 UNL     1      17.434   2.696  18.297  1.00  0.00     0.273 C 
HETATM   16  C21 UNL     1      18.449   2.478  20.263  1.00  0.00     0.479 C 
HETATM   17  C19 UNL     1      17.321   4.003  19.097  1.00  0.00     0.220 C 
HETATM   18  C20 UNL     1      18.455   4.889  18.640  1.00  0.00     0.043 C 
BRANCH  14  19
HETATM   19  C14 UNL     1      18.319   0.520  18.861  1.00  0.00     0.297 C 
BRANCH  19  20
HETATM   20  C15 UNL     1      19.800   0.585  18.884  1.00  0.00     0.053 A 
HETATM   21  C16 UNL     1      20.581   1.184  17.922  1.00  0.00     0.117 A 
HETATM   22  N8  UNL     1      21.880   1.063  18.242  1.00  0.00    -0.341 N 
HETATM   23  C17 UNL     1      21.913   0.387  19.409  1.00  0.00     0.176 A 
ATOM     24  H8  UNL     1      22.678   1.412  17.711  1.00  0.00     0.167 HD
HETATM   25  S1  UNL     1      23.330   0.014  20.172  1.00  0.00    -0.041 SA
HETATM   26  N9  UNL     1      20.673   0.105  19.784  1.00  0.00    -0.334 N 
ATOM     27  H9  UNL     1      20.420  -0.403  20.632  1.00  0.00     0.168 HD
ENDBRANCH  19  20
ENDBRANCH  14  19
ENDBRANCH  10  11
ENDBRANCH   7  10
BRANCH   1  28
HETATM   28  C6  UNL     1      13.032   5.354  25.944  1.00  0.00     0.105 C 
BRANCH  28  29
HETATM   29  C5  UNL     1      12.834   6.812  26.172  1.00  0.00     0.029 C 
BRANCH  29  30
HETATM   30  C4  UNL     1      13.543   7.307  27.405  1.00  0.00     0.138 C 
BRANCH  30  31
HETATM   31  N3  UNL     1      14.094   8.639  27.185  1.00  0.00    -0.227 N 
HETATM   32  C3  UNL     1      15.168   8.757  26.267  1.00  0.00     0.667 C 
HETATM   33  N1  UNL     1      15.009   9.450  25.021  1.00  0.00    -0.227 N 
HETATM   34  N2  UNL     1      16.312   8.236  26.547  1.00  0.00    -0.235 N 
ATOM     35  H1  UNL     1      15.649   9.253  24.252  1.00  0.00     0.177 HD
ATOM     36  H22 UNL     1      17.084   8.320  25.887  1.00  0.00     0.174 HD
ATOM     37  H21 UNL     1      16.424   7.743  27.433  1.00  0.00     0.174 HD
ATOM     38  H3  UNL     1      13.721   9.453  27.672  1.00  0.00     0.177 HD
BRANCH  33  39
HETATM   39  C2  UNL     1      13.955  10.426  24.839  1.00  0.00     0.133 C 
HETATM   40  C1  UNL     1      14.450  11.529  23.922  1.00  0.00     0.027 C 
ENDBRANCH  33  39
ENDBRANCH  30  31
ENDBRANCH  29  30
ENDBRANCH  28  29
ENDBRANCH   1  28
TORSDOF 9
ENDMDL
MODEL 4
REMARK VINA RESULT: -7.451455333      2.796      9.432
REMARK  9 active torsions:
REMARK  status: ('A' for Active; 'I' for Inactive)
REMARK    1  A    between atoms: C2_2  and  N1_3 
REMARK       I    between atoms: N1_3  and  C3_5 
REMARK       I    between atoms: C3_5  and  N3_9 
REMARK    2  A    between atoms: N3_9  and  C4_11 
REMARK    3  A    between atoms: C4_11  and  C5_12 
REMARK    4  A    between atoms: C5_12  and  C6_13 
REMARK    5  A    between atoms: C6_13  and  C7_14 
REMARK       I    between atoms: C7_14  and  N4_16 
REMARK       I    between atoms: N5_19  and  C10_20 
REMARK    6  A    between atoms: C10_20  and  C11_22 
REMARK    7  A    between atoms: C11_22  and  N6_23 
REMARK    8  A    between atoms: N7_26  and  C14_27 
REMARK    9  A    between atoms: C14_27  and  C15_28 
ROOT
HETATM    1  C7  UNL     1      18.004   1.377  17.753  1.00  0.00     0.221 C 
HETATM    2  O1  UNL     1      17.166   0.536  17.297  1.00  0.00    -0.273 OA
HETATM    3  N4  UNL     1      17.616   2.138  18.878  1.00  0.00    -0.334 N 
HETATM    4  C8  UNL     1      16.344   2.037  19.563  1.00  0.00     0.147 C 
HETATM    5  C9  UNL     1      16.709   2.399  20.975  1.00  0.00     0.147 C 
HETATM    6  N5  UNL     1      17.922   3.143  20.883  1.00  0.00    -0.330 N 
HETATM    7  C10 UNL     1      18.543   3.799  22.014  1.00  0.00     0.268 C 
HETATM    8  O2  UNL     1      19.606   4.423  21.788  1.00  0.00    -0.267 OA
HETATM    9  C22 UNL     1      18.413   3.135  19.538  1.00  0.00     0.255 C 
ENDROOT
BRANCH   7  10
HETATM   10  C11 UNL     1      17.934   3.720  23.353  1.00  0.00     0.279 C 
BRANCH  10  11
HETATM   11  N6  UNL     1      17.075   4.809  23.590  1.00  0.00    -0.011 N 
HETATM   12  C12 UNL     1      17.326   5.961  22.783  1.00  0.00     0.273 C 
HETATM   13  C13 UNL     1      16.784   7.129  23.626  1.00  0.00     0.268 C 
HETATM   14  N7  UNL     1      16.311   6.462  24.822  1.00  0.00    -0.034 N 
HETATM   15  C18 UNL     1      15.141   5.713  24.499  1.00  0.00     0.273 C 
HETATM   16  C21 UNL     1      17.298   5.401  24.936  1.00  0.00     0.479 C 
HETATM   17  C19 UNL     1      15.680   4.531  23.677  1.00  0.00     0.220 C 
HETATM   18  C20 UNL     1      15.367   3.281  24.463  1.00  0.00     0.043 C 
BRANCH  14  19
HETATM   19  C14 UNL     1      16.224   7.304  25.958  1.00  0.00     0.297 C 
BRANCH  19  20
HETATM   20  C15 UNL     1      15.312   8.460  25.785  1.00  0.00     0.053 A 
HETATM   21  C16 UNL     1      14.182   8.694  26.535  1.00  0.00     0.117 A 
HETATM   22  N8  UNL     1      13.580   9.822  26.120  1.00  0.00    -0.341 N 
HETATM   23  C17 UNL     1      14.336  10.295  25.108  1.00  0.00     0.176 A 
ATOM     24  H8  UNL     1      12.726  10.235  26.495  1.00  0.00     0.167 HD
HETATM   25  S1  UNL     1      13.955  11.683  24.297  1.00  0.00    -0.041 SA
HETATM   26  N9  UNL     1      15.363   9.480  24.913  1.00  0.00    -0.334 N 
ATOM     27  H9  UNL     1      16.086   9.608  24.204  1.00  0.00     0.168 HD
ENDBRANCH  19  20
ENDBRANCH  14  19
ENDBRANCH  10  11
ENDBRANCH   7  10
BRANCH   1  28
HETATM   28  C6  UNL     1      19.340   1.570  17.151  1.00  0.00     0.105 C 
BRANCH  28  29
HETATM   29  C5  UNL     1      20.476   0.994  17.922  1.00  0.00     0.029 C 
BRANCH  29  30
HETATM   30  C4  UNL     1      21.687   1.889  17.926  1.00  0.00     0.138 C 
BRANCH  30  31
HETATM   31  N3  UNL     1      22.583   1.542  19.023  1.00  0.00    -0.227 N 
HETATM   32  C3  UNL     1      22.130   1.800  20.341  1.00  0.00     0.667 C 
HETATM   33  N1  UNL     1      21.840   0.729  21.251  1.00  0.00    -0.227 N 
HETATM   34  N2  UNL     1      21.973   3.014  20.740  1.00  0.00    -0.235 N 
ATOM     35  H1  UNL     1      21.223   0.898  22.045  1.00  0.00     0.177 HD
ATOM     36  H22 UNL     1      21.647   3.200  21.688  1.00  0.00     0.174 HD
ATOM     37  H21 UNL     1      22.179   3.775  20.092  1.00  0.00     0.174 HD
ATOM     38  H3  UNL     1      23.499   1.130  18.848  1.00  0.00     0.177 HD
BRANCH  33  39
HETATM   39  C2  UNL     1      22.410  -0.588  21.060  1.00  0.00     0.133 C 
HETATM   40  C1  UNL     1      23.845  -0.586  21.553  1.00  0.00     0.027 C 
ENDBRANCH  33  39
ENDBRANCH  30  31
ENDBRANCH  29  30
ENDBRANCH  28  29
ENDBRANCH   1  28
TORSDOF 9
ENDMDL
MODEL 5
REMARK VINA RESULT: -7.422435979      2.918      9.300
REMARK  9 active torsions:
REMARK  status: ('A' for Active; 'I' for Inactive)
REMARK    1  A    between atoms: C2_2  and  N1_3 
REMARK       I    between atoms: N1_3  and  C3_5 
REMARK       I    between atoms: C3_5  and  N3_9 
REMARK    2  A    between atoms: N3_9  and  C4_11 
REMARK    3  A    between atoms: C4_11  and  C5_12 
REMARK    4  A    between atoms: C5_12  and  C6_13 
REMARK    5  A    between atoms: C6_13  and  C7_14 
REMARK       I    between atoms: C7_14  and  N4_16 
REMARK       I    between atoms: N5_19  and  C10_20 
REMARK    6  A    between atoms: C10_20  and  C11_22 
REMARK    7  A    between atoms: C11_22  and  N6_23 
REMARK    8  A    between atoms: N7_26  and  C14_27 
REMARK    9  A    between atoms: C14_27  and  C15_28 
ROOT
HETATM    1  C7  UNL     1      16.749   2.104  18.855  1.00  0.00     0.221 C 
HETATM    2  O1  UNL     1      15.741   2.252  18.094  1.00  0.00    -0.273 OA
HETATM    3  N4  UNL     1      17.236   3.251  19.520  1.00  0.00    -0.334 N 
HETATM    4  C8  UNL     1      16.680   4.585  19.414  1.00  0.00     0.147 C 
HETATM    5  C9  UNL     1      16.993   5.172  20.761  1.00  0.00     0.147 C 
HETATM    6  N5  UNL     1      18.081   4.405  21.274  1.00  0.00    -0.330 N 
HETATM    7  C10 UNL     1      18.779   4.733  22.499  1.00  0.00     0.268 C 
HETATM    8  O2  UNL     1      19.721   3.975  22.830  1.00  0.00    -0.267 OA
HETATM    9  C22 UNL     1      18.360   3.295  20.416  1.00  0.00     0.255 C 
ENDROOT
BRANCH   7  10
HETATM   10  C11 UNL     1      18.382   5.906  23.298  1.00  0.00     0.279 C 
BRANCH  10  11
HETATM   11  N6  UNL     1      17.489   5.548  24.324  1.00  0.00    -0.011 N 
HETATM   12  C12 UNL     1      17.018   4.201  24.271  1.00  0.00     0.273 C 
HETATM   13  C13 UNL     1      15.661   4.253  24.996  1.00  0.00     0.268 C 
HETATM   14  N7  UNL     1      15.546   5.654  25.348  1.00  0.00    -0.034 N 
HETATM   15  C18 UNL     1      16.487   5.949  26.379  1.00  0.00     0.273 C 
HETATM   16  C21 UNL     1      16.192   6.265  24.198  1.00  0.00     0.479 C 
HETATM   17  C19 UNL     1      17.842   5.922  25.654  1.00  0.00     0.220 C 
HETATM   18  C20 UNL     1      18.412   7.316  25.752  1.00  0.00     0.043 C 
BRANCH  14  19
HETATM   19  C14 UNL     1      14.216   6.088  25.568  1.00  0.00     0.297 C 
BRANCH  19  20
HETATM   20  C15 UNL     1      14.087   7.548  25.795  1.00  0.00     0.053 A 
HETATM   21  C16 UNL     1      13.858   8.141  27.015  1.00  0.00     0.117 A 
HETATM   22  N8  UNL     1      13.791   9.476  26.873  1.00  0.00    -0.341 N 
HETATM   23  C17 UNL     1      13.979   9.719  25.560  1.00  0.00     0.176 A 
ATOM     24  H8  UNL     1      13.631  10.164  27.609  1.00  0.00     0.167 HD
HETATM   25  S1  UNL     1      13.973  11.248  24.936  1.00  0.00    -0.041 SA
HETATM   26  N9  UNL     1      14.153   8.568  24.924  1.00  0.00    -0.334 N 
ATOM     27  H9  UNL     1      14.313   8.472  23.921  1.00  0.00     0.168 HD
ENDBRANCH  19  20
ENDBRANCH  14  19
ENDBRANCH  10  11
ENDBRANCH   7  10
BRANCH   1  28
HETATM   28  C6  UNL     1      17.405   0.795  19.056  1.00  0.00     0.105 C 
BRANCH  28  29
HETATM   29  C5  UNL     1      18.152   0.270  17.879  1.00  0.00     0.029 C 
BRANCH  29  30
HETATM   30  C4  UNL     1      19.319   1.142  17.497  1.00  0.00     0.138 C 
BRANCH  30  31
HETATM   31  N3  UNL     1      20.520   0.744  18.221  1.00  0.00    -0.227 N 
HETATM   32  C3  UNL     1      21.513   1.733  18.430  1.00  0.00     0.667 C 
HETATM   33  N1  UNL     1      21.808   2.226  19.745  1.00  0.00    -0.227 N 
HETATM   34  N2  UNL     1      22.169   2.206  17.428  1.00  0.00    -0.235 N 
ATOM     35  H1  UNL     1      22.260   3.134  19.852  1.00  0.00     0.177 HD
ATOM     36  H22 UNL     1      22.883   2.918  17.579  1.00  0.00     0.174 HD
ATOM     37  H21 UNL     1      21.959   1.856  16.493  1.00  0.00     0.174 HD
ATOM     38  H3  UNL     1      20.641  -0.209  18.563  1.00  0.00     0.177 HD
BRANCH  33  39
HETATM   39  C2  UNL     1      21.474   1.454  20.923  1.00  0.00     0.133 C 
HETATM   40  C1  UNL     1      22.630   0.531  21.260  1.00  0.00     0.027 C 
ENDBRANCH  33  39
ENDBRANCH  30  31
ENDBRANCH  29  30
ENDBRANCH  28  29
ENDBRANCH   1  28
TORSDOF 9
ENDMDL
