MODEL 1
REMARK VINA RESULT: -10.313772224      0.000      0.000
REMARK  4 active torsions:
REMARK  status: ('A' for Active; 'I' for Inactive)
REMARK    1  A    between atoms: C2_2  and  C3_3 
REMARK    2  A    between atoms: C16_18  and  O1_19 
REMARK    3  A    between atoms: O1_19  and  C17_20 
REMARK    4  A    between atoms: C17_20  and  C18_21 
ROOT
HETATM    1  C3  UNL     1      13.655  18.415  15.303  1.00  0.00     0.001 A 
HETATM    2  C4  UNL     1      13.815  19.589  14.591  1.00  0.00     0.118 A 
HETATM    3  C5  UNL     1      14.589  19.724  13.479  1.00  0.00     0.069 A 
HETATM    4  N1  UNL     1      15.239  18.606  13.069  1.00  0.00    -0.353 N 
ATOM      5  H1  UNL     1      15.832  18.653  12.240  1.00  0.00     0.166 HD
HETATM    6  C6  UNL     1      15.120  17.425  13.733  1.00  0.00     0.043 A 
HETATM    7  C7  UNL     1      15.822  16.327  13.266  1.00  0.00     0.030 A 
HETATM    8  C8  UNL     1      15.720  15.134  13.938  1.00  0.00     0.002 A 
HETATM    9  C9  UNL     1      14.943  14.996  15.056  1.00  0.00     0.001 A 
HETATM   10  C10 UNL     1      14.236  16.104  15.524  1.00  0.00     0.014 A 
HETATM   11  C11 UNL     1      14.332  17.303  14.854  1.00  0.00     0.002 A 
HETATM   12  C12 UNL     1      14.702  20.956  12.686  1.00  0.00     0.022 A 
HETATM   13  C13 UNL     1      15.626  20.966  11.631  1.00  0.00     0.016 A 
HETATM   14  C14 UNL     1      15.860  22.099  10.902  1.00  0.00     0.004 A 
HETATM   15  C15 UNL     1      15.172  23.244  11.219  1.00  0.00     0.039 A 
HETATM   16  C16 UNL     1      14.249  23.263  12.258  1.00  0.00     0.097 A 
HETATM   17  C27 UNL     1      14.019  22.104  12.989  1.00  0.00     0.090 A 
HETATM   18  N3  UNL     1      12.999  22.175  13.985  1.00  0.00    -0.272 N 
HETATM   19  C28 UNL     1      11.980  23.197  13.900  1.00  0.00     0.170 C 
HETATM   20  S1  UNL     1      13.007  21.000  15.247  1.00  0.00     0.268 S 
HETATM   21  O2  UNL     1      11.651  20.686  15.751  1.00  0.00    -0.200 OA
HETATM   22  O3  UNL     1      13.908  21.541  16.337  1.00  0.00    -0.200 OA
ENDROOT
BRANCH  16  23
HETATM   23  O1  UNL     1      13.594  24.446  12.529  1.00  0.00    -0.343 OA
BRANCH  23  24
HETATM   24  C17 UNL     1      14.100  25.641  11.983  1.00  0.00     0.232 C 
BRANCH  24  25
HETATM   25  C18 UNL     1      14.209  26.755  12.928  1.00  0.00     0.034 A 
HETATM   26  C19 UNL     1      13.844  28.045  12.536  1.00  0.00     0.028 A 
HETATM   27  C20 UNL     1      13.946  29.084  13.409  1.00  0.00     0.016 A 
HETATM   28  C21 UNL     1      14.408  28.907  14.700  1.00  0.00    -0.009 A 
HETATM   29  C22 UNL     1      14.515  29.948  15.591  1.00  0.00     0.013 A 
HETATM   30  C26 UNL     1      14.762  27.624  15.063  1.00  0.00     0.042 A 
HETATM   31  C23 UNL     1      14.984  29.713  16.869  1.00  0.00     0.001 A 
HETATM   32  C24 UNL     1      15.348  28.449  17.270  1.00  0.00     0.002 A 
HETATM   33  C25 UNL     1      15.231  27.423  16.360  1.00  0.00     0.030 A 
HETATM   34  N2  UNL     1      14.651  26.624  14.184  1.00  0.00    -0.357 N 
ATOM     35  H2  UNL     1      14.923  25.691  14.493  1.00  0.00     0.166 HD
ENDBRANCH  24  25
ENDBRANCH  23  24
ENDBRANCH  16  23
BRANCH   1  36
HETATM   36  C2  UNL     1      12.795  18.396  16.493  1.00  0.00     0.004 C 
HETATM   37  C1  UNL     1      13.192  18.297  17.722  1.00  0.00     0.012 C 
ENDBRANCH   1  36
TORSDOF 4
ENDMDL
MODEL 2
REMARK VINA RESULT: -10.241861950      0.877      1.454
REMARK  4 active torsions:
REMARK  status: ('A' for Active; 'I' for Inactive)
REMARK    1  A    between atoms: C2_2  and  C3_3 
REMARK    2  A    between atoms: C16_18  and  O1_19 
REMARK    3  A    between atoms: O1_19  and  C17_20 
REMARK    4  A    between atoms: C17_20  and  C18_21 
ROOT
HETATM    1  C3  UNL     1      13.846  18.087  15.214  1.00  0.00     0.001 A 
HETATM    2  C4  UNL     1      14.108  19.194  14.428  1.00  0.00     0.118 A 
HETATM    3  C5  UNL     1      14.969  19.212  13.374  1.00  0.00     0.069 A 
HETATM    4  N1  UNL     1      15.601  18.043  13.103  1.00  0.00    -0.353 N 
ATOM      5  H1  UNL     1      16.257  18.003  12.323  1.00  0.00     0.166 HD
HETATM    6  C6  UNL     1      15.383  16.924  13.844  1.00  0.00     0.043 A 
HETATM    7  C7  UNL     1      16.073  15.768  13.520  1.00  0.00     0.030 A 
HETATM    8  C8  UNL     1      15.871  14.637  14.271  1.00  0.00     0.002 A 
HETATM    9  C9  UNL     1      15.007  14.616  15.333  1.00  0.00     0.001 A 
HETATM   10  C10 UNL     1      14.313  15.782  15.657  1.00  0.00     0.014 A 
HETATM   11  C11 UNL     1      14.509  16.920  14.906  1.00  0.00     0.002 A 
HETATM   12  C12 UNL     1      15.193  20.373  12.500  1.00  0.00     0.022 A 
HETATM   13  C13 UNL     1      16.193  20.266  11.523  1.00  0.00     0.016 A 
HETATM   14  C14 UNL     1      16.529  21.329  10.731  1.00  0.00     0.004 A 
HETATM   15  C15 UNL     1      15.867  22.519  10.904  1.00  0.00     0.039 A 
HETATM   16  C16 UNL     1      14.870  22.653  11.862  1.00  0.00     0.097 A 
HETATM   17  C27 UNL     1      14.537  21.564  12.660  1.00  0.00     0.090 A 
HETATM   18  N3  UNL     1      13.448  21.751  13.564  1.00  0.00    -0.272 N 
HETATM   19  C28 UNL     1      12.482  22.798  13.320  1.00  0.00     0.170 C 
HETATM   20  S1  UNL     1      13.312  20.680  14.909  1.00  0.00     0.268 S 
HETATM   21  O2  UNL     1      11.910  20.456  15.327  1.00  0.00    -0.200 OA
HETATM   22  O3  UNL     1      14.150  21.274  16.022  1.00  0.00    -0.200 OA
ENDROOT
BRANCH  16  23
HETATM   23  O1  UNL     1      14.245  23.876  11.990  1.00  0.00    -0.343 OA
BRANCH  23  24
HETATM   24  C17 UNL     1      15.033  25.043  11.973  1.00  0.00     0.232 C 
BRANCH  24  25
HETATM   25  C18 UNL     1      15.139  25.734  13.261  1.00  0.00     0.034 A 
HETATM   26  C19 UNL     1      15.620  25.055  14.383  1.00  0.00     0.028 A 
HETATM   27  C20 UNL     1      15.719  25.691  15.582  1.00  0.00     0.016 A 
HETATM   28  C21 UNL     1      15.352  27.015  15.735  1.00  0.00    -0.009 A 
HETATM   29  C22 UNL     1      15.447  27.669  16.941  1.00  0.00     0.013 A 
HETATM   30  C26 UNL     1      14.881  27.664  14.614  1.00  0.00     0.042 A 
HETATM   31  C23 UNL     1      15.066  28.993  17.037  1.00  0.00     0.001 A 
HETATM   32  C24 UNL     1      14.591  29.676  15.941  1.00  0.00     0.002 A 
HETATM   33  C25 UNL     1      14.505  28.999  14.746  1.00  0.00     0.030 A 
HETATM   34  N2  UNL     1      14.795  27.013  13.449  1.00  0.00    -0.357 N 
ATOM     35  H2  UNL     1      14.441  27.529  12.644  1.00  0.00     0.166 HD
ENDBRANCH  24  25
ENDBRANCH  23  24
ENDBRANCH  16  23
BRANCH   1  36
HETATM   36  C2  UNL     1      12.898  18.193  16.330  1.00  0.00     0.004 C 
HETATM   37  C1  UNL     1      13.197  18.175  17.591  1.00  0.00     0.012 C 
ENDBRANCH   1  36
TORSDOF 4
ENDMDL
MODEL 3
REMARK VINA RESULT: -10.095855410      0.896      1.036
REMARK  4 active torsions:
REMARK  status: ('A' for Active; 'I' for Inactive)
REMARK    1  A    between atoms: C2_2  and  C3_3 
REMARK    2  A    between atoms: C16_18  and  O1_19 
REMARK    3  A    between atoms: O1_19  and  C17_20 
REMARK    4  A    between atoms: C17_20  and  C18_21 
ROOT
HETATM    1  C3  UNL     1      13.884  17.932  15.187  1.00  0.00     0.001 A 
HETATM    2  C4  UNL     1      14.098  19.028  14.372  1.00  0.00     0.118 A 
HETATM    3  C5  UNL     1      14.968  19.059  13.324  1.00  0.00     0.069 A 
HETATM    4  N1  UNL     1      15.659  17.916  13.092  1.00  0.00    -0.353 N 
ATOM      5  H1  UNL     1      16.324  17.885  12.318  1.00  0.00     0.166 HD
HETATM    6  C6  UNL     1      15.490  16.808  13.863  1.00  0.00     0.043 A 
HETATM    7  C7  UNL     1      16.239  15.680  13.578  1.00  0.00     0.030 A 
HETATM    8  C8  UNL     1      16.087  14.561  14.360  1.00  0.00     0.002 A 
HETATM    9  C9  UNL     1      15.214  14.527  15.414  1.00  0.00     0.001 A 
HETATM   10  C10 UNL     1      14.460  15.666  15.699  1.00  0.00     0.014 A 
HETATM   11  C11 UNL     1      14.607  16.790  14.918  1.00  0.00     0.002 A 
HETATM   12  C12 UNL     1      15.142  20.204  12.419  1.00  0.00     0.022 A 
HETATM   13  C13 UNL     1      16.155  20.120  11.454  1.00  0.00     0.016 A 
HETATM   14  C14 UNL     1      16.445  21.174  10.634  1.00  0.00     0.004 A 
HETATM   15  C15 UNL     1      15.724  22.334  10.767  1.00  0.00     0.039 A 
HETATM   16  C16 UNL     1      14.712  22.446  11.713  1.00  0.00     0.097 A 
HETATM   17  C27 UNL     1      14.426  21.365  12.539  1.00  0.00     0.090 A 
HETATM   18  N3  UNL     1      13.320  21.523  13.428  1.00  0.00    -0.272 N 
HETATM   19  C28 UNL     1      12.306  22.513  13.147  1.00  0.00     0.170 C 
HETATM   20  S1  UNL     1      13.225  20.485  14.802  1.00  0.00     0.268 S 
HETATM   21  O2  UNL     1      11.832  20.203  15.215  1.00  0.00    -0.200 OA
HETATM   22  O3  UNL     1      14.022  21.151  15.905  1.00  0.00    -0.200 OA
ENDROOT
BRANCH  16  23
HETATM   23  O1  UNL     1      14.026  23.640  11.800  1.00  0.00    -0.343 OA
BRANCH  23  24
HETATM   24  C17 UNL     1      14.733  24.841  11.603  1.00  0.00     0.232 C 
BRANCH  24  25
HETATM   25  C18 UNL     1      14.703  25.769  12.738  1.00  0.00     0.034 A 
HETATM   26  C19 UNL     1      14.122  27.031  12.596  1.00  0.00     0.028 A 
HETATM   27  C20 UNL     1      14.094  27.897  13.645  1.00  0.00     0.016 A 
HETATM   28  C21 UNL     1      14.632  27.567  14.875  1.00  0.00    -0.009 A 
HETATM   29  C22 UNL     1      14.610  28.433  15.943  1.00  0.00     0.013 A 
HETATM   30  C26 UNL     1      15.200  26.315  14.990  1.00  0.00     0.042 A 
HETATM   31  C23 UNL     1      15.164  28.050  17.149  1.00  0.00     0.001 A 
HETATM   32  C24 UNL     1      15.739  26.811  17.305  1.00  0.00     0.002 A 
HETATM   33  C25 UNL     1      15.749  25.962  16.221  1.00  0.00     0.030 A 
HETATM   34  N2  UNL     1      15.212  25.487  13.941  1.00  0.00    -0.357 N 
ATOM     35  H2  UNL     1      15.642  24.570  14.069  1.00  0.00     0.166 HD
ENDBRANCH  24  25
ENDBRANCH  23  24
ENDBRANCH  16  23
BRANCH   1  36
HETATM   36  C2  UNL     1      12.922  18.022  16.291  1.00  0.00     0.004 C 
HETATM   37  C1  UNL     1      13.208  18.043  17.555  1.00  0.00     0.012 C 
ENDBRANCH   1  36
TORSDOF 4
ENDMDL
MODEL 4
REMARK VINA RESULT: -9.923000760      1.563      2.488
REMARK  4 active torsions:
REMARK  status: ('A' for Active; 'I' for Inactive)
REMARK    1  A    between atoms: C2_2  and  C3_3 
REMARK    2  A    between atoms: C16_18  and  O1_19 
REMARK    3  A    between atoms: O1_19  and  C17_20 
REMARK    4  A    between atoms: C17_20  and  C18_21 
ROOT
HETATM    1  C3  UNL     1      12.623  20.112  17.309  1.00  0.00     0.001 A 
HETATM    2  C4  UNL     1      13.023  20.781  16.167  1.00  0.00     0.118 A 
HETATM    3  C5  UNL     1      13.667  20.206  15.114  1.00  0.00     0.069 A 
HETATM    4  N1  UNL     1      13.921  18.879  15.227  1.00  0.00    -0.353 N 
ATOM      5  H1  UNL     1      14.401  18.398  14.466  1.00  0.00     0.166 HD
HETATM    6  C6  UNL     1      13.553  18.170  16.329  1.00  0.00     0.043 A 
HETATM    7  C7  UNL     1      13.856  16.821  16.383  1.00  0.00     0.030 A 
HETATM    8  C8  UNL     1      13.501  16.101  17.496  1.00  0.00     0.002 A 
HETATM    9  C9  UNL     1      12.855  16.677  18.557  1.00  0.00     0.001 A 
HETATM   10  C10 UNL     1      12.550  18.037  18.499  1.00  0.00     0.014 A 
HETATM   11  C11 UNL     1      12.901  18.765  17.384  1.00  0.00     0.002 A 
HETATM   12  C12 UNL     1      14.029  20.907  13.874  1.00  0.00     0.022 A 
HETATM   13  C13 UNL     1      14.786  20.202  12.928  1.00  0.00     0.016 A 
HETATM   14  C14 UNL     1      15.243  20.807  11.790  1.00  0.00     0.004 A 
HETATM   15  C15 UNL     1      14.949  22.131  11.580  1.00  0.00     0.039 A 
HETATM   16  C16 UNL     1      14.199  22.855  12.500  1.00  0.00     0.097 A 
HETATM   17  C27 UNL     1      13.739  22.227  13.652  1.00  0.00     0.090 A 
HETATM   18  N3  UNL     1      12.905  23.007  14.508  1.00  0.00    -0.272 N 
HETATM   19  C28 UNL     1      12.214  24.163  13.983  1.00  0.00     0.170 C 
HETATM   20  S1  UNL     1      12.730  22.509  16.150  1.00  0.00     0.268 S 
HETATM   21  O2  UNL     1      11.410  22.861  16.721  1.00  0.00    -0.200 OA
HETATM   22  O3  UNL     1      13.870  23.144  16.919  1.00  0.00    -0.200 OA
ENDROOT
BRANCH  16  23
HETATM   23  O1  UNL     1      13.941  24.183  12.234  1.00  0.00    -0.343 OA
BRANCH  23  24
HETATM   24  C17 UNL     1      15.012  25.097  12.253  1.00  0.00     0.232 C 
BRANCH  24  25
HETATM   25  C18 UNL     1      15.120  25.896  13.477  1.00  0.00     0.034 A 
HETATM   26  C19 UNL     1      15.646  25.329  14.640  1.00  0.00     0.028 A 
HETATM   27  C20 UNL     1      15.746  26.066  15.780  1.00  0.00     0.016 A 
HETATM   28  C21 UNL     1      15.337  27.385  15.831  1.00  0.00    -0.009 A 
HETATM   29  C22 UNL     1      15.433  28.140  16.977  1.00  0.00     0.013 A 
HETATM   30  C26 UNL     1      14.822  27.923  14.671  1.00  0.00     0.042 A 
HETATM   31  C23 UNL     1      15.008  29.454  16.971  1.00  0.00     0.001 A 
HETATM   32  C24 UNL     1      14.489  30.027  15.834  1.00  0.00     0.002 A 
HETATM   33  C25 UNL     1      14.403  29.251  14.700  1.00  0.00     0.030 A 
HETATM   34  N2  UNL     1      14.736  27.174  13.566  1.00  0.00    -0.357 N 
ATOM     35  H2  UNL     1      14.348  27.610  12.730  1.00  0.00     0.166 HD
ENDBRANCH  24  25
ENDBRANCH  23  24
ENDBRANCH  16  23
BRANCH   1  36
HETATM   36  C2  UNL     1      11.940  20.844  18.382  1.00  0.00     0.004 C 
HETATM   37  C1  UNL     1      10.746  20.610  18.827  1.00  0.00     0.012 C 
ENDBRANCH   1  36
TORSDOF 4
ENDMDL
MODEL 5
REMARK VINA RESULT: -9.589250934      3.771      6.653
REMARK  4 active torsions:
REMARK  status: ('A' for Active; 'I' for Inactive)
REMARK    1  A    between atoms: C2_2  and  C3_3 
REMARK    2  A    between atoms: C16_18  and  O1_19 
REMARK    3  A    between atoms: O1_19  and  C17_20 
REMARK    4  A    between atoms: C17_20  and  C18_21 
ROOT
HETATM    1  C3  UNL     1      10.628  18.186  18.360  1.00  0.00     0.001 A 
HETATM    2  C4  UNL     1      11.097  19.098  17.433  1.00  0.00     0.118 A 
HETATM    3  C5  UNL     1      10.915  20.446  17.508  1.00  0.00     0.069 A 
HETATM    4  N1  UNL     1      10.216  20.891  18.581  1.00  0.00    -0.353 N 
ATOM      5  H1  UNL     1      10.051  21.893  18.685  1.00  0.00     0.166 HD
HETATM    6  C6  UNL     1       9.728  20.039  19.523  1.00  0.00     0.043 A 
HETATM    7  C7  UNL     1       9.012  20.561  20.585  1.00  0.00     0.030 A 
HETATM    8  C8  UNL     1       8.504  19.708  21.533  1.00  0.00     0.002 A 
HETATM    9  C9  UNL     1       8.685  18.353  21.459  1.00  0.00     0.001 A 
HETATM   10  C10 UNL     1       9.407  17.829  20.387  1.00  0.00     0.014 A 
HETATM   11  C11 UNL     1       9.922  18.680  19.435  1.00  0.00     0.002 A 
HETATM   12  C12 UNL     1      11.474  21.416  16.557  1.00  0.00     0.022 A 
HETATM   13  C13 UNL     1      11.105  22.761  16.709  1.00  0.00     0.016 A 
HETATM   14  C14 UNL     1      11.505  23.714  15.815  1.00  0.00     0.004 A 
HETATM   15  C15 UNL     1      12.283  23.336  14.749  1.00  0.00     0.039 A 
HETATM   16  C16 UNL     1      12.666  22.011  14.573  1.00  0.00     0.097 A 
HETATM   17  C27 UNL     1      12.254  21.053  15.491  1.00  0.00     0.090 A 
HETATM   18  N3  UNL     1      12.754  19.731  15.294  1.00  0.00    -0.272 N 
HETATM   19  C28 UNL     1      13.952  19.523  14.512  1.00  0.00     0.170 C 
HETATM   20  S1  UNL     1      11.912  18.421  16.037  1.00  0.00     0.268 S 
HETATM   21  O2  UNL     1      12.802  17.295  16.397  1.00  0.00    -0.200 OA
HETATM   22  O3  UNL     1      10.826  18.000  15.069  1.00  0.00    -0.200 OA
ENDROOT
BRANCH  16  23
HETATM   23  O1  UNL     1      13.445  21.695  13.479  1.00  0.00    -0.343 OA
BRANCH  23  24
HETATM   24  C17 UNL     1      14.002  22.742  12.721  1.00  0.00     0.232 C 
BRANCH  24  25
HETATM   25  C18 UNL     1      15.461  22.694  12.581  1.00  0.00     0.034 A 
HETATM   26  C19 UNL     1      16.260  23.616  13.262  1.00  0.00     0.028 A 
HETATM   27  C20 UNL     1      17.614  23.579  13.134  1.00  0.00     0.016 A 
HETATM   28  C21 UNL     1      18.243  22.641  12.337  1.00  0.00    -0.009 A 
HETATM   29  C22 UNL     1      19.611  22.592  12.200  1.00  0.00     0.013 A 
HETATM   30  C26 UNL     1      17.434  21.741  11.676  1.00  0.00     0.042 A 
HETATM   31  C23 UNL     1      20.187  21.633  11.390  1.00  0.00     0.001 A 
HETATM   32  C24 UNL     1      19.413  20.718  10.714  1.00  0.00     0.002 A 
HETATM   33  C25 UNL     1      18.047  20.787  10.868  1.00  0.00     0.030 A 
HETATM   34  N2  UNL     1      16.106  21.803  11.822  1.00  0.00    -0.357 N 
ATOM     35  H2  UNL     1      15.544  21.120  11.315  1.00  0.00     0.166 HD
ENDBRANCH  24  25
ENDBRANCH  23  24
ENDBRANCH  16  23
BRANCH   1  36
HETATM   36  C2  UNL     1      10.884  16.753  18.166  1.00  0.00     0.004 C 
HETATM   37  C1  UNL     1      10.004  15.855  17.853  1.00  0.00     0.012 C 
ENDBRANCH   1  36
TORSDOF 4
ENDMDL
