MODEL 1
REMARK VINA RESULT: -9.576119850      0.000      0.000
REMARK  14 active torsions:
REMARK  status: ('A' for Active; 'I' for Inactive)
REMARK    1  A    between atoms: N2_6  and  C5_7 
REMARK    2  A    between atoms: C5_7  and  C6_8 
REMARK    3  A    between atoms: C6_8  and  C7_9 
REMARK    4  A    between atoms: C7_9  and  C8_10 
REMARK    5  A    between atoms: C8_10  and  C9_11 
REMARK    6  A    between atoms: C9_11  and  C10_12 
REMARK    7  A    between atoms: C10_12  and  C11_13 
REMARK    8  A    between atoms: C11_13  and  C12_14 
REMARK       I    between atoms: C12_14  and  N3_16 
REMARK    9  A    between atoms: N3_16  and  C13_17 
REMARK   10  A    between atoms: N3_16  and  C21_28 
REMARK   11  A    between atoms: C13_17  and  C14_18 
REMARK   12  A    between atoms: C14_18  and  C15_19 
REMARK   13  A    between atoms: C18_22  and  O2_23 
REMARK   14  A    between atoms: C24_34  and  N5_35 
ROOT
HETATM    1  C12 UNL     1      20.468  46.287  45.406  1.00  0.00     0.225 C 
HETATM    2  O1  UNL     1      19.395  46.638  45.961  1.00  0.00    -0.273 OA
HETATM    3  N3  UNL     1      21.153  47.176  44.503  1.00  0.00    -0.303 N 
ENDROOT
BRANCH   3   4
HETATM    4  C13 UNL     1      20.660  48.506  44.310  1.00  0.00     0.138 C 
BRANCH   4   5
HETATM    5  C14 UNL     1      21.654  49.561  43.999  1.00  0.00     0.059 C 
BRANCH   5   6
HETATM    6  C15 UNL     1      22.349  50.185  45.137  1.00  0.00    -0.055 A 
HETATM    7  C16 UNL     1      22.777  51.510  45.111  1.00  0.00     0.010 A 
HETATM    8  C17 UNL     1      23.440  52.056  46.200  1.00  0.00     0.038 A 
HETATM    9  C18 UNL     1      23.699  51.322  47.333  1.00  0.00     0.083 A 
HETATM   10  C19 UNL     1      23.289  50.021  47.382  1.00  0.00     0.044 A 
HETATM   11 BR1  UNL     1      23.640  48.985  48.948  1.00  0.00    -0.048 Br
HETATM   12  C20 UNL     1      22.626  49.472  46.297  1.00  0.00     0.029 A 
BRANCH   9  13
HETATM   13  O2  UNL     1      24.369  51.867  48.436  1.00  0.00    -0.359 OA
ATOM     14  H2  UNL     1      25.176  51.495  48.771  1.00  0.00     0.217 HD
ENDBRANCH   9  13
ENDBRANCH   5   6
ENDBRANCH   4   5
ENDBRANCH   3   4
BRANCH   3  15
HETATM   15  C21 UNL     1      22.300  46.770  43.809  1.00  0.00     0.131 A 
HETATM   16  C22 UNL     1      22.316  46.303  42.519  1.00  0.00     0.124 A 
HETATM   17  C23 UNL     1      23.543  45.936  41.975  1.00  0.00     0.263 A 
HETATM   18  O3  UNL     1      23.567  45.508  40.796  1.00  0.00    -0.268 OA
HETATM   19  N4  UNL     1      24.662  46.039  42.692  1.00  0.00    -0.156 N 
HETATM   20  C24 UNL     1      24.651  46.495  43.950  1.00  0.00     0.680 A 
ATOM     21  H4  UNL     1      25.550  45.764  42.271  1.00  0.00     0.187 HD
HETATM   22  N6  UNL     1      23.479  46.852  44.493  1.00  0.00    -0.176 N 
ATOM     23  H6  UNL     1      23.467  47.199  45.452  1.00  0.00     0.186 HD
BRANCH  20  24
HETATM   24  N5  UNL     1      25.758  46.578  44.603  1.00  0.00    -0.234 N 
ATOM     25  H52 UNL     1      26.657  46.677  44.131  1.00  0.00     0.174 HD
ATOM     26  H51 UNL     1      25.743  46.544  45.623  1.00  0.00     0.174 HD
ENDBRANCH  20  24
ENDBRANCH   3  15
BRANCH   1  27
HETATM   27  C11 UNL     1      21.082  44.961  45.639  1.00  0.00     0.103 C 
BRANCH  27  28
HETATM   28  C10 UNL     1      20.070  43.859  45.572  1.00  0.00     0.009 C 
BRANCH  28  29
HETATM   29  C9  UNL     1      19.505  43.628  44.226  1.00  0.00     0.001 C 
BRANCH  29  30
HETATM   30  C8  UNL     1      18.022  43.988  44.100  1.00  0.00     0.004 C 
BRANCH  30  31
HETATM   31  C7  UNL     1      17.813  44.819  42.910  1.00  0.00     0.028 C 
BRANCH  31  32
HETATM   32  C6  UNL     1      16.967  44.368  41.801  1.00  0.00    -0.009 C 
BRANCH  32  33
HETATM   33  C5  UNL     1      15.664  44.909  41.469  1.00  0.00     0.095 C 
BRANCH  33  34
HETATM   34  N2  UNL     1      15.444  46.177  40.906  1.00  0.00    -0.307 N 
HETATM   35  C4  UNL     1      16.429  47.046  40.563  1.00  0.00     0.100 A 
HETATM   36  C3  UNL     1      16.233  48.277  40.028  1.00  0.00     0.035 A 
HETATM   37  C2  UNL     1      14.959  48.705  39.806  1.00  0.00     0.094 A 
HETATM   38  N1  UNL     1      13.956  47.855  40.140  1.00  0.00    -0.335 N 
HETATM   39  C1  UNL     1      12.600  48.318  39.898  1.00  0.00     0.158 C 
HETATM   40  C25 UNL     1      14.199  46.634  40.672  1.00  0.00     0.200 A 
HETATM   41  N7  UNL     1      13.043  45.836  40.972  1.00  0.00    -0.062 NA
ENDBRANCH  33  34
ENDBRANCH  32  33
ENDBRANCH  31  32
ENDBRANCH  30  31
ENDBRANCH  29  30
ENDBRANCH  28  29
ENDBRANCH  27  28
ENDBRANCH   1  27
TORSDOF 14
ENDMDL
MODEL 2
REMARK VINA RESULT: -9.497651762      3.620      9.223
REMARK  14 active torsions:
REMARK  status: ('A' for Active; 'I' for Inactive)
REMARK    1  A    between atoms: N2_6  and  C5_7 
REMARK    2  A    between atoms: C5_7  and  C6_8 
REMARK    3  A    between atoms: C6_8  and  C7_9 
REMARK    4  A    between atoms: C7_9  and  C8_10 
REMARK    5  A    between atoms: C8_10  and  C9_11 
REMARK    6  A    between atoms: C9_11  and  C10_12 
REMARK    7  A    between atoms: C10_12  and  C11_13 
REMARK    8  A    between atoms: C11_13  and  C12_14 
REMARK       I    between atoms: C12_14  and  N3_16 
REMARK    9  A    between atoms: N3_16  and  C13_17 
REMARK   10  A    between atoms: N3_16  and  C21_28 
REMARK   11  A    between atoms: C13_17  and  C14_18 
REMARK   12  A    between atoms: C14_18  and  C15_19 
REMARK   13  A    between atoms: C18_22  and  O2_23 
REMARK   14  A    between atoms: C24_34  and  N5_35 
ROOT
HETATM    1  C12 UNL     1      20.053  47.185  44.984  1.00  0.00     0.225 C 
HETATM    2  O1  UNL     1      18.929  47.567  45.400  1.00  0.00    -0.273 OA
HETATM    3  N3  UNL     1      20.171  46.003  44.170  1.00  0.00    -0.303 N 
ENDROOT
BRANCH   3   4
HETATM    4  C13 UNL     1      18.990  45.312  43.750  1.00  0.00     0.138 C 
BRANCH   4   5
HETATM    5  C14 UNL     1      18.728  45.238  42.293  1.00  0.00     0.059 C 
BRANCH   5   6
HETATM    6  C15 UNL     1      17.326  45.335  41.858  1.00  0.00    -0.055 A 
HETATM    7  C16 UNL     1      16.428  44.280  42.001  1.00  0.00     0.010 A 
HETATM    8  C17 UNL     1      15.117  44.408  41.566  1.00  0.00     0.038 A 
HETATM    9  C18 UNL     1      14.657  45.565  40.983  1.00  0.00     0.083 A 
HETATM   10  C19 UNL     1      15.519  46.612  40.831  1.00  0.00     0.044 A 
HETATM   11 BR1  UNL     1      14.898  48.228  40.023  1.00  0.00    -0.048 Br
HETATM   12  C20 UNL     1      16.828  46.489  41.265  1.00  0.00     0.029 A 
BRANCH   9  13
HETATM   13  O2  UNL     1      13.335  45.701  40.541  1.00  0.00    -0.359 OA
ATOM     14  H2  UNL     1      12.644  46.022  41.107  1.00  0.00     0.217 HD
ENDBRANCH   9  13
ENDBRANCH   5   6
ENDBRANCH   4   5
ENDBRANCH   3   4
BRANCH   3  15
HETATM   15  C21 UNL     1      21.422  45.513  43.773  1.00  0.00     0.131 A 
HETATM   16  C22 UNL     1      22.235  44.714  44.537  1.00  0.00     0.124 A 
HETATM   17  C23 UNL     1      23.452  44.315  43.994  1.00  0.00     0.263 A 
HETATM   18  O3  UNL     1      24.201  43.584  44.686  1.00  0.00    -0.268 OA
HETATM   19  N4  UNL     1      23.808  44.702  42.769  1.00  0.00    -0.156 N 
HETATM   20  C24 UNL     1      23.019  45.480  42.020  1.00  0.00     0.680 A 
ATOM     21  H4  UNL     1      24.706  44.396  42.393  1.00  0.00     0.187 HD
HETATM   22  N6  UNL     1      21.843  45.876  42.525  1.00  0.00    -0.176 N 
ATOM     23  H6  UNL     1      21.239  46.471  41.958  1.00  0.00     0.186 HD
BRANCH  20  24
HETATM   24  N5  UNL     1      23.406  45.828  40.842  1.00  0.00    -0.234 N 
ATOM     25  H52 UNL     1      23.072  45.354  40.002  1.00  0.00     0.174 HD
ATOM     26  H51 UNL     1      24.065  46.598  40.737  1.00  0.00     0.174 HD
ENDBRANCH  20  24
ENDBRANCH   3  15
BRANCH   1  27
HETATM   27  C11 UNL     1      21.302  47.911  45.303  1.00  0.00     0.103 C 
BRANCH  27  28
HETATM   28  C10 UNL     1      21.525  49.070  44.381  1.00  0.00     0.009 C 
BRANCH  28  29
HETATM   29  C9  UNL     1      22.871  49.118  43.772  1.00  0.00     0.001 C 
BRANCH  29  30
HETATM   30  C8  UNL     1      23.860  50.020  44.515  1.00  0.00     0.004 C 
BRANCH  30  31
HETATM   31  C7  UNL     1      23.133  51.080  45.219  1.00  0.00     0.028 C 
BRANCH  31  32
HETATM   32  C6  UNL     1      23.146  51.176  46.682  1.00  0.00    -0.009 C 
BRANCH  32  33
HETATM   33  C5  UNL     1      23.529  50.110  47.587  1.00  0.00     0.095 C 
BRANCH  33  34
HETATM   34  N2  UNL     1      23.452  50.185  48.988  1.00  0.00    -0.307 N 
HETATM   35  C4  UNL     1      24.020  51.164  49.738  1.00  0.00     0.100 A 
HETATM   36  C3  UNL     1      23.962  51.244  51.091  1.00  0.00     0.035 A 
HETATM   37  C2  UNL     1      23.288  50.282  51.780  1.00  0.00     0.094 A 
HETATM   38  N1  UNL     1      22.711  49.292  51.055  1.00  0.00    -0.335 N 
HETATM   39  C1  UNL     1      21.992  48.272  51.797  1.00  0.00     0.158 C 
HETATM   40  C25 UNL     1      22.794  49.253  49.704  1.00  0.00     0.200 A 
HETATM   41  N7  UNL     1      22.130  48.152  49.063  1.00  0.00    -0.062 NA
ENDBRANCH  33  34
ENDBRANCH  32  33
ENDBRANCH  31  32
ENDBRANCH  30  31
ENDBRANCH  29  30
ENDBRANCH  28  29
ENDBRANCH  27  28
ENDBRANCH   1  27
TORSDOF 14
ENDMDL
MODEL 3
REMARK VINA RESULT: -9.408069239      3.548      9.154
REMARK  14 active torsions:
REMARK  status: ('A' for Active; 'I' for Inactive)
REMARK    1  A    between atoms: N2_6  and  C5_7 
REMARK    2  A    between atoms: C5_7  and  C6_8 
REMARK    3  A    between atoms: C6_8  and  C7_9 
REMARK    4  A    between atoms: C7_9  and  C8_10 
REMARK    5  A    between atoms: C8_10  and  C9_11 
REMARK    6  A    between atoms: C9_11  and  C10_12 
REMARK    7  A    between atoms: C10_12  and  C11_13 
REMARK    8  A    between atoms: C11_13  and  C12_14 
REMARK       I    between atoms: C12_14  and  N3_16 
REMARK    9  A    between atoms: N3_16  and  C13_17 
REMARK   10  A    between atoms: N3_16  and  C21_28 
REMARK   11  A    between atoms: C13_17  and  C14_18 
REMARK   12  A    between atoms: C14_18  and  C15_19 
REMARK   13  A    between atoms: C18_22  and  O2_23 
REMARK   14  A    between atoms: C24_34  and  N5_35 
ROOT
HETATM    1  C12 UNL     1      20.145  47.345  45.028  1.00  0.00     0.225 C 
HETATM    2  O1  UNL     1      19.032  47.721  45.478  1.00  0.00    -0.273 OA
HETATM    3  N3  UNL     1      20.238  46.198  44.162  1.00  0.00    -0.303 N 
ENDROOT
BRANCH   3   4
HETATM    4  C13 UNL     1      19.043  45.538  43.732  1.00  0.00     0.138 C 
BRANCH   4   5
HETATM    5  C14 UNL     1      18.770  45.507  42.275  1.00  0.00     0.059 C 
BRANCH   5   6
HETATM    6  C15 UNL     1      17.360  45.504  41.857  1.00  0.00    -0.055 A 
HETATM    7  C16 UNL     1      16.528  44.403  42.049  1.00  0.00     0.010 A 
HETATM    8  C17 UNL     1      15.207  44.437  41.627  1.00  0.00     0.038 A 
HETATM    9  C18 UNL     1      14.671  45.543  41.012  1.00  0.00     0.083 A 
HETATM   10  C19 UNL     1      15.466  46.634  40.812  1.00  0.00     0.044 A 
HETATM   11 BR1  UNL     1      14.740  48.180  39.957  1.00  0.00    -0.048 Br
HETATM   12  C20 UNL     1      16.786  46.605  41.231  1.00  0.00     0.029 A 
BRANCH   9  13
HETATM   13  O2  UNL     1      13.338  45.583  40.583  1.00  0.00    -0.359 OA
ATOM     14  H2  UNL     1      13.073  46.059  39.805  1.00  0.00     0.217 HD
ENDBRANCH   9  13
ENDBRANCH   5   6
ENDBRANCH   4   5
ENDBRANCH   3   4
BRANCH   3  15
HETATM   15  C21 UNL     1      21.477  45.712  43.723  1.00  0.00     0.131 A 
HETATM   16  C22 UNL     1      22.018  45.940  42.483  1.00  0.00     0.124 A 
HETATM   17  C23 UNL     1      23.261  45.381  42.203  1.00  0.00     0.263 A 
HETATM   18  O3  UNL     1      23.764  45.585  41.072  1.00  0.00    -0.268 OA
HETATM   19  N4  UNL     1      23.898  44.649  43.117  1.00  0.00    -0.156 N 
HETATM   20  C24 UNL     1      23.374  44.425  44.328  1.00  0.00     0.680 A 
ATOM     21  H4  UNL     1      24.808  44.250  42.888  1.00  0.00     0.187 HD
HETATM   22  N6  UNL     1      22.177  44.954  44.617  1.00  0.00    -0.176 N 
ATOM     23  H6  UNL     1      21.774  44.783  45.538  1.00  0.00     0.186 HD
BRANCH  20  24
HETATM   24  N5  UNL     1      24.027  43.711  45.178  1.00  0.00    -0.234 N 
ATOM     25  H52 UNL     1      24.622  44.133  45.893  1.00  0.00     0.174 HD
ATOM     26  H51 UNL     1      23.952  42.695  45.143  1.00  0.00     0.174 HD
ENDBRANCH  20  24
ENDBRANCH   3  15
BRANCH   1  27
HETATM   27  C11 UNL     1      21.408  48.043  45.358  1.00  0.00     0.103 C 
BRANCH  27  28
HETATM   28  C10 UNL     1      21.767  49.064  44.323  1.00  0.00     0.009 C 
BRANCH  28  29
HETATM   29  C9  UNL     1      20.882  50.248  44.298  1.00  0.00     0.001 C 
BRANCH  29  30
HETATM   30  C8  UNL     1      21.442  51.462  45.043  1.00  0.00     0.004 C 
BRANCH  30  31
HETATM   31  C7  UNL     1      22.865  51.255  45.330  1.00  0.00     0.028 C 
BRANCH  31  32
HETATM   32  C6  UNL     1      23.382  51.293  46.702  1.00  0.00    -0.009 C 
BRANCH  32  33
HETATM   33  C5  UNL     1      23.514  50.147  47.579  1.00  0.00     0.095 C 
BRANCH  33  34
HETATM   34  N2  UNL     1      23.442  50.201  48.981  1.00  0.00    -0.307 N 
HETATM   35  C4  UNL     1      24.020  51.164  49.744  1.00  0.00     0.100 A 
HETATM   36  C3  UNL     1      23.968  51.224  51.098  1.00  0.00     0.035 A 
HETATM   37  C2  UNL     1      23.289  50.257  51.775  1.00  0.00     0.094 A 
HETATM   38  N1  UNL     1      22.702  49.283  51.037  1.00  0.00    -0.335 N 
HETATM   39  C1  UNL     1      21.978  48.256  51.766  1.00  0.00     0.158 C 
HETATM   40  C25 UNL     1      22.780  49.263  49.686  1.00  0.00     0.200 A 
HETATM   41  N7  UNL     1      22.106  48.177  49.030  1.00  0.00    -0.062 NA
ENDBRANCH  33  34
ENDBRANCH  32  33
ENDBRANCH  31  32
ENDBRANCH  30  31
ENDBRANCH  29  30
ENDBRANCH  28  29
ENDBRANCH  27  28
ENDBRANCH   1  27
TORSDOF 14
ENDMDL
MODEL 4
REMARK VINA RESULT: -9.239846305      4.145      9.771
REMARK  14 active torsions:
REMARK  status: ('A' for Active; 'I' for Inactive)
REMARK    1  A    between atoms: N2_6  and  C5_7 
REMARK    2  A    between atoms: C5_7  and  C6_8 
REMARK    3  A    between atoms: C6_8  and  C7_9 
REMARK    4  A    between atoms: C7_9  and  C8_10 
REMARK    5  A    between atoms: C8_10  and  C9_11 
REMARK    6  A    between atoms: C9_11  and  C10_12 
REMARK    7  A    between atoms: C10_12  and  C11_13 
REMARK    8  A    between atoms: C11_13  and  C12_14 
REMARK       I    between atoms: C12_14  and  N3_16 
REMARK    9  A    between atoms: N3_16  and  C13_17 
REMARK   10  A    between atoms: N3_16  and  C21_28 
REMARK   11  A    between atoms: C13_17  and  C14_18 
REMARK   12  A    between atoms: C14_18  and  C15_19 
REMARK   13  A    between atoms: C18_22  and  O2_23 
REMARK   14  A    between atoms: C24_34  and  N5_35 
ROOT
HETATM    1  C12 UNL     1      20.063  47.169  45.044  1.00  0.00     0.225 C 
HETATM    2  O1  UNL     1      18.929  47.479  45.491  1.00  0.00    -0.273 OA
HETATM    3  N3  UNL     1      20.217  46.066  44.131  1.00  0.00    -0.303 N 
ENDROOT
BRANCH   3   4
HETATM    4  C13 UNL     1      19.057  45.377  43.654  1.00  0.00     0.138 C 
BRANCH   4   5
HETATM    5  C14 UNL     1      18.761  45.467  42.204  1.00  0.00     0.059 C 
BRANCH   5   6
HETATM    6  C15 UNL     1      17.344  45.470  41.807  1.00  0.00    -0.055 A 
HETATM    7  C16 UNL     1      16.512  44.372  42.012  1.00  0.00     0.010 A 
HETATM    8  C17 UNL     1      15.184  44.411  41.611  1.00  0.00     0.038 A 
HETATM    9  C18 UNL     1      14.643  45.520  41.004  1.00  0.00     0.083 A 
HETATM   10  C19 UNL     1      15.439  46.608  40.792  1.00  0.00     0.044 A 
HETATM   11 BR1  UNL     1      14.705  48.157  39.949  1.00  0.00    -0.048 Br
HETATM   12  C20 UNL     1      16.765  46.573  41.191  1.00  0.00     0.029 A 
BRANCH   9  13
HETATM   13  O2  UNL     1      13.304  45.565  40.596  1.00  0.00    -0.359 OA
ATOM     14  H2  UNL     1      12.823  46.382  40.534  1.00  0.00     0.217 HD
ENDBRANCH   9  13
ENDBRANCH   5   6
ENDBRANCH   4   5
ENDBRANCH   3   4
BRANCH   3  15
HETATM   15  C21 UNL     1      21.481  45.651  43.693  1.00  0.00     0.131 A 
HETATM   16  C22 UNL     1      22.009  45.910  42.453  1.00  0.00     0.124 A 
HETATM   17  C23 UNL     1      23.281  45.422  42.173  1.00  0.00     0.263 A 
HETATM   18  O3  UNL     1      23.772  45.654  41.041  1.00  0.00    -0.268 OA
HETATM   19  N4  UNL     1      23.958  44.726  43.087  1.00  0.00    -0.156 N 
HETATM   20  C24 UNL     1      23.448  44.472  44.297  1.00  0.00     0.680 A 
ATOM     21  H4  UNL     1      24.890  44.379  42.857  1.00  0.00     0.187 HD
HETATM   22  N6  UNL     1      22.223  44.933  44.586  1.00  0.00    -0.176 N 
ATOM     23  H6  UNL     1      21.830  44.739  45.508  1.00  0.00     0.186 HD
BRANCH  20  24
HETATM   24  N5  UNL     1      24.140  43.797  45.147  1.00  0.00    -0.234 N 
ATOM     25  H52 UNL     1      24.086  43.975  46.151  1.00  0.00     0.174 HD
ATOM     26  H51 UNL     1      24.763  43.060  44.816  1.00  0.00     0.174 HD
ENDBRANCH  20  24
ENDBRANCH   3  15
BRANCH   1  27
HETATM   27  C11 UNL     1      21.291  47.904  45.424  1.00  0.00     0.103 C 
BRANCH  27  28
HETATM   28  C10 UNL     1      21.438  49.179  44.654  1.00  0.00     0.009 C 
BRANCH  28  29
HETATM   29  C9  UNL     1      22.760  49.361  44.017  1.00  0.00     0.001 C 
BRANCH  29  30
HETATM   30  C8  UNL     1      23.708  50.275  44.797  1.00  0.00     0.004 C 
BRANCH  30  31
HETATM   31  C7  UNL     1      22.934  51.168  45.665  1.00  0.00     0.028 C 
BRANCH  31  32
HETATM   32  C6  UNL     1      23.143  52.620  45.649  1.00  0.00    -0.009 C 
BRANCH  32  33
HETATM   33  C5  UNL     1      24.308  53.304  46.172  1.00  0.00     0.095 C 
BRANCH  33  34
HETATM   34  N2  UNL     1      24.739  54.577  45.762  1.00  0.00    -0.307 N 
HETATM   35  C4  UNL     1      23.919  55.552  45.295  1.00  0.00     0.100 A 
HETATM   36  C3  UNL     1      24.320  56.782  44.886  1.00  0.00     0.035 A 
HETATM   37  C2  UNL     1      25.646  57.093  44.936  1.00  0.00     0.094 A 
HETATM   38  N1  UNL     1      26.487  56.136  45.400  1.00  0.00    -0.335 N 
HETATM   39  C1  UNL     1      27.898  56.476  45.452  1.00  0.00     0.158 C 
HETATM   40  C25 UNL     1      26.041  54.921  45.797  1.00  0.00     0.200 A 
HETATM   41  N7  UNL     1      27.042  54.006  46.272  1.00  0.00    -0.062 NA
ENDBRANCH  33  34
ENDBRANCH  32  33
ENDBRANCH  31  32
ENDBRANCH  30  31
ENDBRANCH  29  30
ENDBRANCH  28  29
ENDBRANCH  27  28
ENDBRANCH   1  27
TORSDOF 14
ENDMDL
MODEL 5
REMARK VINA RESULT: -9.112540062      0.947      1.331
REMARK  14 active torsions:
REMARK  status: ('A' for Active; 'I' for Inactive)
REMARK    1  A    between atoms: N2_6  and  C5_7 
REMARK    2  A    between atoms: C5_7  and  C6_8 
REMARK    3  A    between atoms: C6_8  and  C7_9 
REMARK    4  A    between atoms: C7_9  and  C8_10 
REMARK    5  A    between atoms: C8_10  and  C9_11 
REMARK    6  A    between atoms: C9_11  and  C10_12 
REMARK    7  A    between atoms: C10_12  and  C11_13 
REMARK    8  A    between atoms: C11_13  and  C12_14 
REMARK       I    between atoms: C12_14  and  N3_16 
REMARK    9  A    between atoms: N3_16  and  C13_17 
REMARK   10  A    between atoms: N3_16  and  C21_28 
REMARK   11  A    between atoms: C13_17  and  C14_18 
REMARK   12  A    between atoms: C14_18  and  C15_19 
REMARK   13  A    between atoms: C18_22  and  O2_23 
REMARK   14  A    between atoms: C24_34  and  N5_35 
ROOT
HETATM    1  C12 UNL     1      20.497  46.395  45.333  1.00  0.00     0.225 C 
HETATM    2  O1  UNL     1      19.398  46.769  45.816  1.00  0.00    -0.273 OA
HETATM    3  N3  UNL     1      21.278  47.282  44.510  1.00  0.00    -0.303 N 
ENDROOT
BRANCH   3   4
HETATM    4  C13 UNL     1      20.845  48.633  44.318  1.00  0.00     0.138 C 
BRANCH   4   5
HETATM    5  C14 UNL     1      21.893  49.657  44.096  1.00  0.00     0.059 C 
BRANCH   5   6
HETATM    6  C15 UNL     1      22.514  50.253  45.289  1.00  0.00    -0.055 A 
HETATM    7  C16 UNL     1      22.902  51.589  45.338  1.00  0.00     0.010 A 
HETATM    8  C17 UNL     1      23.496  52.108  46.480  1.00  0.00     0.038 A 
HETATM    9  C18 UNL     1      23.722  51.336  47.594  1.00  0.00     0.083 A 
HETATM   10  C19 UNL     1      23.351  50.023  47.569  1.00  0.00     0.044 A 
HETATM   11 BR1  UNL     1      23.658  48.933  49.108  1.00  0.00    -0.048 Br
HETATM   12  C20 UNL     1      22.757  49.500  46.433  1.00  0.00     0.029 A 
BRANCH   9  13
HETATM   13  O2  UNL     1      24.322  51.854  48.749  1.00  0.00    -0.359 OA
ATOM     14  H2  UNL     1      25.254  52.029  48.798  1.00  0.00     0.217 HD
ENDBRANCH   9  13
ENDBRANCH   5   6
ENDBRANCH   4   5
ENDBRANCH   3   4
BRANCH   3  15
HETATM   15  C21 UNL     1      22.460  46.853  43.892  1.00  0.00     0.131 A 
HETATM   16  C22 UNL     1      23.686  46.778  44.504  1.00  0.00     0.124 A 
HETATM   17  C23 UNL     1      24.765  46.334  43.746  1.00  0.00     0.263 A 
HETATM   18  O3  UNL     1      25.890  46.261  44.297  1.00  0.00    -0.268 OA
HETATM   19  N4  UNL     1      24.603  45.995  42.467  1.00  0.00    -0.156 N 
HETATM   20  C24 UNL     1      23.409  46.066  41.866  1.00  0.00     0.680 A 
ATOM     21  H4  UNL     1      25.409  45.672  41.932  1.00  0.00     0.187 HD
HETATM   22  N6  UNL     1      22.357  46.493  42.579  1.00  0.00    -0.176 N 
ATOM     23  H6  UNL     1      21.446  46.550  42.124  1.00  0.00     0.186 HD
BRANCH  20  24
HETATM   24  N5  UNL     1      23.301  45.727  40.628  1.00  0.00    -0.234 N 
ATOM     25  H52 UNL     1      22.871  44.847  40.346  1.00  0.00     0.174 HD
ATOM     26  H51 UNL     1      23.654  46.353  39.904  1.00  0.00     0.174 HD
ENDBRANCH  20  24
ENDBRANCH   3  15
BRANCH   1  27
HETATM   27  C11 UNL     1      21.047  45.042  45.574  1.00  0.00     0.103 C 
BRANCH  27  28
HETATM   28  C10 UNL     1      19.965  44.014  45.691  1.00  0.00     0.009 C 
BRANCH  28  29
HETATM   29  C9  UNL     1      19.362  43.610  44.404  1.00  0.00     0.001 C 
BRANCH  29  30
HETATM   30  C8  UNL     1      17.885  43.990  44.259  1.00  0.00     0.004 C 
BRANCH  30  31
HETATM   31  C7  UNL     1      17.706  44.838  43.077  1.00  0.00     0.028 C 
BRANCH  31  32
HETATM   32  C6  UNL     1      16.965  44.365  41.903  1.00  0.00    -0.009 C 
BRANCH  32  33
HETATM   33  C5  UNL     1      15.680  44.871  41.464  1.00  0.00     0.095 C 
BRANCH  33  34
HETATM   34  N2  UNL     1      15.470  46.143  40.907  1.00  0.00    -0.307 N 
HETATM   35  C4  UNL     1      16.461  47.007  40.566  1.00  0.00     0.100 A 
HETATM   36  C3  UNL     1      16.273  48.242  40.037  1.00  0.00     0.035 A 
HETATM   37  C2  UNL     1      15.002  48.679  39.817  1.00  0.00     0.094 A 
HETATM   38  N1  UNL     1      13.993  47.835  40.149  1.00  0.00    -0.335 N 
HETATM   39  C1  UNL     1      12.641  48.308  39.909  1.00  0.00     0.158 C 
HETATM   40  C25 UNL     1      14.227  46.610  40.674  1.00  0.00     0.200 A 
HETATM   41  N7  UNL     1      13.066  45.819  40.972  1.00  0.00    -0.062 NA
ENDBRANCH  33  34
ENDBRANCH  32  33
ENDBRANCH  31  32
ENDBRANCH  30  31
ENDBRANCH  29  30
ENDBRANCH  28  29
ENDBRANCH  27  28
ENDBRANCH   1  27
TORSDOF 14
ENDMDL
